data_PCOD9391203
_publ_section_title
;
Structure prediction by ZEFSAII (Michael W. Deem and Ramdas Pophale) SiO2 
 PCOD9391203
Probable space group: P N N N
;
_chemical_formula_sum "Si O2"
_cell_formula_units_Z 38
_cell_length_a 9.998850
_cell_length_b 9.458242
_cell_length_c 17.255323
_cell_angle_alpha 90.000000
_cell_angle_beta 90.000000
_cell_angle_gamma 90.000000
_cell_volume 1631.862521
_symmetry_space_group_name_H-M "P N N N"
_symmetry_group_IT_number 48
_space_group.IT_coordinate_system_code '2'
_symmetry_cell_setting 'orthorhombic'
loop_
_space_group_symop_operation_xyz
x,y,z
1/2-x,1/2-y,z
x,1/2-y,1/2-z
1/2-x,y,1/2-z
-x,-y,-z
1/2+x,1/2+y,-z
-x,1/2+y,1/2+z
1/2+x,-y,1/2+z
loop_
_atom_site_type_symbol
_atom_site_label
_atom_site_fract_x
_atom_site_fract_y
_atom_site_fract_z
Si Si1 0.953555 0.758412 0.424110
Si Si2 0.099473 0.220600 0.092692
Si Si3 0.926763 0.466075 0.150078
Si Si4 0.951156 0.049347 0.808594
Si Si5 0.750000 0.250000 0.250000
Si Si6 0.250000 0.750000 0.381970
O O1 0.907418 0.682944 0.502232
O O2 0.944939 0.652697 0.351520
O O3 0.115559 0.789155 0.429530
O O4 0.879822 0.903680 0.402731
O O5 0.250000 0.250000 0.117232
O O6 0.019076 0.364899 0.099660
O O7 0.042669 0.101316 0.149194
O O8 0.827943 0.358967 0.193840
O O9 0.014155 0.535509 0.219345
O O10 0.809721 0.122169 0.830594
#
# Coordination Sequence:
#
# PCOD9391203 Si02
#       6
#     8   8   8   8   2   4
#     4  10  24  44  71 106 143 186 240 291 362 426
#     4  12  25  43  70 109 147 189 236 297 362 431
#     4  12  25  48  70 105 139 192 242 299 367 428
#     4  10  22  46  71 105 140 186 242 293 362 422
#     4  12  28  50  72 102 148 196 240 314 368 426
#     4   8  22  40  78 103 139 190 230 300 349 423
#
# _framework density 23.286275
#
# number of rings (size 3 to 8) (size 9 to 14) (size 15 to 20)
#    1.263    0.000    2.105    3.158    0.000    7.579 
#    3.789    1.053    0.000    0.000    0.000    0.000 
#    0.000    0.000    0.000    0.000    0.000    0.000 
#
# Total GULP energy -212262.208127 kJ/mol
# GULP energy per Si atom -5585.847582 kJ/mol
# Density = 2.323327 g / cm^3
# Si number density = 23.286275 Si / 1000 Ang^3
#
#
#
# Elastic Constant Matrix: (Units=GPa)
#
#
# Indices 1 2 3 4 5 6 
#
# 1 43.3065 -16.0974 -18.3422 0.0000 0.0000 0.0000
# 2 -16.0974 60.2147 -4.6674 0.0000 0.0000 0.0000
# 3 -18.3422 -4.6674 66.6095 0.0000 0.0000 0.0000
# 4 0.0000 0.0000 0.0000 -104.1583 0.0000 0.0000
# 5 0.0000 0.0000 0.0000 0.0000 17.9140 0.0000
# 6 0.0000 0.0000 0.0000 0.0000 0.0000 12.3112
#
#
#
# Elastic Compliance Matrix: (Units=1/GPa)
#
#
# Indices 1 2 3 4 5 6 
#
# 1 0.030111 0.008740 0.008904 0.000000 0.000000 0.000000
# 2 0.008740 0.019235 0.003755 0.000000 0.000000 0.000000
# 3 0.008904 0.003755 0.017728 0.000000 0.000000 0.000000
# 4 0.000000 0.000000 0.000000 -0.009601 0.000000 0.000000
# 5 0.000000 0.000000 0.000000 0.000000 0.055822 0.000000
# 6 0.000000 0.000000 0.000000 0.000000 0.000000 0.081227
#
#
# Mechanical properties :
#
#
# Convention : Reuss Voigt Hill
#
# Bulk Modulus (GPa) = 9.10159 10.21296 9.65728
# Shear Modulus (GPa) = 26.54648 -0.83745 12.85452
#
# Velocity S-wave (km/s) = 3.38006 -0.60034 2.35206
# Velocity P-wave (km/s) = 4.37609 1.97859 3.39595
#
# Compressibility (1/GPa) = 0.10987088
#
# Stress axis : x y z
#
# Youngs Moduli (GPa) = 33.21023 51.98929 56.40834
#
# Poissons Ratio (x) = -0.45438 -0.50227
# Poissons Ratio (y) = -0.29025 -0.21179
# Poissons Ratio (z) = -0.29571 -0.19519
#
# Static dielectric constant tensor:
#      x y z
#    x 1.914280 0.000000 0.000000 
#    y 0.000000 1.849710 0.000000 
#    z 0.000000 0.000000 1.809940 
# 
# From -- ./inp_files/30873.got.cif
#   From: 2010.05.17/outbox.cif.g08.bks.cpg/sg48_16_cif.got.tgz:30873.got - 2010.06.03 20:39:00.
