data_PCOD9391800
_publ_section_title
;
Structure prediction by ZEFSAII (Michael W. Deem and Ramdas Pophale) SiO2 
 PCOD9391800
Probable space group: P N N N
;
_chemical_formula_sum "Si O2"
_cell_formula_units_Z 38
_cell_length_a 16.845974
_cell_length_b 10.332945
_cell_length_c 9.552505
_cell_angle_alpha 90.000000
_cell_angle_beta 90.000000
_cell_angle_gamma 90.000000
_cell_volume 1662.790435
_symmetry_space_group_name_H-M "P N N N"
_symmetry_group_IT_number 48
_space_group.IT_coordinate_system_code '2'
_symmetry_cell_setting 'orthorhombic'
loop_
_space_group_symop_operation_xyz
x,y,z
1/2-x,1/2-y,z
x,1/2-y,1/2-z
1/2-x,y,1/2-z
-x,-y,-z
1/2+x,1/2+y,-z
-x,1/2+y,1/2+z
1/2+x,-y,1/2+z
loop_
_atom_site_type_symbol
_atom_site_label
_atom_site_fract_x
_atom_site_fract_y
_atom_site_fract_z
Si Si1 0.750000 0.750000 0.250000
Si Si2 0.638646 0.837889 0.012884
Si Si3 0.519471 0.031004 0.175481
Si Si4 0.878236 0.385799 0.700922
Si Si5 0.006618 0.817483 0.950253
Si Si6 0.250000 0.420185 0.250000
O O1 0.697694 0.829334 0.142283
O O2 0.577506 0.942642 0.083378
O O3 0.585998 0.706733 0.990674
O O4 0.691200 0.855857 0.868893
O O5 0.521831 0.175525 0.114052
O O6 0.528032 0.070350 0.339526
O O7 0.435223 0.955684 0.185218
O O8 0.842760 0.250000 0.750000
O O9 0.937730 0.343480 0.579882
O O10 0.809730 0.486587 0.665110
#
# Coordination Sequence:
#
# PCOD9391800 Si02
#       6
#     2   8   8   8   8   4
#     4  12  32  42  76 102 160 200 248 316 402 454
#     4  12  26  51  72 119 151 208 250 328 390 467
#     4  11  24  45  74 110 144 204 264 313 370 482
#     4  12  23  44  72 110 150 207 257 319 385 461
#     4  11  24  44  80 101 150 206 266 310 372 475
#     4  12  29  43  80 110 168 183 261 334 404 442
#
# _framework density 22.853151
#
# number of rings (size 3 to 8) (size 9 to 14) (size 15 to 20)
#    0.000    0.421    4.211    4.105    5.895    0.421 
#    0.000    0.000    0.000    0.000    0.000    0.000 
#    0.000    0.000    0.000    0.000    0.000    0.000 
#
# Total GULP energy -211646.617789 kJ/mol
# GULP energy per Si atom -5569.647837 kJ/mol
# Density = 2.280114 g / cm^3
# Si number density = 22.853151 Si / 1000 Ang^3
#
#
#
# Elastic Constant Matrix: (Units=GPa)
#
#
# Indices 1 2 3 4 5 6 
#
# 1 126.3946 38.1033 52.1891 0.0000 0.0000 0.0000
# 2 38.1033 81.5511 22.2563 0.0000 0.0000 0.0000
# 3 52.1891 22.2563 124.2878 0.0000 0.0000 0.0000
# 4 0.0000 0.0000 0.0000 17.9847 0.0000 0.0000
# 5 0.0000 0.0000 0.0000 0.0000 27.9209 0.0000
# 6 0.0000 0.0000 0.0000 0.0000 0.0000 76.0364
#
#
#
# Elastic Compliance Matrix: (Units=1/GPa)
#
#
# Indices 1 2 3 4 5 6 
#
# 1 0.010659 -0.003952 -0.003768 0.000000 0.000000 0.000000
# 2 -0.003952 0.014357 -0.000912 0.000000 0.000000 0.000000
# 3 -0.003768 -0.000912 0.009791 0.000000 0.000000 0.000000
# 4 0.000000 0.000000 0.000000 0.055603 0.000000 0.000000
# 5 0.000000 0.000000 0.000000 0.000000 0.035815 0.000000
# 6 0.000000 0.000000 0.000000 0.000000 0.000000 0.013152
#
#
# Mechanical properties :
#
#
# Convention : Reuss Voigt Hill
#
# Bulk Modulus (GPa) = 56.99739 61.92566 59.46152
# Shear Modulus (GPa) = 30.77134 39.03405 34.90270
#
# Velocity S-wave (km/s) = 3.67342 4.13733 3.91226
# Velocity P-wave (km/s) = 6.55644 7.06961 6.81785
#
# Compressibility (1/GPa) = 0.01754466
#
# Stress axis : x y z
#
# Youngs Moduli (GPa) = 93.81806 69.65022 102.13121
#
# Poissons Ratio (x) = 0.27525 0.38484
# Poissons Ratio (y) = 0.37075 0.09310
# Poissons Ratio (z) = 0.35351 0.06349
#
# Static dielectric constant tensor:
#      x y z
#    x 1.963130 0.000000 0.000000 
#    y 0.000000 1.973710 0.000000 
#    z 0.000000 0.000000 1.907110 
# 
# From -- ./inp_files/13857.got.cif
#   From: 2010.05.17/outbox.cif.g08.bks.cpg/sg48_7_cif.got.tgz:13857.got - 2010.06.03 20:39:00.
