data_PCOD9391893
_publ_section_title
;
Structure prediction by ZEFSAII (Michael W. Deem and Ramdas Pophale) SiO2 
 PCOD9391893
Probable space group: P N N N
;
_chemical_formula_sum "Si O2"
_cell_formula_units_Z 32
_cell_length_a 18.853720
_cell_length_b 13.490761
_cell_length_c 5.395004
_cell_angle_alpha 90.000000
_cell_angle_beta 90.000000
_cell_angle_gamma 90.000000
_cell_volume 1372.224827
_symmetry_space_group_name_H-M "P N N N"
_symmetry_group_IT_number 48
_space_group.IT_coordinate_system_code '2'
_symmetry_cell_setting 'orthorhombic'
loop_
_space_group_symop_operation_xyz
x,y,z
1/2-x,1/2-y,z
x,1/2-y,1/2-z
1/2-x,y,1/2-z
-x,-y,-z
1/2+x,1/2+y,-z
-x,1/2+y,1/2+z
1/2+x,-y,1/2+z
loop_
_atom_site_type_symbol
_atom_site_label
_atom_site_fract_x
_atom_site_fract_y
_atom_site_fract_z
Si Si1 0.178008 0.600226 0.405726
Si Si2 0.250000 0.750000 0.750000
Si Si3 0.630091 0.615925 0.019195
Si Si4 0.250000 0.250000 0.750000
Si Si5 0.536316 0.611437 0.516007
Si Si6 0.061392 0.750000 0.250000
O O1 0.250000 0.591468 0.250000
O O2 0.198622 0.679020 0.607364
O O3 0.159661 0.494771 0.509329
O O4 0.110949 0.653601 0.284696
O O5 0.584416 0.624079 0.763677
O O6 0.696890 0.687535 0.072229
O O7 0.582460 0.620382 0.265248
O O8 0.500000 0.500000 0.500000
O O9 0.485343 0.707189 0.477061
#
# Coordination Sequence:
#
# PCOD9391893 Si02
#       6
#     8   2   8   2   8   4
#     4  12  27  50  78 121 159 213 275 345 421 485
#     4  12  24  40  80 120 152 204 268 338 422 498
#     4  12  31  55  84 119 168 219 281 343 417 501
#     4  12  32  58  88 122 172 222 276 362 412 502
#     4  12  29  54  80 121 166 223 276 338 415 504
#     4  12  26  50  82 112 172 212 270 346 412 488
#
# _framework density 23.319796
#
# number of rings (size 3 to 8) (size 9 to 14) (size 15 to 20)
#    0.000    0.000    5.000    2.250   10.500    5.000 
#    0.000    0.000    0.000    0.000    0.000    0.000 
#    0.000    0.000    0.000    0.000    0.000    0.000 
#
# Total GULP energy -178836.219397 kJ/mol
# GULP energy per Si atom -5588.631856 kJ/mol
# Density = 2.326672 g / cm^3
# Si number density = 23.319796 Si / 1000 Ang^3
#
#
#
# Elastic Constant Matrix: (Units=GPa)
#
#
# Indices 1 2 3 4 5 6 
#
# 1 124.4629 43.5320 75.2500 0.0000 0.0000 0.0000
# 2 43.5320 75.6780 6.7160 0.0000 0.0000 0.0000
# 3 75.2500 6.7160 148.7278 0.0000 0.0000 0.0000
# 4 0.0000 0.0000 0.0000 44.8959 0.0000 0.0000
# 5 0.0000 0.0000 0.0000 0.0000 -3.6183 0.0000
# 6 0.0000 0.0000 0.0000 0.0000 0.0000 113.6524
#
#
#
# Elastic Compliance Matrix: (Units=1/GPa)
#
#
# Indices 1 2 3 4 5 6 
#
# 1 0.015380 -0.008189 -0.007412 0.000000 0.000000 0.000000
# 2 -0.008189 0.017627 0.003347 0.000000 0.000000 0.000000
# 3 -0.007412 0.003347 0.010323 0.000000 0.000000 0.000000
# 4 0.000000 0.000000 0.000000 0.022274 0.000000 0.000000
# 5 0.000000 0.000000 0.000000 0.000000 -0.276370 0.000000
# 6 0.000000 0.000000 0.000000 0.000000 0.000000 0.008799
#
#
# Mechanical properties :
#
#
# Convention : Reuss Voigt Hill
#
# Bulk Modulus (GPa) = 53.12712 66.65165 59.88938
# Shear Modulus (GPa) = -29.20800 45.87737 8.33468
#
# Velocity S-wave (km/s) = -3.54290 4.44025 1.89257
# Velocity P-wave (km/s) = 2.46885 7.41157 5.52389
#
# Compressibility (1/GPa) = 0.01882278
#
# Stress axis : x y z
#
# Youngs Moduli (GPa) = 65.01985 56.72970 96.87484
#
# Poissons Ratio (x) = 0.46457 0.71802
# Poissons Ratio (y) = 0.53246 -0.32428
# Poissons Ratio (z) = 0.48191 -0.18990
#
# Static dielectric constant tensor:
#      x y z
#    x 2.426420 0.000000 0.000000 
#    y 0.000000 1.864050 0.000000 
#    z 0.000000 0.000000 1.848510 
# 
# From -- ./inp_files/4015.got.cif
#   From: 2010.05.17/outbox.cif.g08.bks.cpg/sg48_3_cif.got.tgz:4015.got - 2010.06.03 20:39:00.
