data_PCOD9391364
_publ_section_title
;
Structure prediction by ZEFSAII (Michael W. Deem and Ramdas Pophale) SiO2 
 PCOD9391364
Probable space group: P N N N
;
_chemical_formula_sum "Si O2"
_cell_formula_units_Z 28
_cell_length_a 8.437758
_cell_length_b 18.087131
_cell_length_c 9.116898
_cell_angle_alpha 90.000000
_cell_angle_beta 90.000000
_cell_angle_gamma 90.000000
_cell_volume 1391.373878
_symmetry_space_group_name_H-M "P N N N"
_symmetry_group_IT_number 48
_space_group.IT_coordinate_system_code '2'
_symmetry_cell_setting 'orthorhombic'
loop_
_space_group_symop_operation_xyz
x,y,z
1/2-x,1/2-y,z
x,1/2-y,1/2-z
1/2-x,y,1/2-z
-x,-y,-z
1/2+x,1/2+y,-z
-x,1/2+y,1/2+z
1/2+x,-y,1/2+z
loop_
_atom_site_type_symbol
_atom_site_label
_atom_site_fract_x
_atom_site_fract_y
_atom_site_fract_z
Si Si1 0.416098 0.447075 0.681377
Si Si2 0.750000 0.250000 0.502359
Si Si3 0.250000 0.871996 0.250000
Si Si4 0.000149 0.750000 0.750000
Si Si5 0.094002 0.413007 0.165211
O O1 0.250000 0.423073 0.750000
O O2 0.579203 0.412941 0.746532
O O3 0.398988 0.425756 0.509770
O O4 0.444712 0.535001 0.705403
O O5 0.762471 0.179667 0.607110
O O6 0.895463 0.263260 0.394212
O O7 0.919168 0.672332 0.789210
O O8 0.250000 0.441220 0.250000
#
# Coordination Sequence:
#
# PCOD9391364 Si02
#       5
#     8   4   4   4   8
#     4  11  26  45  72 101 135 184 229 285 345 408
#     4  10  24  40  72  94 138 182 226 280 352 402
#     4  11  22  50  66 101 136 178 232 285 334 422
#     4  11  23  42  66 102 134 182 224 284 342 412
#     4  11  25  45  67 103 140 176 233 286 341 415
#
# _framework density 20.123994
#
# number of rings (size 3 to 8) (size 9 to 14) (size 15 to 20)
#    0.000    1.143    4.286    0.429    8.000    1.143 
#    0.000    2.857    0.000    0.000    0.000    0.000 
#    0.000    0.000    0.000    0.000    0.000    0.000 
#
# Total GULP energy -156021.753878 kJ/mol
# GULP energy per Si atom -5572.205496 kJ/mol
# Density = 2.007819 g / cm^3
# Si number density = 20.123994 Si / 1000 Ang^3
#
#
#
# Elastic Constant Matrix: (Units=GPa)
#
#
# Indices 1 2 3 4 5 6 
#
# 1 140.7028 58.4350 48.0278 0.0000 0.0000 0.0000
# 2 58.4350 125.2772 42.1316 0.0000 0.0000 0.0000
# 3 48.0278 42.1316 90.1062 0.0000 0.0000 0.0000
# 4 0.0000 0.0000 0.0000 -104.5225 0.0000 0.0000
# 5 0.0000 0.0000 0.0000 0.0000 10.1898 0.0000
# 6 0.0000 0.0000 0.0000 0.0000 0.0000 30.4213
#
#
#
# Elastic Compliance Matrix: (Units=1/GPa)
#
#
# Indices 1 2 3 4 5 6 
#
# 1 0.009724 -0.003314 -0.003633 0.000000 0.000000 0.000000
# 2 -0.003314 0.010601 -0.003191 0.000000 0.000000 0.000000
# 3 -0.003633 -0.003191 0.014527 0.000000 0.000000 0.000000
# 4 0.000000 0.000000 0.000000 -0.009567 0.000000 0.000000
# 5 0.000000 0.000000 0.000000 0.000000 0.098138 0.000000
# 6 0.000000 0.000000 0.000000 0.000000 0.000000 0.032872
#
#
# Mechanical properties :
#
#
# Convention : Reuss Voigt Hill
#
# Bulk Modulus (GPa) = 68.60664 72.58611 70.59638
# Shear Modulus (GPa) = 27.55931 1.05049 14.30490
#
# Velocity S-wave (km/s) = 3.70466 0.72329 2.66905
# Velocity P-wave (km/s) = 7.24329 6.07003 6.68246
#
# Compressibility (1/GPa) = 0.01457585
#
# Stress axis : x y z
#
# Youngs Moduli (GPa) = 102.84285 94.33154 68.83963
#
# Poissons Ratio (x) = 0.31257 0.25012
# Poissons Ratio (y) = 0.34078 0.21964
# Poissons Ratio (z) = 0.37367 0.30097
#
# Static dielectric constant tensor:
#      x y z
#    x 1.731710 0.000000 0.000000 
#    y 0.000000 1.745920 0.000000 
#    z 0.000000 0.000000 1.667860 
# 
# From -- ./inp_files/8433.got.cif
#   From: 2010.05.17/outbox.cif.g08.bks.cpg/sg48_5_cif.got.tgz:8433.got - 2010.06.03 20:39:00.
