data_PCOD9391650
_publ_section_title
;
Structure prediction by ZEFSAII (Michael W. Deem and Ramdas Pophale) SiO2 
 PCOD9391650
Probable space group: P N N N
;
_chemical_formula_sum "Si O2"
_cell_formula_units_Z 40
_cell_length_a 22.847249
_cell_length_b 11.645913
_cell_length_c 7.864355
_cell_angle_alpha 90.000000
_cell_angle_beta 90.000000
_cell_angle_gamma 90.000000
_cell_volume 2092.524568
_symmetry_space_group_name_H-M "P N N N"
_symmetry_group_IT_number 48
_space_group.IT_coordinate_system_code '2'
_symmetry_cell_setting 'orthorhombic'
loop_
_space_group_symop_operation_xyz
x,y,z
1/2-x,1/2-y,z
x,1/2-y,1/2-z
1/2-x,y,1/2-z
-x,-y,-z
1/2+x,1/2+y,-z
-x,1/2+y,1/2+z
1/2+x,-y,1/2+z
loop_
_atom_site_type_symbol
_atom_site_label
_atom_site_fract_x
_atom_site_fract_y
_atom_site_fract_z
Si Si1 0.496899 0.694028 0.432501
Si Si2 0.823652 0.373348 0.549880
Si Si3 0.449873 0.577771 0.915345
Si Si4 0.807017 0.390782 0.958251
Si Si5 0.080037 0.000536 0.537378
O O1 0.508589 0.750000 0.250000
O O2 0.471835 0.792504 0.553294
O O3 0.448136 0.594317 0.412146
O O4 0.553703 0.625437 0.497326
O O5 0.884373 0.430148 0.494204
O O6 0.815866 0.384751 0.753753
O O7 0.825002 0.239450 0.491813
O O8 0.759719 0.414719 0.488760
O O9 0.442926 0.539751 0.721229
O O10 0.500000 0.500000 0.000000
O O11 0.851226 0.483952 0.030263
#
# Coordination Sequence:
#
# PCOD9391650 Si02
#       5
#     8   8   8   8   8
#     4  11  22  39  54  82 123 153 192 235 292 349
#     4   9  19  34  57  82 118 149 184 240 286 347
#     4  12  23  36  57  89 120 149 192 237 289 345
#     4   9  18  36  57  82 112 154 190 228 296 342
#     4  11  23  35  60  85 116 160 189 242 290 348
#
# _framework density 19.115665
#
# number of rings (size 3 to 8) (size 9 to 14) (size 15 to 20)
#    0.000    1.600    4.000    3.000    2.800    0.800 
#    0.000    2.000    0.000    1.200    0.000    2.800 
#    0.000    0.000    0.000    0.000    0.000    0.000 
#
# Total GULP energy -223167.663554 kJ/mol
# GULP energy per Si atom -5579.191589 kJ/mol
# Density = 1.907216 g / cm^3
# Si number density = 19.115665 Si / 1000 Ang^3
#
#
#
# Elastic Constant Matrix: (Units=GPa)
#
#
# Indices 1 2 3 4 5 6 
#
# 1 193.4274 54.5819 23.9608 0.0000 0.0000 0.0000
# 2 54.5819 64.5569 19.7811 0.0000 0.0000 0.0000
# 3 23.9608 19.7811 25.9964 0.0000 0.0000 0.0000
# 4 0.0000 0.0000 0.0000 22.5314 0.0000 0.0000
# 5 0.0000 0.0000 0.0000 0.0000 29.9954 0.0000
# 6 0.0000 0.0000 0.0000 0.0000 0.0000 36.1296
#
#
#
# Elastic Compliance Matrix: (Units=1/GPa)
#
#
# Indices 1 2 3 4 5 6 
#
# 1 0.006913 -0.005076 -0.002509 0.000000 0.000000 0.000000
# 2 -0.005076 0.023927 -0.013528 0.000000 0.000000 0.000000
# 3 -0.002509 -0.013528 0.051073 0.000000 0.000000 0.000000
# 4 0.000000 0.000000 0.000000 0.044382 0.000000 0.000000
# 5 0.000000 0.000000 0.000000 0.000000 0.033338 0.000000
# 6 0.000000 0.000000 0.000000 0.000000 0.000000 0.027678
#
#
# Mechanical properties :
#
#
# Convention : Reuss Voigt Hill
#
# Bulk Modulus (GPa) = 25.19724 53.40316 39.30020
# Shear Modulus (GPa) = 20.59578 30.10842 25.35210
#
# Velocity S-wave (km/s) = 3.28598 3.97301 3.64572
# Velocity P-wave (km/s) = 5.25424 7.00314 6.19076
#
# Compressibility (1/GPa) = 0.03968689
#
# Stress axis : x y z
#
# Youngs Moduli (GPa) = 144.65250 41.79364 19.57969
#
# Poissons Ratio (x) = 0.21215 0.04913
# Poissons Ratio (y) = 0.73426 0.26487
# Poissons Ratio (z) = 0.36299 0.56538
#
# Static dielectric constant tensor:
#      x y z
#    x 1.710500 0.000000 0.000000 
#    y 0.000000 1.654820 0.000000 
#    z 0.000000 0.000000 1.723210 
# 
# From -- ./inp_files/10980.got.cif
#   From: 2010.05.17/outbox.cif.g08.bks.cpg/sg48_6_cif.got.tgz:10980.got - 2010.06.03 20:39:00.
