data_PCOD9391177
_publ_section_title
;
Structure prediction by ZEFSAII (Michael W. Deem and Ramdas Pophale) SiO2 
 PCOD9391177
Probable space group: P N N N
;
_chemical_formula_sum "Si O2"
_cell_formula_units_Z 56
_cell_length_a 21.888653
_cell_length_b 8.697838
_cell_length_c 14.097456
_cell_angle_alpha 90.000000
_cell_angle_beta 90.000000
_cell_angle_gamma 90.000000
_cell_volume 2683.929469
_symmetry_space_group_name_H-M "P N N N"
_symmetry_group_IT_number 48
_space_group.IT_coordinate_system_code '2'
_symmetry_cell_setting 'orthorhombic'
loop_
_space_group_symop_operation_xyz
x,y,z
1/2-x,1/2-y,z
x,1/2-y,1/2-z
1/2-x,y,1/2-z
-x,-y,-z
1/2+x,1/2+y,-z
-x,1/2+y,1/2+z
1/2+x,-y,1/2+z
loop_
_atom_site_type_symbol
_atom_site_label
_atom_site_fract_x
_atom_site_fract_y
_atom_site_fract_z
Si Si1 0.137057 0.433353 0.361259
Si Si2 0.799294 0.412933 0.187620
Si Si3 0.256966 0.923409 0.474240
Si Si4 0.973004 0.429223 0.904730
Si Si5 0.067212 0.567264 0.761449
Si Si6 0.346362 0.071444 0.144375
Si Si7 0.505534 0.432515 0.896169
O O1 0.175577 0.514749 0.445892
O O2 0.164873 0.459310 0.256016
O O3 0.135882 0.249170 0.371773
O O4 0.068328 0.496249 0.356368
O O5 0.806164 0.250000 0.250000
O O6 0.750000 0.504012 0.250000
O O7 0.868130 0.473597 0.190320
O O8 0.769229 0.410819 0.082752
O O9 0.250000 0.750000 0.436593
O O10 0.212600 0.034685 0.416887
O O11 0.010936 0.513273 0.823783
O O12 0.901889 0.465773 0.891811
O O13 0.986587 0.249465 0.898159
O O14 0.000000 0.500000 0.000000
O O15 0.063730 0.750000 0.750000
O O16 0.054101 0.484766 0.662056
O O17 0.500000 0.500000 0.000000
#
# Coordination Sequence:
#
# PCOD9391177 Si02
#       7
#     8   8   8   8   8   8   8
#     4  11  25  44  70 101 143 188 235 300 364 438
#     4  10  22  44  68  97 135 184 232 286 351 417
#     4  12  24  40  71 103 137 188 243 288 354 434
#     4  12  24  43  68  99 143 184 236 294 355 431
#     4  11  23  41  71 100 138 182 232 291 356 417
#     4  11  24  45  68 100 146 187 236 295 372 425
#     4  12  26  42  69 104 137 184 240 291 358 432
#
# _framework density 20.864930999999999
#
# number of rings (size 3 to 8) (size 9 to 14) (size 15 to 20)
#    0.000    0.714    2.857    5.571    2.000    4.571 
#    0.000    0.000    3.143    0.000    0.000    0.000 
#    0.000    0.000    0.000    0.000    0.000    0.000 
#
# Total GULP energy -312646.753127 kJ/mol
# GULP energy per Si atom -5582.977734 kJ/mol
# Density = 2.081744 g / cm^3
# Si number density = 20.864931 Si / 1000 Ang^3
#
#
#
# Elastic Constant Matrix: (Units=GPa)
#
#
# Indices 1 2 3 4 5 6 
#
# 1 90.8489 17.3118 15.2827 0.0000 0.0000 0.0000
# 2 17.3118 116.1759 21.8084 0.0000 0.0000 0.0000
# 3 15.2827 21.8084 105.9531 0.0000 0.0000 0.0000
# 4 0.0000 0.0000 0.0000 17.9513 0.0000 0.0000
# 5 0.0000 0.0000 0.0000 0.0000 39.9712 0.0000
# 6 0.0000 0.0000 0.0000 0.0000 0.0000 10.8865
#
#
#
# Elastic Compliance Matrix: (Units=1/GPa)
#
#
# Indices 1 2 3 4 5 6 
#
# 1 0.011514 -0.001460 -0.001360 0.000000 0.000000 0.000000
# 2 -0.001460 0.009139 -0.001670 0.000000 0.000000 0.000000
# 3 -0.001360 -0.001670 0.009978 0.000000 0.000000 0.000000
# 4 0.000000 0.000000 0.000000 0.055706 0.000000 0.000000
# 5 0.000000 0.000000 0.000000 0.000000 0.025018 0.000000
# 6 0.000000 0.000000 0.000000 0.000000 0.000000 0.091857
#
#
# Mechanical properties :
#
#
# Convention : Reuss Voigt Hill
#
# Bulk Modulus (GPa) = 46.19105 46.86485 46.52795
# Shear Modulus (GPa) = 22.78826 31.00012 26.89419
#
# Velocity S-wave (km/s) = 3.30840 3.85873 3.59411
# Velocity P-wave (km/s) = 6.06467 6.50868 6.29059
#
# Compressibility (1/GPa) = 0.02164922
#
# Stress axis : x y z
#
# Youngs Moduli (GPa) = 86.84776 109.42315 100.21892
#
# Poissons Ratio (x) = 0.15981 0.13632
# Poissons Ratio (y) = 0.12684 0.16741
# Poissons Ratio (z) = 0.11813 0.18278
#
# Static dielectric constant tensor:
#      x y z
#    x 1.763600 0.000000 0.000000 
#    y 0.000000 1.743180 0.000000 
#    z 0.000000 0.000000 1.804650 
# 
# From -- ./inp_files/28339.got.cif
#   From: 2010.05.17/outbox.cif.g08.bks.cpg/sg48_15_cif.got.tgz:28339.got - 2010.06.03 20:39:00.
