data_PCOD9391027
_publ_section_title
;
Structure prediction by ZEFSAII (Michael W. Deem and Ramdas Pophale) SiO2 
 PCOD9391027
Probable space group: P N N N
;
_chemical_formula_sum "Si O2"
_cell_formula_units_Z 32
_cell_length_a 10.647856
_cell_length_b 15.902918
_cell_length_c 7.111787
_cell_angle_alpha 90.000000
_cell_angle_beta 90.000000
_cell_angle_gamma 90.000000
_cell_volume 1204.252980
_symmetry_space_group_name_H-M "P N N N"
_symmetry_group_IT_number 48
_space_group.IT_coordinate_system_code '2'
_symmetry_cell_setting 'orthorhombic'
loop_
_space_group_symop_operation_xyz
x,y,z
1/2-x,1/2-y,z
x,1/2-y,1/2-z
1/2-x,y,1/2-z
-x,-y,-z
1/2+x,1/2+y,-z
-x,1/2+y,1/2+z
1/2+x,-y,1/2+z
loop_
_atom_site_type_symbol
_atom_site_label
_atom_site_fract_x
_atom_site_fract_y
_atom_site_fract_z
Si Si1 0.972805 0.903134 0.529182
Si Si2 0.696503 0.889185 0.534780
Si Si3 0.467628 0.771387 0.526249
Si Si4 0.369719 0.928869 0.615817
O O1 0.834905 0.888286 0.443208
O O2 0.046472 0.822709 0.446799
O O3 0.008895 0.908905 0.752904
O O4 0.000000 0.000000 0.500000
O O5 0.750000 0.886902 0.750000
O O6 0.607273 0.809983 0.493470
O O7 0.637869 0.979494 0.475536
O O8 0.453144 0.750000 0.750000
O O9 0.374791 0.848035 0.479916
O O10 0.250000 0.921640 0.750000
#
# Coordination Sequence:
#
# PCOD9391027 Si02
#       4
#     8   8   8   8
#     4  11  23  41  64  95 130 167 214 271 321 380
#     4  12  22  39  68  95 128 164 219 270 318 379
#     4  10  22  38  67  94 121 169 223 256 314 398
#     4  11  23  40  64  97 130 169 212 266 328 391
#
# _framework density 26.572489999999998
#
# number of rings (size 3 to 8) (size 9 to 14) (size 15 to 20)
#    0.000    1.000    7.500    1.500    0.000    4.500 
#    0.000    1.250    0.000    1.500    0.000    0.000 
#    0.000    0.000    0.000    0.000    0.000    0.000 
#
# Total GULP energy -178151.080260 kJ/mol
# GULP energy per Si atom -5567.221258 kJ/mol
# Density = 2.651201 g / cm^3
# Si number density = 26.572490 Si / 1000 Ang^3
#
#
#
# Elastic Constant Matrix: (Units=GPa)
#
#
# Indices 1 2 3 4 5 6 
#
# 1 77.4691 1.4219 8.7920 0.0000 0.0000 0.0000
# 2 1.4219 267.0279 29.9220 0.0000 0.0000 0.0000
# 3 8.7920 29.9220 59.6253 0.0000 0.0000 0.0000
# 4 0.0000 0.0000 0.0000 -36.4122 0.0000 0.0000
# 5 0.0000 0.0000 0.0000 0.0000 22.6301 0.0000
# 6 0.0000 0.0000 0.0000 0.0000 0.0000 38.5096
#
#
#
# Elastic Compliance Matrix: (Units=1/GPa)
#
#
# Indices 1 2 3 4 5 6 
#
# 1 0.013134 0.000156 -0.002015 0.000000 0.000000 0.000000
# 2 0.000156 0.003970 -0.002015 0.000000 0.000000 0.000000
# 3 -0.002015 -0.002015 0.018080 0.000000 0.000000 0.000000
# 4 0.000000 0.000000 0.000000 -0.027463 0.000000 0.000000
# 5 0.000000 0.000000 0.000000 0.000000 0.044189 0.000000
# 6 0.000000 0.000000 0.000000 0.000000 0.000000 0.025968
#
#
# Mechanical properties :
#
#
# Convention : Reuss Voigt Hill
#
# Bulk Modulus (GPa) = 36.44931 53.82158 45.13544
# Shear Modulus (GPa) = 52.75892 29.21127 40.98509
#
# Velocity S-wave (km/s) = 4.46070 3.31917 3.93159
# Velocity P-wave (km/s) = 6.34643 5.91505 6.13453
#
# Compressibility (1/GPa) = 0.02743536
#
# Stress axis : x y z
#
# Youngs Moduli (GPa) = 76.13724 251.89460 55.31026
#
# Poissons Ratio (x) = -0.03926 0.11144
# Poissons Ratio (y) = -0.01187 0.11146
# Poissons Ratio (z) = 0.15341 0.50762
#
# Static dielectric constant tensor:
#      x y z
#    x -3.462850 0.000000 0.000000 
#    y 0.000000 2.556850 0.000000 
#    z 0.000000 0.000000 2.591910 
# 
# From -- ./inp_files/10551.got.cif
#   From: 2010.05.17/outbox.cif.g08.bks.cpg/sg48_6_cif.got.tgz:10551.got - 2010.06.03 20:39:00.
