data_PCOD9391086
_publ_section_title
;
Structure prediction by ZEFSAII (Michael W. Deem and Ramdas Pophale) SiO2 
 PCOD9391086
Probable space group: P N N N
;
_chemical_formula_sum "Si O2"
_cell_formula_units_Z 58
_cell_length_a 8.977430
_cell_length_b 10.760576
_cell_length_c 26.695249
_cell_angle_alpha 90.000000
_cell_angle_beta 90.000000
_cell_angle_gamma 90.000000
_cell_volume 2578.822928
_symmetry_space_group_name_H-M "P N N N"
_symmetry_group_IT_number 48
_space_group.IT_coordinate_system_code '2'
_symmetry_cell_setting 'orthorhombic'
loop_
_space_group_symop_operation_xyz
x,y,z
1/2-x,1/2-y,z
x,1/2-y,1/2-z
1/2-x,y,1/2-z
-x,-y,-z
1/2+x,1/2+y,-z
-x,1/2+y,1/2+z
1/2+x,-y,1/2+z
loop_
_atom_site_type_symbol
_atom_site_label
_atom_site_fract_x
_atom_site_fract_y
_atom_site_fract_z
Si Si1 0.591753 0.560522 0.169830
Si Si2 0.572408 0.863090 0.501525
Si Si3 0.651672 0.517131 0.529035
Si Si4 0.910294 0.780274 0.604631
Si Si5 0.340590 0.866773 0.825012
Si Si6 0.919907 0.899404 0.754041
Si Si7 0.750000 0.750000 0.250000
Si Si8 0.876101 0.169493 0.916243
O O1 0.733333 0.474884 0.154370
O O2 0.485086 0.460390 0.196550
O O3 0.651946 0.662101 0.211326
O O4 0.491865 0.612947 0.124104
O O5 0.746347 0.891469 0.495257
O O6 0.561954 0.810284 0.557680
O O7 0.488822 0.782779 0.459743
O O8 0.500000 0.000000 0.500000
O O9 0.500000 0.500000 0.500000
O O10 0.614116 0.586401 0.580246
O O11 0.759900 0.408960 0.548625
O O12 0.750000 0.750000 0.630012
O O13 0.056651 0.793473 0.636208
O O14 0.250000 0.750000 0.801879
O O15 0.458084 0.932793 0.788074
O O16 0.917611 0.750000 0.750000
O O17 0.750000 0.942590 0.750000
O O18 0.750000 0.250000 0.888191
#
# Coordination Sequence:
#
# PCOD9391086 Si02
#       8
#     8   8   8   8   8   8   2   8
#     4  12  28  50  75 109 145 199 262 323 392 479
#     4   9  21  42  65  99 148 193 238 301 365 450
#     4  10  22  40  69  99 147 190 246 310 371 444
#     4  10  24  40  64 105 145 185 242 299 375 454
#     4  12  26  41  76 109 145 187 249 315 398 466
#     4  11  25  45  75 107 147 182 235 317 397 461
#     4  12  28  56  76 100 152 200 258 330 392 464
#     4  11  26  46  72 102 148 199 260 305 375 463
#
# _framework density 22.490881000000002
#
# number of rings (size 3 to 8) (size 9 to 14) (size 15 to 20)
#    0.000    1.241    2.759    0.828   11.586    3.862 
#    3.724    0.000    0.000    0.000    0.000    0.000 
#    0.000    0.000    0.000    0.000    0.000    0.000 
#
# Total GULP energy -323128.921153 kJ/mol
# GULP energy per Si atom -5571.188296 kJ/mol
# Density = 2.243969 g / cm^3
# Si number density = 22.490881 Si / 1000 Ang^3
#
#
#
# Elastic Constant Matrix: (Units=GPa)
#
#
# Indices 1 2 3 4 5 6 
#
# 1 217.6854 56.5350 92.6817 0.0000 0.0000 0.0000
# 2 56.5350 55.8084 30.2699 0.0000 0.0000 0.0000
# 3 92.6817 30.2699 86.0040 0.0000 0.0000 0.0000
# 4 0.0000 0.0000 0.0000 25.2519 0.0000 0.0000
# 5 0.0000 0.0000 0.0000 0.0000 41.3644 0.0000
# 6 0.0000 0.0000 0.0000 0.0000 0.0000 35.9362
#
#
#
# Elastic Compliance Matrix: (Units=1/GPa)
#
#
# Indices 1 2 3 4 5 6 
#
# 1 0.009511 -0.005037 -0.008477 0.000000 0.000000 0.000000
# 2 -0.005037 0.024814 -0.003305 0.000000 0.000000 0.000000
# 3 -0.008477 -0.003305 0.021925 0.000000 0.000000 0.000000
# 4 0.000000 0.000000 0.000000 0.039601 0.000000 0.000000
# 5 0.000000 0.000000 0.000000 0.000000 0.024175 0.000000
# 6 0.000000 0.000000 0.000000 0.000000 0.000000 0.027827
#
#
# Mechanical properties :
#
#
# Convention : Reuss Voigt Hill
#
# Bulk Modulus (GPa) = 44.22354 79.83013 62.02684
# Shear Modulus (GPa) = 26.45096 32.51124 29.48110
#
# Velocity S-wave (km/s) = 3.43312 3.80614 3.62443
# Velocity P-wave (km/s) = 5.95152 7.40858 6.71966
#
# Compressibility (1/GPa) = 0.02261239
#
# Stress axis : x y z
#
# Youngs Moduli (GPa) = 105.14174 40.29990 45.60932
#
# Poissons Ratio (x) = 0.20300 0.38661
# Poissons Ratio (y) = 0.52962 0.15075
# Poissons Ratio (z) = 0.89124 0.13320
#
# Static dielectric constant tensor:
#      x y z
#    x 1.994040 0.000000 0.000000 
#    y 0.000000 2.025580 0.000000 
#    z 0.000000 0.000000 1.860400 
# 
# From -- ./inp_files/37536.got.cif
#   From: 2010.05.17/outbox.cif.g08.bks.cpg/sg48_19_cif.got.tgz:37536.got - 2010.06.03 20:39:00.
