data_PCOD9391834
_publ_section_title
;
Structure prediction by ZEFSAII (Michael W. Deem and Ramdas Pophale) SiO2 
 PCOD9391834
Probable space group: P N N N
;
_chemical_formula_sum "Si O2"
_cell_formula_units_Z 56
_cell_length_a 13.822197
_cell_length_b 21.604911
_cell_length_c 9.206134
_cell_angle_alpha 90.000000
_cell_angle_beta 90.000000
_cell_angle_gamma 90.000000
_cell_volume 2749.203271
_symmetry_space_group_name_H-M "P N N N"
_symmetry_group_IT_number 48
_space_group.IT_coordinate_system_code '2'
_symmetry_cell_setting 'orthorhombic'
loop_
_space_group_symop_operation_xyz
x,y,z
1/2-x,1/2-y,z
x,1/2-y,1/2-z
1/2-x,y,1/2-z
-x,-y,-z
1/2+x,1/2+y,-z
-x,1/2+y,1/2+z
1/2+x,-y,1/2+z
loop_
_atom_site_type_symbol
_atom_site_label
_atom_site_fract_x
_atom_site_fract_y
_atom_site_fract_z
Si Si1 0.835159 0.571474 0.514964
Si Si2 0.500000 0.446529 0.253805
Si Si3 0.164841 0.928526 0.985036
Si Si4 0.500000 0.089055 0.719953
Si Si5 0.210903 0.186593 0.415207
Si Si6 0.289097 0.686593 0.584793
Si Si7 1.000000 0.155624 0.485218
O O1 0.905796 0.570887 0.656371
O O2 0.801636 0.500000 0.499999
O O3 0.905961 0.590179 0.383169
O O4 0.751441 0.622097 0.522249
O O5 0.500001 0.519337 0.281117
O O6 0.500000 0.409050 0.400137
O O7 0.594204 0.429112 0.156370
O O8 0.094039 0.909822 0.116832
O O9 0.248559 0.877903 0.977752
O O10 0.500000 0.140206 0.844363
O O11 0.250000 0.250000 0.484605
O O12 0.250000 0.186047 0.250000
O O13 0.096370 0.189096 0.432116
O O14 0.250000 0.750000 0.515395
O O15 0.250000 0.686046 0.750000
O O16 0.403630 0.689096 0.567884
#
# Coordination Sequence:
#
# PCOD9391834 Si02
#       7
#     8   8   8   8   8   8   8
#     4   9  19  41  64  90 131 175 204 250 324 372
#     4   9  17  36  65  93 129 165 217 256 300 370
#     4   9  19  41  64  90 131 175 204 250 324 372
#     4   9  21  36  64  99 130 166 201 264 316 373
#     4  11  25  43  66  94 123 169 217 262 309 369
#     4  11  25  43  66  94 123 169 217 262 309 369
#     4  12  23  39  62  98 122 159 219 264 303 377
#
# _framework density 20.369537999999999
#
# number of rings (size 3 to 8) (size 9 to 14) (size 15 to 20)
#    0.000    2.000    2.857    2.143    0.000    8.000 
#    0.000    4.286    0.000    0.000    0.000    0.000 
#    0.000    0.000    0.000    0.000    0.000    0.000 
#
# Total GULP energy -312640.616324 kJ/mol
# GULP energy per Si atom -5582.868149 kJ/mol
# Density = 2.032318 g / cm^3
# Si number density = 20.369538 Si / 1000 Ang^3
#
#
#
# Elastic Constant Matrix: (Units=GPa)
#
#
# Indices 1 2 3 4 5 6 
#
# 1 156.6079 74.0640 16.0948 0.0000 0.0000 0.0000
# 2 74.0640 93.4656 18.7060 0.0000 0.0000 0.0000
# 3 16.0948 18.7060 65.7869 0.0000 0.0000 0.0000
# 4 0.0000 0.0000 0.0000 11.0142 0.0000 0.0000
# 5 0.0000 0.0000 0.0000 0.0000 5.4805 0.0000
# 6 0.0000 0.0000 0.0000 0.0000 0.0000 -178.1291
#
#
#
# Elastic Compliance Matrix: (Units=1/GPa)
#
#
# Indices 1 2 3 4 5 6 
#
# 1 0.010215 -0.008053 -0.000209 0.000000 0.000000 0.000000
# 2 -0.008053 0.017693 -0.003061 0.000000 0.000000 0.000000
# 3 -0.000209 -0.003061 0.016122 0.000000 0.000000 0.000000
# 4 0.000000 0.000000 0.000000 0.090792 0.000000 0.000000
# 5 0.000000 0.000000 0.000000 0.000000 0.182465 0.000000
# 6 0.000000 0.000000 0.000000 0.000000 0.000000 -0.005614
#
#
# Mechanical properties :
#
#
# Convention : Reuss Voigt Hill
#
# Bulk Modulus (GPa) = 46.76314 59.28778 53.02546
# Shear Modulus (GPa) = 14.64351 -18.52717 -1.94183
#
# Velocity S-wave (km/s) = 2.68413 -3.01915 -0.97743
# Velocity P-wave (km/s) = 5.71080 4.12500 4.98141
#
# Compressibility (1/GPa) = 0.02138436
#
# Stress axis : x y z
#
# Youngs Moduli (GPa) = 97.89199 56.51957 62.02665
#
# Poissons Ratio (x) = 0.45515 0.01299
# Poissons Ratio (y) = 0.78832 0.18985
# Poissons Ratio (z) = 0.02050 0.17299
#
# Static dielectric constant tensor:
#      x y z
#    x 1.745030 0.000000 0.000000 
#    y 0.000000 1.713730 0.000000 
#    z 0.000000 0.000000 1.729920 
# 
# From -- ./inp_files/13087.got.cif
#   From: 2010.05.17/outbox.cif.g08.bks.cpg/sg48_7_cif.got.tgz:13087.got - 2010.06.03 20:39:00.
