data_PCOD9391316
_publ_section_title
;
Structure prediction by ZEFSAII (Michael W. Deem and Ramdas Pophale) SiO2 
 PCOD9391316
Probable space group: P N N N
;
_chemical_formula_sum "Si O2"
_cell_formula_units_Z 32
_cell_length_a 12.728732
_cell_length_b 6.335653
_cell_length_c 17.820738
_cell_angle_alpha 90.000000
_cell_angle_beta 90.000000
_cell_angle_gamma 90.000000
_cell_volume 1437.150370
_symmetry_space_group_name_H-M "P N N N"
_symmetry_group_IT_number 48
_space_group.IT_coordinate_system_code '2'
_symmetry_cell_setting 'orthorhombic'
loop_
_space_group_symop_operation_xyz
x,y,z
1/2-x,1/2-y,z
x,1/2-y,1/2-z
1/2-x,y,1/2-z
-x,-y,-z
1/2+x,1/2+y,-z
-x,1/2+y,1/2+z
1/2+x,-y,1/2+z
loop_
_atom_site_type_symbol
_atom_site_label
_atom_site_fract_x
_atom_site_fract_y
_atom_site_fract_z
Si Si1 0.250000 0.750000 0.439029
Si Si2 0.644708 0.882435 0.864068
Si Si3 0.390411 0.391881 0.990664
Si Si4 0.536480 0.250000 0.250000
Si Si5 0.634692 0.854687 0.320589
O O1 0.327203 0.623318 0.383181
O O2 0.195612 0.572645 0.490805
O O3 0.750000 0.750000 0.838639
O O4 0.546208 0.853297 0.809110
O O5 0.620048 0.781432 0.945199
O O6 0.392974 0.310845 0.906071
O O7 0.500000 0.500000 0.000000
O O8 0.612319 0.401893 0.200601
O O9 0.750000 0.750000 0.318841
O O10 0.575293 0.750000 0.250000
#
# Coordination Sequence:
#
# PCOD9391316 Si02
#       5
#     4   8   8   4   8
#     4  10  24  42  77 101 138 182 236 308 358 425
#     4  10  23  44  70 105 140 180 237 302 363 433
#     4  11  23  46  71 102 138 188 242 293 362 430
#     4  12  25  43  72 104 142 192 239 291 364 438
#     4  11  27  46  68  99 146 188 241 293 357 427
#
# _framework density 22.266285
#
# number of rings (size 3 to 8) (size 9 to 14) (size 15 to 20)
#    0.000    1.250    2.500    2.625    3.500    9.000 
#    0.000    5.000    0.000    0.000    0.000    0.000 
#    0.000    0.000    0.000    0.000    0.000    0.000 
#
# Total GULP energy -178362.063505 kJ/mol
# GULP energy per Si atom -5573.814485 kJ/mol
# Density = 2.221561 g / cm^3
# Si number density = 22.266285 Si / 1000 Ang^3
#
#
#
# Elastic Constant Matrix: (Units=GPa)
#
#
# Indices 1 2 3 4 5 6 
#
# 1 103.9883 32.4803 44.3884 0.0000 0.0000 0.0000
# 2 32.4803 74.3336 44.4675 0.0000 0.0000 0.0000
# 3 44.3884 44.4675 192.4180 0.0000 0.0000 0.0000
# 4 0.0000 0.0000 0.0000 21.0713 0.0000 0.0000
# 5 0.0000 0.0000 0.0000 0.0000 63.2161 0.0000
# 6 0.0000 0.0000 0.0000 0.0000 0.0000 39.7751
#
#
#
# Elastic Compliance Matrix: (Units=1/GPa)
#
#
# Indices 1 2 3 4 5 6 
#
# 1 0.011623 -0.004032 -0.001749 0.000000 0.000000 0.000000
# 2 -0.004032 0.017010 -0.003001 0.000000 0.000000 0.000000
# 3 -0.001749 -0.003001 0.006294 0.000000 0.000000 0.000000
# 4 0.000000 0.000000 0.000000 0.047458 0.000000 0.000000
# 5 0.000000 0.000000 0.000000 0.000000 0.015819 0.000000
# 6 0.000000 0.000000 0.000000 0.000000 0.000000 0.025141
#
#
# Mechanical properties :
#
#
# Convention : Reuss Voigt Hill
#
# Bulk Modulus (GPa) = 57.59696 68.15693 62.87694
# Shear Modulus (GPa) = 34.08402 41.43940 37.76171
#
# Velocity S-wave (km/s) = 3.91672 4.31871 4.12262
# Velocity P-wave (km/s) = 6.81012 7.45283 7.13871
#
# Compressibility (1/GPa) = 0.01736203
#
# Stress axis : x y z
#
# Youngs Moduli (GPa) = 86.03925 58.78964 158.87989
#
# Poissons Ratio (x) = 0.23704 0.27794
# Poissons Ratio (y) = 0.34691 0.47677
# Poissons Ratio (z) = 0.15052 0.17642
#
# Static dielectric constant tensor:
#      x y z
#    x 1.872530 0.000000 0.000000 
#    y 0.000000 1.715150 0.000000 
#    z 0.000000 0.000000 -16.230670 
# 
# From -- ./inp_files/31347.got.cif
#   From: 2010.05.17/outbox.cif.g08.bks.cpg/sg48_16_cif.got.tgz:31347.got - 2010.06.03 20:39:00.
