data_PCOD9391544
_publ_section_title
;
Structure prediction by ZEFSAII (Michael W. Deem and Ramdas Pophale) SiO2 
 PCOD9391544
Probable space group: P N N N
;
_chemical_formula_sum "Si O2"
_cell_formula_units_Z 58
_cell_length_a 27.440830
_cell_length_b 7.705382
_cell_length_c 11.906884
_cell_angle_alpha 90.000000
_cell_angle_beta 90.000000
_cell_angle_gamma 90.000000
_cell_volume 2517.616290
_symmetry_space_group_name_H-M "P N N N"
_symmetry_group_IT_number 48
_space_group.IT_coordinate_system_code '2'
_symmetry_cell_setting 'orthorhombic'
loop_
_space_group_symop_operation_xyz
x,y,z
1/2-x,1/2-y,z
x,1/2-y,1/2-z
1/2-x,y,1/2-z
-x,-y,-z
1/2+x,1/2+y,-z
-x,1/2+y,1/2+z
1/2+x,-y,1/2+z
loop_
_atom_site_type_symbol
_atom_site_label
_atom_site_fract_x
_atom_site_fract_y
_atom_site_fract_z
Si Si1 0.673841 0.459885 0.722130
Si Si2 0.079628 0.628233 0.962292
Si Si3 0.563344 0.049054 0.790221
Si Si4 0.672121 0.321048 0.092567
Si Si5 0.258485 0.957738 0.421262
Si Si6 0.482603 0.942800 0.622652
Si Si7 0.108269 0.434343 0.745339
Si Si8 0.250000 0.750000 0.750000
O O1 0.672374 0.250000 0.750000
O O2 0.618415 0.516928 0.724700
O O3 0.703570 0.515009 0.609339
O O4 0.706623 0.528561 0.823968
O O5 0.130929 0.732459 0.986007
O O6 0.043674 0.759560 0.898163
O O7 0.094537 0.488784 0.870495
O O8 0.056101 0.556560 0.075585
O O9 0.560340 0.250000 0.750000
O O10 0.526071 0.946938 0.711899
O O11 0.640642 0.423467 0.183623
O O12 0.709377 0.190296 0.156607
O O13 0.707628 0.458202 0.030851
O O14 0.250000 0.750000 0.406904
O O15 0.500000 0.000000 0.500000
O O16 0.441352 0.070526 0.672617
O O17 0.133470 0.250000 0.750000
#
# Coordination Sequence:
#
# PCOD9391544 Si02
#       8
#     8   8   8   8   8   8   8   2
#     4   8  16  26  45  87 130 160 203 258 317 388
#     4  11  23  43  66  93 136 173 219 276 339 401
#     4  11  20  35  61  96 134 171 217 275 340 409
#     4  11  20  36  64  97 128 170 216 274 334 400
#     4   9  15  26  49  86 130 162 198 258 320 384
#     4  11  23  41  65  99 129 171 221 278 343 410
#     4  11  26  47  63  89 136 179 224 278 331 392
#     4  12  20  32  66  94 128 164 218 264 340 392
#
# _framework density 23.037663999999999
#
# number of rings (size 3 to 8) (size 9 to 14) (size 15 to 20)
#    0.000    1.655    3.448    4.966    1.931    0.552 
#    2.483    0.345    0.000    0.000    0.000    0.000 
#    0.000    5.793    0.000    0.000    0.000    0.000 
#
# Total GULP energy -323203.223645 kJ/mol
# GULP energy per Si atom -5572.469373 kJ/mol
# Density = 2.298523 g / cm^3
# Si number density = 23.037664 Si / 1000 Ang^3
#
#
#
# Elastic Constant Matrix: (Units=GPa)
#
#
# Indices 1 2 3 4 5 6 
#
# 1 170.0780 16.6871 61.3373 0.0000 0.0000 0.0000
# 2 16.6871 47.4429 20.4601 0.0000 0.0000 0.0000
# 3 61.3373 20.4601 152.0306 0.0000 0.0000 0.0000
# 4 0.0000 0.0000 0.0000 10.4597 0.0000 0.0000
# 5 0.0000 0.0000 0.0000 0.0000 39.4756 0.0000
# 6 0.0000 0.0000 0.0000 0.0000 0.0000 5.7895
#
#
#
# Elastic Compliance Matrix: (Units=1/GPa)
#
#
# Indices 1 2 3 4 5 6 
#
# 1 0.006957 -0.001313 -0.002630 0.000000 0.000000 0.000000
# 2 -0.001313 0.022624 -0.002515 0.000000 0.000000 0.000000
# 3 -0.002630 -0.002515 0.007977 0.000000 0.000000 0.000000
# 4 0.000000 0.000000 0.000000 0.095605 0.000000 0.000000
# 5 0.000000 0.000000 0.000000 0.000000 0.025332 0.000000
# 6 0.000000 0.000000 0.000000 0.000000 0.000000 0.172725
#
#
# Mechanical properties :
#
#
# Convention : Reuss Voigt Hill
#
# Bulk Modulus (GPa) = 40.58012 62.94671 51.76342
# Shear Modulus (GPa) = 14.19040 29.21610 21.70325
#
# Velocity S-wave (km/s) = 2.48456 3.56503 3.07266
# Velocity P-wave (km/s) = 5.08760 6.65797 5.92504
#
# Compressibility (1/GPa) = 0.02464261
#
# Stress axis : x y z
#
# Youngs Moduli (GPa) = 143.74011 44.20010 125.35628
#
# Poissons Ratio (x) = 0.05802 0.32971
# Poissons Ratio (y) = 0.18869 0.31529
# Poissons Ratio (z) = 0.37806 0.11117
#
# Static dielectric constant tensor:
#      x y z
#    x 1.910730 0.000000 0.000000 
#    y 0.000000 1.899860 0.000000 
#    z 0.000000 0.000000 1.850740 
# 
# From -- ./inp_files/23670.got.cif
#   From: 2010.05.17/outbox.cif.g08.bks.cpg/sg48_12_cif.got.tgz:23670.got - 2010.06.03 20:39:00.
