data_PCOD9391631
_publ_section_title
;
Structure prediction by ZEFSAII (Michael W. Deem and Ramdas Pophale) SiO2 
 PCOD9391631
Probable space group: P N N N
;
_chemical_formula_sum "Si O2"
_cell_formula_units_Z 48
_cell_length_a 16.653827
_cell_length_b 9.103976
_cell_length_c 14.053681
_cell_angle_alpha 90.000000
_cell_angle_beta 90.000000
_cell_angle_gamma 90.000000
_cell_volume 2130.763479
_symmetry_space_group_name_H-M "P N N N"
_symmetry_group_IT_number 48
_space_group.IT_coordinate_system_code '2'
_symmetry_cell_setting 'orthorhombic'
loop_
_space_group_symop_operation_xyz
x,y,z
1/2-x,1/2-y,z
x,1/2-y,1/2-z
1/2-x,y,1/2-z
-x,-y,-z
1/2+x,1/2+y,-z
-x,1/2+y,1/2+z
1/2+x,-y,1/2+z
loop_
_atom_site_type_symbol
_atom_site_label
_atom_site_fract_x
_atom_site_fract_y
_atom_site_fract_z
Si Si1 0.658231 0.722738 0.043752
Si Si2 0.085087 0.960994 0.040669
Si Si3 0.992535 0.927720 0.769725
Si Si4 0.165340 0.825758 0.526588
Si Si5 0.158835 0.465206 0.794151
Si Si6 0.427033 0.049618 0.066671
O O1 0.750000 0.750000 0.020225
O O2 0.645757 0.814962 0.142715
O O3 0.647048 0.550974 0.025565
O O4 0.596387 0.788668 0.966792
O O5 0.103030 0.792517 0.015160
O O6 0.069218 0.012690 0.149594
O O7 0.000000 0.000000 0.000000
O O8 0.998629 0.750000 0.750000
O O9 0.082741 0.999075 0.774569
O O10 0.955249 0.979696 0.671119
O O11 0.250000 0.750000 0.523978
O O12 0.153656 0.899333 0.630154
O O13 0.153617 0.961733 0.456698
O O14 0.250000 0.460620 0.750000
O O15 0.500000 0.000000 0.000000
#
# Coordination Sequence:
#
# PCOD9391631 Si02
#       6
#     8   8   8   8   8   8
#     4  11  24  47  69 101 152 187 231 299 383 424
#     4  12  26  44  71 108 144 191 247 303 359 440
#     4  12  25  44  76 108 138 191 259 292 361 451
#     4  11  25  46  72 103 149 188 234 302 380 428
#     4  11  27  46  73 109 145 189 237 303 379 451
#     4  11  21  47  72  99 145 197 233 299 364 438
#
# _framework density 22.527137
#
# number of rings (size 3 to 8) (size 9 to 14) (size 15 to 20)
#    0.000    0.667    5.000    4.000    7.000    1.000 
#    0.000    5.833    0.000    0.000    0.000    0.000 
#    0.000    0.000    0.000    0.000    0.000    0.000 
#
# Total GULP energy -267692.063604 kJ/mol
# GULP energy per Si atom -5576.917992 kJ/mol
# Density = 2.247586 g / cm^3
# Si number density = 22.527137 Si / 1000 Ang^3
#
#
#
# Elastic Constant Matrix: (Units=GPa)
#
#
# Indices 1 2 3 4 5 6 
#
# 1 78.8701 16.5394 30.6984 0.0000 0.0000 0.0000
# 2 16.5394 98.1418 32.3219 0.0000 0.0000 0.0000
# 3 30.6984 32.3219 157.2447 0.0000 0.0000 0.0000
# 4 0.0000 0.0000 0.0000 22.7059 0.0000 0.0000
# 5 0.0000 0.0000 0.0000 0.0000 34.1138 0.0000
# 6 0.0000 0.0000 0.0000 0.0000 0.0000 54.9597
#
#
#
# Elastic Compliance Matrix: (Units=1/GPa)
#
#
# Indices 1 2 3 4 5 6 
#
# 1 0.013941 -0.001559 -0.002401 0.000000 0.000000 0.000000
# 2 -0.001559 0.011103 -0.001978 0.000000 0.000000 0.000000
# 3 -0.002401 -0.001978 0.007235 0.000000 0.000000 0.000000
# 4 0.000000 0.000000 0.000000 0.044041 0.000000 0.000000
# 5 0.000000 0.000000 0.000000 0.000000 0.029314 0.000000
# 6 0.000000 0.000000 0.000000 0.000000 0.000000 0.018195
#
#
# Mechanical properties :
#
#
# Convention : Reuss Voigt Hill
#
# Bulk Modulus (GPa) = 49.01179 54.81958 51.91568
# Shear Modulus (GPa) = 35.08630 39.33566 37.21098
#
# Velocity S-wave (km/s) = 3.95082 4.18322 4.06868
# Velocity P-wave (km/s) = 6.52809 6.90798 6.72072
#
# Compressibility (1/GPa) = 0.02040325
#
# Stress axis : x y z
#
# Youngs Moduli (GPa) = 71.73332 90.06213 138.21911
#
# Poissons Ratio (x) = 0.14036 0.33189
# Poissons Ratio (y) = 0.11180 0.27341
# Poissons Ratio (z) = 0.17225 0.17815
#
# Static dielectric constant tensor:
#      x y z
#    x 1.825280 0.000000 0.000000 
#    y 0.000000 1.675750 0.000000 
#    z 0.000000 0.000000 2.319390 
# 
# From -- ./inp_files/27880.got.cif
#   From: 2010.05.17/outbox.cif.g08.bks.cpg/sg48_14_cif.got.tgz:27880.got - 2010.06.03 20:39:00.
