data_PCOD9391038
_publ_section_title
;
Structure prediction by ZEFSAII (Michael W. Deem and Ramdas Pophale) SiO2 
 PCOD9391038
Probable space group: P N N N
;
_chemical_formula_sum "Si O2"
_cell_formula_units_Z 32
_cell_length_a 10.828148
_cell_length_b 17.228454
_cell_length_c 7.001359
_cell_angle_alpha 90.000000
_cell_angle_beta 90.000000
_cell_angle_gamma 90.000000
_cell_volume 1306.119273
_symmetry_space_group_name_H-M "P N N N"
_symmetry_group_IT_number 48
_space_group.IT_coordinate_system_code '2'
_symmetry_cell_setting 'orthorhombic'
loop_
_space_group_symop_operation_xyz
x,y,z
1/2-x,1/2-y,z
x,1/2-y,1/2-z
1/2-x,y,1/2-z
-x,-y,-z
1/2+x,1/2+y,-z
-x,1/2+y,1/2+z
1/2+x,-y,1/2+z
loop_
_atom_site_type_symbol
_atom_site_label
_atom_site_fract_x
_atom_site_fract_y
_atom_site_fract_z
Si Si1 0.981262 0.605651 0.468038
Si Si2 0.707611 0.014392 0.554628
Si Si3 0.955299 0.418452 0.082449
Si Si4 0.107475 0.233194 0.478277
O O1 0.859014 0.553535 0.433647
O O2 0.964426 0.695091 0.430309
O O3 0.098884 0.569640 0.367324
O O4 0.018265 0.592188 0.691791
O O5 0.750000 0.972638 0.750000
O O6 0.808759 0.069512 0.456460
O O7 0.037910 0.348582 0.992830
O O8 0.000000 0.500000 0.000000
O O9 0.250000 0.250000 0.531990
O O10 0.103733 0.250000 0.250000
#
# Coordination Sequence:
#
# PCOD9391038 Si02
#       4
#     8   8   8   8
#     4  10  22  39  60  91 121 160 212 257 309 373
#     4  11  22  38  62  87 123 163 206 256 312 376
#     4  11  20  36  64  90 120 159 205 257 314 370
#     4   9  19  35  61  89 118 160 209 258 302 367
#
# _framework density 24.500060000000001
#
# number of rings (size 3 to 8) (size 9 to 14) (size 15 to 20)
#    0.000    1.750    2.500    2.250    3.500    1.000 
#    0.000    6.250    0.000    1.500    0.000    0.000 
#    0.000    0.000    0.000    0.000    0.000    0.000 
#
# Total GULP energy -178724.603203 kJ/mol
# GULP energy per Si atom -5585.143850 kJ/mol
# Density = 2.444430 g / cm^3
# Si number density = 24.500060 Si / 1000 Ang^3
#
#
#
# Elastic Constant Matrix: (Units=GPa)
#
#
# Indices 1 2 3 4 5 6 
#
# 1 163.2490 83.7672 18.5870 0.0000 0.0000 0.0000
# 2 83.7672 222.9085 14.7426 0.0000 0.0000 0.0000
# 3 18.5870 14.7426 91.7910 0.0000 0.0000 0.0000
# 4 0.0000 0.0000 0.0000 33.4403 0.0000 0.0000
# 5 0.0000 0.0000 0.0000 0.0000 23.7950 0.0000
# 6 0.0000 0.0000 0.0000 0.0000 0.0000 41.2796
#
#
#
# Elastic Compliance Matrix: (Units=1/GPa)
#
#
# Indices 1 2 3 4 5 6 
#
# 1 0.007698 -0.002820 -0.001106 0.000000 0.000000 0.000000
# 2 -0.002820 0.005567 -0.000323 0.000000 0.000000 0.000000
# 3 -0.001106 -0.000323 0.011170 0.000000 0.000000 0.000000
# 4 0.000000 0.000000 0.000000 0.029904 0.000000 0.000000
# 5 0.000000 0.000000 0.000000 0.000000 0.042026 0.000000
# 6 0.000000 0.000000 0.000000 0.000000 0.000000 0.024225
#
#
# Mechanical properties :
#
#
# Convention : Reuss Voigt Hill
#
# Bulk Modulus (GPa) = 62.74375 79.12689 70.93532
# Shear Modulus (GPa) = 37.20207 43.75977 40.48092
#
# Velocity S-wave (km/s) = 3.90095 4.23082 4.06923
# Velocity P-wave (km/s) = 6.77902 7.49888 7.14802
#
# Compressibility (1/GPa) = 0.01593784
#
# Stress axis : x y z
#
# Youngs Moduli (GPa) = 129.89561 179.62324 89.52416
#
# Poissons Ratio (x) = 0.50652 0.09901
# Poissons Ratio (y) = 0.36629 0.02893
# Poissons Ratio (z) = 0.14366 0.05804
#
# Static dielectric constant tensor:
#      x y z
#    x 2.076630 0.000000 0.000000 
#    y 0.000000 1.885020 0.000000 
#    z 0.000000 0.000000 2.130140 
# 
# From -- ./inp_files/10550.got.cif
#   From: 2010.05.17/outbox.cif.g08.bks.cpg/sg48_6_cif.got.tgz:10550.got - 2010.06.03 20:39:00.
