data_PCOD9391216
_publ_section_title
;
Structure prediction by ZEFSAII (Michael W. Deem and Ramdas Pophale) SiO2 
 PCOD9391216
Probable space group: P N N N
;
_chemical_formula_sum "Si O2"
_cell_formula_units_Z 40
_cell_length_a 16.552694
_cell_length_b 9.045422
_cell_length_c 12.847199
_cell_angle_alpha 90.000000
_cell_angle_beta 90.000000
_cell_angle_gamma 90.000000
_cell_volume 1923.561034
_symmetry_space_group_name_H-M "P N N N"
_symmetry_group_IT_number 48
_space_group.IT_coordinate_system_code '2'
_symmetry_cell_setting 'orthorhombic'
loop_
_space_group_symop_operation_xyz
x,y,z
1/2-x,1/2-y,z
x,1/2-y,1/2-z
1/2-x,y,1/2-z
-x,-y,-z
1/2+x,1/2+y,-z
-x,1/2+y,1/2+z
1/2+x,-y,1/2+z
loop_
_atom_site_type_symbol
_atom_site_label
_atom_site_fract_x
_atom_site_fract_y
_atom_site_fract_z
Si Si1 0.515039 0.099247 0.797844
Si Si2 0.857321 0.813892 0.423097
Si Si3 0.916172 0.687323 0.861121
Si Si4 0.455269 0.583356 0.903669
Si Si5 0.284999 0.010100 0.638833
O O1 0.549482 0.250000 0.750000
O O2 0.443046 0.140601 0.876248
O O3 0.576284 0.988391 0.853410
O O4 0.478541 0.006941 0.700834
O O5 0.863879 0.761558 0.541669
O O6 0.795947 0.950594 0.422983
O O7 0.826180 0.674128 0.356367
O O8 0.889467 0.750000 0.750000
O O9 0.004304 0.757343 0.886508
O O10 0.357941 0.585512 0.908135
O O11 0.500000 0.500000 0.000000
O O12 0.250000 0.959993 0.750000
#
# Coordination Sequence:
#
# PCOD9391216 Si02
#       5
#     8   8   8   8   8
#     4  11  19  35  60  84 114 156 209 251 300 383
#     4  11  19  35  59  90 116 157 210 263 311 385
#     4  10  23  36  56  89 125 160 207 259 321 389
#     4  11  20  36  57  88 124 156 193 261 330 380
#     4  11  20  33  62  90 121 153 206 257 322 384
#
# _framework density 20.794765999999999
#
# number of rings (size 3 to 8) (size 9 to 14) (size 15 to 20)
#    0.000    1.200    6.000    1.800    0.000    0.000 
#    0.000    3.000    0.000    0.000    0.000    1.400 
#    0.000    0.000    0.000    0.000    0.000    0.000 
#
# Total GULP energy -223098.101852 kJ/mol
# GULP energy per Si atom -5577.452546 kJ/mol
# Density = 2.074744 g / cm^3
# Si number density = 20.794766 Si / 1000 Ang^3
#
#
#
# Elastic Constant Matrix: (Units=GPa)
#
#
# Indices 1 2 3 4 5 6 
#
# 1 42.2008 -0.2791 19.4821 0.0000 0.0000 0.0000
# 2 -0.2791 68.4683 -4.4222 0.0000 0.0000 0.0000
# 3 19.4821 -4.4222 98.9039 0.0000 0.0000 0.0000
# 4 0.0000 0.0000 0.0000 16.7518 0.0000 0.0000
# 5 0.0000 0.0000 0.0000 0.0000 28.2264 0.0000
# 6 0.0000 0.0000 0.0000 0.0000 0.0000 20.0135
#
#
#
# Elastic Compliance Matrix: (Units=1/GPa)
#
#
# Indices 1 2 3 4 5 6 
#
# 1 0.026070 -0.000226 -0.005145 0.000000 0.000000 0.000000
# 2 -0.000226 0.014650 0.000700 0.000000 0.000000 0.000000
# 3 -0.005145 0.000700 0.011156 0.000000 0.000000 0.000000
# 4 0.000000 0.000000 0.000000 0.059695 0.000000 0.000000
# 5 0.000000 0.000000 0.000000 0.000000 0.035428 0.000000
# 6 0.000000 0.000000 0.000000 0.000000 0.000000 0.049966
#
#
# Mechanical properties :
#
#
# Convention : Reuss Voigt Hill
#
# Bulk Modulus (GPa) = 23.51198 26.57051 25.04125
# Shear Modulus (GPa) = 22.67723 25.98449 24.33086
#
# Velocity S-wave (km/s) = 3.30589 3.53876 3.42431
# Velocity P-wave (km/s) = 5.08951 5.43160 5.26334
#
# Compressibility (1/GPa) = 0.04253151
#
# Stress axis : x y z
#
# Youngs Moduli (GPa) = 38.35810 68.26141 89.64079
#
# Poissons Ratio (x) = 0.01543 0.46124
# Poissons Ratio (y) = 0.00867 -0.06271
# Poissons Ratio (z) = 0.19737 -0.04775
#
# Static dielectric constant tensor:
#      x y z
#    x 1.794090 0.000000 0.000000 
#    y 0.000000 1.795140 0.000000 
#    z 0.000000 0.000000 1.775100 
# 
# From -- ./inp_files/21903.got.cif
#   From: 2010.05.17/outbox.cif.g08.bks.cpg/sg48_11_cif.got.tgz:21903.got - 2010.06.03 20:39:00.
