data_PCOD9391781
_publ_section_title
;
Structure prediction by ZEFSAII (Michael W. Deem and Ramdas Pophale) SiO2 
 PCOD9391781
Probable space group: P N N N
;
_chemical_formula_sum "Si O2"
_cell_formula_units_Z 26
_cell_length_a 4.816034
_cell_length_b 12.294115
_cell_length_c 21.084779
_cell_angle_alpha 90.000000
_cell_angle_beta 90.000000
_cell_angle_gamma 90.000000
_cell_volume 1248.406062
_symmetry_space_group_name_H-M "P N N N"
_symmetry_group_IT_number 48
_space_group.IT_coordinate_system_code '2'
_symmetry_cell_setting 'orthorhombic'
loop_
_space_group_symop_operation_xyz
x,y,z
1/2-x,1/2-y,z
x,1/2-y,1/2-z
1/2-x,y,1/2-z
-x,-y,-z
1/2+x,1/2+y,-z
-x,1/2+y,1/2+z
1/2+x,-y,1/2+z
loop_
_atom_site_type_symbol
_atom_site_label
_atom_site_fract_x
_atom_site_fract_y
_atom_site_fract_z
Si Si1 0.854095 0.960467 0.097162
Si Si2 0.750000 0.750000 0.250000
Si Si3 0.980164 0.823728 0.977599
Si Si4 0.137215 0.928275 0.314927
O O1 0.580453 0.983804 0.137919
O O2 0.089802 0.912343 0.143265
O O3 0.832798 0.873501 0.040385
O O4 0.941397 0.073060 0.064711
O O5 0.541843 0.674845 0.290746
O O6 0.750000 0.750000 0.944366
O O7 0.250000 0.750000 0.992165
O O8 0.250000 0.982713 0.250000
#
# Coordination Sequence:
#
# PCOD9391781 Si02
#       4
#     8   2   8   8
#     4  11  25  41  65  99 132 170 216 264 328 391
#     4  12  26  36  62 104 120 176 206 252 344 400
#     4  11  24  42  67  96 130 175 218 268 323 382
#     4  12  24  40  62  95 136 164 212 260 329 394
#
# _framework density 20.826557999999999
#
# number of rings (size 3 to 8) (size 9 to 14) (size 15 to 20)
#    0.000    0.615    3.077    4.154    6.462    4.923 
#    0.000    0.000    0.000   13.846    0.000    0.000 
#    0.000    0.000    0.000    0.000    0.000    0.000 
#
# Total GULP energy -145223.399522 kJ/mol
# GULP energy per Si atom -5585.515366 kJ/mol
# Density = 2.077916 g / cm^3
# Si number density = 20.826558 Si / 1000 Ang^3
#
#
#
# Elastic Constant Matrix: (Units=GPa)
#
#
# Indices 1 2 3 4 5 6 
#
# 1 122.3942 19.7858 27.8795 0.0000 0.0000 0.0000
# 2 19.7858 93.8167 21.5332 0.0000 0.0000 0.0000
# 3 27.8795 21.5332 99.3588 0.0000 0.0000 0.0000
# 4 0.0000 0.0000 0.0000 12.1135 0.0000 0.0000
# 5 0.0000 0.0000 0.0000 0.0000 35.4158 0.0000
# 6 0.0000 0.0000 0.0000 0.0000 0.0000 28.8066
#
#
#
# Elastic Compliance Matrix: (Units=1/GPa)
#
#
# Indices 1 2 3 4 5 6 
#
# 1 0.008893 -0.001371 -0.002198 0.000000 0.000000 0.000000
# 2 -0.001371 0.011428 -0.002092 0.000000 0.000000 0.000000
# 3 -0.002198 -0.002092 0.011135 0.000000 0.000000 0.000000
# 4 0.000000 0.000000 0.000000 0.082553 0.000000 0.000000
# 5 0.000000 0.000000 0.000000 0.000000 0.028236 0.000000
# 6 0.000000 0.000000 0.000000 0.000000 0.000000 0.034714
#
#
# Mechanical properties :
#
#
# Convention : Reuss Voigt Hill
#
# Bulk Modulus (GPa) = 49.66853 50.44072 50.05462
# Shear Modulus (GPa) = 25.64209 31.69194 28.66701
#
# Velocity S-wave (km/s) = 3.51268 3.90514 3.71410
# Velocity P-wave (km/s) = 6.35235 6.67873 6.51758
#
# Compressibility (1/GPa) = 0.02013347
#
# Stress axis : x y z
#
# Youngs Moduli (GPa) = 112.45264 87.50131 89.80919
#
# Poissons Ratio (x) = 0.11996 0.19741
# Poissons Ratio (y) = 0.15416 0.18789
# Poissons Ratio (z) = 0.24718 0.18306
#
# Static dielectric constant tensor:
#      x y z
#    x 1.812690 0.000000 0.000000 
#    y 0.000000 1.740030 0.000000 
#    z 0.000000 0.000000 1.781780 
# 
# From -- ./inp_files/29130.got.cif
#   From: 2010.05.17/outbox.cif.g08.bks.cpg/sg48_15_cif.got.tgz:29130.got - 2010.06.03 20:39:00.
