data_PCOD9391409
_publ_section_title
;
Structure prediction by ZEFSAII (Michael W. Deem and Ramdas Pophale) SiO2 
 PCOD9391409
Probable space group: P N N N
;
_chemical_formula_sum "Si O2"
_cell_formula_units_Z 60
_cell_length_a 4.916140
_cell_length_b 21.649525
_cell_length_c 22.949546
_cell_angle_alpha 90.000000
_cell_angle_beta 90.000000
_cell_angle_gamma 90.000000
_cell_volume 2442.568279
_symmetry_space_group_name_H-M "P N N N"
_symmetry_group_IT_number 48
_space_group.IT_coordinate_system_code '2'
_symmetry_cell_setting 'orthorhombic'
loop_
_space_group_symop_operation_xyz
x,y,z
1/2-x,1/2-y,z
x,1/2-y,1/2-z
1/2-x,y,1/2-z
-x,-y,-z
1/2+x,1/2+y,-z
-x,1/2+y,1/2+z
1/2+x,-y,1/2+z
loop_
_atom_site_type_symbol
_atom_site_label
_atom_site_fract_x
_atom_site_fract_y
_atom_site_fract_z
Si Si1 0.182569 0.125270 0.312336
Si Si2 0.687596 0.317527 0.138892
Si Si3 0.750000 0.111426 0.750000
Si Si4 0.457345 0.501756 0.694888
Si Si5 0.257581 0.137865 0.947409
Si Si6 0.985815 0.792737 0.163224
Si Si7 0.203148 0.998351 0.557545
Si Si8 0.290528 0.862410 0.519643
O O1 0.250000 0.152931 0.250000
O O2 0.379427 0.159387 0.357038
O O3 0.866932 0.135224 0.324368
O O4 0.203967 0.051582 0.309030
O O5 0.750000 0.250000 0.162175
O O6 0.804227 0.322683 0.074088
O O7 0.569258 0.065875 0.789475
O O8 0.580477 0.155232 0.707797
O O9 0.250000 0.515393 0.750000
O O10 0.370984 0.502572 0.626543
O O11 0.164710 0.173911 0.890698
O O12 0.162119 0.065996 0.944699
O O13 0.570751 0.138066 0.967340
O O14 0.073377 0.164854 0.998472
O O15 0.750000 0.750000 0.188196
O O16 0.250000 0.750000 0.148354
O O17 0.334220 0.931489 0.546039
O O18 0.000000 0.000000 0.500000
#
# Coordination Sequence:
#
# PCOD9391409 Si02
#       8
#     8   8   4   8   8   8   8   8
#     4  12  26  47  74 110 149 196 256 325 395 462
#     4  12  27  46  72 105 152 207 260 315 387 478
#     4  12  31  48  88 114 159 212 278 338 424 492
#     4  12  26  49  80 121 163 210 267 349 414 506
#     4  11  25  47  76 109 149 202 260 322 408 479
#     4  12  30  54  79 113 161 212 273 335 402 492
#     4  10  24  44  77 114 157 197 260 333 416 473
#     4  11  24  45  75 112 153 199 257 335 392 481
#
# _framework density 24.564309000000002
#
# number of rings (size 3 to 8) (size 9 to 14) (size 15 to 20)
#    0.000    0.533    2.000    4.600    9.333    4.800 
#    0.000    0.000    0.000    0.000    0.000    0.000 
#    0.000    0.000    0.000    0.000    0.000    0.000 
#
# Total GULP energy -335048.451372 kJ/mol
# GULP energy per Si atom -5584.140856 kJ/mol
# Density = 2.450840 g / cm^3
# Si number density = 24.564309 Si / 1000 Ang^3
#
#
#
# Elastic Constant Matrix: (Units=GPa)
#
#
# Indices 1 2 3 4 5 6 
#
# 1 86.8402 40.7036 32.9477 0.0000 0.0000 0.0000
# 2 40.7036 132.1088 47.0540 0.0000 0.0000 0.0000
# 3 32.9477 47.0540 172.1877 0.0000 0.0000 0.0000
# 4 0.0000 0.0000 0.0000 46.3970 0.0000 0.0000
# 5 0.0000 0.0000 0.0000 0.0000 31.0501 0.0000
# 6 0.0000 0.0000 0.0000 0.0000 0.0000 42.0120
#
#
#
# Elastic Compliance Matrix: (Units=1/GPa)
#
#
# Indices 1 2 3 4 5 6 
#
# 1 0.013868 -0.003686 -0.001646 0.000000 0.000000 0.000000
# 2 -0.003686 0.009366 -0.001854 0.000000 0.000000 0.000000
# 3 -0.001646 -0.001854 0.006629 0.000000 0.000000 0.000000
# 4 0.000000 0.000000 0.000000 0.021553 0.000000 0.000000
# 5 0.000000 0.000000 0.000000 0.000000 0.032206 0.000000
# 6 0.000000 0.000000 0.000000 0.000000 0.000000 0.023803
#
#
# Mechanical properties :
#
#
# Convention : Reuss Voigt Hill
#
# Bulk Modulus (GPa) = 64.55951 70.28301 67.42126
# Shear Modulus (GPa) = 39.38217 41.92061 40.65139
#
# Velocity S-wave (km/s) = 4.00838 4.13554 4.07246
# Velocity P-wave (km/s) = 6.91098 7.17479 7.04412
#
# Compressibility (1/GPa) = 0.01548958
#
# Stress axis : x y z
#
# Youngs Moduli (GPa) = 72.10909 106.77285 150.84674
#
# Poissons Ratio (x) = 0.39361 0.24832
# Poissons Ratio (y) = 0.26583 0.27967
# Poissons Ratio (z) = 0.11870 0.19795
#
# Static dielectric constant tensor:
#      x y z
#    x 1.920480 0.000000 0.000000 
#    y 0.000000 1.998640 0.000000 
#    z 0.000000 0.000000 2.038550 
# 
# From -- ./inp_files/35447.got.cif
#   From: 2010.05.17/outbox.cif.g08.bks.cpg/sg48_18_cif.got.tgz:35447.got - 2010.06.03 20:39:00.
