data_PCOD9391446
_publ_section_title
;
Structure prediction by ZEFSAII (Michael W. Deem and Ramdas Pophale) SiO2 
 PCOD9391446
Probable space group: P N N N
;
_chemical_formula_sum "Si O2"
_cell_formula_units_Z 46
_cell_length_a 11.289436
_cell_length_b 10.574210
_cell_length_c 16.217342
_cell_angle_alpha 90.000000
_cell_angle_beta 90.000000
_cell_angle_gamma 90.000000
_cell_volume 1935.975480
_symmetry_space_group_name_H-M "P N N N"
_symmetry_group_IT_number 48
_space_group.IT_coordinate_system_code '2'
_symmetry_cell_setting 'orthorhombic'
loop_
_space_group_symop_operation_xyz
x,y,z
1/2-x,1/2-y,z
x,1/2-y,1/2-z
1/2-x,y,1/2-z
-x,-y,-z
1/2+x,1/2+y,-z
-x,1/2+y,1/2+z
1/2+x,-y,1/2+z
loop_
_atom_site_type_symbol
_atom_site_label
_atom_site_fract_x
_atom_site_fract_y
_atom_site_fract_z
Si Si1 0.450407 0.713858 0.340673
Si Si2 0.854244 0.034075 0.180655
Si Si3 0.575823 0.262598 0.428135
Si Si4 0.628777 0.811065 0.456017
Si Si5 0.250000 0.250000 0.250000
Si Si6 0.250000 0.750000 0.064364
Si Si7 0.939457 0.942249 0.688114
O O1 0.485906 0.750000 0.250000
O O2 0.566052 0.709866 0.395685
O O3 0.351023 0.808272 0.376861
O O4 0.390702 0.577357 0.338393
O O5 0.750000 0.019778 0.250000
O O6 0.857685 0.168778 0.134415
O O7 0.977691 0.033772 0.231971
O O8 0.852418 0.929878 0.106410
O O9 0.469801 0.180419 0.471727
O O10 0.662072 0.315629 0.499208
O O11 0.522685 0.379613 0.379941
O O12 0.750000 0.750000 0.486994
O O13 0.163563 0.157675 0.298869
#
# Coordination Sequence:
#
# PCOD9391446 Si02
#       7
#     8   8   8   8   2   4   8
#     4  11  24  45  73 103 139 184 248 298 360 442
#     4  12  24  45  76 105 148 196 257 312 364 453
#     4  11  25  46  67 105 150 191 246 307 386 444
#     4  11  26  43  72 110 150 194 242 312 384 449
#     4  12  28  44  68 108 136 184 242 292 364 424
#     4  10  25  42  67 104 138 186 234 294 375 428
#     4  12  26  45  74 102 142 189 247 304 362 444
#
# _framework density 23.760632999999999
#
# number of rings (size 3 to 8) (size 9 to 14) (size 15 to 20)
#    0.000    0.696    3.478    2.870    3.652    4.870 
#    0.000    0.000    0.000    0.000    0.000    0.000 
#    0.000    0.000    0.000    0.000    0.000    0.000 
#
# Total GULP energy -256736.204468 kJ/mol
# GULP energy per Si atom -5581.221836 kJ/mol
# Density = 2.370655 g / cm^3
# Si number density = 23.760633 Si / 1000 Ang^3
#
#
#
# Elastic Constant Matrix: (Units=GPa)
#
#
# Indices 1 2 3 4 5 6 
#
# 1 94.6580 24.9109 8.8395 0.0000 0.0000 0.0000
# 2 24.9109 96.5961 21.9731 0.0000 0.0000 0.0000
# 3 8.8395 21.9731 72.5482 0.0000 0.0000 0.0000
# 4 0.0000 0.0000 0.0000 24.6217 0.0000 0.0000
# 5 0.0000 0.0000 0.0000 0.0000 25.1973 0.0000
# 6 0.0000 0.0000 0.0000 0.0000 0.0000 11.8327
#
#
#
# Elastic Compliance Matrix: (Units=1/GPa)
#
#
# Indices 1 2 3 4 5 6 
#
# 1 0.011353 -0.002806 -0.000533 0.000000 0.000000 0.000000
# 2 -0.002806 0.011812 -0.003236 0.000000 0.000000 0.000000
# 3 -0.000533 -0.003236 0.014829 0.000000 0.000000 0.000000
# 4 0.000000 0.000000 0.000000 0.040615 0.000000 0.000000
# 5 0.000000 0.000000 0.000000 0.000000 0.039687 0.000000
# 6 0.000000 0.000000 0.000000 0.000000 0.000000 0.084511
#
#
# Mechanical properties :
#
#
# Convention : Reuss Voigt Hill
#
# Bulk Modulus (GPa) = 40.25264 41.69436 40.97350
# Shear Modulus (GPa) = 22.29771 26.20227 24.24999
#
# Velocity S-wave (km/s) = 3.06671 3.32439 3.19814
# Velocity P-wave (km/s) = 5.43298 5.68517 5.56050
#
# Compressibility (1/GPa) = 0.02484309
#
# Stress axis : x y z
#
# Youngs Moduli (GPa) = 88.08478 84.65861 67.43581
#
# Poissons Ratio (x) = 0.23759 0.03596
# Poissons Ratio (y) = 0.24720 0.21820
# Poissons Ratio (z) = 0.04697 0.27393
#
# Static dielectric constant tensor:
#      x y z
#    x 1.974330 0.000000 0.000000 
#    y 0.000000 1.919070 0.000000 
#    z 0.000000 0.000000 1.931490 
# 
# From -- ./inp_files/31054.got.cif
#   From: 2010.05.17/outbox.cif.g08.bks.cpg/sg48_16_cif.got.tgz:31054.got - 2010.06.03 20:39:00.
