data_PCOD9391856
_publ_section_title
;
Structure prediction by ZEFSAII (Michael W. Deem and Ramdas Pophale) SiO2 
 PCOD9391856
Probable space group: P N N N
;
_chemical_formula_sum "Si O2"
_cell_formula_units_Z 32
_cell_length_a 13.138789
_cell_length_b 4.985451
_cell_length_c 20.972606
_cell_angle_alpha 90.000000
_cell_angle_beta 90.000000
_cell_angle_gamma 90.000000
_cell_volume 1373.764181
_symmetry_space_group_name_H-M "P N N N"
_symmetry_group_IT_number 48
_space_group.IT_coordinate_system_code '2'
_symmetry_cell_setting 'orthorhombic'
loop_
_space_group_symop_operation_xyz
x,y,z
1/2-x,1/2-y,z
x,1/2-y,1/2-z
1/2-x,y,1/2-z
-x,-y,-z
1/2+x,1/2+y,-z
-x,1/2+y,1/2+z
1/2+x,-y,1/2+z
loop_
_atom_site_type_symbol
_atom_site_label
_atom_site_fract_x
_atom_site_fract_y
_atom_site_fract_z
Si Si1 0.250000 0.250000 0.443115
Si Si2 0.250000 0.750000 0.146402
Si Si3 0.920761 0.250000 0.750000
Si Si4 0.935802 0.250000 0.250000
Si Si5 0.368286 0.767142 0.611265
Si Si6 0.932746 0.722556 0.039079
O O1 0.272131 0.500806 0.398534
O O2 0.155173 0.292305 0.489026
O O3 0.153956 0.812314 0.191067
O O4 0.990532 0.502033 0.765067
O O5 0.873809 0.323242 0.313545
O O6 0.250000 0.750000 0.588862
O O7 0.403458 0.465230 0.598177
O O8 0.440678 0.982149 0.573251
O O9 0.000000 0.500000 0.000000
#
# Coordination Sequence:
#
# PCOD9391856 Si02
#       6
#     4   4   4   4   8   8
#     4  12  24  45  74 105 138 192 232 294 370 440
#     4  11  26  44  74  96 150 181 232 292 372 423
#     4  11  26  48  65 110 136 184 237 304 344 441
#     4  12  27  43  78  98 138 186 248 293 361 426
#     4  12  25  50  69 104 144 187 239 302 360 432
#     4  12  27  45  73 105 146 187 239 297 365 439
#
# _framework density 23.293662999999999
#
# number of rings (size 3 to 8) (size 9 to 14) (size 15 to 20)
#    0.000    0.250    2.500    5.625   10.500    2.000 
#    0.000    3.750    0.000    0.000    0.000    0.000 
#    0.000    0.000    0.000    0.000    0.000    0.000 
#
# Total GULP energy -178617.389427 kJ/mol
# GULP energy per Si atom -5581.793420 kJ/mol
# Density = 2.324065 g / cm^3
# Si number density = 23.293663 Si / 1000 Ang^3
#
#
#
# Elastic Constant Matrix: (Units=GPa)
#
#
# Indices 1 2 3 4 5 6 
#
# 1 58.4718 -0.3710 7.4379 0.0000 0.0000 0.0000
# 2 -0.3710 124.8365 9.7336 0.0000 0.0000 0.0000
# 3 7.4379 9.7336 116.9847 0.0000 0.0000 0.0000
# 4 0.0000 0.0000 0.0000 41.8274 0.0000 0.0000
# 5 0.0000 0.0000 0.0000 0.0000 60.5385 0.0000
# 6 0.0000 0.0000 0.0000 0.0000 0.0000 39.0743
#
#
#
# Elastic Compliance Matrix: (Units=1/GPa)
#
#
# Indices 1 2 3 4 5 6 
#
# 1 0.017244 0.000138 -0.001108 0.000000 0.000000 0.000000
# 2 0.000138 0.008064 -0.000680 0.000000 0.000000 0.000000
# 3 -0.001108 -0.000680 0.008675 0.000000 0.000000 0.000000
# 4 0.000000 0.000000 0.000000 0.023908 0.000000 0.000000
# 5 0.000000 0.000000 0.000000 0.000000 0.016518 0.000000
# 6 0.000000 0.000000 0.000000 0.000000 0.000000 0.025592
#
#
# Mechanical properties :
#
#
# Convention : Reuss Voigt Hill
#
# Bulk Modulus (GPa) = 32.59106 37.09934 34.84520
# Shear Modulus (GPa) = 44.04157 47.18753 45.61455
#
# Velocity S-wave (km/s) = 4.35295 4.50573 4.43000
# Velocity P-wave (km/s) = 6.26785 6.55974 6.41546
#
# Compressibility (1/GPa) = 0.03068326
#
# Stress axis : x y z
#
# Youngs Moduli (GPa) = 57.99095 124.00974 115.27224
#
# Poissons Ratio (x) = -0.01707 0.12770
# Poissons Ratio (y) = -0.00798 0.07835
# Poissons Ratio (z) = 0.06424 0.08429
#
# Static dielectric constant tensor:
#      x y z
#    x 1.836400 0.000000 0.000000 
#    y 0.000000 1.685690 0.000000 
#    z 0.000000 0.000000 1.891810 
# 
# From -- ./inp_files/4910.got.cif
#   From: 2010.05.17/outbox.cif.g08.bks.cpg/sg48_3_cif.got.tgz:4910.got - 2010.06.03 20:39:00.
