data_PCOD9391890
_publ_section_title
;
Structure prediction by ZEFSAII (Michael W. Deem and Ramdas Pophale) SiO2 
 PCOD9391890
Probable space group: P N N N
;
_chemical_formula_sum "Si O2"
_cell_formula_units_Z 48
_cell_length_a 9.182188
_cell_length_b 16.002760
_cell_length_c 15.424285
_cell_angle_alpha 90.000000
_cell_angle_beta 90.000000
_cell_angle_gamma 90.000000
_cell_volume 2266.449849
_symmetry_space_group_name_H-M "P N N N"
_symmetry_group_IT_number 48
_space_group.IT_coordinate_system_code '2'
_symmetry_cell_setting 'orthorhombic'
loop_
_space_group_symop_operation_xyz
x,y,z
1/2-x,1/2-y,z
x,1/2-y,1/2-z
1/2-x,y,1/2-z
-x,-y,-z
1/2+x,1/2+y,-z
-x,1/2+y,1/2+z
1/2+x,-y,1/2+z
loop_
_atom_site_type_symbol
_atom_site_label
_atom_site_fract_x
_atom_site_fract_y
_atom_site_fract_z
Si Si1 0.011166 0.248107 0.849389
Si Si2 0.094449 0.153748 0.140123
Si Si3 0.418596 0.144899 0.158979
Si Si4 0.157939 0.676881 0.509763
Si Si5 0.762505 0.608044 0.151173
Si Si6 0.135850 0.957660 0.545188
O O1 0.955432 0.250000 0.750000
O O2 0.092065 0.336452 0.863460
O O3 0.133665 0.175481 0.856516
O O4 0.904237 0.223704 0.925897
O O5 0.258604 0.122159 0.119493
O O6 0.086655 0.254968 0.147502
O O7 0.071758 0.124174 0.238921
O O8 0.970314 0.138184 0.069287
O O9 0.555264 0.102367 0.114260
O O10 0.250000 0.750000 0.557858
O O11 0.265147 0.601535 0.486695
O O12 0.750000 0.577826 0.250000
O O13 0.767465 0.529291 0.089170
O O14 0.000000 0.000000 0.500000
#
# Coordination Sequence:
#
# PCOD9391890 Si02
#       6
#     8   8   8   8   8   8
#     4   9  21  45  70  92 123 172 234 284 335 394
#     4   9  20  40  67  92 123 174 221 254 321 394
#     4   9  20  41  63  92 132 172 207 263 323 391
#     4  12  24  39  66 101 127 173 228 276 330 392
#     4   9  21  42  68  93 127 176 220 276 342 395
#     4  12  26  40  59 101 144 171 215 274 340 397
#
# _framework density 21.178497
#
# number of rings (size 3 to 8) (size 9 to 14) (size 15 to 20)
#    0.000    2.000    1.667    3.000    4.667    2.333 
#    0.000    1.667    0.000    0.000    0.000    0.000 
#    0.000    0.000    0.000    0.000    0.000    0.000 
#
# Total GULP energy -267772.328214 kJ/mol
# GULP energy per Si atom -5578.590171 kJ/mol
# Density = 2.113029 g / cm^3
# Si number density = 21.178497 Si / 1000 Ang^3
#
#
#
# Elastic Constant Matrix: (Units=GPa)
#
#
# Indices 1 2 3 4 5 6 
#
# 1 78.2493 10.7091 53.3193 0.0000 0.0000 0.0000
# 2 10.7091 68.2620 33.3101 0.0000 0.0000 0.0000
# 3 53.3193 33.3101 70.1283 0.0000 0.0000 0.0000
# 4 0.0000 0.0000 0.0000 26.7910 0.0000 0.0000
# 5 0.0000 0.0000 0.0000 0.0000 19.6471 0.0000
# 6 0.0000 0.0000 0.0000 0.0000 0.0000 24.0500
#
#
#
# Elastic Compliance Matrix: (Units=1/GPa)
#
#
# Indices 1 2 3 4 5 6 
#
# 1 0.029730 0.008287 -0.026540 0.000000 0.000000 0.000000
# 2 0.008287 0.021379 -0.016456 0.000000 0.000000 0.000000
# 3 -0.026540 -0.016456 0.042255 0.000000 0.000000 0.000000
# 4 0.000000 0.000000 0.000000 0.037326 0.000000 0.000000
# 5 0.000000 0.000000 0.000000 0.000000 0.050898 0.000000
# 6 0.000000 0.000000 0.000000 0.000000 0.000000 0.041580
#
#
# Mechanical properties :
#
#
# Convention : Reuss Voigt Hill
#
# Bulk Modulus (GPa) = 41.76032 45.70185 43.73109
# Shear Modulus (GPa) = 16.63516 22.05103 19.34310
#
# Velocity S-wave (km/s) = 2.80567 3.23026 3.02542
# Velocity P-wave (km/s) = 5.50062 5.96146 5.73567
#
# Compressibility (1/GPa) = 0.02394618
#
# Stress axis : x y z
#
# Youngs Moduli (GPa) = 33.63582 46.77427 23.66602
#
# Poissons Ratio (x) = -0.38761 0.62810
# Poissons Ratio (y) = -0.27874 0.38944
# Poissons Ratio (z) = 0.89271 0.76970
#
# Static dielectric constant tensor:
#      x y z
#    x 1.814880 0.000000 0.000000 
#    y 0.000000 1.749460 0.000000 
#    z 0.000000 0.000000 1.778510 
# 
# From -- ./inp_files/30258.got.cif
#   From: 2010.05.17/outbox.cif.g08.bks.cpg/sg48_16_cif.got.tgz:30258.got - 2010.06.03 20:39:00.
