data_PCOD9391651
_publ_section_title
;
Structure prediction by ZEFSAII (Michael W. Deem and Ramdas Pophale) SiO2 
 PCOD9391651
Probable space group: P N N N
;
_chemical_formula_sum "Si O2"
_cell_formula_units_Z 40
_cell_length_a 8.505697
_cell_length_b 8.778011
_cell_length_c 27.226565
_cell_angle_alpha 90.000000
_cell_angle_beta 90.000000
_cell_angle_gamma 90.000000
_cell_volume 2032.819795
_symmetry_space_group_name_H-M "P N N N"
_symmetry_group_IT_number 48
_space_group.IT_coordinate_system_code '2'
_symmetry_cell_setting 'orthorhombic'
loop_
_space_group_symop_operation_xyz
x,y,z
1/2-x,1/2-y,z
x,1/2-y,1/2-z
1/2-x,y,1/2-z
-x,-y,-z
1/2+x,1/2+y,-z
-x,1/2+y,1/2+z
1/2+x,-y,1/2+z
loop_
_atom_site_type_symbol
_atom_site_label
_atom_site_fract_x
_atom_site_fract_y
_atom_site_fract_z
Si Si1 0.188484 0.579242 0.400120
Si Si2 0.681500 0.929553 0.998718
Si Si3 0.686146 0.578409 0.101315
Si Si4 0.187380 0.077134 0.301702
Si Si5 0.187359 0.922149 0.699046
O O1 0.250000 0.750000 0.403896
O O2 0.248769 0.492299 0.448204
O O3 0.252960 0.508366 0.349788
O O4 0.000959 0.576838 0.398968
O O5 0.750000 0.750000 0.998924
O O6 0.752898 0.991028 0.049960
O O7 0.500000 0.000000 0.000000
O O8 0.750000 0.750000 0.103366
O O9 0.750064 0.498222 0.149801
O O10 0.250000 0.250000 0.304633
O O11 0.250000 0.011618 0.250000
O O12 0.999982 0.077638 0.300400
O O13 0.250000 0.750000 0.698328
O O14 0.250000 0.993770 0.750000
#
# Coordination Sequence:
#
# PCOD9391651 Si02
#       5
#     8   8   8   8   8
#     4  12  24  41  65  94 126 166 212 264 321 383
#     4  11  24  44  67  96 130 168 214 267 324 390
#     4  11  24  42  61  90 125 163 206 258 314 376
#     4  11  22  40  63  91 124 164 211 261 315 382
#     4  11  22  39  62  91 122 160 204 254 311 374
#
# _framework density 19.677099999999999
#
# number of rings (size 3 to 8) (size 9 to 14) (size 15 to 20)
#    0.000    0.800    0.000   10.800    0.000    3.200 
#    0.000    4.000    0.000    0.000    0.000    0.000 
#    0.000    0.000    0.000    0.000    0.000    0.000 
#
# Total GULP energy -223251.158963 kJ/mol
# GULP energy per Si atom -5581.278974 kJ/mol
# Density = 1.963231 g / cm^3
# Si number density = 19.677100 Si / 1000 Ang^3
#
#
#
# Elastic Constant Matrix: (Units=GPa)
#
#
# Indices 1 2 3 4 5 6 
#
# 1 253.7903 45.3087 107.2359 0.0000 0.0000 0.0000
# 2 45.3087 75.6474 77.6499 0.0000 0.0000 0.0000
# 3 107.2359 77.6499 250.8390 0.0000 0.0000 0.0000
# 4 0.0000 0.0000 0.0000 53.5615 0.0000 0.0000
# 5 0.0000 0.0000 0.0000 0.0000 47.0195 0.0000
# 6 0.0000 0.0000 0.0000 0.0000 0.0000 34.5170
#
#
#
# Elastic Compliance Matrix: (Units=1/GPa)
#
#
# Indices 1 2 3 4 5 6 
#
# 1 0.004876 -0.001144 -0.001730 0.000000 0.000000 0.000000
# 2 -0.001144 0.019645 -0.005592 0.000000 0.000000 0.000000
# 3 -0.001730 -0.005592 0.006457 0.000000 0.000000 0.000000
# 4 0.000000 0.000000 0.000000 0.018670 0.000000 0.000000
# 5 0.000000 0.000000 0.000000 0.000000 0.021268 0.000000
# 6 0.000000 0.000000 0.000000 0.000000 0.000000 0.028971
#
#
# Mechanical properties :
#
#
# Convention : Reuss Voigt Hill
#
# Bulk Modulus (GPa) = 71.20123 115.62950 93.41536
# Shear Modulus (GPa) = 41.15189 50.35842 45.75515
#
# Velocity S-wave (km/s) = 4.57810 5.06438 4.82737
# Velocity P-wave (km/s) = 8.01303 9.64823 8.86840
#
# Compressibility (1/GPa) = 0.01404470
#
# Stress axis : x y z
#
# Youngs Moduli (GPa) = 205.10318 50.90446 154.86257
#
# Poissons Ratio (x) = 0.05825 0.26793
# Poissons Ratio (y) = 0.23470 0.86599
# Poissons Ratio (z) = 0.35486 0.28466
#
# Static dielectric constant tensor:
#      x y z
#    x 1.674590 0.000000 0.000000 
#    y 0.000000 1.709600 0.000000 
#    z 0.000000 0.000000 1.693600 
# 
# From -- ./inp_files/37380.got.cif
#   From: 2010.05.17/outbox.cif.g08.bks.cpg/sg48_19_cif.got.tgz:37380.got - 2010.06.03 20:39:00.
