data_PCOD9391692
_publ_section_title
;
Structure prediction by ZEFSAII (Michael W. Deem and Ramdas Pophale) SiO2 
 PCOD9391692
Probable space group: P N N N
;
_chemical_formula_sum "Si O2"
_cell_formula_units_Z 32
_cell_length_a 12.676999
_cell_length_b 10.410079
_cell_length_c 9.187649
_cell_angle_alpha 90.000000
_cell_angle_beta 90.000000
_cell_angle_gamma 90.000000
_cell_volume 1212.480818
_symmetry_space_group_name_H-M "P N N N"
_symmetry_group_IT_number 48
_space_group.IT_coordinate_system_code '2'
_symmetry_cell_setting 'orthorhombic'
loop_
_space_group_symop_operation_xyz
x,y,z
1/2-x,1/2-y,z
x,1/2-y,1/2-z
1/2-x,y,1/2-z
-x,-y,-z
1/2+x,1/2+y,-z
-x,1/2+y,1/2+z
1/2+x,-y,1/2+z
loop_
_atom_site_type_symbol
_atom_site_label
_atom_site_fract_x
_atom_site_fract_y
_atom_site_fract_z
Si Si1 0.653538 0.410115 0.855649
Si Si2 0.455898 0.421129 0.641582
Si Si3 0.862078 0.808018 0.954544
Si Si4 0.401261 0.857861 0.651812
O O1 0.750000 0.398476 0.750000
O O2 0.554225 0.398438 0.749160
O O3 0.664808 0.540225 0.954440
O O4 0.637469 0.319805 0.990971
O O5 0.500000 0.500000 0.500000
O O6 0.396849 0.293442 0.580969
O O7 0.388568 0.513090 0.750064
O O8 0.750000 0.750000 0.901610
O O9 0.971565 0.830937 0.866373
O O10 0.356589 0.750000 0.750000
#
# Coordination Sequence:
#
# PCOD9391692 Si02
#       4
#     8   8   8   8
#     4  11  27  49  80 115 158 213 271 335 410 486
#     4  11  22  44  78 119 161 204 263 339 399 471
#     4  11  24  46  85 115 150 207 276 326 388 475
#     4  11  25  49  78 115 165 208 260 338 412 484
#
# _framework density 26.392168999999999
#
# number of rings (size 3 to 8) (size 9 to 14) (size 15 to 20)
#    0.000    1.000    2.500    4.500    3.500    4.000 
#    0.000   18.750   33.000    0.000    0.000    0.000 
#    0.000    0.000    0.000    0.000    0.000    0.000 
#
# Total GULP energy -178180.285123 kJ/mol
# GULP energy per Si atom -5568.133910 kJ/mol
# Density = 2.633210 g / cm^3
# Si number density = 26.392169 Si / 1000 Ang^3
#
#
#
# Elastic Constant Matrix: (Units=GPa)
#
#
# Indices 1 2 3 4 5 6 
#
# 1 111.4416 29.0013 44.5293 0.0000 0.0000 0.0000
# 2 29.0013 96.0585 63.3460 0.0000 0.0000 0.0000
# 3 44.5293 63.3460 270.1715 0.0000 0.0000 0.0000
# 4 0.0000 0.0000 0.0000 64.7363 0.0000 0.0000
# 5 0.0000 0.0000 0.0000 0.0000 -42.9603 0.0000
# 6 0.0000 0.0000 0.0000 0.0000 0.0000 9.2093
#
#
#
# Elastic Compliance Matrix: (Units=1/GPa)
#
#
# Indices 1 2 3 4 5 6 
#
# 1 0.010014 -0.002289 -0.001114 0.000000 0.000000 0.000000
# 2 -0.002289 0.012838 -0.002633 0.000000 0.000000 0.000000
# 3 -0.001114 -0.002633 0.004502 0.000000 0.000000 0.000000
# 4 0.000000 0.000000 0.000000 0.015447 0.000000 0.000000
# 5 0.000000 0.000000 0.000000 0.000000 -0.023277 0.000000
# 6 0.000000 0.000000 0.000000 0.000000 0.000000 0.108586
#
#
# Mechanical properties :
#
#
# Convention : Reuss Voigt Hill
#
# Bulk Modulus (GPa) = 65.43237 83.49164 74.46200
# Shear Modulus (GPa) = 34.41746 28.91672 31.66709
#
# Velocity S-wave (km/s) = 3.61512 3.31366 3.46767
# Velocity P-wave (km/s) = 6.50166 6.80765 6.65642
#
# Compressibility (1/GPa) = 0.01528296
#
# Stress axis : x y z
#
# Youngs Moduli (GPa) = 99.86002 77.89675 222.11281
#
# Poissons Ratio (x) = 0.17829 0.24740
# Poissons Ratio (y) = 0.22856 0.58476
# Poissons Ratio (z) = 0.11123 0.20508
#
# Static dielectric constant tensor:
#      x y z
#    x 1.789240 0.000000 0.000000 
#    y 0.000000 3.779870 0.000000 
#    z 0.000000 0.000000 1.958130 
# 
# From -- ./inp_files/11953.got.cif
#   From: 2010.05.17/outbox.cif.g08.bks.cpg/sg48_6_cif.got.tgz:11953.got - 2010.06.03 20:39:00.
