data_PCOD9391878
_publ_section_title
;
Structure prediction by ZEFSAII (Michael W. Deem and Ramdas Pophale) SiO2 
 PCOD9391878
Probable space group: P N N N
;
_chemical_formula_sum "Si O2"
_cell_formula_units_Z 38
_cell_length_a 11.037197
_cell_length_b 22.668059
_cell_length_c 6.563367
_cell_angle_alpha 90.000000
_cell_angle_beta 90.000000
_cell_angle_gamma 90.000000
_cell_volume 1642.100819
_symmetry_space_group_name_H-M "P N N N"
_symmetry_group_IT_number 48
_space_group.IT_coordinate_system_code '2'
_symmetry_cell_setting 'orthorhombic'
loop_
_space_group_symop_operation_xyz
x,y,z
1/2-x,1/2-y,z
x,1/2-y,1/2-z
1/2-x,y,1/2-z
-x,-y,-z
1/2+x,1/2+y,-z
-x,1/2+y,1/2+z
1/2+x,-y,1/2+z
loop_
_atom_site_type_symbol
_atom_site_label
_atom_site_fract_x
_atom_site_fract_y
_atom_site_fract_z
Si Si1 0.750000 0.930640 0.250000
Si Si2 0.337128 0.529026 0.445388
Si Si3 0.250000 0.250000 0.750000
Si Si4 0.499025 0.436201 0.888414
Si Si5 0.621999 0.133127 0.256508
Si Si6 0.133618 0.188575 0.367848
O O1 0.870882 0.904288 0.151381
O O2 0.795485 0.971072 0.438114
O O3 0.250000 0.536691 0.250000
O O4 0.461942 0.540706 0.332145
O O5 0.339612 0.579260 0.613099
O O6 0.172829 0.208139 0.595924
O O7 0.500000 0.500000 0.000000
O O8 0.581551 0.392220 0.022042
O O9 0.750000 0.169695 0.250000
O O10 0.496470 0.157715 0.159544
O O11 0.117850 0.250000 0.250000
O O12 0.250000 0.159231 0.250000
#
# Coordination Sequence:
#
# PCOD9391878 Si02
#       6
#     4   8   2   8   8   8
#     4  12  24  40  61  86 125 185 230 278 325 390
#     4  12  21  40  61  86 127 179 216 276 323 384
#     4   8  18  48  74 104 128 176 202 274 354 398
#     4  12  24  40  61  88 130 175 227 275 335 381
#     4  12  24  42  67 100 132 175 225 275 335 401
#     4   9  22  45  75  97 135 167 211 274 339 411
#
# _framework density 23.141089000000001
#
# number of rings (size 3 to 8) (size 9 to 14) (size 15 to 20)
#    0.000    1.053    7.368    0.632    0.000    5.474 
#    0.000    1.053    0.000    0.000    0.000    0.000 
#    0.000    0.000    0.000    0.000    0.000    0.000 
#
# Total GULP energy -211637.981711 kJ/mol
# GULP energy per Si atom -5569.420571 kJ/mol
# Density = 2.308842 g / cm^3
# Si number density = 23.141089 Si / 1000 Ang^3
#
#
#
# Elastic Constant Matrix: (Units=GPa)
#
#
# Indices 1 2 3 4 5 6 
#
# 1 214.0617 31.3539 73.6541 0.0000 0.0000 0.0000
# 2 31.3539 30.9128 29.8862 0.0000 0.0000 0.0000
# 3 73.6541 29.8862 174.1721 0.0000 0.0000 0.0000
# 4 0.0000 0.0000 0.0000 21.1293 0.0000 0.0000
# 5 0.0000 0.0000 0.0000 0.0000 56.8874 0.0000
# 6 0.0000 0.0000 0.0000 0.0000 0.0000 69.7557
#
#
#
# Elastic Compliance Matrix: (Units=1/GPa)
#
#
# Indices 1 2 3 4 5 6 
#
# 1 0.005906 -0.004287 -0.001762 0.000000 0.000000 0.000000
# 2 -0.004287 0.041894 -0.005376 0.000000 0.000000 0.000000
# 3 -0.001762 -0.005376 0.007409 0.000000 0.000000 0.000000
# 4 0.000000 0.000000 0.000000 0.047328 0.000000 0.000000
# 5 0.000000 0.000000 0.000000 0.000000 0.017579 0.000000
# 6 0.000000 0.000000 0.000000 0.000000 0.000000 0.014336
#
#
# Mechanical properties :
#
#
# Convention : Reuss Voigt Hill
#
# Bulk Modulus (GPa) = 30.90230 76.54832 53.72531
# Shear Modulus (GPa) = 29.74671 48.50466 39.12568
#
# Velocity S-wave (km/s) = 3.58921 4.58322 4.11633
# Velocity P-wave (km/s) = 5.52806 7.82040 6.77193
#
# Compressibility (1/GPa) = 0.03236005
#
# Stress axis : x y z
#
# Youngs Moduli (GPa) = 169.33032 23.86974 134.97187
#
# Poissons Ratio (x) = 0.10232 0.23780
# Poissons Ratio (y) = 0.72584 0.72560
# Poissons Ratio (z) = 0.29833 0.12832
#
# Static dielectric constant tensor:
#      x y z
#    x 2.257700 0.000000 0.000000 
#    y 0.000000 1.927270 0.000000 
#    z 0.000000 0.000000 1.831450 
# 
# From -- ./inp_files/2462.got.cif
#   From: 2010.05.17/outbox.cif.g08.bks.cpg/sg48_2_cif.got.tgz:2462.got - 2010.06.03 20:39:00.
