data_PCOD9391959
_publ_section_title
;
Structure prediction by ZEFSAII (Michael W. Deem and Ramdas Pophale) SiO2 
 PCOD9391959
Probable space group: P N N N
;
_chemical_formula_sum "Si O2"
_cell_formula_units_Z 60
_cell_length_a 21.000000
_cell_length_b 12.000000
_cell_length_c 12.000000
_cell_angle_alpha 90.000000
_cell_angle_beta 90.000000
_cell_angle_gamma 90.000000
_cell_volume 3024.000000
_symmetry_space_group_name_H-M "P N N N"
_symmetry_group_IT_number 48
_space_group.IT_coordinate_system_code '2'
_symmetry_cell_setting 'orthorhombic'
loop_
_space_group_symop_operation_xyz
x,y,z
1/2-x,1/2-y,z
x,1/2-y,1/2-z
1/2-x,y,1/2-z
-x,-y,-z
1/2+x,1/2+y,-z
-x,1/2+y,1/2+z
1/2+x,-y,1/2+z
loop_
_atom_site_type_symbol
_atom_site_label
_atom_site_fract_x
_atom_site_fract_y
_atom_site_fract_z
Si Si1 0.326863 0.735813 0.617635
Si Si2 0.868272 0.433157 0.530292
Si Si3 0.583531 0.896735 0.348789
Si Si4 0.383693 0.963815 0.026819
Si Si5 0.250000 0.250000 0.512677
Si Si6 0.750542 0.960456 0.618955
Si Si7 0.875702 0.654629 0.123414
Si Si8 0.449383 0.616426 0.249292
O O1 0.250000 0.750000 0.600964
O O2 0.337566 0.750000 0.750000
O O3 0.366755 0.828467 0.551090
O O4 0.354589 0.624016 0.561544
O O5 0.897047 0.532287 0.455138
O O6 0.795098 0.449842 0.564117
O O7 0.903276 0.419326 0.647937
O O8 0.633088 0.897910 0.246092
O O9 0.581786 0.765627 0.376674
O O10 0.517579 0.929225 0.290650
O O11 0.426732 0.920330 0.127907
O O12 0.322136 0.017311 0.084978
O O13 0.410005 0.065408 0.954526
O O14 0.275340 0.154143 0.432015
O O15 0.193355 0.195930 0.582884
O O16 0.750000 0.960532 0.750000
O O17 0.450401 0.750000 0.250000
#
# Coordination Sequence:
#
# PCOD9391959 Si02
#       8
#     8   8   8   8   4   8   8   8
#     4  11  23  38  59  93 134 167 209 265 330 400
#     4  12  23  41  66  92 134 173 215 272 326 392
#     4  11  24  45  62  96 126 174 222 266 320 384
#     4  11  23  40  64  99 124 170 216 265 334 384
#     4  10  21  39  62  94 128 170 204 270 330 386
#     4  11  21  37  61  95 131 166 209 268 328 391
#     4  10  22  41  66  93 132 163 219 267 327 391
#     4  12  24  43  68  90 127 176 223 271 320 386
#
# _framework density 19.841270000000002
#
# number of rings (size 3 to 8) (size 9 to 14) (size 15 to 20)
#    0.000    0.933    6.667    1.400    0.000    1.600 
#    0.000    2.667    0.000    0.000    0.000    0.000 
#    0.000    0.000    0.000    0.000    0.000    0.000 
#
# Total GULP energy -334425.309277 kJ/mol
# GULP energy per Si atom -5573.755155 kJ/mol
# Density = 1.979611 g / cm^3
# Si number density = 19.841270 Si / 1000 Ang^3
#
#
#
# Elastic Constant Matrix: (Units=GPa)
#
#
# Indices 1 2 3 4 5 6 
#
# 1 24.4961 19.7126 12.8931 0.0000 0.0000 0.0000
# 2 19.7126 65.1618 58.2240 0.0000 0.0000 0.0000
# 3 12.8931 58.2240 137.1837 0.0000 0.0000 0.0000
# 4 0.0000 0.0000 0.0000 -23.1869 0.0000 0.0000
# 5 0.0000 0.0000 0.0000 0.0000 52.6902 0.0000
# 6 0.0000 0.0000 0.0000 0.0000 0.0000 1.3973
#
#
#
# Elastic Compliance Matrix: (Units=1/GPa)
#
#
# Indices 1 2 3 4 5 6 
#
# 1 0.054731 -0.019268 0.003034 0.000000 0.000000 0.000000
# 2 -0.019268 0.031505 -0.011561 0.000000 0.000000 0.000000
# 3 0.003034 -0.011561 0.011911 0.000000 0.000000 0.000000
# 4 0.000000 0.000000 0.000000 -0.043128 0.000000 0.000000
# 5 0.000000 0.000000 0.000000 0.000000 0.018979 0.000000
# 6 0.000000 0.000000 0.000000 0.000000 0.000000 0.715679
#
#
# Mechanical properties :
#
#
# Convention : Reuss Voigt Hill
#
# Bulk Modulus (GPa) = 23.49737 45.38901 34.44319
# Shear Modulus (GPa) = 5.81766 15.24756 10.53261
#
# Velocity S-wave (km/s) = 1.71419 2.77515 2.30650
# Velocity P-wave (km/s) = 3.97320 5.76145 4.94877
#
# Compressibility (1/GPa) = 0.04255795
#
# Stress axis : x y z
#
# Youngs Moduli (GPa) = 18.27102 31.74092 83.95641
#
# Poissons Ratio (x) = 0.61159 -0.25472
# Poissons Ratio (y) = 0.35205 0.97059
# Poissons Ratio (z) = -0.05543 0.36694
#
# Static dielectric constant tensor:
#      x y z
#    x 1.744350 0.000000 0.000000 
#    y 0.000000 1.833090 0.000000 
#    z 0.000000 0.000000 1.722420 
# 
# From -- ./inp_files/20312.got.cif
#   From: 2010.05.17/outbox.ucp.g08.bks.cvg/sg48_11_cif.got.tgz:20312.got - 2010.06.11 16:38:40.
