data_PCOD9391508
_publ_section_title
;
Structure prediction by ZEFSAII (Michael W. Deem and Ramdas Pophale) SiO2 
 PCOD9391508
Probable space group: P N N N
;
_chemical_formula_sum "Si O2"
_cell_formula_units_Z 56
_cell_length_a 17.504116
_cell_length_b 18.101972
_cell_length_c 8.945868
_cell_angle_alpha 90.000000
_cell_angle_beta 90.000000
_cell_angle_gamma 90.000000
_cell_volume 2834.578947
_symmetry_space_group_name_H-M "P N N N"
_symmetry_group_IT_number 48
_space_group.IT_coordinate_system_code '2'
_symmetry_cell_setting 'orthorhombic'
loop_
_space_group_symop_operation_xyz
x,y,z
1/2-x,1/2-y,z
x,1/2-y,1/2-z
1/2-x,y,1/2-z
-x,-y,-z
1/2+x,1/2+y,-z
-x,1/2+y,1/2+z
1/2+x,-y,1/2+z
loop_
_atom_site_type_symbol
_atom_site_label
_atom_site_fract_x
_atom_site_fract_y
_atom_site_fract_z
Si Si1 0.447757 0.278642 0.401489
Si Si2 0.964942 0.006220 0.256735
Si Si3 0.115940 0.419414 0.250677
Si Si4 0.446596 0.891126 0.049031
Si Si5 0.820199 0.957762 0.063533
Si Si6 0.675060 0.792474 0.402555
Si Si7 0.797460 0.047400 0.598052
O O1 0.486217 0.250000 0.250000
O O2 0.392369 0.343109 0.336298
O O3 0.509021 0.317123 0.507119
O O4 0.395934 0.218990 0.485823
O O5 0.893775 0.990908 0.148931
O O6 0.004106 0.931567 0.321224
O O7 0.946859 0.055869 0.402309
O O8 0.033974 0.053538 0.186317
O O9 0.169693 0.429430 0.392036
O O10 0.146176 0.478202 0.130525
O O11 0.356885 0.885616 0.082152
O O12 0.807003 0.877383 0.134582
O O13 0.755454 0.020492 0.039829
O O14 0.750000 0.750000 0.463734
O O15 0.655577 0.750000 0.250000
O O16 0.750000 0.059297 0.750000
#
# Coordination Sequence:
#
# PCOD9391508 Si02
#       7
#     8   8   8   8   8   8   8
#     4  11  20  36  56  76 112 153 195 222 269 341
#     4   9  18  31  54  76 108 139 176 236 285 323
#     4   9  18  34  51  79 111 141 184 225 276 336
#     4   9  19  35  52  78 111 150 187 227 286 336
#     4  11  19  32  52  81 111 140 185 229 275 337
#     4  11  24  35  48  79 120 156 183 220 272 340
#     4   9  19  33  54  80 114 143 180 240 291 335
#
# _framework density 19.756019999999999
#
# number of rings (size 3 to 8) (size 9 to 14) (size 15 to 20)
#    0.000    2.143    1.429    3.000    0.000    3.143 
#    0.000    0.000    0.000    0.000    0.000    8.000 
#   12.857    0.000    0.000    0.000    0.000    0.000 
#
# Total GULP energy -311882.830001 kJ/mol
# GULP energy per Si atom -5569.336250 kJ/mol
# Density = 1.971105 g / cm^3
# Si number density = 19.756020 Si / 1000 Ang^3
#
#
#
# Elastic Constant Matrix: (Units=GPa)
#
#
# Indices 1 2 3 4 5 6 
#
# 1 100.0543 19.9079 21.8477 0.0000 0.0000 0.0000
# 2 19.9079 28.7509 3.7914 0.0000 0.0000 0.0000
# 3 21.8477 3.7914 44.7424 0.0000 0.0000 0.0000
# 4 0.0000 0.0000 0.0000 17.3508 0.0000 0.0000
# 5 0.0000 0.0000 0.0000 0.0000 35.3651 0.0000
# 6 0.0000 0.0000 0.0000 0.0000 0.0000 14.4113
#
#
#
# Elastic Compliance Matrix: (Units=1/GPa)
#
#
# Indices 1 2 3 4 5 6 
#
# 1 0.012834 -0.008151 -0.005576 0.000000 0.000000 0.000000
# 2 -0.008151 0.040352 0.000561 0.000000 0.000000 0.000000
# 3 -0.005576 0.000561 0.025025 0.000000 0.000000 0.000000
# 4 0.000000 0.000000 0.000000 0.057634 0.000000 0.000000
# 5 0.000000 0.000000 0.000000 0.000000 0.028276 0.000000
# 6 0.000000 0.000000 0.000000 0.000000 0.000000 0.069390
#
#
# Mechanical properties :
#
#
# Convention : Reuss Voigt Hill
#
# Bulk Modulus (GPa) = 19.27589 29.40463 24.34026
# Shear Modulus (GPa) = 18.04160 21.95883 20.00022
#
# Velocity S-wave (km/s) = 3.02523 3.33753 3.18521
# Velocity P-wave (km/s) = 4.68837 5.45604 5.08671
#
# Compressibility (1/GPa) = 0.05187827
#
# Stress axis : x y z
#
# Youngs Moduli (GPa) = 77.91775 24.78207 39.95935
#
# Poissons Ratio (x) = 0.20201 0.22282
# Poissons Ratio (y) = 0.63513 -0.02242
# Poissons Ratio (z) = 0.43448 -0.01390
#
# Static dielectric constant tensor:
#      x y z
#    x 1.770040 0.000000 0.000000 
#    y 0.000000 1.717060 0.000000 
#    z 0.000000 0.000000 1.761610 
# 
# From -- ./inp_files/14542.got.cif
#   From: 2010.05.17/outbox.cif.g08.bks.cpg/sg48_8_cif.got.tgz:14542.got - 2010.06.03 20:39:00.
