data_PCOD9391154
_publ_section_title
;
Structure prediction by ZEFSAII (Michael W. Deem and Ramdas Pophale) SiO2 
 PCOD9391154
Probable space group: P N N N
;
_chemical_formula_sum "Si O2"
_cell_formula_units_Z 34
_cell_length_a 8.365504
_cell_length_b 13.501771
_cell_length_c 13.669464
_cell_angle_alpha 90.000000
_cell_angle_beta 90.000000
_cell_angle_gamma 90.000000
_cell_volume 1543.953920
_symmetry_space_group_name_H-M "P N N N"
_symmetry_group_IT_number 48
_space_group.IT_coordinate_system_code '2'
_symmetry_cell_setting 'orthorhombic'
loop_
_space_group_symop_operation_xyz
x,y,z
1/2-x,1/2-y,z
x,1/2-y,1/2-z
1/2-x,y,1/2-z
-x,-y,-z
1/2+x,1/2+y,-z
-x,1/2+y,1/2+z
1/2+x,-y,1/2+z
loop_
_atom_site_type_symbol
_atom_site_label
_atom_site_fract_x
_atom_site_fract_y
_atom_site_fract_z
Si Si1 0.996735 0.750000 0.250000
Si Si2 0.410836 0.537356 0.304218
Si Si3 0.748052 0.553627 0.519015
Si Si4 0.750000 0.250000 0.250000
Si Si5 0.250000 0.250000 0.911968
Si Si6 0.420573 0.574554 0.858624
O O1 0.887347 0.788415 0.160890
O O2 0.083910 0.844271 0.295058
O O3 0.250000 0.504670 0.250000
O O4 0.383458 0.496238 0.411740
O O5 0.550433 0.490058 0.239650
O O6 0.692195 0.657832 0.475012
O O7 0.799164 0.479707 0.432220
O O8 0.911792 0.577232 0.580648
O O9 0.642655 0.320538 0.180526
#
# Coordination Sequence:
#
# PCOD9391154 Si02
#       6
#     4   8   8   2   4   8
#     4  11  23  40  66  98 137 171 222 274 336 399
#     4  10  22  43  67  95 131 178 221 281 332 396
#     4  10  23  44  69  93 134 172 224 275 332 408
#     4  12  28  40  70  90 134 176 212 282 344 398
#     4  11  24  38  67 100 130 176 211 280 334 399
#     4  10  24  46  61  96 133 168 225 277 328 405
#
# _framework density 22.021381000000002
#
# number of rings (size 3 to 8) (size 9 to 14) (size 15 to 20)
#    0.000    1.647    2.353    0.353    6.588    2.824 
#    0.000    0.000    0.000    0.000    0.000    0.000 
#    0.000    0.000    0.000    0.000    0.000    0.000 
#
# Total GULP energy -189979.236383 kJ/mol
# GULP energy per Si atom -5587.624599 kJ/mol
# Density = 2.197126 g / cm^3
# Si number density = 22.021381 Si / 1000 Ang^3
#
#
#
# Elastic Constant Matrix: (Units=GPa)
#
#
# Indices 1 2 3 4 5 6 
#
# 1 51.3000 29.9231 56.7306 0.0000 0.0000 0.0000
# 2 29.9231 163.7824 89.2145 0.0000 0.0000 0.0000
# 3 56.7306 89.2145 168.9419 0.0000 0.0000 0.0000
# 4 0.0000 0.0000 0.0000 48.1153 0.0000 0.0000
# 5 0.0000 0.0000 0.0000 0.0000 24.9752 0.0000
# 6 0.0000 0.0000 0.0000 0.0000 0.0000 37.0991
#
#
#
# Elastic Compliance Matrix: (Units=1/GPa)
#
#
# Indices 1 2 3 4 5 6 
#
# 1 0.031008 0.000009 -0.010417 0.000000 0.000000 0.000000
# 2 0.000009 0.008571 -0.004529 0.000000 0.000000 0.000000
# 3 -0.010417 -0.004529 0.011809 0.000000 0.000000 0.000000
# 4 0.000000 0.000000 0.000000 0.020783 0.000000 0.000000
# 5 0.000000 0.000000 0.000000 0.000000 0.040040 0.000000
# 6 0.000000 0.000000 0.000000 0.000000 0.000000 0.026955
#
#
# Mechanical properties :
#
#
# Convention : Reuss Voigt Hill
#
# Bulk Modulus (GPa) = 46.48258 81.75117 64.11688
# Shear Modulus (GPa) = 28.37488 35.91498 32.14493
#
# Velocity S-wave (km/s) = 3.59348 4.04284 3.82477
# Velocity P-wave (km/s) = 6.19445 7.68094 6.97740
#
# Compressibility (1/GPa) = 0.02151343
#
# Stress axis : x y z
#
# Youngs Moduli (GPa) = 32.24989 116.67009 84.67971
#
# Poissons Ratio (x) = -0.00109 0.88214
# Poissons Ratio (y) = -0.00030 0.38355
# Poissons Ratio (z) = 0.33596 0.52844
#
# Static dielectric constant tensor:
#      x y z
#    x 1.867550 0.000000 0.000000 
#    y 0.000000 1.761930 0.000000 
#    z 0.000000 0.000000 1.821910 
# 
# From -- ./inp_files/10363.got.cif
#   From: 2010.05.17/outbox.cif.g08.bks.cpg/sg48_6_cif.got.tgz:10363.got - 2010.06.03 20:39:00.
