data_PCOD9391772
_publ_section_title
;
Structure prediction by ZEFSAII (Michael W. Deem and Ramdas Pophale) SiO2 
 PCOD9391772
Probable space group: P N N N
;
_chemical_formula_sum "Si O2"
_cell_formula_units_Z 38
_cell_length_a 5.753759
_cell_length_b 16.541821
_cell_length_c 19.238429
_cell_angle_alpha 90.000000
_cell_angle_beta 90.000000
_cell_angle_gamma 90.000000
_cell_volume 1831.068490
_symmetry_space_group_name_H-M "P N N N"
_symmetry_group_IT_number 48
_space_group.IT_coordinate_system_code '2'
_symmetry_cell_setting 'orthorhombic'
loop_
_space_group_symop_operation_xyz
x,y,z
1/2-x,1/2-y,z
x,1/2-y,1/2-z
1/2-x,y,1/2-z
-x,-y,-z
1/2+x,1/2+y,-z
-x,1/2+y,1/2+z
1/2+x,-y,1/2+z
loop_
_atom_site_type_symbol
_atom_site_label
_atom_site_fract_x
_atom_site_fract_y
_atom_site_fract_z
Si Si1 0.250000 0.750000 0.250000
Si Si2 0.007494 0.068224 0.212344
Si Si3 0.930735 0.615131 0.312212
Si Si4 0.250000 0.750000 0.478578
Si Si5 0.879028 0.669986 0.579884
Si Si6 0.151461 0.158634 0.556002
O O1 0.399463 0.809479 0.299301
O O2 0.250000 0.094550 0.250000
O O3 0.016682 0.115451 0.139626
O O4 0.750000 0.079134 0.250000
O O5 0.039005 0.972894 0.197975
O O6 0.750000 0.625683 0.250000
O O7 0.785023 0.613215 0.383718
O O8 0.421404 0.796040 0.530281
O O9 0.379971 0.678623 0.436999
O O10 0.750000 0.750000 0.609085
O O11 0.706527 0.629208 0.522515
O O12 0.250000 0.250000 0.562112
#
# Coordination Sequence:
#
# PCOD9391772 Si02
#       6
#     2   8   8   4   8   8
#     4  12  22  42  68  86 132 176 228 264 340 408
#     4  11  26  47  65  96 142 174 222 284 336 395
#     4  11  24  40  63  97 130 177 219 276 335 401
#     4   8  18  39  63  97 127 168 216 292 317 404
#     4   9  21  40  67  96 128 171 221 271 333 399
#     4   9  19  37  63  95 131 165 226 271 331 392
#
# _framework density 20.75291
#
# number of rings (size 3 to 8) (size 9 to 14) (size 15 to 20)
#    0.000    2.526    1.053    1.579    5.895    8.842 
#    0.000    1.053    0.000    0.000    0.000    0.000 
#    0.000    0.000    0.000    0.000    0.000    0.000 
#
# Total GULP energy -211546.504887 kJ/mol
# GULP energy per Si atom -5567.013286 kJ/mol
# Density = 2.070568 g / cm^3
# Si number density = 20.752910 Si / 1000 Ang^3
#
#
#
# Elastic Constant Matrix: (Units=GPa)
#
#
# Indices 1 2 3 4 5 6 
#
# 1 97.6182 37.2358 48.5562 0.0000 0.0000 0.0000
# 2 37.2358 54.5840 44.8186 0.0000 0.0000 0.0000
# 3 48.5562 44.8186 118.3247 0.0000 0.0000 0.0000
# 4 0.0000 0.0000 0.0000 6.4737 0.0000 0.0000
# 5 0.0000 0.0000 0.0000 0.0000 24.0824 0.0000
# 6 0.0000 0.0000 0.0000 0.0000 0.0000 19.4061
#
#
#
# Elastic Compliance Matrix: (Units=1/GPa)
#
#
# Indices 1 2 3 4 5 6 
#
# 1 0.014652 -0.007342 -0.003232 0.000000 0.000000 0.000000
# 2 -0.007342 0.030269 -0.008452 0.000000 0.000000 0.000000
# 3 -0.003232 -0.008452 0.012979 0.000000 0.000000 0.000000
# 4 0.000000 0.000000 0.000000 0.154471 0.000000 0.000000
# 5 0.000000 0.000000 0.000000 0.000000 0.041524 0.000000
# 6 0.000000 0.000000 0.000000 0.000000 0.000000 0.051530
#
#
# Mechanical properties :
#
#
# Convention : Reuss Voigt Hill
#
# Bulk Modulus (GPa) = 50.38209 59.08312 54.73260
# Shear Modulus (GPa) = 14.28193 19.32019 16.80106
#
# Velocity S-wave (km/s) = 2.62618 3.05448 2.84839
# Velocity P-wave (km/s) = 5.79013 6.40089 6.10315
#
# Compressibility (1/GPa) = 0.01984832
#
# Stress axis : x y z
#
# Youngs Moduli (GPa) = 68.25049 33.03727 77.04686
#
# Poissons Ratio (x) = 0.24254 0.24900
# Poissons Ratio (y) = 0.50106 0.65123
# Poissons Ratio (z) = 0.22057 0.27925
#
# Static dielectric constant tensor:
#      x y z
#    x 1.928870 0.000000 0.000000 
#    y 0.000000 1.768580 0.000000 
#    z 0.000000 0.000000 1.782050 
# 
# From -- ./inp_files/4236.got.cif
#   From: 2010.05.17/outbox.cif.g08.bks.cpg/sg48_3_cif.got.tgz:4236.got - 2010.06.03 20:39:00.
