data_PCOD9391017
_publ_section_title
;
Structure prediction by ZEFSAII (Michael W. Deem and Ramdas Pophale) SiO2 
 PCOD9391017
Probable space group: P N N N
;
_chemical_formula_sum "Si O2"
_cell_formula_units_Z 48
_cell_length_a 10.616329
_cell_length_b 14.073492
_cell_length_c 15.567835
_cell_angle_alpha 90.000000
_cell_angle_beta 90.000000
_cell_angle_gamma 90.000000
_cell_volume 2325.971877
_symmetry_space_group_name_H-M "P N N N"
_symmetry_group_IT_number 48
_space_group.IT_coordinate_system_code '2'
_symmetry_cell_setting 'orthorhombic'
loop_
_space_group_symop_operation_xyz
x,y,z
1/2-x,1/2-y,z
x,1/2-y,1/2-z
1/2-x,y,1/2-z
-x,-y,-z
1/2+x,1/2+y,-z
-x,1/2+y,1/2+z
1/2+x,-y,1/2+z
loop_
_atom_site_type_symbol
_atom_site_label
_atom_site_fract_x
_atom_site_fract_y
_atom_site_fract_z
Si Si1 0.026094 0.022301 0.866088
Si Si2 0.963717 0.912021 0.566043
Si Si3 0.150868 0.666164 0.034680
Si Si4 0.610846 0.361185 0.728371
Si Si5 0.902189 0.137697 0.255658
Si Si6 0.792621 0.518124 0.511436
O O1 0.993132 0.089977 0.786620
O O2 0.902817 0.012665 0.924373
O O3 0.051192 0.919344 0.826924
O O4 0.140814 0.057012 0.925901
O O5 0.027297 0.819080 0.522137
O O6 0.026764 0.909146 0.660849
O O7 0.812653 0.917764 0.558457
O O8 0.000000 0.000000 0.500000
O O9 0.250000 0.750000 0.047593
O O10 0.102253 0.630506 0.126674
O O11 0.227448 0.582352 0.988287
O O12 0.610878 0.250000 0.750000
O O13 0.750000 0.400617 0.750000
O O14 0.930076 0.250000 0.250000
O O15 0.750000 0.127067 0.250000
#
# Coordination Sequence:
#
# PCOD9391017 Si02
#       6
#     8   8   8   8   8   8
#     4  11  22  39  68  89 139 166 219 272 330 401
#     4  10  22  38  62  92 128 168 218 269 330 394
#     4  11  20  35  67  92 124 157 223 274 320 390
#     4  11  20  38  65 100 115 160 221 274 323 381
#     4  11  25  42  65  96 129 175 228 273 330 400
#     4  10  22  39  61  94 124 180 210 259 344 393
#
# _framework density 20.636536
#
# number of rings (size 3 to 8) (size 9 to 14) (size 15 to 20)
#    0.000    1.333    3.333    4.000    4.667    0.000 
#    0.000    1.667    0.000    5.500    0.000    0.000 
#    0.000    0.000    0.000    0.000    0.000    0.000 
#
# Total GULP energy -267472.986180 kJ/mol
# GULP energy per Si atom -5572.353879 kJ/mol
# Density = 2.058957 g / cm^3
# Si number density = 20.636536 Si / 1000 Ang^3
#
#
#
# Elastic Constant Matrix: (Units=GPa)
#
#
# Indices 1 2 3 4 5 6 
#
# 1 113.4936 33.3974 45.8954 0.0000 0.0000 0.0000
# 2 33.3974 54.3886 6.3819 0.0000 0.0000 0.0000
# 3 45.8954 6.3819 91.2638 0.0000 0.0000 0.0000
# 4 0.0000 0.0000 0.0000 88.2920 0.0000 0.0000
# 5 0.0000 0.0000 0.0000 0.0000 47.2324 0.0000
# 6 0.0000 0.0000 0.0000 0.0000 0.0000 23.6838
#
#
#
# Elastic Compliance Matrix: (Units=1/GPa)
#
#
# Indices 1 2 3 4 5 6 
#
# 1 0.013602 -0.007612 -0.006308 0.000000 0.000000 0.000000
# 2 -0.007612 0.022798 0.002234 0.000000 0.000000 0.000000
# 3 -0.006308 0.002234 0.013973 0.000000 0.000000 0.000000
# 4 0.000000 0.000000 0.000000 0.011326 0.000000 0.000000
# 5 0.000000 0.000000 0.000000 0.000000 0.021172 0.000000
# 6 0.000000 0.000000 0.000000 0.000000 0.000000 0.042223
#
#
# Mechanical properties :
#
#
# Convention : Reuss Voigt Hill
#
# Bulk Modulus (GPa) = 37.03571 47.83283 42.43427
# Shear Modulus (GPa) = 31.75263 43.40638 37.57951
#
# Velocity S-wave (km/s) = 3.92683 4.59123 4.27197
# Velocity P-wave (km/s) = 6.20851 7.16484 6.70375
#
# Compressibility (1/GPa) = 0.02700097
#
# Stress axis : x y z
#
# Youngs Moduli (GPa) = 73.51903 43.86282 71.56545
#
# Poissons Ratio (x) = 0.33389 0.45143
# Poissons Ratio (y) = 0.55964 -0.15986
# Poissons Ratio (z) = 0.46375 -0.09798
#
# Static dielectric constant tensor:
#      x y z
#    x 1.851300 0.000000 0.000000 
#    y 0.000000 1.783650 0.000000 
#    z 0.000000 0.000000 1.782340 
# 
# From -- ./inp_files/26445.got.cif
#   From: 2010.05.17/outbox.cif.g08.bks.cpg/sg48_14_cif.got.tgz:26445.got - 2010.06.03 20:39:00.
