data_PCOD9391490
_publ_section_title
;
Structure prediction by ZEFSAII (Michael W. Deem and Ramdas Pophale) SiO2 
 PCOD9391490
Probable space group: P N N N
;
_chemical_formula_sum "Si O2"
_cell_formula_units_Z 30
_cell_length_a 5.202907
_cell_length_b 12.375836
_cell_length_c 19.118377
_cell_angle_alpha 90.000000
_cell_angle_beta 90.000000
_cell_angle_gamma 90.000000
_cell_volume 1231.038485
_symmetry_space_group_name_H-M "P N N N"
_symmetry_group_IT_number 48
_space_group.IT_coordinate_system_code '2'
_symmetry_cell_setting 'orthorhombic'
loop_
_space_group_symop_operation_xyz
x,y,z
1/2-x,1/2-y,z
x,1/2-y,1/2-z
1/2-x,y,1/2-z
-x,-y,-z
1/2+x,1/2+y,-z
-x,1/2+y,1/2+z
1/2+x,-y,1/2+z
loop_
_atom_site_type_symbol
_atom_site_label
_atom_site_fract_x
_atom_site_fract_y
_atom_site_fract_z
Si Si1 0.567375 0.660428 0.870151
Si Si2 0.750000 0.250000 0.495091
Si Si3 0.654014 0.064229 0.893142
Si Si4 0.161796 0.370320 0.671263
Si Si5 0.750000 0.250000 0.250000
O O1 0.750000 0.750000 0.837222
O O2 0.465684 0.710044 0.942030
O O3 0.721362 0.554029 0.892310
O O4 0.360704 0.661907 0.807513
O O5 0.678507 0.354685 0.541358
O O6 0.352704 0.056470 0.875048
O O7 0.857538 0.118621 0.838488
O O8 0.250000 0.250000 0.650565
O O9 0.250000 0.387086 0.750000
#
# Coordination Sequence:
#
# PCOD9391490 Si02
#       5
#     8   4   8   8   2
#     4  11  28  47  76 106 149 202 252 313 380 454
#     4  11  26  49  71 110 151 196 254 314 375 454
#     4  12  26  46  76 110 149 199 251 312 376 451
#     4  11  24  44  71 110 151 194 248 313 383 447
#     4  10  26  52  68 110 148 192 260 316 384 458
#
# _framework density 24.369668000000001
#
# number of rings (size 3 to 8) (size 9 to 14) (size 15 to 20)
#    0.000    0.800    2.667    2.000   13.067    5.333 
#    0.000    0.000    0.000    0.000    0.000    0.000 
#    0.000    0.000    0.000    0.000    0.000    0.000 
#
# Total GULP energy -167350.500021 kJ/mol
# GULP energy per Si atom -5578.350001 kJ/mol
# Density = 2.431420 g / cm^3
# Si number density = 24.369668 Si / 1000 Ang^3
#
#
#
# Elastic Constant Matrix: (Units=GPa)
#
#
# Indices 1 2 3 4 5 6 
#
# 1 45.7348 0.1180 29.7554 0.0000 0.0000 0.0000
# 2 0.1180 155.0141 41.6161 0.0000 0.0000 0.0000
# 3 29.7554 41.6161 134.4116 0.0000 0.0000 0.0000
# 4 0.0000 0.0000 0.0000 0.0637 0.0000 0.0000
# 5 0.0000 0.0000 0.0000 0.0000 -2.7819 0.0000
# 6 0.0000 0.0000 0.0000 0.0000 0.0000 43.7272
#
#
#
# Elastic Compliance Matrix: (Units=1/GPa)
#
#
# Indices 1 2 3 4 5 6 
#
# 1 0.025930 0.001659 -0.006254 0.000000 0.000000 0.000000
# 2 0.001659 0.007142 -0.002579 0.000000 0.000000 0.000000
# 3 -0.006254 -0.002579 0.009623 0.000000 0.000000 0.000000
# 4 0.000000 0.000000 0.000000 15.694071 0.000000 0.000000
# 5 0.000000 0.000000 0.000000 0.000000 -0.359470 0.000000
# 6 0.000000 0.000000 0.000000 0.000000 0.000000 0.022869
#
#
# Mechanical properties :
#
#
# Convention : Reuss Voigt Hill
#
# Bulk Modulus (GPa) = 35.27601 53.12661 44.20131
# Shear Modulus (GPa) = 0.32417 25.77988 13.05203
#
# Velocity S-wave (km/s) = 0.36512 3.25602 2.31678
# Velocity P-wave (km/s) = 3.83204 5.99860 5.03327
#
# Compressibility (1/GPa) = 0.02834787
#
# Stress axis : x y z
#
# Youngs Moduli (GPa) = 38.56570 140.01618 103.92115
#
# Poissons Ratio (x) = -0.23232 0.64992
# Poissons Ratio (y) = -0.06399 0.26797
# Poissons Ratio (z) = 0.24119 0.36105
#
# Static dielectric constant tensor:
#      x y z
#    x 1.422340 0.000000 0.000000 
#    y 0.000000 2.110200 0.000000 
#    z 0.000000 0.000000 1.914740 
# 
# From -- ./inp_files/22559.got.cif
#   From: 2010.05.17/outbox.cif.g08.bks.cpg/sg48_12_cif.got.tgz:22559.got - 2010.06.03 20:39:00.
