data_PCOD9391773
_publ_section_title
;
Structure prediction by ZEFSAII (Michael W. Deem and Ramdas Pophale) SiO2 
 PCOD9391773
Probable space group: P N N N
;
_chemical_formula_sum "Si O2"
_cell_formula_units_Z 28
_cell_length_a 15.755081
_cell_length_b 9.879534
_cell_length_c 7.201698
_cell_angle_alpha 90.000000
_cell_angle_beta 90.000000
_cell_angle_gamma 90.000000
_cell_volume 1120.964879
_symmetry_space_group_name_H-M "P N N N"
_symmetry_group_IT_number 48
_space_group.IT_coordinate_system_code '2'
_symmetry_cell_setting 'orthorhombic'
loop_
_space_group_symop_operation_xyz
x,y,z
1/2-x,1/2-y,z
x,1/2-y,1/2-z
1/2-x,y,1/2-z
-x,-y,-z
1/2+x,1/2+y,-z
-x,1/2+y,1/2+z
1/2+x,-y,1/2+z
loop_
_atom_site_type_symbol
_atom_site_label
_atom_site_fract_x
_atom_site_fract_y
_atom_site_fract_z
Si Si1 0.246876 0.096566 0.977636
Si Si2 0.659961 0.334218 0.457447
Si Si3 0.978551 0.250000 0.750000
Si Si4 0.078660 0.495245 0.635643
O O1 0.250000 0.250000 0.042215
O O2 0.250000 0.098434 0.750000
O O3 0.152666 0.045389 0.004874
O O4 0.311242 0.980882 0.042723
O O5 0.750000 0.250000 0.448939
O O6 0.587703 0.262745 0.579274
O O7 0.616562 0.386110 0.264451
O O8 0.044369 0.374783 0.767745
O O9 0.000000 0.500000 0.500000
#
# Coordination Sequence:
#
# PCOD9391773 Si02
#       4
#     8   8   4   8
#     4   9  19  39  64  93 131 178 226 281 356 436
#     4  11  24  44  71 100 140 192 241 295 365 451
#     4  12  25  44  69 104 142 182 240 310 367 430
#     4  11  24  40  66 102 137 177 231 297 363 427
#
# _framework density 24.978482
#
# number of rings (size 3 to 8) (size 9 to 14) (size 15 to 20)
#    0.000    1.429    0.000    6.429    0.000   13.143 
#    0.000    0.000    0.000   12.000    0.000    0.000 
#    0.000    0.000    0.000    0.000    0.000    0.000 
#
# Total GULP energy -156194.062430 kJ/mol
# GULP energy per Si atom -5578.359372 kJ/mol
# Density = 2.492163 g / cm^3
# Si number density = 24.978482 Si / 1000 Ang^3
#
#
#
# Elastic Constant Matrix: (Units=GPa)
#
#
# Indices 1 2 3 4 5 6 
#
# 1 138.7759 74.5398 28.6099 0.0000 0.0000 0.0000
# 2 74.5398 199.5276 30.1882 0.0000 0.0000 0.0000
# 3 28.6099 30.1882 94.6684 0.0000 0.0000 0.0000
# 4 0.0000 0.0000 0.0000 5.5657 0.0000 0.0000
# 5 0.0000 0.0000 0.0000 0.0000 40.6560 0.0000
# 6 0.0000 0.0000 0.0000 0.0000 0.0000 58.9843
#
#
#
# Elastic Compliance Matrix: (Units=1/GPa)
#
#
# Indices 1 2 3 4 5 6 
#
# 1 0.009294 -0.003202 -0.001788 0.000000 0.000000 0.000000
# 2 -0.003202 0.006369 -0.001063 0.000000 0.000000 0.000000
# 3 -0.001788 -0.001063 0.011443 0.000000 0.000000 0.000000
# 4 0.000000 0.000000 0.000000 0.179673 0.000000 0.000000
# 5 0.000000 0.000000 0.000000 0.000000 0.024597 0.000000
# 6 0.000000 0.000000 0.000000 0.000000 0.000000 0.016954
#
#
# Mechanical properties :
#
#
# Convention : Reuss Voigt Hill
#
# Bulk Modulus (GPa) = 66.66719 77.73863 72.20291
# Shear Modulus (GPa) = 18.83706 41.01681 29.92693
#
# Velocity S-wave (km/s) = 2.74912 4.05666 3.46513
# Velocity P-wave (km/s) = 6.06834 7.28916 6.70658
#
# Compressibility (1/GPa) = 0.01499988
#
# Stress axis : x y z
#
# Youngs Moduli (GPa) = 107.59521 157.01602 87.39291
#
# Poissons Ratio (x) = 0.50270 0.15624
# Poissons Ratio (y) = 0.34448 0.09293
# Poissons Ratio (z) = 0.19236 0.16696
#
# Static dielectric constant tensor:
#      x y z
#    x 1.962070 0.000000 0.000000 
#    y 0.000000 2.027560 0.000000 
#    z 0.000000 0.000000 2.212090 
# 
# From -- ./inp_files/11797.got.cif
#   From: 2010.05.17/outbox.cif.g08.bks.cpg/sg48_6_cif.got.tgz:11797.got - 2010.06.03 20:39:00.
