data_PCOD9391979
_publ_section_title
;
Structure prediction by ZEFSAII (Michael W. Deem and Ramdas Pophale) SiO2 
 PCOD9391979
Probable space group: P C C M
;
_chemical_formula_sum "Si O2"
_cell_formula_units_Z 32
_cell_length_a 7.323623
_cell_length_b 39.283624
_cell_length_c 5.449336
_cell_angle_alpha 90.000000
_cell_angle_beta 90.000000
_cell_angle_gamma 90.000000
_cell_volume 1567.765533
_symmetry_space_group_name_H-M "P C C M"
_symmetry_group_IT_number 49
_symmetry_cell_setting 'orthorhombic'
loop_
_space_group_symop_operation_xyz
x,y,z
-x,-y,z
x,-y,1/2-z
-x,y,1/2-z
-x,-y,-z
x,y,-z
-x,y,1/2+z
x,-y,1/2+z
loop_
_atom_site_type_symbol
_atom_site_label
_atom_site_fract_x
_atom_site_fract_y
_atom_site_fract_z
Si Si1 0.882794 0.271000 0.500000
Si Si2 0.708022 0.985768 0.500000
Si Si3 0.287157 0.485764 0.000000
Si Si4 0.619300 0.590417 0.000000
Si Si5 0.707320 0.095445 0.000000
Si Si6 0.291813 0.876063 0.500000
Si Si7 0.381547 0.664968 0.500000
Si Si8 0.879324 0.805457 0.000000
O O1 0.746646 0.302456 0.500000
O O2 0.799671 0.232828 0.500000
O O3 0.000000 0.273195 0.750000
O O4 0.700515 0.945160 0.500000
O O5 0.500000 0.000000 0.500000
O O6 0.791885 0.000000 0.750000
O O7 0.500000 0.500000 0.000000
O O8 0.207719 0.500000 0.750000
O O9 0.275618 0.445068 0.000000
O O10 0.500000 0.589361 0.750000
O O11 0.713455 0.627544 0.000000
O O12 0.791646 0.108962 0.251268
O O13 0.501215 0.110902 0.000000
O O14 0.267396 0.835635 0.500000
O O15 0.500000 0.666223 0.750000
O O16 0.000000 0.808793 0.250000
#
# Coordination Sequence:
#
# PCOD9391979 Si02
#       8
#     4   4   4   4   4   4   4   4
#     4  10  21  40  61  78 105 146 188 223 264 331
#     4  10  16  25  41  65 100 131 161 191 228 296
#     4  10  14  20  34  55  86 133 169 193 244 323
#     4  10  16  25  39  62  99 135 159 210 267 316
#     4  10  19  30  47  74 108 132 151 200 255 304
#     4  10  18  32  47  70 102 129 156 196 251 296
#     4  10  21  35  53  83 114 140 171 233 288 321
#     4  10  21  37  56  75  96 130 174 213 240 288
#
# _framework density 20.411214000000001
#
# number of rings (size 3 to 8) (size 9 to 14) (size 15 to 20)
#    0.000    2.000    2.500    5.250    0.000    0.000 
#    4.500    0.000    0.000    0.000    0.000    0.000 
#    0.000  125.000    0.000    0.000    0.000    0.000 
#
# Total GULP energy -178436.074296 kJ/mol
# GULP energy per Si atom -5576.127322 kJ/mol
# Density = 2.036476 g / cm^3
# Si number density = 20.411214 Si / 1000 Ang^3
#
#
#
# Elastic Constant Matrix: (Units=GPa)
#
#
# Indices 1 2 3 4 5 6 
#
# 1 50.0659 46.3438 21.3247 0.0000 0.0000 0.0000
# 2 46.3438 269.0823 70.9572 0.0000 0.0000 0.0000
# 3 21.3247 70.9572 223.0496 0.0000 0.0000 0.0000
# 4 0.0000 0.0000 0.0000 40.9567 0.0000 0.0000
# 5 0.0000 0.0000 0.0000 0.0000 -5.8901 0.0000
# 6 0.0000 0.0000 0.0000 0.0000 0.0000 57.8494
#
#
#
# Elastic Compliance Matrix: (Units=1/GPa)
#
#
# Indices 1 2 3 4 5 6 
#
# 1 0.023993 -0.003850 -0.001069 0.000000 0.000000 0.000000
# 2 -0.003850 0.004675 -0.001119 0.000000 0.000000 0.000000
# 3 -0.001069 -0.001119 0.004941 0.000000 0.000000 0.000000
# 4 0.000000 0.000000 0.000000 0.024416 0.000000 0.000000
# 5 0.000000 0.000000 0.000000 0.000000 -0.169778 0.000000
# 6 0.000000 0.000000 0.000000 0.000000 0.000000 0.017286
#
#
# Mechanical properties :
#
#
# Convention : Reuss Voigt Hill
#
# Bulk Modulus (GPa) = 46.44149 91.04991 68.74570
# Shear Modulus (GPa) = -66.47891 45.48800 -10.49546
#
# Velocity S-wave (km/s) = -5.71319 4.72590 -2.27006
# Velocity P-wave (km/s) = 4.55174 8.63038 5.18484
#
# Compressibility (1/GPa) = 0.02153247
#
# Stress axis : x y z
#
# Youngs Moduli (GPa) = 41.67857 213.92370 202.36870
#
# Poissons Ratio (x) = 0.82370 0.21632
# Poissons Ratio (y) = 0.16048 0.22644
# Poissons Ratio (z) = 0.04455 0.23937
#
# Static dielectric constant tensor:
#      x y z
#    x 1.689550 0.000000 0.000000 
#    y 0.000000 1.711130 0.000000 
#    z 0.000000 0.000000 1.725570 
# 
# From -- ./inp_files/195.got.cif
#   From: 2010.05.17/outbox.cif.g08.bks.cpg/sg49_1_cif.got.tgz:195.got - 2010.06.03 21:02:19.
