data_PCOD9391708
_publ_section_title
;
Structure prediction by ZEFSAII (Michael W. Deem and Ramdas Pophale) SiO2 
 PCOD9391708
Probable space group: P N N N
;
_chemical_formula_sum "Si O2"
_cell_formula_units_Z 26
_cell_length_a 14.349600
_cell_length_b 16.675581
_cell_length_c 5.150607
_cell_angle_alpha 90.000000
_cell_angle_beta 90.000000
_cell_angle_gamma 90.000000
_cell_volume 1232.478021
_symmetry_space_group_name_H-M "P N N N"
_symmetry_group_IT_number 48
_space_group.IT_coordinate_system_code '2'
_symmetry_cell_setting 'orthorhombic'
loop_
_space_group_symop_operation_xyz
x,y,z
1/2-x,1/2-y,z
x,1/2-y,1/2-z
1/2-x,y,1/2-z
-x,-y,-z
1/2+x,1/2+y,-z
-x,1/2+y,1/2+z
1/2+x,-y,1/2+z
loop_
_atom_site_type_symbol
_atom_site_label
_atom_site_fract_x
_atom_site_fract_y
_atom_site_fract_z
Si Si1 0.250000 0.750000 0.750000
Si Si2 0.750000 0.570518 0.250000
Si Si3 0.398054 0.306764 0.501461
Si Si4 0.250000 0.961009 0.250000
Si Si5 0.896650 0.166520 0.588698
O O1 0.179379 0.810423 0.619515
O O2 0.675690 0.628168 0.397228
O O3 0.772985 0.513497 0.494121
O O4 0.404453 0.250000 0.750000
O O5 0.500614 0.346554 0.472804
O O6 0.376595 0.250000 0.250000
O O7 0.156057 0.906784 0.275399
O O8 0.900775 0.250000 0.750000
#
# Coordination Sequence:
#
# PCOD9391708 Si02
#       5
#     2   4   8   4   8
#     4  12  16  40  68 104 134 166 238 290 346 400
#     4  12  28  44  65 101 144 192 224 278 362 410
#     4  11  25  46  73  99 131 183 245 292 329 410
#     4  12  25  42  67 102 152 182 218 290 353 430
#     4  11  23  39  72 103 133 183 237 289 345 404
#
# _framework density 21.095714000000001
#
# number of rings (size 3 to 8) (size 9 to 14) (size 15 to 20)
#    0.000    0.615    4.615    3.231    0.000    3.692 
#    0.000    0.000    0.000    0.000    0.000    0.000 
#    0.000    0.000    0.000    0.000    0.000    0.000 
#
# Total GULP energy -144734.897063 kJ/mol
# GULP energy per Si atom -5566.726810 kJ/mol
# Density = 2.104770 g / cm^3
# Si number density = 21.095714 Si / 1000 Ang^3
#
#
#
# Elastic Constant Matrix: (Units=GPa)
#
#
# Indices 1 2 3 4 5 6 
#
# 1 168.3955 98.0783 66.2638 0.0000 0.0000 0.0000
# 2 98.0783 137.0042 76.1555 0.0000 0.0000 0.0000
# 3 66.2638 76.1555 155.5549 0.0000 0.0000 0.0000
# 4 0.0000 0.0000 0.0000 62.1029 0.0000 0.0000
# 5 0.0000 0.0000 0.0000 0.0000 39.6405 0.0000
# 6 0.0000 0.0000 0.0000 0.0000 0.0000 -176.6633
#
#
#
# Elastic Compliance Matrix: (Units=1/GPa)
#
#
# Indices 1 2 3 4 5 6 
#
# 1 0.010313 -0.006788 -0.001070 0.000000 0.000000 0.000000
# 2 -0.006788 0.014496 -0.004205 0.000000 0.000000 0.000000
# 3 -0.001070 -0.004205 0.008943 0.000000 0.000000 0.000000
# 4 0.000000 0.000000 0.000000 0.016102 0.000000 0.000000
# 5 0.000000 0.000000 0.000000 0.000000 0.025227 0.000000
# 6 0.000000 0.000000 0.000000 0.000000 0.000000 -0.005660
#
#
# Mechanical properties :
#
#
# Convention : Reuss Voigt Hill
#
# Bulk Modulus (GPa) = 103.88900 104.66109 104.27505
# Shear Modulus (GPa) = 51.67647 -0.28685 25.69481
#
# Velocity S-wave (km/s) = 4.95473 -0.36915 3.49379
# Velocity P-wave (km/s) = 9.06013 7.03836 8.11247
#
# Compressibility (1/GPa) = 0.00962566
#
# Stress axis : x y z
#
# Youngs Moduli (GPa) = 96.96500 68.98425 111.81774
#
# Poissons Ratio (x) = 0.46827 0.11963
# Poissons Ratio (y) = 0.65821 0.47022
# Poissons Ratio (z) = 0.10374 0.29010
#
# Static dielectric constant tensor:
#      x y z
#    x 2.042210 0.000000 0.000000 
#    y 0.000000 0.974630 0.000000 
#    z 0.000000 0.000000 1.816630 
# 
# From -- ./inp_files/2851.got.cif
#   From: 2010.05.17/outbox.cif.g08.bks.cpg/sg48_2_cif.got.tgz:2851.got - 2010.06.03 20:39:00.
