data_PCOD9391849
_publ_section_title
;
Structure prediction by ZEFSAII (Michael W. Deem and Ramdas Pophale) SiO2 
 PCOD9391849
Probable space group: P N N N
;
_chemical_formula_sum "Si O2"
_cell_formula_units_Z 58
_cell_length_a 8.532420
_cell_length_b 27.322310
_cell_length_c 11.467448
_cell_angle_alpha 90.000000
_cell_angle_beta 90.000000
_cell_angle_gamma 90.000000
_cell_volume 2673.353681
_symmetry_space_group_name_H-M "P N N N"
_symmetry_group_IT_number 48
_space_group.IT_coordinate_system_code '2'
_symmetry_cell_setting 'orthorhombic'
loop_
_space_group_symop_operation_xyz
x,y,z
1/2-x,1/2-y,z
x,1/2-y,1/2-z
1/2-x,y,1/2-z
-x,-y,-z
1/2+x,1/2+y,-z
-x,1/2+y,1/2+z
1/2+x,-y,1/2+z
loop_
_atom_site_type_symbol
_atom_site_label
_atom_site_fract_x
_atom_site_fract_y
_atom_site_fract_z
Si Si1 0.395121 0.497664 0.832863
Si Si2 0.250000 0.250000 0.250000
Si Si3 0.603273 0.676437 0.943150
Si Si4 0.821105 0.497759 0.955871
Si Si5 0.648006 0.660205 0.367201
Si Si6 0.571569 0.249737 0.609724
Si Si7 0.090399 0.582459 0.232120
Si Si8 0.125940 0.417923 0.338807
O O1 0.250000 0.486174 0.750000
O O2 0.499850 0.448191 0.833161
O O3 0.506397 0.541436 0.789326
O O4 0.308552 0.516481 0.948190
O O5 0.345627 0.285655 0.159536
O O6 0.529655 0.627150 0.890913
O O7 0.742895 0.653196 0.021099
O O8 0.506591 0.705200 0.040989
O O9 0.838907 0.458697 0.853517
O O10 0.743914 0.548742 0.915656
O O11 0.000000 0.500000 0.000000
O O12 0.750000 0.673482 0.250000
O O13 0.534395 0.703067 0.411446
O O14 0.541547 0.614738 0.329424
O O15 0.750000 0.250000 0.570053
O O16 0.571543 0.250000 0.750000
O O17 0.250000 0.613953 0.250000
O O18 0.250000 0.394606 0.250000
#
# Coordination Sequence:
#
# PCOD9391849 Si02
#       8
#     8   2   8   8   8   8   8   8
#     4  12  24  43  66  97 143 190 236 288 354 417
#     4  12  24  48  76 100 132 188 242 294 356 436
#     4  12  26  47  77 104 139 186 246 294 370 440
#     4  12  23  42  67  94 142 190 235 290 348 416
#     4  12  26  43  74 108 143 185 242 296 372 442
#     4  11  25  47  74 109 147 183 233 311 375 433
#     4  12  26  43  66 107 146 185 242 299 351 433
#     4  12  24  44  67 102 137 189 239 291 352 434
#
# _framework density 21.695595999999998
#
# number of rings (size 3 to 8) (size 9 to 14) (size 15 to 20)
#    0.000    0.138    7.586    1.655    3.862    1.103 
#    0.000    1.724    0.000    0.000    0.000    0.000 
#    0.000    0.000    0.000    0.000    0.000    0.000 
#
# Total GULP energy -323428.410330 kJ/mol
# GULP energy per Si atom -5576.351902 kJ/mol
# Density = 2.164622 g / cm^3
# Si number density = 21.695596 Si / 1000 Ang^3
#
#
#
# Elastic Constant Matrix: (Units=GPa)
#
#
# Indices 1 2 3 4 5 6 
#
# 1 129.5014 37.0597 26.4854 0.0000 0.0000 0.0000
# 2 37.0597 90.6408 -7.6505 0.0000 0.0000 0.0000
# 3 26.4854 -7.6505 49.9371 0.0000 0.0000 0.0000
# 4 0.0000 0.0000 0.0000 34.9708 0.0000 0.0000
# 5 0.0000 0.0000 0.0000 0.0000 25.4726 0.0000
# 6 0.0000 0.0000 0.0000 0.0000 0.0000 99.9945
#
#
#
# Elastic Compliance Matrix: (Units=1/GPa)
#
#
# Indices 1 2 3 4 5 6 
#
# 1 0.010356 -0.004760 -0.006222 0.000000 0.000000 0.000000
# 2 -0.004760 0.013364 0.004572 0.000000 0.000000 0.000000
# 3 -0.006222 0.004572 0.024026 0.000000 0.000000 0.000000
# 4 0.000000 0.000000 0.000000 0.028595 0.000000 0.000000
# 5 0.000000 0.000000 0.000000 0.000000 0.039258 0.000000
# 6 0.000000 0.000000 0.000000 0.000000 0.000000 0.010001
#
#
# Mechanical properties :
#
#
# Convention : Reuss Voigt Hill
#
# Bulk Modulus (GPa) = 28.63109 42.42983 35.53046
# Shear Modulus (GPa) = 33.31954 46.36655 39.84305
#
# Velocity S-wave (km/s) = 3.92315 4.62794 4.29004
# Velocity P-wave (km/s) = 5.80920 6.93948 6.39935
#
# Compressibility (1/GPa) = 0.03492707
#
# Stress axis : x y z
#
# Youngs Moduli (GPa) = 96.55787 74.82547 41.62223
#
# Poissons Ratio (x) = 0.35614 0.25897
# Poissons Ratio (y) = 0.45957 -0.19029
# Poissons Ratio (z) = 0.60078 -0.34209
#
# Static dielectric constant tensor:
#      x y z
#    x 1.845460 0.000000 0.000000 
#    y 0.000000 1.791590 0.000000 
#    z 0.000000 0.000000 2.109640 
# 
# From -- ./inp_files/18950.got.cif
#   From: 2010.05.17/outbox.cif.g08.bks.cpg/sg48_10_cif.got.tgz:18950.got - 2010.06.03 20:39:00.
