data_PCOD9391312
_publ_section_title
;
Structure prediction by ZEFSAII (Michael W. Deem and Ramdas Pophale) SiO2 
 PCOD9391312
Probable space group: P N N N
;
_chemical_formula_sum "Si O2"
_cell_formula_units_Z 48
_cell_length_a 17.026443
_cell_length_b 8.866609
_cell_length_c 14.220717
_cell_angle_alpha 90.000000
_cell_angle_beta 90.000000
_cell_angle_gamma 90.000000
_cell_volume 2146.856320
_symmetry_space_group_name_H-M "P N N N"
_symmetry_group_IT_number 48
_space_group.IT_coordinate_system_code '2'
_symmetry_cell_setting 'orthorhombic'
loop_
_space_group_symop_operation_xyz
x,y,z
1/2-x,1/2-y,z
x,1/2-y,1/2-z
1/2-x,y,1/2-z
-x,-y,-z
1/2+x,1/2+y,-z
-x,1/2+y,1/2+z
1/2+x,-y,1/2+z
loop_
_atom_site_type_symbol
_atom_site_label
_atom_site_fract_x
_atom_site_fract_y
_atom_site_fract_z
Si Si1 0.406269 0.424581 0.228299
Si Si2 0.935429 0.292534 0.988065
Si Si3 0.035361 0.473784 0.861035
Si Si4 0.657174 0.733528 0.356615
Si Si5 0.862498 0.973101 0.978659
Si Si6 0.290322 0.587887 0.374239
O O1 0.394837 0.250000 0.250000
O O2 0.488331 0.486931 0.268052
O O3 0.408109 0.436279 0.116725
O O4 0.334997 0.512995 0.283801
O O5 0.976250 0.381171 0.072769
O O6 0.860271 0.379588 0.946647
O O7 0.995930 0.320957 0.902494
O O8 0.902717 0.128704 0.012169
O O9 0.126789 0.436121 0.871822
O O10 0.750000 0.750000 0.351358
O O11 0.624451 0.750000 0.250000
O O12 0.635411 0.850360 0.439322
O O13 0.775059 0.995176 0.933118
O O14 0.250000 0.750000 0.352708
#
# Coordination Sequence:
#
# PCOD9391312 Si02
#       6
#     8   8   8   8   8   8
#     4  11  26  40  66 112 147 188 226 285 366 428
#     4   9  21  40  69 100 132 189 222 280 351 415
#     4  10  23  44  66  92 146 175 229 293 345 412
#     4  11  27  47  69  96 131 184 239 297 349 407
#     4  11  24  40  72 100 136 180 240 280 354 425
#     4   9  20  41  67 105 149 186 230 290 354 432
#
# _framework density 22.358271999999999
#
# number of rings (size 3 to 8) (size 9 to 14) (size 15 to 20)
#    0.000    1.833    0.000    1.500   11.667   10.000 
#    0.000    0.000    0.000    2.000    0.000    0.000 
#    0.000    0.000    0.000    0.000    0.000    0.000 
#
# Total GULP energy -267583.449471 kJ/mol
# GULP energy per Si atom -5574.655197 kJ/mol
# Density = 2.230738 g / cm^3
# Si number density = 22.358272 Si / 1000 Ang^3
#
#
#
# Elastic Constant Matrix: (Units=GPa)
#
#
# Indices 1 2 3 4 5 6 
#
# 1 94.6578 33.3669 38.3870 0.0000 0.0000 0.0000
# 2 33.3669 88.7401 63.2749 0.0000 0.0000 0.0000
# 3 38.3870 63.2749 167.9642 0.0000 0.0000 0.0000
# 4 0.0000 0.0000 0.0000 22.6463 0.0000 0.0000
# 5 0.0000 0.0000 0.0000 0.0000 27.8999 0.0000
# 6 0.0000 0.0000 0.0000 0.0000 0.0000 41.3513
#
#
#
# Elastic Compliance Matrix: (Units=1/GPa)
#
#
# Indices 1 2 3 4 5 6 
#
# 1 0.012441 -0.003624 -0.001478 0.000000 0.000000 0.000000
# 2 -0.003624 0.016463 -0.005374 0.000000 0.000000 0.000000
# 3 -0.001478 -0.005374 0.008316 0.000000 0.000000 0.000000
# 4 0.000000 0.000000 0.000000 0.044157 0.000000 0.000000
# 5 0.000000 0.000000 0.000000 0.000000 0.035842 0.000000
# 6 0.000000 0.000000 0.000000 0.000000 0.000000 0.024183
#
#
# Mechanical properties :
#
#
# Convention : Reuss Voigt Hill
#
# Bulk Modulus (GPa) = 61.46836 69.04662 65.25749
# Shear Modulus (GPa) = 29.80132 32.80170 31.30151
#
# Velocity S-wave (km/s) = 3.65485 3.83442 3.74571
# Velocity P-wave (km/s) = 6.73518 7.11004 6.92515
#
# Compressibility (1/GPa) = 0.01626853
#
# Stress axis : x y z
#
# Youngs Moduli (GPa) = 80.37763 60.74164 120.25262
#
# Poissons Ratio (x) = 0.22013 0.17775
# Poissons Ratio (y) = 0.29129 0.64620
# Poissons Ratio (z) = 0.11881 0.32641
#
# Static dielectric constant tensor:
#      x y z
#    x 1.932760 0.000000 0.000000 
#    y 0.000000 1.911560 0.000000 
#    z 0.000000 0.000000 1.904770 
# 
# From -- ./inp_files/27882.got.cif
#   From: 2010.05.17/outbox.cif.g08.bks.cpg/sg48_14_cif.got.tgz:27882.got - 2010.06.03 20:39:00.
