data_PCOD9391653
_publ_section_title
;
Structure prediction by ZEFSAII (Michael W. Deem and Ramdas Pophale) SiO2 
 PCOD9391653
Probable space group: P N N N
;
_chemical_formula_sum "Si O2"
_cell_formula_units_Z 48
_cell_length_a 15.133196
_cell_length_b 9.083914
_cell_length_c 17.060368
_cell_angle_alpha 90.000000
_cell_angle_beta 90.000000
_cell_angle_gamma 90.000000
_cell_volume 2345.265775
_symmetry_space_group_name_H-M "P N N N"
_symmetry_group_IT_number 48
_space_group.IT_coordinate_system_code '2'
_symmetry_cell_setting 'orthorhombic'
loop_
_space_group_symop_operation_xyz
x,y,z
1/2-x,1/2-y,z
x,1/2-y,1/2-z
1/2-x,y,1/2-z
-x,-y,-z
1/2+x,1/2+y,-z
-x,1/2+y,1/2+z
1/2+x,-y,1/2+z
loop_
_atom_site_type_symbol
_atom_site_label
_atom_site_fract_x
_atom_site_fract_y
_atom_site_fract_z
Si Si1 0.977440 0.791824 0.128829
Si Si2 0.536791 0.997347 0.225709
Si Si3 0.190662 0.115555 0.965330
Si Si4 0.783137 0.088855 0.337952
Si Si5 0.250000 0.444198 0.250000
Si Si6 0.901010 0.750000 0.750000
Si Si7 0.321422 0.619635 0.102830
O O1 0.989611 0.627353 0.162790
O O2 0.941005 0.896409 0.199118
O O3 0.903815 0.819374 0.062569
O O4 0.076480 0.833513 0.105349
O O5 0.612391 0.083590 0.177761
O O6 0.469129 0.116082 0.261554
O O7 0.250000 0.250000 0.992667
O O8 0.243624 0.034827 0.894461
O O9 0.183792 0.997532 0.033583
O O10 0.750000 0.250000 0.363679
O O11 0.750000 0.061968 0.250000
O O12 0.175002 0.346337 0.205200
O O13 0.297847 0.542913 0.185486
O O14 0.250000 0.750000 0.091117
#
# Coordination Sequence:
#
# PCOD9391653 Si02
#       7
#     8   8   8   8   4   4   8
#     4  11  24  45  70 103 144 184 233 290 359 417
#     4  11  22  39  69 107 137 178 235 287 340 424
#     4  12  26  46  69 101 147 184 229 292 355 424
#     4  11  22  39  68 102 140 183 225 280 346 421
#     4  11  25  44  74  97 135 182 240 299 343 410
#     4  11  22  40  65 108 132 176 239 292 338 407
#     4  12  27  48  72 101 138 187 239 292 355 421
#
# _framework density 20.466764000000001
#
# number of rings (size 3 to 8) (size 9 to 14) (size 15 to 20)
#    0.000    0.667    5.000    3.250    4.667    0.333 
#    0.000    0.833    0.000    0.000    0.000    0.000 
#    0.000    0.000    0.000    0.000    0.000    0.000 
#
# Total GULP energy -267214.646367 kJ/mol
# GULP energy per Si atom -5566.971799 kJ/mol
# Density = 2.042018 g / cm^3
# Si number density = 20.466764 Si / 1000 Ang^3
#
#
#
# Elastic Constant Matrix: (Units=GPa)
#
#
# Indices 1 2 3 4 5 6 
#
# 1 141.1713 57.2572 31.5902 0.0000 0.0000 0.0000
# 2 57.2572 121.2190 33.5011 0.0000 0.0000 0.0000
# 3 31.5902 33.5011 62.8538 0.0000 0.0000 0.0000
# 4 0.0000 0.0000 0.0000 9.3945 0.0000 0.0000
# 5 0.0000 0.0000 0.0000 0.0000 6.6104 0.0000
# 6 0.0000 0.0000 0.0000 0.0000 0.0000 22.2226
#
#
#
# Elastic Compliance Matrix: (Units=1/GPa)
#
#
# Indices 1 2 3 4 5 6 
#
# 1 0.009133 -0.003572 -0.002687 0.000000 0.000000 0.000000
# 2 -0.003572 0.011071 -0.004106 0.000000 0.000000 0.000000
# 3 -0.002687 -0.004106 0.019449 0.000000 0.000000 0.000000
# 4 0.000000 0.000000 0.000000 0.106445 0.000000 0.000000
# 5 0.000000 0.000000 0.000000 0.000000 0.151277 0.000000
# 6 0.000000 0.000000 0.000000 0.000000 0.000000 0.044999
#
#
# Mechanical properties :
#
#
# Convention : Reuss Voigt Hill
#
# Bulk Modulus (GPa) = 52.84051 63.32681 58.08366
# Shear Modulus (GPa) = 13.53503 21.17188 17.35346
#
# Velocity S-wave (km/s) = 2.57440 3.21978 2.91500
# Velocity P-wave (km/s) = 5.89156 6.69560 6.30641
#
# Compressibility (1/GPa) = 0.01892487
#
# Stress axis : x y z
#
# Youngs Moduli (GPa) = 109.48823 90.32363 51.41714
#
# Poissons Ratio (x) = 0.32260 0.13815
# Poissons Ratio (y) = 0.39105 0.21112
# Poissons Ratio (z) = 0.29417 0.37086
#
# Static dielectric constant tensor:
#      x y z
#    x 1.921890 0.000000 0.000000 
#    y 0.000000 1.768010 0.000000 
#    z 0.000000 0.000000 1.700990 
# 
# From -- ./inp_files/31593.got.cif
#   From: 2010.05.17/outbox.cif.g08.bks.cpg/sg48_16_cif.got.tgz:31593.got - 2010.06.03 20:39:00.
