data_PCOD9391617
_publ_section_title
;
Structure prediction by ZEFSAII (Michael W. Deem and Ramdas Pophale) SiO2 
 PCOD9391617
Probable space group: P N N N
;
_chemical_formula_sum "Si O2"
_cell_formula_units_Z 58
_cell_length_a 26.802421
_cell_length_b 21.581800
_cell_length_c 5.092077
_cell_angle_alpha 90.000000
_cell_angle_beta 90.000000
_cell_angle_gamma 90.000000
_cell_volume 2945.483881
_symmetry_space_group_name_H-M "P N N N"
_symmetry_group_IT_number 48
_space_group.IT_coordinate_system_code '2'
_symmetry_cell_setting 'orthorhombic'
loop_
_space_group_symop_operation_xyz
x,y,z
1/2-x,1/2-y,z
x,1/2-y,1/2-z
1/2-x,y,1/2-z
-x,-y,-z
1/2+x,1/2+y,-z
-x,1/2+y,1/2+z
1/2+x,-y,1/2+z
loop_
_atom_site_type_symbol
_atom_site_label
_atom_site_fract_x
_atom_site_fract_y
_atom_site_fract_z
Si Si1 0.346210 0.985178 0.274087
Si Si2 0.365273 0.439286 0.727699
Si Si3 0.694130 0.681926 0.140955
Si Si4 0.483521 0.040269 0.747832
Si Si5 0.615462 0.318899 0.358717
Si Si6 0.427576 0.879560 0.344229
Si Si7 0.781079 0.118843 0.512899
Si Si8 0.750000 0.750000 0.750000
O O1 0.394802 0.940707 0.275509
O O2 0.340766 0.012398 0.565067
O O3 0.303113 0.941307 0.161412
O O4 0.352775 0.040449 0.067662
O O5 0.343824 0.372109 0.798749
O O6 0.424850 0.446006 0.756016
O O7 0.679875 0.750000 0.250000
O O8 0.750000 0.667697 0.250000
O O9 0.708963 0.699315 0.847338
O O10 0.515807 0.102464 0.714507
O O11 0.500000 0.000000 0.500000
O O12 0.500000 0.000000 0.000000
O O13 0.615399 0.250000 0.250000
O O14 0.589117 0.327492 0.638619
O O15 0.671602 0.342433 0.409329
O O16 0.587500 0.360850 0.139266
O O17 0.750000 0.104933 0.250000
O O18 0.750000 0.151133 0.750000
#
# Coordination Sequence:
#
# PCOD9391617 Si02
#       8
#     8   8   8   8   8   8   8   2
#     4  11  23  38  60  91 129 163 201 258 329 386
#     4  12  23  39  66  99 124 164 219 255 312 402
#     4   9  22  41  63  87 124 172 212 262 318 370
#     4  12  22  40  66  99 130 167 208 261 325 392
#     4  11  24  42  66  90 121 177 223 260 318 396
#     4  11  21  41  65  89 132 165 209 265 328 381
#     4  11  23  41  60  88 129 166 207 274 331 364
#     4   8  18  44  64  78 128 172 214 248 328 372
#
# _framework density 19.691163
#
# number of rings (size 3 to 8) (size 9 to 14) (size 15 to 20)
#    0.000    1.241    2.759    5.379    3.862    1.931 
#    0.000    3.448    1.517    0.000    0.000    0.000 
#    0.000    0.000    0.000    0.000    0.000    0.000 
#
# Total GULP energy -323448.850242 kJ/mol
# GULP energy per Si atom -5576.704315 kJ/mol
# Density = 1.964635 g / cm^3
# Si number density = 19.691163 Si / 1000 Ang^3
#
#
#
# Elastic Constant Matrix: (Units=GPa)
#
#
# Indices 1 2 3 4 5 6 
#
# 1 44.0735 31.4729 5.8165 0.0000 0.0000 0.0000
# 2 31.4729 82.0776 5.4916 0.0000 0.0000 0.0000
# 3 5.8165 5.4916 86.0450 0.0000 0.0000 0.0000
# 4 0.0000 0.0000 0.0000 54.3499 0.0000 0.0000
# 5 0.0000 0.0000 0.0000 0.0000 25.4528 0.0000
# 6 0.0000 0.0000 0.0000 0.0000 0.0000 19.4789
#
#
#
# Elastic Compliance Matrix: (Units=1/GPa)
#
#
# Indices 1 2 3 4 5 6 
#
# 1 0.031403 -0.011950 -0.001360 0.000000 0.000000 0.000000
# 2 -0.011950 0.016784 -0.000263 0.000000 0.000000 0.000000
# 3 -0.001360 -0.000263 0.011731 0.000000 0.000000 0.000000
# 4 0.000000 0.000000 0.000000 0.018399 0.000000 0.000000
# 5 0.000000 0.000000 0.000000 0.000000 0.039288 0.000000
# 6 0.000000 0.000000 0.000000 0.000000 0.000000 0.051338
#
#
# Mechanical properties :
#
#
# Convention : Reuss Voigt Hill
#
# Bulk Modulus (GPa) = 30.51647 33.08422 31.80034
# Shear Modulus (GPa) = 24.15308 31.15065 27.65187
#
# Velocity S-wave (km/s) = 3.50608 3.98170 3.75144
# Velocity P-wave (km/s) = 5.64989 6.16252 5.91176
#
# Compressibility (1/GPa) = 0.03276919
#
# Stress axis : x y z
#
# Youngs Moduli (GPa) = 31.84444 59.58183 85.24734
#
# Poissons Ratio (x) = 0.71203 0.11594
# Poissons Ratio (y) = 0.38056 0.02245
# Poissons Ratio (z) = 0.04331 0.01569
#
# Static dielectric constant tensor:
#      x y z
#    x 1.709950 0.000000 0.000000 
#    y 0.000000 1.682390 0.000000 
#    z 0.000000 0.000000 1.760490 
# 
# From -- ./inp_files/6599.got.cif
#   From: 2010.05.17/outbox.cif.g08.bks.cpg/sg48_4_cif.got.tgz:6599.got - 2010.06.03 20:39:00.
