data_PCOD9391373
_publ_section_title
;
Structure prediction by ZEFSAII (Michael W. Deem and Ramdas Pophale) SiO2 
 PCOD9391373
Probable space group: P N N N
;
_chemical_formula_sum "Si O2"
_cell_formula_units_Z 38
_cell_length_a 8.653504
_cell_length_b 24.885325
_cell_length_c 9.422730
_cell_angle_alpha 90.000000
_cell_angle_beta 90.000000
_cell_angle_gamma 90.000000
_cell_volume 2029.140236
_symmetry_space_group_name_H-M "P N N N"
_symmetry_group_IT_number 48
_space_group.IT_coordinate_system_code '2'
_symmetry_cell_setting 'orthorhombic'
loop_
_space_group_symop_operation_xyz
x,y,z
1/2-x,1/2-y,z
x,1/2-y,1/2-z
1/2-x,y,1/2-z
-x,-y,-z
1/2+x,1/2+y,-z
-x,1/2+y,1/2+z
1/2+x,-y,1/2+z
loop_
_atom_site_type_symbol
_atom_site_label
_atom_site_fract_x
_atom_site_fract_y
_atom_site_fract_z
Si Si1 0.250000 0.980845 0.250000
Si Si2 0.433705 0.311972 0.725969
Si Si3 0.906228 0.106883 0.946573
Si Si4 0.602561 0.338317 0.437887
Si Si5 0.079103 0.084315 0.236046
Si Si6 0.250000 0.750000 0.750000
O O1 0.178583 0.942933 0.129966
O O2 0.113202 0.023213 0.286682
O O3 0.486088 0.250000 0.750000
O O4 0.250000 0.313251 0.750000
O O5 0.506426 0.355525 0.833242
O O6 0.488210 0.327755 0.568470
O O7 0.768320 0.142910 0.006634
O O8 0.015879 0.087767 0.075531
O O9 0.535897 0.384484 0.337232
O O10 0.638379 0.286004 0.346156
O O11 0.250000 0.110311 0.250000
#
# Coordination Sequence:
#
# PCOD9391373 Si02
#       6
#     4   8   8   8   8   2
#     4  10  24  42  69  93 132 178 224 270 334 376
#     4  11  25  43  68 100 134 171 215 272 337 390
#     4  12  21  46  68  97 134 172 227 267 326 403
#     4  12  23  43  68  99 129 174 217 274 322 401
#     4  10  24  42  64  95 135 170 221 270 329 381
#     4  12  24  40  72 100 132 168 228 260 346 392
#
# _framework density 18.727142000000001
#
# number of rings (size 3 to 8) (size 9 to 14) (size 15 to 20)
#    0.632    0.211    4.211    3.158    0.000    1.684 
#    0.000    0.000    0.000    0.000    0.000    0.000 
#    0.000    0.000    0.000    0.000    0.000    0.000 
#
# Total GULP energy -212024.030354 kJ/mol
# GULP energy per Si atom -5579.579746 kJ/mol
# Density = 1.868452 g / cm^3
# Si number density = 18.727142 Si / 1000 Ang^3
#
#
#
# Elastic Constant Matrix: (Units=GPa)
#
#
# Indices 1 2 3 4 5 6 
#
# 1 87.1873 43.9799 66.8215 0.0000 0.0000 0.0000
# 2 43.9799 138.4497 76.9691 0.0000 0.0000 0.0000
# 3 66.8215 76.9691 150.8789 0.0000 0.0000 0.0000
# 4 0.0000 0.0000 0.0000 126.3538 0.0000 0.0000
# 5 0.0000 0.0000 0.0000 0.0000 64.1194 0.0000
# 6 0.0000 0.0000 0.0000 0.0000 0.0000 41.8356
#
#
#
# Elastic Compliance Matrix: (Units=1/GPa)
#
#
# Indices 1 2 3 4 5 6 
#
# 1 0.017666 -0.001762 -0.006925 0.000000 0.000000 0.000000
# 2 -0.001762 0.010258 -0.004453 0.000000 0.000000 0.000000
# 3 -0.006925 -0.004453 0.011966 0.000000 0.000000 0.000000
# 4 0.000000 0.000000 0.000000 0.007914 0.000000 0.000000
# 5 0.000000 0.000000 0.000000 0.000000 0.015596 0.000000
# 6 0.000000 0.000000 0.000000 0.000000 0.000000 0.023903
#
#
# Mechanical properties :
#
#
# Convention : Reuss Voigt Hill
#
# Bulk Modulus (GPa) = 73.47086 83.56187 78.51637
# Shear Modulus (GPa) = 42.33008 59.04476 50.68742
#
# Velocity S-wave (km/s) = 4.75948 5.62116 5.20817
# Velocity P-wave (km/s) = 8.33793 9.31920 8.84219
#
# Compressibility (1/GPa) = 0.01361084
#
# Stress axis : x y z
#
# Youngs Moduli (GPa) = 56.60670 97.48590 83.56796
#
# Poissons Ratio (x) = 0.17175 0.57871
# Poissons Ratio (y) = 0.09973 0.37210
# Poissons Ratio (z) = 0.39201 0.43407
#
# Static dielectric constant tensor:
#      x y z
#    x 1.627670 0.000000 0.000000 
#    y 0.000000 1.667950 0.000000 
#    z 0.000000 0.000000 1.640400 
# 
# From -- ./inp_files/9045.got.cif
#   From: 2010.05.17/outbox.cif.g08.bks.cpg/sg48_5_cif.got.tgz:9045.got - 2010.06.03 20:39:00.
