data_PCOD9391753
_publ_section_title
;
Structure prediction by ZEFSAII (Michael W. Deem and Ramdas Pophale) SiO2 
 PCOD9391753
Probable space group: P N N N
;
_chemical_formula_sum "Si O2"
_cell_formula_units_Z 48
_cell_length_a 9.538552
_cell_length_b 15.776026
_cell_length_c 16.590514
_cell_angle_alpha 90.000000
_cell_angle_beta 90.000000
_cell_angle_gamma 90.000000
_cell_volume 2496.547919
_symmetry_space_group_name_H-M "P N N N"
_symmetry_group_IT_number 48
_space_group.IT_coordinate_system_code '2'
_symmetry_cell_setting 'orthorhombic'
loop_
_space_group_symop_operation_xyz
x,y,z
1/2-x,1/2-y,z
x,1/2-y,1/2-z
1/2-x,y,1/2-z
-x,-y,-z
1/2+x,1/2+y,-z
-x,1/2+y,1/2+z
1/2+x,-y,1/2+z
loop_
_atom_site_type_symbol
_atom_site_label
_atom_site_fract_x
_atom_site_fract_y
_atom_site_fract_z
Si Si1 0.790770 0.494734 0.411544
Si Si2 0.084079 0.751150 0.430990
Si Si3 0.565199 0.600589 0.971809
Si Si4 0.522656 0.750000 0.250000
Si Si5 0.250000 0.101472 0.750000
Si Si6 0.731020 0.649606 0.661391
Si Si7 0.981918 0.091998 0.457390
O O1 0.796540 0.567435 0.479964
O O2 0.770962 0.541841 0.327374
O O3 0.674346 0.422355 0.420746
O O4 0.943409 0.459385 0.435861
O O5 0.250000 0.750000 0.446455
O O6 0.022578 0.834763 0.474796
O O7 0.008804 0.670500 0.472210
O O8 0.059241 0.748265 0.334773
O O9 0.633896 0.631121 0.890852
O O10 0.618912 0.834215 0.244804
O O11 0.750000 0.750000 0.668908
O O12 0.750000 0.610232 0.750000
O O13 0.592481 0.617776 0.612904
O O14 0.000000 0.000000 0.500000
#
# Coordination Sequence:
#
# PCOD9391753 Si02
#       7
#     8   8   8   4   4   8   8
#     4  11  24  42  66 101 133 177 225 274 341 401
#     4  12  24  45  68 101 138 179 229 278 348 418
#     4  11  23  45  68  92 137 181 217 278 337 409
#     4  11  25  42  70 100 139 179 222 282 350 410
#     4  11  24  42  68 101 136 178 226 285 340 414
#     4  11  25  43  66  97 131 174 227 277 337 400
#     4  12  24  42  68  98 133 180 229 279 337 408
#
# _framework density 19.226548000000001
#
# number of rings (size 3 to 8) (size 9 to 14) (size 15 to 20)
#    0.000    0.667    6.667    1.250    2.333    0.000 
#    0.000    0.000    0.000    4.000    0.000    0.000 
#    0.000    0.000    0.000    0.000    0.000    0.000 
#
# Total GULP energy -267285.975181 kJ/mol
# GULP energy per Si atom -5568.457816 kJ/mol
# Density = 1.918279 g / cm^3
# Si number density = 19.226548 Si / 1000 Ang^3
#
#
#
# Elastic Constant Matrix: (Units=GPa)
#
#
# Indices 1 2 3 4 5 6 
#
# 1 91.1390 11.1390 40.3366 0.0000 0.0000 0.0000
# 2 11.1390 63.0539 41.5899 0.0000 0.0000 0.0000
# 3 40.3366 41.5899 162.5732 0.0000 0.0000 0.0000
# 4 0.0000 0.0000 0.0000 28.9706 0.0000 0.0000
# 5 0.0000 0.0000 0.0000 0.0000 33.8597 0.0000
# 6 0.0000 0.0000 0.0000 0.0000 0.0000 21.9984
#
#
#
# Elastic Compliance Matrix: (Units=1/GPa)
#
#
# Indices 1 2 3 4 5 6 
#
# 1 0.012328 -0.000193 -0.003009 0.000000 0.000000 0.000000
# 2 -0.000193 0.019082 -0.004834 0.000000 0.000000 0.000000
# 3 -0.003009 -0.004834 0.008134 0.000000 0.000000 0.000000
# 4 0.000000 0.000000 0.000000 0.034518 0.000000 0.000000
# 5 0.000000 0.000000 0.000000 0.000000 0.029534 0.000000
# 6 0.000000 0.000000 0.000000 0.000000 0.000000 0.045458
#
#
# Mechanical properties :
#
#
# Convention : Reuss Voigt Hill
#
# Bulk Modulus (GPa) = 42.60397 55.87745 49.24071
# Shear Modulus (GPa) = 28.91027 31.87909 30.39468
#
# Velocity S-wave (km/s) = 3.88192 4.07637 3.98033
# Velocity P-wave (km/s) = 6.50380 7.16111 6.84035
#
# Compressibility (1/GPa) = 0.02347199
#
# Stress axis : x y z
#
# Youngs Moduli (GPa) = 81.11812 52.40603 122.93622
#
# Poissons Ratio (x) = 0.01011 0.36996
# Poissons Ratio (y) = 0.01565 0.59424
# Poissons Ratio (z) = 0.24411 0.25331
#
# Static dielectric constant tensor:
#      x y z
#    x 1.683300 0.000000 0.000000 
#    y 0.000000 1.635700 0.000000 
#    z 0.000000 0.000000 3.341510 
# 
# From -- ./inp_files/30289.got.cif
#   From: 2010.05.17/outbox.cif.g08.bks.cpg/sg48_16_cif.got.tgz:30289.got - 2010.06.03 20:39:00.
