data_PCOD9391576
_publ_section_title
;
Structure prediction by ZEFSAII (Michael W. Deem and Ramdas Pophale) SiO2 
 PCOD9391576
Probable space group: P N N N
;
_chemical_formula_sum "Si O2"
_cell_formula_units_Z 34
_cell_length_a 10.012431
_cell_length_b 22.704267
_cell_length_c 7.393321
_cell_angle_alpha 90.000000
_cell_angle_beta 90.000000
_cell_angle_gamma 90.000000
_cell_volume 1680.686007
_symmetry_space_group_name_H-M "P N N N"
_symmetry_group_IT_number 48
_space_group.IT_coordinate_system_code '2'
_symmetry_cell_setting 'orthorhombic'
loop_
_space_group_symop_operation_xyz
x,y,z
1/2-x,1/2-y,z
x,1/2-y,1/2-z
1/2-x,y,1/2-z
-x,-y,-z
1/2+x,1/2+y,-z
-x,1/2+y,1/2+z
1/2+x,-y,1/2+z
loop_
_atom_site_type_symbol
_atom_site_label
_atom_site_fract_x
_atom_site_fract_y
_atom_site_fract_z
Si Si1 0.515016 0.931398 0.053036
Si Si2 0.690789 0.163715 0.055567
Si Si3 0.419855 0.575566 0.037470
Si Si4 0.250000 0.750000 0.250000
Si Si5 0.200127 0.048022 0.047761
O O1 0.454475 0.928690 0.252127
O O2 0.431773 0.883354 0.936894
O O3 0.674784 0.922494 0.050938
O O4 0.500000 0.000000 0.000000
O O5 0.750000 0.184719 0.250000
O O6 0.816320 0.126659 0.985822
O O7 0.665709 0.211082 0.895543
O O8 0.348554 0.515210 0.970365
O O9 0.562998 0.583964 0.944905
O O10 0.250000 0.036921 0.250000
#
# Coordination Sequence:
#
# PCOD9391576 Si02
#       5
#     8   8   8   2   8
#     4  12  21  37  60  97 141 176 210 267 344 411
#     4  12  25  44  71  97 128 178 232 283 334 401
#     4  11  22  37  58  94 138 177 211 266 336 413
#     4  12  26  52  68  92 132 172 250 290 330 390
#     4  11  21  33  55  91 139 175 207 256 332 418
#
# _framework density 20.229834
#
# number of rings (size 3 to 8) (size 9 to 14) (size 15 to 20)
#    0.000    0.471    7.059    2.471    3.294    0.000 
#    0.000    0.000    0.000    2.824    0.000    4.941 
#    0.000    0.000    0.000    0.000    0.000    0.000 
#
# Total GULP energy -189736.480805 kJ/mol
# GULP energy per Si atom -5580.484730 kJ/mol
# Density = 2.018379 g / cm^3
# Si number density = 20.229834 Si / 1000 Ang^3
#
#
#
# Elastic Constant Matrix: (Units=GPa)
#
#
# Indices 1 2 3 4 5 6 
#
# 1 148.1023 42.0671 40.1853 0.0000 0.0000 0.0000
# 2 42.0671 72.9268 34.2131 0.0000 0.0000 0.0000
# 3 40.1853 34.2131 104.2618 0.0000 0.0000 0.0000
# 4 0.0000 0.0000 0.0000 33.0401 0.0000 0.0000
# 5 0.0000 0.0000 0.0000 0.0000 40.0437 0.0000
# 6 0.0000 0.0000 0.0000 0.0000 0.0000 14.7273
#
#
#
# Elastic Compliance Matrix: (Units=1/GPa)
#
#
# Indices 1 2 3 4 5 6 
#
# 1 0.008397 -0.003930 -0.001947 0.000000 0.000000 0.000000
# 2 -0.003930 0.018047 -0.004407 0.000000 0.000000 0.000000
# 3 -0.001947 -0.004407 0.011788 0.000000 0.000000 0.000000
# 4 0.000000 0.000000 0.000000 0.030266 0.000000 0.000000
# 5 0.000000 0.000000 0.000000 0.000000 0.024973 0.000000
# 6 0.000000 0.000000 0.000000 0.000000 0.000000 0.067901
#
#
# Mechanical properties :
#
#
# Convention : Reuss Voigt Hill
#
# Bulk Modulus (GPa) = 56.61469 62.02466 59.31967
# Shear Modulus (GPa) = 26.62014 31.48390 29.05202
#
# Velocity S-wave (km/s) = 3.63145 3.94929 3.79370
# Velocity P-wave (km/s) = 6.75498 7.17791 6.96965
#
# Compressibility (1/GPa) = 0.01766326
#
# Stress axis : x y z
#
# Youngs Moduli (GPa) = 119.09549 55.41039 84.83392
#
# Poissons Ratio (x) = 0.21778 0.16514
# Poissons Ratio (y) = 0.46808 0.37389
# Poissons Ratio (z) = 0.23183 0.24421
#
# Static dielectric constant tensor:
#      x y z
#    x 1.774720 0.000000 0.000000 
#    y 0.000000 1.769000 0.000000 
#    z 0.000000 0.000000 1.834190 
# 
# From -- ./inp_files/8764.got.cif
#   From: 2010.05.17/outbox.cif.g08.bks.cpg/sg48_5_cif.got.tgz:8764.got - 2010.06.03 20:39:00.
