data_PCOD9391885
_publ_section_title
;
Structure prediction by ZEFSAII (Michael W. Deem and Ramdas Pophale) SiO2 
 PCOD9391885
Probable space group: P N N N
;
_chemical_formula_sum "Si O2"
_cell_formula_units_Z 26
_cell_length_a 5.318048
_cell_length_b 10.928617
_cell_length_c 17.389604
_cell_angle_alpha 90.000000
_cell_angle_beta 90.000000
_cell_angle_gamma 90.000000
_cell_volume 1010.664826
_symmetry_space_group_name_H-M "P N N N"
_symmetry_group_IT_number 48
_space_group.IT_coordinate_system_code '2'
_symmetry_cell_setting 'orthorhombic'
loop_
_space_group_symop_operation_xyz
x,y,z
1/2-x,1/2-y,z
x,1/2-y,1/2-z
1/2-x,y,1/2-z
-x,-y,-z
1/2+x,1/2+y,-z
-x,1/2+y,1/2+z
1/2+x,-y,1/2+z
loop_
_atom_site_type_symbol
_atom_site_label
_atom_site_fract_x
_atom_site_fract_y
_atom_site_fract_z
Si Si1 0.750000 0.750000 0.750000
Si Si2 0.500132 0.201646 0.874569
Si Si3 0.467879 0.592586 0.624924
Si Si4 0.968560 0.635885 0.531244
O O1 0.566216 0.659657 0.701636
O O2 0.250000 0.250000 0.836169
O O3 0.750000 0.250000 0.835914
O O4 0.484866 0.055006 0.876717
O O5 0.503434 0.276209 0.957040
O O6 0.191652 0.633325 0.595453
O O7 0.688612 0.634784 0.566724
O O8 0.000000 0.500000 0.500000
#
# Coordination Sequence:
#
# PCOD9391885 Si02
#       4
#     2   8   8   8
#     4  12  36  54  74 102 160 238 276 306 368 486
#     4  12  23  42  76 121 150 185 244 329 418 444
#     4  12  28  49  72 110 160 205 260 307 384 484
#     4  12  24  43  79 122 153 182 244 344 411 455
#
# _framework density 25.725639999999999
#
# number of rings (size 3 to 8) (size 9 to 14) (size 15 to 20)
#    0.000    0.000    6.154    2.769    6.462    2.462 
#    0.000    0.769    0.000    1.846    0.000    0.000 
#    0.000    0.000    0.000    0.000    0.000    0.000 
#
# Total GULP energy -145370.477509 kJ/mol
# GULP energy per Si atom -5591.172212 kJ/mol
# Density = 2.566709 g / cm^3
# Si number density = 25.725640 Si / 1000 Ang^3
#
#
#
# Elastic Constant Matrix: (Units=GPa)
#
#
# Indices 1 2 3 4 5 6 
#
# 1 196.7187 -24.2808 41.5711 0.0000 0.0000 0.0000
# 2 -24.2808 197.4114 47.2329 0.0000 0.0000 0.0000
# 3 41.5711 47.2329 143.3601 0.0000 0.0000 0.0000
# 4 0.0000 0.0000 0.0000 19.9093 0.0000 0.0000
# 5 0.0000 0.0000 0.0000 0.0000-2731.5674 0.0000
# 6 0.0000 0.0000 0.0000 0.0000 0.0000 41.4326
#
#
#
# Elastic Compliance Matrix: (Units=1/GPa)
#
#
# Indices 1 2 3 4 5 6 
#
# 1 0.005658 0.001182 -0.002030 0.000000 0.000000 0.000000
# 2 0.001182 0.005746 -0.002236 0.000000 0.000000 0.000000
# 3 -0.002030 -0.002236 0.008301 0.000000 0.000000 0.000000
# 4 0.000000 0.000000 0.000000 0.050228 0.000000 0.000000
# 5 0.000000 0.000000 0.000000 0.000000 -0.000366 0.000000
# 6 0.000000 0.000000 0.000000 0.000000 0.000000 0.024136
#
#
# Mechanical properties :
#
#
# Convention : Reuss Voigt Hill
#
# Bulk Modulus (GPa) = 73.87435 74.05962 73.96698
# Shear Modulus (GPa) = 47.90077 -502.51396 -227.30659
#
# Velocity S-wave (km/s) = 4.31975 -13.99142 -9.41009
# Velocity P-wave (km/s) = 7.32523 15.23688 9.44731
#
# Compressibility (1/GPa) = 0.01353650
#
# Stress axis : x y z
#
# Youngs Moduli (GPa) = 176.73295 174.03935 120.47141
#
# Poissons Ratio (x) = -0.20566 0.24457
# Poissons Ratio (y) = -0.20884 0.26934
# Poissons Ratio (z) = 0.35878 0.38911
#
# Static dielectric constant tensor:
#      x y z
#    x 1.984890 0.000000 0.000000 
#    y 0.000000 1.802860 0.000000 
#    z 0.000000 0.000000 1.951640 
# 
# From -- ./inp_files/29094.got.cif
#   From: 2010.05.17/outbox.cif.g08.bks.cpg/sg48_15_cif.got.tgz:29094.got - 2010.06.03 20:39:00.
