data_PCOD9391925
_publ_section_title
;
Structure prediction by ZEFSAII (Michael W. Deem and Ramdas Pophale) SiO2 
 PCOD9391925
Probable space group: P N N N
;
_chemical_formula_sum "Si O2"
_cell_formula_units_Z 22
_cell_length_a 5.298486
_cell_length_b 31.738653
_cell_length_c 5.245071
_cell_angle_alpha 90.000000
_cell_angle_beta 90.000000
_cell_angle_gamma 90.000000
_cell_volume 882.046851
_symmetry_space_group_name_H-M "P N N N"
_symmetry_group_IT_number 48
_space_group.IT_coordinate_system_code '2'
_symmetry_cell_setting 'orthorhombic'
loop_
_space_group_symop_operation_xyz
x,y,z
1/2-x,1/2-y,z
x,1/2-y,1/2-z
1/2-x,y,1/2-z
-x,-y,-z
1/2+x,1/2+y,-z
-x,1/2+y,1/2+z
1/2+x,-y,1/2+z
loop_
_atom_site_type_symbol
_atom_site_label
_atom_site_fract_x
_atom_site_fract_y
_atom_site_fract_z
Si Si1 0.250000 0.111473 0.250000
Si Si2 0.419993 0.678726 0.495349
Si Si3 0.502059 0.451462 0.912805
Si Si4 0.250000 0.250000 0.750000
O O1 0.377302 0.142237 0.046189
O O2 0.465652 0.080996 0.358485
O O3 0.250000 0.683148 0.750000
O O4 0.573284 0.720776 0.424542
O O5 0.250000 0.668709 0.250000
O O6 0.250000 0.445634 0.750000
O O7 0.750000 0.443673 0.750000
O O8 0.500000 0.500000 0.000000
#
# Coordination Sequence:
#
# PCOD9391925 Si02
#       4
#     4   8   8   2
#     4  12  32  49  82 124 174 226 302 357 452 514
#     4  12  31  54  86 125 175 227 291 367 445 538
#     4  12  29  52  83 122 170 233 297 366 440 521
#     4  12  30  58  84 132 164 234 290 362 454 534
#
# _framework density 24.941987999999998
#
# number of rings (size 3 to 8) (size 9 to 14) (size 15 to 20)
#    0.000    0.000    1.818    3.818   12.727   10.909 
#    0.000    0.000    0.000    0.000    0.000    0.000 
#    0.000    0.000    0.000    0.000    0.000    0.000 
#
# Total GULP energy -123701.373727 kJ/mol
# GULP energy per Si atom -5622.789715 kJ/mol
# Density = 2.488522 g / cm^3
# Si number density = 24.941988 Si / 1000 Ang^3
#
#
#
# Elastic Constant Matrix: (Units=GPa)
#
#
# Indices 1 2 3 4 5 6 
#
# 1 187.6135 74.4001 89.3046 0.0000 0.0000 0.0000
# 2 74.4001 207.1239 79.4498 0.0000 0.0000 0.0000
# 3 89.3046 79.4498 163.8969 0.0000 0.0000 0.0000
# 4 0.0000 0.0000 0.0000 71.9567 0.0000 0.0000
# 5 0.0000 0.0000 0.0000 0.0000 63.9331 0.0000
# 6 0.0000 0.0000 0.0000 0.0000 0.0000 46.6023
#
#
#
# Elastic Compliance Matrix: (Units=1/GPa)
#
#
# Indices 1 2 3 4 5 6 
#
# 1 0.007507 -0.001385 -0.003419 0.000000 0.000000 0.000000
# 2 -0.001385 0.006186 -0.002244 0.000000 0.000000 0.000000
# 3 -0.003419 -0.002244 0.009052 0.000000 0.000000 0.000000
# 4 0.000000 0.000000 0.000000 0.013897 0.000000 0.000000
# 5 0.000000 0.000000 0.000000 0.000000 0.015641 0.000000
# 6 0.000000 0.000000 0.000000 0.000000 0.000000 0.021458
#
#
# Mechanical properties :
#
#
# Convention : Reuss Voigt Hill
#
# Bulk Modulus (GPa) = 115.61949 116.10482 115.86215
# Shear Modulus (GPa) = 55.11380 57.53041 56.32211
#
# Velocity S-wave (km/s) = 4.70582 4.80789 4.75713
# Velocity P-wave (km/s) = 8.71679 8.80182 8.75941
#
# Compressibility (1/GPa) = 0.00864906
#
# Stress axis : x y z
#
# Youngs Moduli (GPa) = 133.21326 161.64540 110.47061
#
# Poissons Ratio (x) = 0.22388 0.37769
# Poissons Ratio (y) = 0.18450 0.24792
# Poissons Ratio (z) = 0.45544 0.36276
#
# Static dielectric constant tensor:
#      x y z
#    x 1.888830 0.000000 0.000000 
#    y 0.000000 1.935970 0.000000 
#    z 0.000000 0.000000 1.989980 
# 
# From -- ./inp_files/355.got.cif
#   From: 2010.05.17/outbox.cif.g08.bks.cpg/sg48_1_cif.got.tgz:355.got - 2010.06.03 20:39:00.
