data_PCOD9391756
_publ_section_title
;
Structure prediction by ZEFSAII (Michael W. Deem and Ramdas Pophale) SiO2 
 PCOD9391756
Probable space group: P N N N
;
_chemical_formula_sum "Si O2"
_cell_formula_units_Z 48
_cell_length_a 7.887895
_cell_length_b 14.625818
_cell_length_c 17.948779
_cell_angle_alpha 90.000000
_cell_angle_beta 90.000000
_cell_angle_gamma 90.000000
_cell_volume 2070.695291
_symmetry_space_group_name_H-M "P N N N"
_symmetry_group_IT_number 48
_space_group.IT_coordinate_system_code '2'
_symmetry_cell_setting 'orthorhombic'
loop_
_space_group_symop_operation_xyz
x,y,z
1/2-x,1/2-y,z
x,1/2-y,1/2-z
1/2-x,y,1/2-z
-x,-y,-z
1/2+x,1/2+y,-z
-x,1/2+y,1/2+z
1/2+x,-y,1/2+z
loop_
_atom_site_type_symbol
_atom_site_label
_atom_site_fract_x
_atom_site_fract_y
_atom_site_fract_z
Si Si1 0.947690 0.757908 0.083174
Si Si2 0.930981 0.910603 0.789297
Si Si3 0.040728 0.545979 0.079312
Si Si4 0.644449 0.096387 0.674898
Si Si5 0.484034 0.803010 0.582670
Si Si6 0.125746 0.877686 0.647961
O O1 0.750000 0.750000 0.100019
O O2 0.002504 0.653136 0.076275
O O3 0.053593 0.814564 0.143362
O O4 0.982831 0.809169 0.004482
O O5 0.750000 0.918560 0.750000
O O6 0.889844 0.854294 0.863288
O O7 0.067466 0.864546 0.733875
O O8 0.985735 0.014249 0.807255
O O9 0.229833 0.550451 0.113553
O O10 0.926192 0.481827 0.132087
O O11 0.000000 0.500000 0.000000
O O12 0.750000 0.117181 0.750000
O O13 0.309425 0.850278 0.613887
O O14 0.484405 0.696379 0.602760
#
# Coordination Sequence:
#
# PCOD9391756 Si02
#       6
#     8   8   8   8   8   8
#     4  12  30  47  76 117 149 201 260 325 390 463
#     4  11  24  45  74 112 149 199 257 317 397 461
#     4  12  24  47  77 107 154 199 261 312 389 463
#     4  11  26  53  78 110 148 206 263 323 390 472
#     4  11  26  44  74 109 163 192 256 316 391 468
#     4  11  23  46  71 112 146 211 248 315 386 468
#
# _framework density 23.180619
#
# number of rings (size 3 to 8) (size 9 to 14) (size 15 to 20)
#    0.000    0.667    5.000    2.500    9.333    4.000 
#    0.000    1.667    0.000    0.000    0.000    0.000 
#    0.000    0.000    0.000    0.000    0.000    0.000 
#
# Total GULP energy -268056.303185 kJ/mol
# GULP energy per Si atom -5584.506316 kJ/mol
# Density = 2.312786 g / cm^3
# Si number density = 23.180619 Si / 1000 Ang^3
#
#
#
# Elastic Constant Matrix: (Units=GPa)
#
#
# Indices 1 2 3 4 5 6 
#
# 1 99.7266 34.1315 32.3679 0.0000 0.0000 0.0000
# 2 34.1315 84.9308 41.8113 0.0000 0.0000 0.0000
# 3 32.3679 41.8113 125.8640 0.0000 0.0000 0.0000
# 4 0.0000 0.0000 0.0000 43.0488 0.0000 0.0000
# 5 0.0000 0.0000 0.0000 0.0000 21.2575 0.0000
# 6 0.0000 0.0000 0.0000 0.0000 0.0000 34.0643
#
#
#
# Elastic Compliance Matrix: (Units=1/GPa)
#
#
# Indices 1 2 3 4 5 6 
#
# 1 0.011946 -0.003931 -0.001766 0.000000 0.000000 0.000000
# 2 -0.003931 0.015370 -0.004095 0.000000 0.000000 0.000000
# 3 -0.001766 -0.004095 0.009760 0.000000 0.000000 0.000000
# 4 0.000000 0.000000 0.000000 0.023229 0.000000 0.000000
# 5 0.000000 0.000000 0.000000 0.000000 0.047042 0.000000
# 6 0.000000 0.000000 0.000000 0.000000 0.000000 0.029356
#
#
# Mechanical properties :
#
#
# Convention : Reuss Voigt Hill
#
# Bulk Modulus (GPa) = 57.17206 58.57142 57.87174
# Shear Modulus (GPa) = 30.84157 33.15483 31.99820
#
# Velocity S-wave (km/s) = 3.65154 3.78601 3.71939
# Velocity P-wave (km/s) = 6.51887 6.66589 6.59279
#
# Compressibility (1/GPa) = 0.01749106
#
# Stress axis : x y z
#
# Youngs Moduli (GPa) = 83.70887 65.06137 102.46362
#
# Poissons Ratio (x) = 0.25578 0.18097
# Poissons Ratio (y) = 0.32909 0.41957
# Poissons Ratio (z) = 0.14784 0.26642
#
# Static dielectric constant tensor:
#      x y z
#    x 1.998550 0.000000 0.000000 
#    y 0.000000 1.895430 0.000000 
#    z 0.000000 0.000000 1.970000 
# 
# From -- ./inp_files/30257.got.cif
#   From: 2010.05.17/outbox.cif.g08.bks.cpg/sg48_16_cif.got.tgz:30257.got - 2010.06.03 20:39:00.
