data_PCOD9391530
_publ_section_title
;
Structure prediction by ZEFSAII (Michael W. Deem and Ramdas Pophale) SiO2 
 PCOD9391530
Probable space group: P N N N
;
_chemical_formula_sum "Si O2"
_cell_formula_units_Z 52
_cell_length_a 14.020670
_cell_length_b 12.070023
_cell_length_c 18.458224
_cell_angle_alpha 90.000000
_cell_angle_beta 90.000000
_cell_angle_gamma 90.000000
_cell_volume 3123.681729
_symmetry_space_group_name_H-M "P N N N"
_symmetry_group_IT_number 48
_space_group.IT_coordinate_system_code '2'
_symmetry_cell_setting 'orthorhombic'
loop_
_space_group_symop_operation_xyz
x,y,z
1/2-x,1/2-y,z
x,1/2-y,1/2-z
1/2-x,y,1/2-z
-x,-y,-z
1/2+x,1/2+y,-z
-x,1/2+y,1/2+z
1/2+x,-y,1/2+z
loop_
_atom_site_type_symbol
_atom_site_label
_atom_site_fract_x
_atom_site_fract_y
_atom_site_fract_z
Si Si1 0.555504 0.610742 0.593045
Si Si2 0.808291 0.058390 0.946435
Si Si3 0.352496 0.194854 0.481555
Si Si4 0.881697 0.416596 0.005967
Si Si5 0.178924 0.969375 0.305887
Si Si6 0.924369 0.250000 0.750000
Si Si7 0.023069 0.724914 0.411913
O O1 0.595362 0.733709 0.581529
O O2 0.599370 0.539815 0.525186
O O3 0.442540 0.602917 0.578526
O O4 0.596782 0.549166 0.663049
O O5 0.744631 0.065110 0.873751
O O6 0.901378 0.131744 0.936394
O O7 0.836937 0.932119 0.960369
O O8 0.731814 0.099190 0.006681
O O9 0.250000 0.250000 0.494421
O O10 0.422250 0.204302 0.550301
O O11 0.931101 0.336207 0.946420
O O12 0.250000 0.028027 0.250000
O O13 0.137655 0.859548 0.267745
O O14 0.980382 0.269455 0.674934
#
# Coordination Sequence:
#
# PCOD9391530 Si02
#       7
#     8   8   8   8   8   4   8
#     4   9  18  33  49  76 103 141 183 216 261 327
#     4  11  20  33  53  81 110 140 180 231 278 321
#     4  11  21  37  54  73 109 149 186 225 268 322
#     4   9  17  30  54  75 101 138 182 222 263 318
#     4  11  20  29  52  79 113 139 166 215 282 332
#     4  12  21  32  51  82 114 140 167 222 283 340
#     4  11  22  33  53  81 111 141 178 230 279 326
#
# _framework density 16.647023000000001
#
# number of rings (size 3 to 8) (size 9 to 14) (size 15 to 20)
#    0.000    1.538    7.692    1.154    0.000    0.000 
#    0.000    1.923    0.000    0.000    0.000    0.000 
#    0.000    0.000    0.000    0.000    0.000    0.000 
#
# Total GULP energy -289762.582232 kJ/mol
# GULP energy per Si atom -5572.357351 kJ/mol
# Density = 1.660913 g / cm^3
# Si number density = 16.647023 Si / 1000 Ang^3
#
#
#
# Elastic Constant Matrix: (Units=GPa)
#
#
# Indices 1 2 3 4 5 6 
#
# 1 65.3833 27.9906 30.7995 0.0000 0.0000 0.0000
# 2 27.9906 81.2529 35.4046 0.0000 0.0000 0.0000
# 3 30.7995 35.4046 71.5633 0.0000 0.0000 0.0000
# 4 0.0000 0.0000 0.0000 14.1611 0.0000 0.0000
# 5 0.0000 0.0000 0.0000 0.0000 34.4476 0.0000
# 6 0.0000 0.0000 0.0000 0.0000 0.0000 16.8707
#
#
#
# Elastic Compliance Matrix: (Units=1/GPa)
#
#
# Indices 1 2 3 4 5 6 
#
# 1 0.020171 -0.004036 -0.006685 0.000000 0.000000 0.000000
# 2 -0.004036 0.016497 -0.006425 0.000000 0.000000 0.000000
# 3 -0.006685 -0.006425 0.020029 0.000000 0.000000 0.000000
# 4 0.000000 0.000000 0.000000 0.070616 0.000000 0.000000
# 5 0.000000 0.000000 0.000000 0.000000 0.029030 0.000000
# 6 0.000000 0.000000 0.000000 0.000000 0.000000 0.059275
#
#
# Mechanical properties :
#
#
# Convention : Reuss Voigt Hill
#
# Bulk Modulus (GPa) = 44.62919 45.17655 44.90287
# Shear Modulus (GPa) = 19.42680 21.36284 20.39482
#
# Velocity S-wave (km/s) = 3.41982 3.58618 3.50399
# Velocity P-wave (km/s) = 6.51620 6.65916 6.58807
#
# Compressibility (1/GPa) = 0.02240686
#
# Stress axis : x y z
#
# Youngs Moduli (GPa) = 49.57595 60.61703 49.92767
#
# Poissons Ratio (x) = 0.24465 0.33374
# Poissons Ratio (y) = 0.20009 0.32076
# Poissons Ratio (z) = 0.33139 0.38944
#
# Static dielectric constant tensor:
#      x y z
#    x 1.594740 0.000000 0.000000 
#    y 0.000000 1.587480 0.000000 
#    z 0.000000 0.000000 1.578440 
# 
# From -- ./inp_files/31646.got.cif
#   From: 2010.05.17/outbox.cif.g08.bks.cpg/sg48_16_cif.got.tgz:31646.got - 2010.06.03 20:39:00.
