data_PCOD9391516
_publ_section_title
;
Structure prediction by ZEFSAII (Michael W. Deem and Ramdas Pophale) SiO2 
 PCOD9391516
Probable space group: P N N N
;
_chemical_formula_sum "Si O2"
_cell_formula_units_Z 48
_cell_length_a 10.727257
_cell_length_b 24.585053
_cell_length_c 8.320518
_cell_angle_alpha 90.000000
_cell_angle_beta 90.000000
_cell_angle_gamma 90.000000
_cell_volume 2194.371726
_symmetry_space_group_name_H-M "P N N N"
_symmetry_group_IT_number 48
_space_group.IT_coordinate_system_code '2'
_symmetry_cell_setting 'orthorhombic'
loop_
_space_group_symop_operation_xyz
x,y,z
1/2-x,1/2-y,z
x,1/2-y,1/2-z
1/2-x,y,1/2-z
-x,-y,-z
1/2+x,1/2+y,-z
-x,1/2+y,1/2+z
1/2+x,-y,1/2+z
loop_
_atom_site_type_symbol
_atom_site_label
_atom_site_fract_x
_atom_site_fract_y
_atom_site_fract_z
Si Si1 0.509048 0.590142 0.108120
Si Si2 0.605367 0.807450 0.194406
Si Si3 0.415878 0.996247 0.842413
Si Si4 0.123246 0.163207 0.337383
Si Si5 0.881489 0.121532 0.187003
Si Si6 0.246725 0.447906 0.424932
O O1 0.542263 0.640076 0.224864
O O2 0.518503 0.535392 0.212310
O O3 0.389586 0.605495 0.001425
O O4 0.616636 0.579761 0.973643
O O5 0.551999 0.750000 0.250000
O O6 0.750000 0.810776 0.250000
O O7 0.600338 0.806560 0.002912
O O8 0.399920 0.935777 0.779266
O O9 0.287062 0.018558 0.919205
O O10 0.500000 0.000000 0.000000
O O11 0.250000 0.182390 0.250000
O O12 0.158888 0.102024 0.396262
O O13 0.998398 0.160118 0.232015
O O14 0.750000 0.143836 0.250000
O O15 0.250000 0.476562 0.250000
#
# Coordination Sequence:
#
# PCOD9391516 Si02
#       6
#     8   8   8   8   8   8
#     4  12  21  40  59  85 127 166 196 258 324 372
#     4  11  21  37  66 102 123 151 208 268 320 378
#     4  12  22  36  58  90 125 169 211 252 307 379
#     4  11  20  42  66  89 129 166 201 252 327 380
#     4  12  25  39  59  92 125 165 219 261 300 369
#     4  11  19  35  61  84 120 167 198 242 315 376
#
# _framework density 21.874144999999999
#
# number of rings (size 3 to 8) (size 9 to 14) (size 15 to 20)
#    0.000    0.500    8.333    2.000    0.000    1.333 
#    0.000    9.167    0.000    3.000    0.000    0.000 
#    0.000    0.000    0.000    0.000    0.000    0.000 
#
# Total GULP energy -268278.852944 kJ/mol
# GULP energy per Si atom -5589.142770 kJ/mol
# Density = 2.182436 g / cm^3
# Si number density = 21.874145 Si / 1000 Ang^3
#
#
#
# Elastic Constant Matrix: (Units=GPa)
#
#
# Indices 1 2 3 4 5 6 
#
# 1 96.1550 11.2322 33.6047 0.0000 0.0000 0.0000
# 2 11.2322 36.9804 14.3007 0.0000 0.0000 0.0000
# 3 33.6047 14.3007 151.0322 0.0000 0.0000 0.0000
# 4 0.0000 0.0000 0.0000 11.0176 0.0000 0.0000
# 5 0.0000 0.0000 0.0000 0.0000 30.4886 0.0000
# 6 0.0000 0.0000 0.0000 0.0000 0.0000 -1.7571
#
#
#
# Elastic Compliance Matrix: (Units=1/GPa)
#
#
# Indices 1 2 3 4 5 6 
#
# 1 0.011513 -0.002602 -0.002315 0.000000 0.000000 0.000000
# 2 -0.002602 0.028657 -0.002135 0.000000 0.000000 0.000000
# 3 -0.002315 -0.002135 0.007338 0.000000 0.000000 0.000000
# 4 0.000000 0.000000 0.000000 0.090764 0.000000 0.000000
# 5 0.000000 0.000000 0.000000 0.000000 0.032799 0.000000
# 6 0.000000 0.000000 0.000000 0.000000 0.000000 -0.569130
#
#
# Mechanical properties :
#
#
# Convention : Reuss Voigt Hill
#
# Bulk Modulus (GPa) = 29.93520 44.71587 37.32553
# Shear Modulus (GPa) = -13.41125 22.95183 4.77029
#
# Velocity S-wave (km/s) = -2.47879 3.24275 1.47835
# Velocity P-wave (km/s) = 2.34997 5.87429 4.47380
#
# Compressibility (1/GPa) = 0.03340549
#
# Stress axis : x y z
#
# Youngs Moduli (GPa) = 86.85889 34.89548 136.26994
#
# Poissons Ratio (x) = 0.09078 0.31551
# Poissons Ratio (y) = 0.22596 0.29088
# Poissons Ratio (z) = 0.20110 0.07449
#
# Static dielectric constant tensor:
#      x y z
#    x 1.970180 0.000000 0.000000 
#    y 0.000000 1.792050 0.000000 
#    z 0.000000 0.000000 1.826970 
# 
# From -- ./inp_files/11247.got.cif
#   From: 2010.05.17/outbox.cif.g08.bks.cpg/sg48_6_cif.got.tgz:11247.got - 2010.06.03 20:39:00.
