data_PCOD9391726
_publ_section_title
;
Structure prediction by ZEFSAII (Michael W. Deem and Ramdas Pophale) SiO2 
 PCOD9391726
Probable space group: P N N N
;
_chemical_formula_sum "Si O2"
_cell_formula_units_Z 30
_cell_length_a 7.018556
_cell_length_b 13.390164
_cell_length_c 15.953772
_cell_angle_alpha 90.000000
_cell_angle_beta 90.000000
_cell_angle_gamma 90.000000
_cell_volume 1499.329364
_symmetry_space_group_name_H-M "P N N N"
_symmetry_group_IT_number 48
_space_group.IT_coordinate_system_code '2'
_symmetry_cell_setting 'orthorhombic'
loop_
_space_group_symop_operation_xyz
x,y,z
1/2-x,1/2-y,z
x,1/2-y,1/2-z
1/2-x,y,1/2-z
-x,-y,-z
1/2+x,1/2+y,-z
-x,1/2+y,1/2+z
1/2+x,-y,1/2+z
loop_
_atom_site_type_symbol
_atom_site_label
_atom_site_fract_x
_atom_site_fract_y
_atom_site_fract_z
Si Si1 0.750000 0.750000 0.750000
Si Si2 0.527660 0.603879 0.235259
Si Si3 0.024964 0.222313 0.612054
Si Si4 0.916334 0.119312 0.180701
Si Si5 0.750000 0.250000 0.037187
O O1 0.605210 0.683714 0.803851
O O2 0.750000 0.626720 0.250000
O O3 0.467664 0.625452 0.331205
O O4 0.454120 0.685559 0.170106
O O5 0.519568 0.494931 0.195252
O O6 0.250000 0.250000 0.599485
O O7 0.921152 0.218691 0.523851
O O8 0.750000 0.135850 0.250000
O O9 0.820926 0.158560 0.095423
#
# Coordination Sequence:
#
# PCOD9391726 Si02
#       5
#     2   8   8   8   4
#     4  12  22  40  64  76 116 178 214 232 304 388
#     4   8  18  41  65  86 121 166 208 244 307 376
#     4   9  20  39  64  92 123 159 200 257 308 368
#     4  11  23  42  62  87 122 166 208 255 304 374
#     4  12  23  35  62  94 134 152 202 273 307 344
#
# _framework density 20.008946000000002
#
# number of rings (size 3 to 8) (size 9 to 14) (size 15 to 20)
#    0.000    2.133    2.667    1.600    1.867    5.333 
#    0.000   12.000    0.000    0.000    0.000    0.000 
#    0.000    0.000    0.000    0.000    0.000    0.000 
#
# Total GULP energy -167013.393274 kJ/mol
# GULP energy per Si atom -5567.113109 kJ/mol
# Density = 1.996340 g / cm^3
# Si number density = 20.008946 Si / 1000 Ang^3
#
#
#
# Elastic Constant Matrix: (Units=GPa)
#
#
# Indices 1 2 3 4 5 6 
#
# 1 113.7279 23.8294 46.7059 0.0000 0.0000 0.0000
# 2 23.8294 129.9919 68.5746 0.0000 0.0000 0.0000
# 3 46.7059 68.5746 166.8858 0.0000 0.0000 0.0000
# 4 0.0000 0.0000 0.0000 -4.0108 0.0000 0.0000
# 5 0.0000 0.0000 0.0000 0.0000 76.1622 0.0000
# 6 0.0000 0.0000 0.0000 0.0000 0.0000 9.1327
#
#
#
# Elastic Compliance Matrix: (Units=1/GPa)
#
#
# Indices 1 2 3 4 5 6 
#
# 1 0.009956 -0.000453 -0.002600 0.000000 0.000000 0.000000
# 2 -0.000453 0.009842 -0.003917 0.000000 0.000000 0.000000
# 3 -0.002600 -0.003917 0.008329 0.000000 0.000000 0.000000
# 4 0.000000 0.000000 0.000000 -0.249326 0.000000 0.000000
# 5 0.000000 0.000000 0.000000 0.000000 0.013130 0.000000
# 6 0.000000 0.000000 0.000000 0.000000 0.000000 0.109497
#
#
# Mechanical properties :
#
#
# Convention : Reuss Voigt Hill
#
# Bulk Modulus (GPa) = 70.49238 76.53616 73.51427
# Shear Modulus (GPa) = -62.57713 34.35651 -14.11031
#
# Velocity S-wave (km/s) = -5.59843 4.14823 -2.65844
# Velocity P-wave (km/s) = 2.54618 7.82801 5.23425
#
# Compressibility (1/GPa) = 0.01418593
#
# Stress axis : x y z
#
# Youngs Moduli (GPa) = 100.44515 101.60036 120.05574
#
# Poissons Ratio (x) = 0.04607 0.31214
# Poissons Ratio (y) = 0.04555 0.47031
# Poissons Ratio (z) = 0.26115 0.39801
#
# Static dielectric constant tensor:
#      x y z
#    x 1.772590 0.000000 0.000000 
#    y 0.000000 1.782790 0.000000 
#    z 0.000000 0.000000 1.708820 
# 
# From -- ./inp_files/10201.got.cif
#   From: 2010.05.17/outbox.cif.g08.bks.cpg/sg48_6_cif.got.tgz:10201.got - 2010.06.03 20:39:00.
