data_PCOD9391673
_publ_section_title
;
Structure prediction by ZEFSAII (Michael W. Deem and Ramdas Pophale) SiO2 
 PCOD9391673
Probable space group: P N N N
;
_chemical_formula_sum "Si O2"
_cell_formula_units_Z 58
_cell_length_a 9.488113
_cell_length_b 16.633952
_cell_length_c 16.810267
_cell_angle_alpha 90.000000
_cell_angle_beta 90.000000
_cell_angle_gamma 90.000000
_cell_volume 2653.077300
_symmetry_space_group_name_H-M "P N N N"
_symmetry_group_IT_number 48
_space_group.IT_coordinate_system_code '2'
_symmetry_cell_setting 'orthorhombic'
loop_
_space_group_symop_operation_xyz
x,y,z
1/2-x,1/2-y,z
x,1/2-y,1/2-z
1/2-x,y,1/2-z
-x,-y,-z
1/2+x,1/2+y,-z
-x,1/2+y,1/2+z
1/2+x,-y,1/2+z
loop_
_atom_site_type_symbol
_atom_site_label
_atom_site_fract_x
_atom_site_fract_y
_atom_site_fract_z
Si Si1 0.392593 0.545194 0.277195
Si Si2 0.489115 0.169651 0.647589
Si Si3 0.250000 0.250000 0.750000
Si Si4 0.385163 0.829566 0.078837
Si Si5 0.617889 0.929509 0.016217
Si Si6 0.699439 0.162352 0.422942
Si Si7 0.927687 0.586339 0.517568
Si Si8 0.833157 0.482049 0.171791
O O1 0.250000 0.505698 0.250000
O O2 0.440676 0.603389 0.204947
O O3 0.372317 0.602752 0.353611
O O4 0.506472 0.479774 0.300864
O O5 0.354051 0.199992 0.695066
O O6 0.588711 0.246130 0.625610
O O7 0.439887 0.133572 0.564884
O O8 0.526451 0.848992 0.026964
O O9 0.261677 0.840771 0.013693
O O10 0.675401 0.951593 0.103527
O O11 0.760341 0.924964 0.963642
O O12 0.500000 0.000000 0.000000
O O13 0.750000 0.250000 0.395716
O O14 0.535031 0.136349 0.425720
O O15 0.775751 0.097636 0.368151
O O16 0.000000 0.500000 0.500000
O O17 0.750000 0.505167 0.250000
#
# Coordination Sequence:
#
# PCOD9391673 Si02
#       8
#     8   8   2   8   8   8   8   8
#     4  11  25  39  66 102 142 183 225 284 360 439
#     4  12  24  40  65 100 147 186 236 277 358 432
#     4  12  24  40  62 100 148 196 214 280 348 448
#     4  11  22  42  64  98 146 186 222 292 356 432
#     4  11  22  42  68 101 144 183 232 292 359 429
#     4  12  25  46  72 103 138 185 247 305 361 427
#     4  12  24  39  68 100 135 186 241 291 349 428
#     4  11  25  46  69  98 138 186 239 296 360 430
#
# _framework density 21.861405999999999
#
# number of rings (size 3 to 8) (size 9 to 14) (size 15 to 20)
#    0.000    0.552    5.517    2.483    2.897    1.931 
#    0.000    0.000    0.000    0.000    0.000    0.000 
#    0.000    0.000    0.000    0.000    0.000    0.000 
#
# Total GULP energy -324172.993282 kJ/mol
# GULP energy per Si atom -5589.189539 kJ/mol
# Density = 2.181165 g / cm^3
# Si number density = 21.861406 Si / 1000 Ang^3
#
#
#
# Elastic Constant Matrix: (Units=GPa)
#
#
# Indices 1 2 3 4 5 6 
#
# 1 185.1152 38.4602 29.8903 0.0000 0.0000 0.0000
# 2 38.4602 39.3347 18.4812 0.0000 0.0000 0.0000
# 3 29.8903 18.4812 61.2958 0.0000 0.0000 0.0000
# 4 0.0000 0.0000 0.0000 -95.6923 0.0000 0.0000
# 5 0.0000 0.0000 0.0000 0.0000 39.8352 0.0000
# 6 0.0000 0.0000 0.0000 0.0000 0.0000 24.2639
#
#
#
# Elastic Compliance Matrix: (Units=1/GPa)
#
#
# Indices 1 2 3 4 5 6 
#
# 1 0.006903 -0.006021 -0.001551 0.000000 0.000000 0.000000
# 2 -0.006021 0.034871 -0.007578 0.000000 0.000000 0.000000
# 3 -0.001551 -0.007578 0.019355 0.000000 0.000000 0.000000
# 4 0.000000 0.000000 0.000000 -0.010450 0.000000 0.000000
# 5 0.000000 0.000000 0.000000 0.000000 0.025103 0.000000
# 6 0.000000 0.000000 0.000000 0.000000 0.000000 0.041214
#
#
# Mechanical properties :
#
#
# Convention : Reuss Voigt Hill
#
# Bulk Modulus (GPa) = 32.43613 51.04546 41.74079
# Shear Modulus (GPa) = 31.73147 6.94230 19.33689
#
# Velocity S-wave (km/s) = 3.81397 1.78395 2.97732
# Velocity P-wave (km/s) = 5.85359 5.25772 5.56364
#
# Compressibility (1/GPa) = 0.03082982
#
# Stress axis : x y z
#
# Youngs Moduli (GPa) = 144.85462 28.67748 51.66539
#
# Poissons Ratio (x) = 0.17268 0.08013
# Poissons Ratio (y) = 0.87221 0.39150
# Poissons Ratio (z) = 0.22466 0.21730
#
# Static dielectric constant tensor:
#      x y z
#    x 1.878550 0.000000 0.000000 
#    y 0.000000 1.791470 0.000000 
#    z 0.000000 0.000000 1.811600 
# 
# From -- ./inp_files/30461.got.cif
#   From: 2010.05.17/outbox.cif.g08.bks.cpg/sg48_16_cif.got.tgz:30461.got - 2010.06.03 20:39:00.
