data_PCOD9391247
_publ_section_title
;
Structure prediction by ZEFSAII (Michael W. Deem and Ramdas Pophale) SiO2 
 PCOD9391247
Probable space group: P N N N
;
_chemical_formula_sum "Si O2"
_cell_formula_units_Z 48
_cell_length_a 12.271975
_cell_length_b 19.360995
_cell_length_c 7.776232
_cell_angle_alpha 90.000000
_cell_angle_beta 90.000000
_cell_angle_gamma 90.000000
_cell_volume 1847.614423
_symmetry_space_group_name_H-M "P N N N"
_symmetry_group_IT_number 48
_space_group.IT_coordinate_system_code '2'
_symmetry_cell_setting 'orthorhombic'
loop_
_space_group_symop_operation_xyz
x,y,z
1/2-x,1/2-y,z
x,1/2-y,1/2-z
1/2-x,y,1/2-z
-x,-y,-z
1/2+x,1/2+y,-z
-x,1/2+y,1/2+z
1/2+x,-y,1/2+z
loop_
_atom_site_type_symbol
_atom_site_label
_atom_site_fract_x
_atom_site_fract_y
_atom_site_fract_z
Si Si1 0.038414 0.948452 0.848560
Si Si2 0.926750 0.825013 0.249826
Si Si3 0.845032 0.956476 0.393535
Si Si4 0.133735 0.788409 0.458287
Si Si5 0.548246 0.808491 0.632192
Si Si6 0.243788 0.580752 0.050951
O O1 0.974841 0.881416 0.778718
O O2 0.058040 0.999672 0.690630
O O3 0.146059 0.918208 0.942099
O O4 0.000000 0.000000 0.000000
O O5 0.875102 0.750000 0.250000
O O6 0.053461 0.814089 0.303302
O O7 0.877575 0.877242 0.386583
O O8 0.911037 0.842002 0.049844
O O9 0.750000 0.961663 0.250000
O O10 0.801578 0.002627 0.547604
O O11 0.250000 0.750000 0.429129
O O12 0.055965 0.737677 0.567606
O O13 0.167939 0.861836 0.538460
O O14 0.607122 0.750000 0.750000
O O15 0.250000 0.601559 0.250000
#
# Coordination Sequence:
#
# PCOD9391247 Si02
#       6
#     8   8   8   8   8   8
#     4  11  21  41  63  88 132 173 213 276 344 405
#     4  10  23  41  62  91 122 169 220 269 337 410
#     4  10  23  43  63  89 126 177 227 274 338 407
#     4  11  23  39  64  90 135 168 208 275 348 418
#     4  11  22  37  60  94 125 165 213 271 337 410
#     4  11  24  40  63  95 130 175 222 277 337 411
#
# _framework density 25.979444999999998
#
# number of rings (size 3 to 8) (size 9 to 14) (size 15 to 20)
#    0.000    1.333    3.333    2.000    4.667    1.333 
#    6.000    0.000    0.000    0.000    0.000    5.833 
#    0.000    0.000    0.000    0.000    0.000    0.000 
#
# Total GULP energy -267663.432929 kJ/mol
# GULP energy per Si atom -5576.321519 kJ/mol
# Density = 2.592031 g / cm^3
# Si number density = 25.979445 Si / 1000 Ang^3
#
#
#
# Elastic Constant Matrix: (Units=GPa)
#
#
# Indices 1 2 3 4 5 6 
#
# 1 44.4898 10.3675 2.6688 0.0000 0.0000 0.0000
# 2 10.3675 194.1074 1.7382 0.0000 0.0000 0.0000
# 3 2.6688 1.7382 78.0062 0.0000 0.0000 0.0000
# 4 0.0000 0.0000 0.0000 34.9234 0.0000 0.0000
# 5 0.0000 0.0000 0.0000 0.0000 -86.3867 0.0000
# 6 0.0000 0.0000 0.0000 0.0000 0.0000 6.1256
#
#
#
# Elastic Compliance Matrix: (Units=1/GPa)
#
#
# Indices 1 2 3 4 5 6 
#
# 1 0.022805 -0.001211 -0.000753 0.000000 0.000000 0.000000
# 2 -0.001211 0.005217 -0.000075 0.000000 0.000000 0.000000
# 3 -0.000753 -0.000075 0.012847 0.000000 0.000000 0.000000
# 4 0.000000 0.000000 0.000000 0.028634 0.000000 0.000000
# 5 0.000000 0.000000 0.000000 0.000000 -0.011576 0.000000
# 6 0.000000 0.000000 0.000000 0.000000 0.000000 0.163249
#
#
# Mechanical properties :
#
#
# Convention : Reuss Voigt Hill
#
# Bulk Modulus (GPa) = 27.18130 38.46138 32.82134
# Shear Modulus (GPa) = 21.05101 11.05439 16.05270
#
# Velocity S-wave (km/s) = 2.84966 2.06502 2.48846
# Velocity P-wave (km/s) = 4.61657 4.53017 4.57357
#
# Compressibility (1/GPa) = 0.03679000
#
# Stress axis : x y z
#
# Youngs Moduli (GPa) = 43.85093 191.67540 77.83959
#
# Poissons Ratio (x) = 0.23217 0.05863
# Poissons Ratio (y) = 0.05312 0.00582
# Poissons Ratio (z) = 0.03303 0.01434
#
# Static dielectric constant tensor:
#      x y z
#    x 2.154290 0.000000 0.000000 
#    y 0.000000 2.227530 0.000000 
#    z 0.000000 0.000000 2.612230 
# 
# From -- ./inp_files/12814.got.cif
#   From: 2010.05.17/outbox.cif.g08.bks.cpg/sg48_7_cif.got.tgz:12814.got - 2010.06.03 20:39:00.
