data_PCOD9391057
_publ_section_title
;
Structure prediction by ZEFSAII (Michael W. Deem and Ramdas Pophale) SiO2 
 PCOD9391057
Probable space group: P N N N
;
_chemical_formula_sum "Si O2"
_cell_formula_units_Z 48
_cell_length_a 17.183254
_cell_length_b 8.627741
_cell_length_c 14.968125
_cell_angle_alpha 90.000000
_cell_angle_beta 90.000000
_cell_angle_gamma 90.000000
_cell_volume 2219.064422
_symmetry_space_group_name_H-M "P N N N"
_symmetry_group_IT_number 48
_space_group.IT_coordinate_system_code '2'
_symmetry_cell_setting 'orthorhombic'
loop_
_space_group_symop_operation_xyz
x,y,z
1/2-x,1/2-y,z
x,1/2-y,1/2-z
1/2-x,y,1/2-z
-x,-y,-z
1/2+x,1/2+y,-z
-x,1/2+y,1/2+z
1/2+x,-y,1/2+z
loop_
_atom_site_type_symbol
_atom_site_label
_atom_site_fract_x
_atom_site_fract_y
_atom_site_fract_z
Si Si1 0.270529 0.913203 0.487848
Si Si2 0.570422 0.945960 0.563371
Si Si3 0.984768 0.935901 0.231838
Si Si4 0.167536 0.328758 0.981271
Si Si5 0.050029 0.949503 0.586904
Si Si6 0.356147 0.842946 0.658600
O O1 0.250000 0.750000 0.450407
O O2 0.285152 0.897019 0.595564
O O3 0.354321 0.954562 0.454966
O O4 0.204197 0.032861 0.460974
O O5 0.606013 0.779536 0.533198
O O6 0.500000 0.000000 0.500000
O O7 0.544753 0.989865 0.662060
O O8 0.986364 0.750000 0.250000
O O9 0.999203 0.021419 0.325148
O O10 0.903997 0.004081 0.189384
O O11 0.250000 0.250000 0.951973
O O12 0.118799 0.421419 0.907720
O O13 0.090065 0.779282 0.599423
O O14 0.000000 0.000000 0.500000
O O15 0.338658 0.750000 0.750000
#
# Coordination Sequence:
#
# PCOD9391057 Si02
#       6
#     8   8   8   8   8   8
#     4  11  22  40  66  99 139 189 232 289 378 432
#     4  11  22  42  69  92 139 184 240 295 347 439
#     4  11  24  39  66 104 134 178 247 298 362 419
#     4  10  23  40  67  99 136 191 231 292 372 435
#     4  11  23  41  68  97 138 183 243 296 365 434
#     4  10  22  40  59  96 142 185 229 293 364 450
#
# _framework density 21.630738000000001
#
# number of rings (size 3 to 8) (size 9 to 14) (size 15 to 20)
#    0.000    1.333    3.333    2.000    4.667    0.333 
#    0.000    0.000    7.333   11.500    0.000    0.000 
#    0.000    0.000    0.000    0.000    0.000    0.000 
#
# Total GULP energy -267393.016315 kJ/mol
# GULP energy per Si atom -5570.687840 kJ/mol
# Density = 2.158151 g / cm^3
# Si number density = 21.630738 Si / 1000 Ang^3
#
#
#
# Elastic Constant Matrix: (Units=GPa)
#
#
# Indices 1 2 3 4 5 6 
#
# 1 91.5575 73.4880 41.8056 0.0000 0.0000 0.0000
# 2 73.4880 158.6853 40.8467 0.0000 0.0000 0.0000
# 3 41.8056 40.8467 118.5457 0.0000 0.0000 0.0000
# 4 0.0000 0.0000 0.0000 35.4319 0.0000 0.0000
# 5 0.0000 0.0000 0.0000 0.0000 29.7859 0.0000
# 6 0.0000 0.0000 0.0000 0.0000 0.0000 26.1129
#
#
#
# Elastic Compliance Matrix: (Units=1/GPa)
#
#
# Indices 1 2 3 4 5 6 
#
# 1 0.018984 -0.007756 -0.004022 0.000000 0.000000 0.000000
# 2 -0.007756 0.010084 -0.000739 0.000000 0.000000 0.000000
# 3 -0.004022 -0.000739 0.010109 0.000000 0.000000 0.000000
# 4 0.000000 0.000000 0.000000 0.028223 0.000000 0.000000
# 5 0.000000 0.000000 0.000000 0.000000 0.033573 0.000000
# 6 0.000000 0.000000 0.000000 0.000000 0.000000 0.038295
#
#
# Mechanical properties :
#
#
# Convention : Reuss Voigt Hill
#
# Bulk Modulus (GPa) = 70.71535 75.67435 73.19485
# Shear Modulus (GPa) = 29.58259 32.44267 31.01263
#
# Velocity S-wave (km/s) = 3.70214 3.87698 3.79057
# Velocity P-wave (km/s) = 7.14406 7.42306 7.28490
#
# Compressibility (1/GPa) = 0.01414120
#
# Stress axis : x y z
#
# Youngs Moduli (GPa) = 52.67514 99.16609 98.92376
#
# Poissons Ratio (x) = 0.76917 0.39790
# Poissons Ratio (y) = 0.40857 0.07314
# Poissons Ratio (z) = 0.21188 0.07332
#
# Static dielectric constant tensor:
#      x y z
#    x 1.806580 0.000000 0.000000 
#    y 0.000000 2.039840 0.000000 
#    z 0.000000 0.000000 -5.477390 
# 
# From -- ./inp_files/27867.got.cif
#   From: 2010.05.17/outbox.cif.g08.bks.cpg/sg48_14_cif.got.tgz:27867.got - 2010.06.03 20:39:00.
