data_PCOD9391729
_publ_section_title
;
Structure prediction by ZEFSAII (Michael W. Deem and Ramdas Pophale) SiO2 
 PCOD9391729
Probable space group: P N N N
;
_chemical_formula_sum "Si O2"
_cell_formula_units_Z 24
_cell_length_a 12.891550
_cell_length_b 16.784605
_cell_length_c 4.793800
_cell_angle_alpha 90.000000
_cell_angle_beta 90.000000
_cell_angle_gamma 90.000000
_cell_volume 1037.280405
_symmetry_space_group_name_H-M "P N N N"
_symmetry_group_IT_number 48
_space_group.IT_coordinate_system_code '2'
_symmetry_cell_setting 'orthorhombic'
loop_
_space_group_symop_operation_xyz
x,y,z
1/2-x,1/2-y,z
x,1/2-y,1/2-z
1/2-x,y,1/2-z
-x,-y,-z
1/2+x,1/2+y,-z
-x,1/2+y,1/2+z
1/2+x,-y,1/2+z
loop_
_atom_site_type_symbol
_atom_site_label
_atom_site_fract_x
_atom_site_fract_y
_atom_site_fract_z
Si Si1 0.871446 0.868989 0.249512
Si Si2 0.006164 0.666481 0.797139
Si Si3 0.826688 0.043962 0.484345
O O1 0.750000 0.849615 0.250000
O O2 0.918903 0.811440 0.479868
O O3 0.868715 0.958585 0.381365
O O4 0.943802 0.868024 0.971818
O O5 0.064285 0.750000 0.750000
O O6 0.078137 0.604646 0.966001
O O7 0.750000 0.035163 0.750000
O O8 0.750000 0.076047 0.250000
#
# Coordination Sequence:
#
# PCOD9391729 Si02
#       3
#     8   8   8
#     4  11  23  42  66  94 128 172 223 270 323 392
#     4  12  25  41  64  97 135 173 213 272 340 397
#     4  11  23  43  69  95 126 173 226 274 321 385
#
# _framework density 23.137423999999999
#
# number of rings (size 3 to 8) (size 9 to 14) (size 15 to 20)
#    0.000    0.667    0.000   10.000    0.000    4.667 
#    0.000    1.667    0.000    0.000    0.000    0.000 
#    0.000    0.000    0.000    0.000    0.000    0.000 
#
# Total GULP energy -133805.538588 kJ/mol
# GULP energy per Si atom -5575.230774 kJ/mol
# Density = 2.308476 g / cm^3
# Si number density = 23.137424 Si / 1000 Ang^3
#
#
#
# Elastic Constant Matrix: (Units=GPa)
#
#
# Indices 1 2 3 4 5 6 
#
# 1 104.8176 45.7540 52.3867 0.0000 0.0000 0.0000
# 2 45.7540 112.1373 28.2611 0.0000 0.0000 0.0000
# 3 52.3867 28.2611 165.5133 0.0000 0.0000 0.0000
# 4 0.0000 0.0000 0.0000 31.6388 0.0000 0.0000
# 5 0.0000 0.0000 0.0000 0.0000 48.1813 0.0000
# 6 0.0000 0.0000 0.0000 0.0000 0.0000 18.8043
#
#
#
# Elastic Compliance Matrix: (Units=1/GPa)
#
#
# Indices 1 2 3 4 5 6 
#
# 1 0.013226 -0.004537 -0.003411 0.000000 0.000000 0.000000
# 2 -0.004537 0.010875 -0.000421 0.000000 0.000000 0.000000
# 3 -0.003411 -0.000421 0.007193 0.000000 0.000000 0.000000
# 4 0.000000 0.000000 0.000000 0.031607 0.000000 0.000000
# 5 0.000000 0.000000 0.000000 0.000000 0.020755 0.000000
# 6 0.000000 0.000000 0.000000 0.000000 0.000000 0.053179
#
#
# Mechanical properties :
#
#
# Convention : Reuss Voigt Hill
#
# Bulk Modulus (GPa) = 68.70072 70.58576 69.64324
# Shear Modulus (GPa) = 31.56074 36.79597 34.17835
#
# Velocity S-wave (km/s) = 3.69732 3.99221 3.84759
# Velocity P-wave (km/s) = 6.92704 7.19887 7.06426
#
# Compressibility (1/GPa) = 0.01455589
#
# Stress axis : x y z
#
# Youngs Moduli (GPa) = 75.61080 91.95638 139.01530
#
# Poissons Ratio (x) = 0.41716 0.47424
# Poissons Ratio (y) = 0.34301 0.05852
# Poissons Ratio (z) = 0.25794 0.03871
#
# Static dielectric constant tensor:
#      x y z
#    x 1.581190 0.000000 0.000000 
#    y 0.000000 1.930990 0.000000 
#    z 0.000000 0.000000 1.954290 
# 
# From -- ./inp_files/1575.got.cif
#   From: 2010.05.17/outbox.cif.g08.bks.cpg/sg48_1_cif.got.tgz:1575.got - 2010.06.03 20:39:00.
