data_PCOD9391906
_publ_section_title
;
Structure prediction by ZEFSAII (Michael W. Deem and Ramdas Pophale) SiO2 
 PCOD9391906
Probable space group: P N N N
;
_chemical_formula_sum "Si O2"
_cell_formula_units_Z 18
_cell_length_a 8.288027
_cell_length_b 4.784399
_cell_length_c 19.765244
_cell_angle_alpha 90.000000
_cell_angle_beta 90.000000
_cell_angle_gamma 90.000000
_cell_volume 783.755729
_symmetry_space_group_name_H-M "P N N N"
_symmetry_group_IT_number 48
_space_group.IT_coordinate_system_code '2'
_symmetry_cell_setting 'orthorhombic'
loop_
_space_group_symop_operation_xyz
x,y,z
1/2-x,1/2-y,z
x,1/2-y,1/2-z
1/2-x,y,1/2-z
-x,-y,-z
1/2+x,1/2+y,-z
-x,1/2+y,1/2+z
1/2+x,-y,1/2+z
loop_
_atom_site_type_symbol
_atom_site_label
_atom_site_fract_x
_atom_site_fract_y
_atom_site_fract_z
Si Si1 0.250000 0.250000 0.250000
Si Si2 0.926596 0.109585 0.430219
Si Si3 0.916533 0.382560 0.637813
O O1 0.133657 0.458484 0.292579
O O2 0.750000 0.250000 0.434283
O O3 0.037124 0.365613 0.409429
O O4 0.000000 0.000000 0.500000
O O5 0.951459 0.863306 0.373596
O O6 0.750000 0.250000 0.614373
#
# Coordination Sequence:
#
# PCOD9391906 Si02
#       3
#     2   8   8
#     4  12  26  48  88 108 154 208 284 310 406 468
#     4  12  27  47  76 117 162 204 255 325 402 467
#     4  12  25  47  80 111 149 207 264 321 385 474
#
# _framework density 22.966341
#
# number of rings (size 3 to 8) (size 9 to 14) (size 15 to 20)
#    0.000    0.000    4.444    4.667    0.000    3.556 
#    0.000    1.111    9.778    0.000    0.000    0.000 
#    0.000    0.000    0.000    0.000    0.000    0.000 
#
# Total GULP energy -100520.741373 kJ/mol
# GULP energy per Si atom -5584.485632 kJ/mol
# Density = 2.291407 g / cm^3
# Si number density = 22.966341 Si / 1000 Ang^3
#
#
#
# Elastic Constant Matrix: (Units=GPa)
#
#
# Indices 1 2 3 4 5 6 
#
# 1 145.4726 94.7754 94.0105 0.0000 0.0000 0.0000
# 2 94.7754 233.1623 91.5777 0.0000 0.0000 0.0000
# 3 94.0105 91.5777 113.2615 0.0000 0.0000 0.0000
# 4 0.0000 0.0000 0.0000 52.1361 0.0000 0.0000
# 5 0.0000 0.0000 0.0000 0.0000 27.5326 0.0000
# 6 0.0000 0.0000 0.0000 0.0000 0.0000 78.5922
#
#
#
# Elastic Compliance Matrix: (Units=1/GPa)
#
#
# Indices 1 2 3 4 5 6 
#
# 1 0.015331 -0.001808 -0.011263 0.000000 0.000000 0.000000
# 2 -0.001808 0.006498 -0.003753 0.000000 0.000000 0.000000
# 3 -0.011263 -0.003753 0.021213 0.000000 0.000000 0.000000
# 4 0.000000 0.000000 0.000000 0.019181 0.000000 0.000000
# 5 0.000000 0.000000 0.000000 0.000000 0.036321 0.000000
# 6 0.000000 0.000000 0.000000 0.000000 0.000000 0.012724
#
#
# Mechanical properties :
#
#
# Convention : Reuss Voigt Hill
#
# Bulk Modulus (GPa) = 106.46752 116.95818 111.71285
# Shear Modulus (GPa) = 33.77327 45.75436 39.76381
#
# Velocity S-wave (km/s) = 3.83894 4.46829 4.16552
# Velocity P-wave (km/s) = 8.13072 8.81234 8.47838
#
# Compressibility (1/GPa) = 0.00939254
#
# Stress axis : x y z
#
# Youngs Moduli (GPa) = 65.22842 153.89687 47.14145
#
# Poissons Ratio (x) = 0.27821 0.53097
# Poissons Ratio (y) = 0.11792 0.17694
# Poissons Ratio (z) = 0.73469 0.57762
#
# Static dielectric constant tensor:
#      x y z
#    x 2.144420 0.000000 0.000000 
#    y 0.000000 1.867400 0.000000 
#    z 0.000000 0.000000 1.945360 
# 
# From -- ./inp_files/492.got.cif
#   From: 2010.05.17/outbox.cif.g08.bks.cpg/sg48_1_cif.got.tgz:492.got - 2010.06.03 20:39:00.
