data_PCOD9391476
_publ_section_title
;
Structure prediction by ZEFSAII (Michael W. Deem and Ramdas Pophale) SiO2 
 PCOD9391476
Probable space group: P N N N
;
_chemical_formula_sum "Si O2"
_cell_formula_units_Z 34
_cell_length_a 14.153763
_cell_length_b 11.423204
_cell_length_c 9.223713
_cell_angle_alpha 90.000000
_cell_angle_beta 90.000000
_cell_angle_gamma 90.000000
_cell_volume 1491.302113
_symmetry_space_group_name_H-M "P N N N"
_symmetry_group_IT_number 48
_space_group.IT_coordinate_system_code '2'
_symmetry_cell_setting 'orthorhombic'
loop_
_space_group_symop_operation_xyz
x,y,z
1/2-x,1/2-y,z
x,1/2-y,1/2-z
1/2-x,y,1/2-z
-x,-y,-z
1/2+x,1/2+y,-z
-x,1/2+y,1/2+z
1/2+x,-y,1/2+z
loop_
_atom_site_type_symbol
_atom_site_label
_atom_site_fract_x
_atom_site_fract_y
_atom_site_fract_z
Si Si1 0.644054 0.434772 0.231970
Si Si2 0.195528 0.127337 0.563602
Si Si3 0.750000 0.250000 0.750000
Si Si4 0.550149 0.873432 0.817617
Si Si5 0.350086 0.541912 0.087355
O O1 0.750000 0.383117 0.250000
O O2 0.660681 0.567472 0.287252
O O3 0.562803 0.380921 0.330051
O O4 0.604717 0.429894 0.068896
O O5 0.250000 0.250000 0.574997
O O6 0.100666 0.128907 0.470565
O O7 0.263777 0.040673 0.469760
O O8 0.688116 0.337911 0.846586
O O9 0.577392 0.750000 0.750000
O O10 0.590454 0.973827 0.709578
#
# Coordination Sequence:
#
# PCOD9391476 Si02
#       5
#     8   8   2   8   8
#     4  10  26  45  67 104 152 186 239 298 367 435
#     4  11  22  46  77 109 142 190 241 307 368 440
#     4  12  24  44  76  96 154 196 250 294 388 428
#     4  12  23  44  76 107 145 192 243 301 370 445
#     4  11  24  45  70 103 143 194 245 304 359 451
#
# _framework density 22.798869
#
# number of rings (size 3 to 8) (size 9 to 14) (size 15 to 20)
#    0.000    0.941    4.706    1.412    0.000    8.471 
#    4.235    1.176    0.000    0.000    0.000    0.000 
#    0.000    0.000    0.000    0.000    0.000    0.000 
#
# Total GULP energy -189892.768936 kJ/mol
# GULP energy per Si atom -5585.081439 kJ/mol
# Density = 2.274698 g / cm^3
# Si number density = 22.798869 Si / 1000 Ang^3
#
#
#
# Elastic Constant Matrix: (Units=GPa)
#
#
# Indices 1 2 3 4 5 6 
#
# 1 84.3070 21.7046 31.9412 0.0000 0.0000 0.0000
# 2 21.7046 149.2188 50.3324 0.0000 0.0000 0.0000
# 3 31.9412 50.3324 109.3400 0.0000 0.0000 0.0000
# 4 0.0000 0.0000 0.0000 -5.2866 0.0000 0.0000
# 5 0.0000 0.0000 0.0000 0.0000 21.4820 0.0000
# 6 0.0000 0.0000 0.0000 0.0000 0.0000 29.7440
#
#
#
# Elastic Compliance Matrix: (Units=1/GPa)
#
#
# Indices 1 2 3 4 5 6 
#
# 1 0.013407 -0.000745 -0.003574 0.000000 0.000000 0.000000
# 2 -0.000745 0.007975 -0.003453 0.000000 0.000000 0.000000
# 3 -0.003574 -0.003453 0.011780 0.000000 0.000000 0.000000
# 4 0.000000 0.000000 0.000000 -0.189156 0.000000 0.000000
# 5 0.000000 0.000000 0.000000 0.000000 0.046551 0.000000
# 6 0.000000 0.000000 0.000000 0.000000 0.000000 0.033620
#
#
# Mechanical properties :
#
#
# Convention : Reuss Voigt Hill
#
# Bulk Modulus (GPa) = 56.76164 61.20245 58.98205
# Shear Modulus (GPa) = -91.90001 25.11370 -33.39316
#
# Velocity S-wave (km/s) = -6.35583 3.32253 -3.83127
# Velocity P-wave (km/s) = 5.37692 6.45149 2.52096
#
# Compressibility (1/GPa) = 0.01761753
#
# Stress axis : x y z
#
# Youngs Moduli (GPa) = 74.58724 125.39553 84.89307
#
# Poissons Ratio (x) = 0.09338 0.30339
# Poissons Ratio (y) = 0.05554 0.29318
# Poissons Ratio (z) = 0.26656 0.43305
#
# Static dielectric constant tensor:
#      x y z
#    x 1.891510 0.000000 0.000000 
#    y 0.000000 1.845740 0.000000 
#    z 0.000000 0.000000 2.027450 
# 
# From -- ./inp_files/11994.got.cif
#   From: 2010.05.17/outbox.cif.g08.bks.cpg/sg48_6_cif.got.tgz:11994.got - 2010.06.03 20:39:00.
