data_PCOD9391684
_publ_section_title
;
Structure prediction by ZEFSAII (Michael W. Deem and Ramdas Pophale) SiO2 
 PCOD9391684
Probable space group: P N N N
;
_chemical_formula_sum "Si O2"
_cell_formula_units_Z 56
_cell_length_a 18.573405
_cell_length_b 8.773167
_cell_length_c 15.911802
_cell_angle_alpha 90.000000
_cell_angle_beta 90.000000
_cell_angle_gamma 90.000000
_cell_volume 2592.789690
_symmetry_space_group_name_H-M "P N N N"
_symmetry_group_IT_number 48
_space_group.IT_coordinate_system_code '2'
_symmetry_cell_setting 'orthorhombic'
loop_
_space_group_symop_operation_xyz
x,y,z
1/2-x,1/2-y,z
x,1/2-y,1/2-z
1/2-x,y,1/2-z
-x,-y,-z
1/2+x,1/2+y,-z
-x,1/2+y,1/2+z
1/2+x,-y,1/2+z
loop_
_atom_site_type_symbol
_atom_site_label
_atom_site_fract_x
_atom_site_fract_y
_atom_site_fract_z
Si Si1 0.409447 0.578380 0.775186
Si Si2 0.718703 0.918110 0.059165
Si Si3 0.570383 0.671826 0.520713
Si Si4 0.868730 0.239760 0.840650
Si Si5 0.532198 0.972195 0.591736
Si Si6 0.503354 0.573289 0.366981
Si Si7 0.250000 0.485068 0.750000
Si Si8 0.750000 0.250000 0.516648
O O1 0.425683 0.750000 0.750000
O O2 0.459965 0.549035 0.854086
O O3 0.439192 0.466201 0.703161
O O4 0.323458 0.565076 0.781934
O O5 0.750000 0.750000 0.033482
O O6 0.641333 0.915101 0.011841
O O7 0.721793 0.911754 0.161631
O O8 0.751544 0.086358 0.033636
O O9 0.580838 0.821439 0.575433
O O10 0.531613 0.700522 0.431337
O O11 0.515511 0.572514 0.576391
O O12 0.831084 0.250000 0.750000
O O13 0.927977 0.372315 0.831855
O O14 0.817652 0.260496 0.920417
O O15 0.915600 0.090999 0.862820
O O16 0.500000 0.000000 0.500000
#
# Coordination Sequence:
#
# PCOD9391684 Si02
#       8
#     8   8   8   8   8   8   4   4
#     4  12  26  46  70 108 150 194 249 308 373 459
#     4  12  28  49  73 107 154 198 248 305 378 462
#     4  11  23  44  71 101 142 187 248 298 356 442
#     4  12  25  46  72 105 140 186 244 308 380 441
#     4  12  26  41  74 107 142 188 252 308 364 440
#     4  11  22  43  71  97 138 191 231 299 365 422
#     4  12  30  44  72 109 161 204 235 305 396 457
#     4  12  29  49  78 104 148 196 246 321 381 442
#
# _framework density 21.598358999999999
#
# number of rings (size 3 to 8) (size 9 to 14) (size 15 to 20)
#    0.000    0.286    7.143    1.500    6.000    0.000 
#    2.571    0.000    0.000    0.857    0.000    0.000 
#    0.000    0.000    0.000    0.000    0.000    0.000 
#
# Total GULP energy -311955.761319 kJ/mol
# GULP energy per Si atom -5570.638595 kJ/mol
# Density = 2.154920 g / cm^3
# Si number density = 21.598359 Si / 1000 Ang^3
#
#
#
# Elastic Constant Matrix: (Units=GPa)
#
#
# Indices 1 2 3 4 5 6 
#
# 1 112.6701 28.8849 57.5997 0.0000 0.0000 0.0000
# 2 28.8849 94.7870 55.4057 0.0000 0.0000 0.0000
# 3 57.5997 55.4057 149.2400 0.0000 0.0000 0.0000
# 4 0.0000 0.0000 0.0000 25.4418 0.0000 0.0000
# 5 0.0000 0.0000 0.0000 0.0000 34.1002 0.0000
# 6 0.0000 0.0000 0.0000 0.0000 0.0000 15.0100
#
#
#
# Elastic Compliance Matrix: (Units=1/GPa)
#
#
# Indices 1 2 3 4 5 6 
#
# 1 0.011151 -0.001127 -0.003885 0.000000 0.000000 0.000000
# 2 -0.001127 0.013588 -0.004610 0.000000 0.000000 0.000000
# 3 -0.003885 -0.004610 0.009911 0.000000 0.000000 0.000000
# 4 0.000000 0.000000 0.000000 0.039305 0.000000 0.000000
# 5 0.000000 0.000000 0.000000 0.000000 0.029325 0.000000
# 6 0.000000 0.000000 0.000000 0.000000 0.000000 0.066622
#
#
# Mechanical properties :
#
#
# Convention : Reuss Voigt Hill
#
# Bulk Modulus (GPa) = 64.90815 71.16417 68.03616
# Shear Modulus (GPa) = 25.73582 29.23087 27.48334
#
# Velocity S-wave (km/s) = 3.45565 3.68283 3.57104
# Velocity P-wave (km/s) = 6.78525 7.14876 6.96937
#
# Compressibility (1/GPa) = 0.01540639
#
# Stress axis : x y z
#
# Youngs Moduli (GPa) = 89.68127 73.59541 100.89350
#
# Poissons Ratio (x) = 0.08294 0.39199
# Poissons Ratio (y) = 0.10107 0.46507
# Poissons Ratio (z) = 0.34843 0.33924
#
# Static dielectric constant tensor:
#      x y z
#    x 1.756470 0.000000 0.000000 
#    y 0.000000 1.803180 0.000000 
#    z 0.000000 0.000000 1.754770 
# 
# From -- ./inp_files/28388.got.cif
#   From: 2010.05.17/outbox.cif.g08.bks.cpg/sg48_15_cif.got.tgz:28388.got - 2010.06.03 20:39:00.
