data_PCOD9391229
_publ_section_title
;
Structure prediction by ZEFSAII (Michael W. Deem and Ramdas Pophale) SiO2 
 PCOD9391229
Probable space group: P N N N
;
_chemical_formula_sum "Si O2"
_cell_formula_units_Z 38
_cell_length_a 11.794276
_cell_length_b 12.953971
_cell_length_c 12.206357
_cell_angle_alpha 90.000000
_cell_angle_beta 90.000000
_cell_angle_gamma 90.000000
_cell_volume 1864.920293
_symmetry_space_group_name_H-M "P N N N"
_symmetry_group_IT_number 48
_space_group.IT_coordinate_system_code '2'
_symmetry_cell_setting 'orthorhombic'
loop_
_space_group_symop_operation_xyz
x,y,z
1/2-x,1/2-y,z
x,1/2-y,1/2-z
1/2-x,y,1/2-z
-x,-y,-z
1/2+x,1/2+y,-z
-x,1/2+y,1/2+z
1/2+x,-y,1/2+z
loop_
_atom_site_type_symbol
_atom_site_label
_atom_site_fract_x
_atom_site_fract_y
_atom_site_fract_z
Si Si1 0.403485 0.436964 0.568708
Si Si2 0.750000 0.250000 0.250000
Si Si3 0.810633 0.067155 0.101816
Si Si4 0.558911 0.617618 0.191806
Si Si5 0.750000 0.750000 0.073366
Si Si6 0.307960 0.859485 0.361156
O O1 0.500000 0.500000 0.500000
O O2 0.311264 0.514423 0.623628
O O3 0.456154 0.388877 0.678152
O O4 0.328607 0.340915 0.516651
O O5 0.817182 0.174292 0.167452
O O6 0.911958 0.993921 0.140249
O O7 0.800514 0.075445 0.971121
O O8 0.662758 0.685475 0.147721
O O9 0.440456 0.658705 0.151102
O O10 0.250000 0.750000 0.380504
O O11 0.250000 0.903022 0.250000
#
# Coordination Sequence:
#
# PCOD9391229 Si02
#       6
#     8   2   8   8   4   8
#     4  11  22  37  65  97 132 172 223 280 334 406
#     4  12  20  40  62  90 134 160 228 266 316 396
#     4  11  22  42  63  94 125 173 224 263 325 404
#     4  11  22  42  63  97 126 172 220 271 334 402
#     4  10  23  38  66  94 133 172 227 282 336 403
#     4  11  25  38  61  95 132 166 209 268 337 388
#
# _framework density 20.376207000000001
#
# number of rings (size 3 to 8) (size 9 to 14) (size 15 to 20)
#    0.000    1.053    3.158    5.053    8.842    0.000 
#    0.000    0.000    0.000    0.000    0.000    0.000 
#    0.000    0.000    0.000    0.000    0.000    0.000 
#
# Total GULP energy -211697.492146 kJ/mol
# GULP energy per Si atom -5570.986635 kJ/mol
# Density = 2.032983 g / cm^3
# Si number density = 20.376207 Si / 1000 Ang^3
#
#
#
# Elastic Constant Matrix: (Units=GPa)
#
#
# Indices 1 2 3 4 5 6 
#
# 1 129.0441 49.7295 16.2034 0.0000 0.0000 0.0000
# 2 49.7295 123.3230 31.3830 0.0000 0.0000 0.0000
# 3 16.2034 31.3830 86.0387 0.0000 0.0000 0.0000
# 4 0.0000 0.0000 0.0000 15.6765 0.0000 0.0000
# 5 0.0000 0.0000 0.0000 0.0000 30.9675 0.0000
# 6 0.0000 0.0000 0.0000 0.0000 0.0000 -13.8132
#
#
#
# Elastic Compliance Matrix: (Units=1/GPa)
#
#
# Indices 1 2 3 4 5 6 
#
# 1 0.009189 -0.003599 -0.000418 0.000000 0.000000 0.000000
# 2 -0.003599 0.010348 -0.003097 0.000000 0.000000 0.000000
# 3 -0.000418 -0.003097 0.012831 0.000000 0.000000 0.000000
# 4 0.000000 0.000000 0.000000 0.063790 0.000000 0.000000
# 5 0.000000 0.000000 0.000000 0.000000 0.032292 0.000000
# 6 0.000000 0.000000 0.000000 0.000000 0.000000 -0.072394
#
#
# Mechanical properties :
#
#
# Convention : Reuss Voigt Hill
#
# Bulk Modulus (GPa) = 55.12442 59.22640 57.17541
# Shear Modulus (GPa) = 65.50601 22.63880 44.07241
#
# Velocity S-wave (km/s) = 5.67610 3.33684 4.65578
# Velocity P-wave (km/s) = 8.37075 6.63141 7.55133
#
# Compressibility (1/GPa) = 0.01814078
#
# Stress axis : x y z
#
# Youngs Moduli (GPa) = 108.82953 96.63593 77.93687
#
# Poissons Ratio (x) = 0.34779 0.03256
# Poissons Ratio (y) = 0.39168 0.24135
# Poissons Ratio (z) = 0.04546 0.29926
#
# Static dielectric constant tensor:
#      x y z
#    x 1.762760 0.000000 0.000000 
#    y 0.000000 1.818640 0.000000 
#    z 0.000000 0.000000 1.771270 
# 
# From -- ./inp_files/19812.got.cif
#   From: 2010.05.17/outbox.cif.g08.bks.cpg/sg48_10_cif.got.tgz:19812.got - 2010.06.03 20:39:00.
