data_PCOD9391333
_publ_section_title
;
Structure prediction by ZEFSAII (Michael W. Deem and Ramdas Pophale) SiO2 
 PCOD9391333
Probable space group: P N N N
;
_chemical_formula_sum "Si O2"
_cell_formula_units_Z 40
_cell_length_a 11.292827
_cell_length_b 11.490648
_cell_length_c 13.767734
_cell_angle_alpha 90.000000
_cell_angle_beta 90.000000
_cell_angle_gamma 90.000000
_cell_volume 1786.527322
_symmetry_space_group_name_H-M "P N N N"
_symmetry_group_IT_number 48
_space_group.IT_coordinate_system_code '2'
_symmetry_cell_setting 'orthorhombic'
loop_
_space_group_symop_operation_xyz
x,y,z
1/2-x,1/2-y,z
x,1/2-y,1/2-z
1/2-x,y,1/2-z
-x,-y,-z
1/2+x,1/2+y,-z
-x,1/2+y,1/2+z
1/2+x,-y,1/2+z
loop_
_atom_site_type_symbol
_atom_site_label
_atom_site_fract_x
_atom_site_fract_y
_atom_site_fract_z
Si Si1 0.203114 0.123402 0.014931
Si Si2 0.168934 0.963514 0.169055
Si Si3 0.421419 0.825500 0.515436
Si Si4 0.540924 0.380580 0.229824
Si Si5 0.888109 0.058943 0.443794
O O1 0.250000 0.250000 0.994545
O O2 0.230211 0.079319 0.124399
O O3 0.060702 0.136560 0.005519
O O4 0.279104 0.029880 0.955709
O O5 0.250000 0.907045 0.250000
O O6 0.050709 0.015139 0.214114
O O7 0.140447 0.886645 0.075485
O O8 0.392676 0.864581 0.626417
O O9 0.390086 0.689198 0.511181
O O10 0.489591 0.250000 0.250000
O O11 0.603244 0.415738 0.329178
O O12 0.000000 0.000000 0.500000
#
# Coordination Sequence:
#
# PCOD9391333 Si02
#       5
#     8   8   8   8   8
#     4  11  22  40  72 104 138 188 239 301 367 440
#     4  11  24  41  70 103 141 186 237 303 366 437
#     4  10  23  46  67 102 156 181 241 320 366 445
#     4   9  20  39  70 102 135 188 245 301 360 443
#     4  11  21  40  71 107 141 192 244 301 371 455
#
# _framework density 22.389804999999999
#
# number of rings (size 3 to 8) (size 9 to 14) (size 15 to 20)
#    0.000    1.600    2.000    3.600    5.600    0.800 
#    0.000   13.000    0.000   14.400    0.000    0.000 
#    0.000    0.000    0.000    0.000    0.000    0.000 
#
# Total GULP energy -223091.090318 kJ/mol
# GULP energy per Si atom -5577.277258 kJ/mol
# Density = 2.233884 g / cm^3
# Si number density = 22.389805 Si / 1000 Ang^3
#
#
#
# Elastic Constant Matrix: (Units=GPa)
#
#
# Indices 1 2 3 4 5 6 
#
# 1 75.4562 83.3885 77.8501 0.0000 0.0000 0.0000
# 2 83.3885 170.7581 90.5290 0.0000 0.0000 0.0000
# 3 77.8501 90.5290 166.3331 0.0000 0.0000 0.0000
# 4 0.0000 0.0000 0.0000 39.8878 0.0000 0.0000
# 5 0.0000 0.0000 0.0000 0.0000 35.9011 0.0000
# 6 0.0000 0.0000 0.0000 0.0000 0.0000 28.6950
#
#
#
# Elastic Compliance Matrix: (Units=1/GPa)
#
#
# Indices 1 2 3 4 5 6 
#
# 1 0.039729 -0.013414 -0.011294 0.000000 0.000000 0.000000
# 2 -0.013414 0.012760 -0.000667 0.000000 0.000000 0.000000
# 3 -0.011294 -0.000667 0.011661 0.000000 0.000000 0.000000
# 4 0.000000 0.000000 0.000000 0.025070 0.000000 0.000000
# 5 0.000000 0.000000 0.000000 0.000000 0.027854 0.000000
# 6 0.000000 0.000000 0.000000 0.000000 0.000000 0.034849
#
#
# Mechanical properties :
#
#
# Convention : Reuss Voigt Hill
#
# Bulk Modulus (GPa) = 74.62119 101.78698 88.20409
# Shear Modulus (GPa) = 24.13830 31.61545 27.87688
#
# Velocity S-wave (km/s) = 3.28700 3.76180 3.53238
# Velocity P-wave (km/s) = 6.91421 8.02672 7.49114
#
# Compressibility (1/GPa) = 0.01340102
#
# Stress axis : x y z
#
# Youngs Moduli (GPa) = 25.17069 78.36850 85.75614
#
# Poissons Ratio (x) = 1.05121 0.96853
# Poissons Ratio (y) = 0.33763 0.05719
# Poissons Ratio (z) = 0.28428 0.05226
#
# Static dielectric constant tensor:
#      x y z
#    x 1.947850 0.000000 0.000000 
#    y 0.000000 1.858400 0.000000 
#    z 0.000000 0.000000 1.845310 
# 
# From -- ./inp_files/26241.got.cif
#   From: 2010.05.17/outbox.cif.g08.bks.cpg/sg48_14_cif.got.tgz:26241.got - 2010.06.03 20:39:00.
