data_PCOD9391417
_publ_section_title
;
Structure prediction by ZEFSAII (Michael W. Deem and Ramdas Pophale) SiO2 
 PCOD9391417
Probable space group: P N N N
;
_chemical_formula_sum "Si O2"
_cell_formula_units_Z 40
_cell_length_a 7.940741
_cell_length_b 12.146388
_cell_length_c 18.906557
_cell_angle_alpha 90.000000
_cell_angle_beta 90.000000
_cell_angle_gamma 90.000000
_cell_volume 1823.562402
_symmetry_space_group_name_H-M "P N N N"
_symmetry_group_IT_number 48
_space_group.IT_coordinate_system_code '2'
_symmetry_cell_setting 'orthorhombic'
loop_
_space_group_symop_operation_xyz
x,y,z
1/2-x,1/2-y,z
x,1/2-y,1/2-z
1/2-x,y,1/2-z
-x,-y,-z
1/2+x,1/2+y,-z
-x,1/2+y,1/2+z
1/2+x,-y,1/2+z
loop_
_atom_site_type_symbol
_atom_site_label
_atom_site_fract_x
_atom_site_fract_y
_atom_site_fract_z
Si Si1 0.136174 0.900029 0.088678
Si Si2 0.458602 0.707297 0.329642
Si Si3 0.442231 0.210635 0.173512
Si Si4 0.350532 0.992061 0.822027
Si Si5 0.582507 0.390341 0.076634
O O1 0.305606 0.859788 0.129893
O O2 0.004811 0.816466 0.125326
O O3 0.128454 0.876922 0.005209
O O4 0.075776 0.026730 0.092239
O O5 0.422982 0.750000 0.250000
O O6 0.605126 0.619166 0.325338
O O7 0.250000 0.250000 0.168091
O O8 0.505927 0.250000 0.250000
O O9 0.542457 0.274646 0.112977
O O10 0.479873 0.081427 0.173892
O O11 0.250000 0.968858 0.750000
O O12 0.235935 0.950607 0.885422
#
# Coordination Sequence:
#
# PCOD9391417 Si02
#       5
#     8   8   8   8   8
#     4  10  24  46  67 100 135 186 224 275 344 411
#     4  11  25  45  70  96 135 186 240 282 337 412
#     4  11  24  43  69  99 136 182 228 278 345 415
#     4  12  25  42  71 103 136 175 229 292 346 394
#     4  11  24  44  69 102 144 172 227 282 344 414
#
# _framework density 21.935085000000001
#
# number of rings (size 3 to 8) (size 9 to 14) (size 15 to 20)
#    0.000    1.000    2.000    4.200    5.600    3.600 
#   10.800    0.000    0.000    0.000    0.000    0.000 
#    0.000    0.000    0.000    0.000    0.000    0.000 
#
# Total GULP energy -223382.180238 kJ/mol
# GULP energy per Si atom -5584.554506 kJ/mol
# Density = 2.188516 g / cm^3
# Si number density = 21.935085 Si / 1000 Ang^3
#
#
#
# Elastic Constant Matrix: (Units=GPa)
#
#
# Indices 1 2 3 4 5 6 
#
# 1 68.3142 13.8792 36.3325 0.0000 0.0000 0.0000
# 2 13.8792 103.4936 55.7280 0.0000 0.0000 0.0000
# 3 36.3325 55.7280 180.1756 0.0000 0.0000 0.0000
# 4 0.0000 0.0000 0.0000 -5.9475 0.0000 0.0000
# 5 0.0000 0.0000 0.0000 0.0000 -37.3266 0.0000
# 6 0.0000 0.0000 0.0000 0.0000 0.0000 92.1227
#
#
#
# Elastic Compliance Matrix: (Units=1/GPa)
#
#
# Indices 1 2 3 4 5 6 
#
# 1 0.016419 -0.000503 -0.003155 0.000000 0.000000 0.000000
# 2 -0.000503 0.011609 -0.003489 0.000000 0.000000 0.000000
# 3 -0.003155 -0.003489 0.007266 0.000000 0.000000 0.000000
# 4 0.000000 0.000000 0.000000 -0.168138 0.000000 0.000000
# 5 0.000000 0.000000 0.000000 0.000000 -0.026791 0.000000
# 6 0.000000 0.000000 0.000000 0.000000 0.000000 0.010855
#
#
# Mechanical properties :
#
#
# Convention : Reuss Voigt Hill
#
# Bulk Modulus (GPa) = 47.62298 62.65143 55.13720
# Shear Modulus (GPa) = -39.21967 26.17263 -6.52352
#
# Velocity S-wave (km/s) = -4.23305 3.45800 -1.72640
# Velocity P-wave (km/s) = 1.46068 6.67592 4.60621
#
# Compressibility (1/GPa) = 0.02099827
#
# Stress axis : x y z
#
# Youngs Moduli (GPa) = 60.90689 86.14257 137.63509
#
# Poissons Ratio (x) = 0.04331 0.43428
# Poissons Ratio (y) = 0.03063 0.48023
# Poissons Ratio (z) = 0.19218 0.30056
#
# Static dielectric constant tensor:
#      x y z
#    x 1.879320 0.000000 0.000000 
#    y 0.000000 1.692680 0.000000 
#    z 0.000000 0.000000 1.943370 
# 
# From -- ./inp_files/30006.got.cif
#   From: 2010.05.17/outbox.cif.g08.bks.cpg/sg48_16_cif.got.tgz:30006.got - 2010.06.03 20:39:00.
