data_PCOD9391662
_publ_section_title
;
Structure prediction by ZEFSAII (Michael W. Deem and Ramdas Pophale) SiO2 
 PCOD9391662
Probable space group: P N N N
;
_chemical_formula_sum "Si O2"
_cell_formula_units_Z 56
_cell_length_a 5.468346
_cell_length_b 29.405637
_cell_length_c 16.279528
_cell_angle_alpha 90.000000
_cell_angle_beta 90.000000
_cell_angle_gamma 90.000000
_cell_volume 2617.751317
_symmetry_space_group_name_H-M "P N N N"
_symmetry_group_IT_number 48
_space_group.IT_coordinate_system_code '2'
_symmetry_cell_setting 'orthorhombic'
loop_
_space_group_symop_operation_xyz
x,y,z
1/2-x,1/2-y,z
x,1/2-y,1/2-z
1/2-x,y,1/2-z
-x,-y,-z
1/2+x,1/2+y,-z
-x,1/2+y,1/2+z
1/2+x,-y,1/2+z
loop_
_atom_site_type_symbol
_atom_site_label
_atom_site_fract_x
_atom_site_fract_y
_atom_site_fract_z
Si Si1 0.932591 0.492426 0.183335
Si Si2 0.699792 0.612217 0.539345
Si Si3 0.372231 0.920486 0.103699
Si Si4 0.996274 0.610046 0.790630
Si Si5 0.088678 0.545207 0.542672
Si Si6 0.695214 0.320557 0.657527
Si Si7 0.305605 0.299854 0.940254
O O1 0.750000 0.514182 0.250000
O O2 0.791853 0.473343 0.103769
O O3 0.110086 0.532409 0.153208
O O4 0.014021 0.444847 0.221921
O O5 0.607687 0.587595 0.455502
O O6 0.502485 0.619752 0.611388
O O7 0.794344 0.660447 0.507950
O O8 0.884142 0.576732 0.582769
O O9 0.319325 0.875661 0.154975
O O10 0.172682 0.924200 0.033055
O O11 0.750000 0.629717 0.750000
O O12 0.250000 0.625393 0.750000
O O13 0.000000 0.500000 0.500000
O O14 0.750000 0.305441 0.750000
O O15 0.427933 0.306753 0.621956
O O16 0.928860 0.304142 0.603639
O O17 0.250000 0.250000 0.975231
#
# Coordination Sequence:
#
# PCOD9391662 Si02
#       7
#     8   8   8   8   8   8   8
#     4  11  23  38  57  91 128 173 223 270 318 380
#     4  11  22  41  65  89 126 170 217 268 326 396
#     4  11  23  38  58  87 126 171 219 262 319 379
#     4  11  24  40  61  93 127 165 210 262 321 375
#     4  12  21  37  63  86 125 169 221 259 320 373
#     4  11  25  43  67  97 135 173 218 276 334 393
#     4  11  25  45  70 100 128 170 222 275 336 401
#
# _framework density 21.392406000000001
#
# number of rings (size 3 to 8) (size 9 to 14) (size 15 to 20)
#    0.000    0.857    4.286    3.857    0.000    5.714 
#    0.000    0.000    0.000    0.429    0.000    4.000 
#    0.000    0.000    0.000    0.000    0.000    0.000 
#
# Total GULP energy -312523.215907 kJ/mol
# GULP energy per Si atom -5580.771713 kJ/mol
# Density = 2.134372 g / cm^3
# Si number density = 21.392406 Si / 1000 Ang^3
#
#
#
# Elastic Constant Matrix: (Units=GPa)
#
#
# Indices 1 2 3 4 5 6 
#
# 1 98.4496 2.3631 13.4414 0.0000 0.0000 0.0000
# 2 2.3631 81.5769 0.8343 0.0000 0.0000 0.0000
# 3 13.4414 0.8343 65.8848 0.0000 0.0000 0.0000
# 4 0.0000 0.0000 0.0000 0.0441 0.0000 0.0000
# 5 0.0000 0.0000 0.0000 0.0000 40.1427 0.0000
# 6 0.0000 0.0000 0.0000 0.0000 0.0000 14.5650
#
#
#
# Elastic Compliance Matrix: (Units=1/GPa)
#
#
# Indices 1 2 3 4 5 6 
#
# 1 0.010455 -0.000281 -0.002129 0.000000 0.000000 0.000000
# 2 -0.000281 0.012268 -0.000098 0.000000 0.000000 0.000000
# 3 -0.002129 -0.000098 0.015614 0.000000 0.000000 0.000000
# 4 0.000000 0.000000 0.000000 22.673401 0.000000 0.000000
# 5 0.000000 0.000000 0.000000 0.000000 0.024911 0.000000
# 6 0.000000 0.000000 0.000000 0.000000 0.000000 0.068658
#
#
# Mechanical properties :
#
#
# Convention : Reuss Voigt Hill
#
# Bulk Modulus (GPa) = 30.01274 31.02100 30.51687
# Shear Modulus (GPa) = 0.21909 26.23520 13.22714
#
# Velocity S-wave (km/s) = 0.32037 3.50577 2.48928
# Velocity P-wave (km/s) = 3.76788 5.56054 4.74956
#
# Compressibility (1/GPa) = 0.03331919
#
# Stress axis : x y z
#
# Youngs Moduli (GPa) = 95.64843 81.51611 64.04645
#
# Poissons Ratio (x) = 0.02291 0.13638
# Poissons Ratio (y) = 0.02689 0.00628
# Poissons Ratio (z) = 0.20367 0.00799
#
# Static dielectric constant tensor:
#      x y z
#    x 1.932890 0.000000 0.000000 
#    y 0.000000 1.778230 0.000000 
#    z 0.000000 0.000000 1.767020 
# 
# From -- ./inp_files/7057.got.cif
#   From: 2010.05.17/outbox.cif.g08.bks.cpg/sg48_4_cif.got.tgz:7057.got - 2010.06.03 20:39:00.
