data_PCOD9391943
_publ_section_title
;
Structure prediction by ZEFSAII (Michael W. Deem and Ramdas Pophale) SiO2 
 PCOD9391943
Probable space group: P N N N
;
_chemical_formula_sum "Si O2"
_cell_formula_units_Z 64
_cell_length_a 30.000000
_cell_length_b 12.000000
_cell_length_c 9.000000
_cell_angle_alpha 90.000000
_cell_angle_beta 90.000000
_cell_angle_gamma 90.000000
_cell_volume 3240.000000
_symmetry_space_group_name_H-M "P N N N"
_symmetry_group_IT_number 48
_space_group.IT_coordinate_system_code '2'
_symmetry_cell_setting 'orthorhombic'
loop_
_space_group_symop_operation_xyz
x,y,z
1/2-x,1/2-y,z
x,1/2-y,1/2-z
1/2-x,y,1/2-z
-x,-y,-z
1/2+x,1/2+y,-z
-x,1/2+y,1/2+z
1/2+x,-y,1/2+z
loop_
_atom_site_type_symbol
_atom_site_label
_atom_site_fract_x
_atom_site_fract_y
_atom_site_fract_z
Si Si1 0.020170 0.152587 0.651966
Si Si2 0.524079 0.681987 0.885973
Si Si3 0.093570 0.000675 0.091605
Si Si4 0.616600 0.902029 0.117605
Si Si5 0.160428 0.295772 0.413225
Si Si6 0.702994 0.876718 0.306268
Si Si7 0.419940 0.804057 0.602153
Si Si8 0.073420 0.913231 0.403229
O O1 0.998564 0.250000 0.750000
O O2 0.030279 0.223761 0.507707
O O3 0.069840 0.120895 0.707096
O O4 0.980229 0.066823 0.620001
O O5 0.544838 0.750000 0.750000
O O6 0.546526 0.565205 0.922093
O O7 0.471432 0.664461 0.862151
O O8 0.126511 0.103083 0.109039
O O9 0.093111 0.927866 0.240586
O O10 0.102146 0.915362 0.959005
O O11 0.657997 0.926166 0.229232
O O12 0.635630 0.800447 0.013336
O O13 0.598627 0.999207 0.009381
O O14 0.173598 0.250000 0.250000
O O15 0.197875 0.355030 0.517231
O O16 0.703325 0.750000 0.250000
O O17 0.750000 0.927789 0.250000
O O18 0.400000 0.750000 0.750000
O O19 0.421711 0.706766 0.479344
#
# Coordination Sequence:
#
# PCOD9391943 Si02
#       8
#     8   8   8   8   8   8   8   8
#     4  11  21  34  51  81 118 165 217 252 303 364
#     4  10  20  35  52  75 109 155 211 268 302 358
#     4  12  21  37  58  79 120 166 205 266 306 361
#     4  11  21  37  60  87 121 164 208 256 308 376
#     4  11  21  38  64  96 122 161 204 245 315 378
#     4   9  21  41  63  91 129 159 190 252 318 385
#     4  10  24  38  51  78 114 162 222 258 307 350
#     4  11  23  37  55  80 124 168 213 262 303 363
#
# _framework density 19.753086
#
# number of rings (size 3 to 8) (size 9 to 14) (size 15 to 20)
#    0.000    1.375    2.500    4.875    1.750    2.000 
#    0.000    5.000    0.000    0.000    0.000    1.750 
#    0.000    4.000    0.000    0.000    0.000    0.000 
#
# Total GULP energy -356742.848305 kJ/mol
# GULP energy per Si atom -5574.107005 kJ/mol
# Density = 1.970813 g / cm^3
# Si number density = 19.753086 Si / 1000 Ang^3
#
#
#
# Elastic Constant Matrix: (Units=GPa)
#
#
# Indices 1 2 3 4 5 6 
#
# 1 86.6321 24.3395 46.4699 0.0000 0.0000 0.0000
# 2 24.3395 73.0249 46.3820 0.0000 0.0000 0.0000
# 3 46.4699 46.3820 121.2086 0.0000 0.0000 0.0000
# 4 0.0000 0.0000 0.0000 35.0723 0.0000 0.0000
# 5 0.0000 0.0000 0.0000 0.0000 18.2902 0.0000
# 6 0.0000 0.0000 0.0000 0.0000 0.0000 18.3771
#
#
#
# Elastic Compliance Matrix: (Units=1/GPa)
#
#
# Indices 1 2 3 4 5 6 
#
# 1 0.014698 -0.001744 -0.004968 0.000000 0.000000 0.000000
# 2 -0.001744 0.018298 -0.006333 0.000000 0.000000 0.000000
# 3 -0.004968 -0.006333 0.012578 0.000000 0.000000 0.000000
# 4 0.000000 0.000000 0.000000 0.028513 0.000000 0.000000
# 5 0.000000 0.000000 0.000000 0.000000 0.054674 0.000000
# 6 0.000000 0.000000 0.000000 0.000000 0.000000 0.054415
#
#
# Mechanical properties :
#
#
# Convention : Reuss Voigt Hill
#
# Bulk Modulus (GPa) = 51.32298 57.24982 54.28640
# Shear Modulus (GPa) = 23.17387 25.25951 24.21669
#
# Velocity S-wave (km/s) = 3.42888 3.57986 3.50518
# Velocity P-wave (km/s) = 6.45871 6.79211 6.62751
#
# Compressibility (1/GPa) = 0.01948445
#
# Stress axis : x y z
#
# Youngs Moduli (GPa) = 68.03818 54.65135 79.50146
#
# Poissons Ratio (x) = 0.09529 0.39494
# Poissons Ratio (y) = 0.11863 0.50352
# Poissons Ratio (z) = 0.33799 0.34613
#
# Static dielectric constant tensor:
#      x y z
#    x 1.743160 0.000000 0.000000 
#    y 0.000000 1.700910 0.000000 
#    z 0.000000 0.000000 1.768780 
# 
# From -- ./inp_files/16932.got.cif
#   From: 2010.05.17/outbox.ucp.g08.bks.cvg/sg48_9_cif.got.tgz:16932.got - 2010.06.11 16:38:40.
