data_PCOD9391828
_publ_section_title
;
Structure prediction by ZEFSAII (Michael W. Deem and Ramdas Pophale) SiO2 
 PCOD9391828
Probable space group: P N N N
;
_chemical_formula_sum "Si O2"
_cell_formula_units_Z 28
_cell_length_a 15.082968
_cell_length_b 15.643390
_cell_length_c 5.008854
_cell_angle_alpha 90.000000
_cell_angle_beta 90.000000
_cell_angle_gamma 90.000000
_cell_volume 1181.832844
_symmetry_space_group_name_H-M "P N N N"
_symmetry_group_IT_number 48
_space_group.IT_coordinate_system_code '2'
_symmetry_cell_setting 'orthorhombic'
loop_
_space_group_symop_operation_xyz
x,y,z
1/2-x,1/2-y,z
x,1/2-y,1/2-z
1/2-x,y,1/2-z
-x,-y,-z
1/2+x,1/2+y,-z
-x,1/2+y,1/2+z
1/2+x,-y,1/2+z
loop_
_atom_site_type_symbol
_atom_site_label
_atom_site_fract_x
_atom_site_fract_y
_atom_site_fract_z
Si Si1 0.058401 0.912380 0.966331
Si Si2 0.663194 0.445904 0.554225
Si Si3 0.186126 0.357798 0.001979
Si Si4 0.546631 0.750000 0.750000
O O1 0.141468 0.922102 0.755036
O O2 0.005921 0.830487 0.864688
O O3 0.091943 0.897324 0.265951
O O4 0.000000 0.000000 0.000000
O O5 0.750000 0.436618 0.750000
O O6 0.647253 0.547505 0.541280
O O7 0.250000 0.343779 0.250000
O O8 0.109373 0.289546 0.022116
O O9 0.250000 0.356769 0.750000
#
# Coordination Sequence:
#
# PCOD9391828 Si02
#       4
#     8   8   8   4
#     4  12  26  48  74 109 151 194 247 314 380 457
#     4  11  24  50  77 103 145 203 252 305 378 456
#     4  11  25  45  72 109 150 190 243 314 390 472
#     4  12  29  46  73 116 154 194 254 318 397 462
#
# _framework density 23.692015999999999
#
# number of rings (size 3 to 8) (size 9 to 14) (size 15 to 20)
#    0.000    0.571    2.857    5.571    0.000    5.714 
#    5.143    4.286    0.000    0.000    0.000    0.000 
#    0.000    0.000    0.000    0.000    0.000    0.000 
#
# Total GULP energy -156359.611940 kJ/mol
# GULP energy per Si atom -5584.271855 kJ/mol
# Density = 2.363809 g / cm^3
# Si number density = 23.692016 Si / 1000 Ang^3
#
#
#
# Elastic Constant Matrix: (Units=GPa)
#
#
# Indices 1 2 3 4 5 6 
#
# 1 75.3127 63.3101 47.3107 0.0000 0.0000 0.0000
# 2 63.3101 147.8434 38.9881 0.0000 0.0000 0.0000
# 3 47.3107 38.9881 192.3738 0.0000 0.0000 0.0000
# 4 0.0000 0.0000 0.0000 32.6272 0.0000 0.0000
# 5 0.0000 0.0000 0.0000 0.0000 42.2672 0.0000
# 6 0.0000 0.0000 0.0000 0.0000 0.0000 37.5569
#
#
#
# Elastic Compliance Matrix: (Units=1/GPa)
#
#
# Indices 1 2 3 4 5 6 
#
# 1 0.023226 -0.008916 -0.003905 0.000000 0.000000 0.000000
# 2 -0.008916 0.010569 0.000051 0.000000 0.000000 0.000000
# 3 -0.003905 0.000051 0.006148 0.000000 0.000000 0.000000
# 4 0.000000 0.000000 0.000000 0.030649 0.000000 0.000000
# 5 0.000000 0.000000 0.000000 0.000000 0.023659 0.000000
# 6 0.000000 0.000000 0.000000 0.000000 0.000000 0.026626
#
#
# Mechanical properties :
#
#
# Convention : Reuss Voigt Hill
#
# Bulk Modulus (GPa) = 69.43297 79.41643 74.42470
# Shear Modulus (GPa) = 33.06451 40.21834 36.64142
#
# Velocity S-wave (km/s) = 3.73982 4.12460 3.93692
# Velocity P-wave (km/s) = 6.92954 7.50175 7.22131
#
# Compressibility (1/GPa) = 0.01440238
#
# Stress axis : x y z
#
# Youngs Moduli (GPa) = 43.05452 94.61927 162.64722
#
# Poissons Ratio (x) = 0.84365 0.63514
# Poissons Ratio (y) = 0.38389 -0.00827
# Poissons Ratio (z) = 0.16813 -0.00481
#
# Static dielectric constant tensor:
#      x y z
#    x 1.950750 0.000000 0.000000 
#    y 0.000000 1.887640 0.000000 
#    z 0.000000 0.000000 1.897840 
# 
# From -- ./inp_files/2897.got.cif
#   From: 2010.05.17/outbox.cif.g08.bks.cpg/sg48_2_cif.got.tgz:2897.got - 2010.06.03 20:39:00.
