data_PCOD9391082
_publ_section_title
;
Structure prediction by ZEFSAII (Michael W. Deem and Ramdas Pophale) SiO2 
 PCOD9391082
Probable space group: P N N N
;
_chemical_formula_sum "Si O2"
_cell_formula_units_Z 32
_cell_length_a 5.024158
_cell_length_b 17.985012
_cell_length_c 15.361206
_cell_angle_alpha 90.000000
_cell_angle_beta 90.000000
_cell_angle_gamma 90.000000
_cell_volume 1388.031537
_symmetry_space_group_name_H-M "P N N N"
_symmetry_group_IT_number 48
_space_group.IT_coordinate_system_code '2'
_symmetry_cell_setting 'orthorhombic'
loop_
_space_group_symop_operation_xyz
x,y,z
1/2-x,1/2-y,z
x,1/2-y,1/2-z
1/2-x,y,1/2-z
-x,-y,-z
1/2+x,1/2+y,-z
-x,1/2+y,1/2+z
1/2+x,-y,1/2+z
loop_
_atom_site_type_symbol
_atom_site_label
_atom_site_fract_x
_atom_site_fract_y
_atom_site_fract_z
Si Si1 0.750000 0.250000 0.750000
Si Si2 0.942483 0.414591 0.525234
Si Si3 0.250000 0.992374 0.250000
Si Si4 0.048854 0.378076 0.855105
Si Si5 0.050145 0.617913 0.668703
Si Si6 0.250000 0.250000 0.250000
O O1 0.945250 0.301672 0.809590
O O2 0.176833 0.382758 0.589656
O O3 0.000000 0.500000 0.500000
O O4 0.674496 0.402775 0.577210
O O5 0.879218 0.377652 0.431779
O O6 0.343000 0.049694 0.323803
O O7 0.489651 0.939849 0.219449
O O8 0.250000 0.603868 0.750000
O O9 0.922682 0.696168 0.691674
#
# Coordination Sequence:
#
# PCOD9391082 Si02
#       6
#     2   8   4   8   8   2
#     4  10  28  52  76 108 158 212 252 308 412 476
#     4  12  25  44  75 109 143 184 252 316 372 437
#     4  10  22  40  68  98 140 184 236 296 366 440
#     4  11  26  45  72 108 147 194 248 308 374 463
#     4  11  24  42  68  96 140 187 236 297 372 438
#     4  10  26  42  60  96 128 188 226 286 358 454
#
# _framework density 23.054231999999999
#
# number of rings (size 3 to 8) (size 9 to 14) (size 15 to 20)
#    0.000    1.000    2.500    2.625    7.000    7.000 
#    0.000    0.000    0.000    0.000    0.000    0.000 
#    0.000    0.000    0.000    0.000    0.000    0.000 
#
# Total GULP energy -178615.464943 kJ/mol
# GULP energy per Si atom -5581.733279 kJ/mol
# Density = 2.300176 g / cm^3
# Si number density = 23.054232 Si / 1000 Ang^3
#
#
#
# Elastic Constant Matrix: (Units=GPa)
#
#
# Indices 1 2 3 4 5 6 
#
# 1 85.6796 -5.5979 34.4861 0.0000 0.0000 0.0000
# 2 -5.5979 125.2078 37.4880 0.0000 0.0000 0.0000
# 3 34.4861 37.4880 149.6731 0.0000 0.0000 0.0000
# 4 0.0000 0.0000 0.0000 25.3836 0.0000 0.0000
# 5 0.0000 0.0000 0.0000 0.0000 29.0691 0.0000
# 6 0.0000 0.0000 0.0000 0.0000 0.0000 20.0883
#
#
#
# Elastic Compliance Matrix: (Units=1/GPa)
#
#
# Indices 1 2 3 4 5 6 
#
# 1 0.013161 0.001618 -0.003438 0.000000 0.000000 0.000000
# 2 0.001618 0.008833 -0.002585 0.000000 0.000000 0.000000
# 3 -0.003438 -0.002585 0.008121 0.000000 0.000000 0.000000
# 4 0.000000 0.000000 0.000000 0.039395 0.000000 0.000000
# 5 0.000000 0.000000 0.000000 0.000000 0.034401 0.000000
# 6 0.000000 0.000000 0.000000 0.000000 0.000000 0.049780
#
#
# Mechanical properties :
#
#
# Convention : Reuss Voigt Hill
#
# Bulk Modulus (GPa) = 46.93848 54.81256 50.87552
# Shear Modulus (GPa) = 29.48072 34.52050 32.00061
#
# Velocity S-wave (km/s) = 3.57985 3.87377 3.72971
# Velocity P-wave (km/s) = 6.12302 6.62082 6.37678
#
# Compressibility (1/GPa) = 0.02130448
#
# Stress axis : x y z
#
# Youngs Moduli (GPa) = 75.98399 113.21139 123.14158
#
# Poissons Ratio (x) = -0.18313 0.42330
# Poissons Ratio (y) = -0.12291 0.31833
# Poissons Ratio (z) = 0.26119 0.29266
#
# Static dielectric constant tensor:
#      x y z
#    x 1.901940 0.000000 0.000000 
#    y 0.000000 1.848960 0.000000 
#    z 0.000000 0.000000 2.397460 
# 
# From -- ./inp_files/3017.got.cif
#   From: 2010.05.17/outbox.cif.g08.bks.cpg/sg48_2_cif.got.tgz:3017.got - 2010.06.03 20:39:00.
