data_PCOD9391042
_publ_section_title
;
Structure prediction by ZEFSAII (Michael W. Deem and Ramdas Pophale) SiO2 
 PCOD9391042
Probable space group: P N N N
;
_chemical_formula_sum "Si O2"
_cell_formula_units_Z 20
_cell_length_a 10.522619
_cell_length_b 10.522241
_cell_length_c 7.932375
_cell_angle_alpha 90.000000
_cell_angle_beta 90.000000
_cell_angle_gamma 90.000000
_cell_volume 878.284721
_symmetry_space_group_name_H-M "P N N N"
_symmetry_group_IT_number 48
_space_group.IT_coordinate_system_code '2'
_symmetry_cell_setting 'orthorhombic'
loop_
_space_group_symop_operation_xyz
x,y,z
1/2-x,1/2-y,z
x,1/2-y,1/2-z
1/2-x,y,1/2-z
-x,-y,-z
1/2+x,1/2+y,-z
-x,1/2+y,1/2+z
1/2+x,-y,1/2+z
loop_
_atom_site_type_symbol
_atom_site_label
_atom_site_fract_x
_atom_site_fract_y
_atom_site_fract_z
Si Si1 0.390264 0.398623 0.464767
Si Si2 0.622706 0.507243 0.887705
Si Si3 0.523322 0.250000 0.750000
O O1 0.500000 0.500000 0.500000
O O2 0.391629 0.389383 0.261510
O O3 0.249841 0.458551 0.490454
O O4 0.431280 0.287021 0.591818
O O5 0.612879 0.368840 0.798685
O O6 0.500000 0.500000 0.000000
#
# Coordination Sequence:
#
# PCOD9391042 Si02
#       3
#     8   8   4
#     4   9  21  39  63  96 129 172 226 273 335 414
#     4  10  22  39  62  98 133 171 230 275 329 424
#     4  10  22  42  68  92 138 184 210 290 354 384
#
# _framework density 22.771657000000001
#
# number of rings (size 3 to 8) (size 9 to 14) (size 15 to 20)
#    0.000    2.400    0.000    0.000    0.000   24.000 
#    0.000    4.000    0.000   28.800    0.000    0.000 
#    0.000    0.000    0.000    0.000    0.000    0.000 
#
# Total GULP energy -111454.189320 kJ/mol
# GULP energy per Si atom -5572.709466 kJ/mol
# Density = 2.271983 g / cm^3
# Si number density = 22.771657 Si / 1000 Ang^3
#
#
#
# Elastic Constant Matrix: (Units=GPa)
#
#
# Indices 1 2 3 4 5 6 
#
# 1 232.1109 53.9519 76.8944 0.0000 0.0000 0.0000
# 2 53.9519 151.9226 43.5661 0.0000 0.0000 0.0000
# 3 76.8944 43.5661 106.1603 0.0000 0.0000 0.0000
# 4 0.0000 0.0000 0.0000 50.7104 0.0000 0.0000
# 5 0.0000 0.0000 0.0000 0.0000 50.8534 0.0000
# 6 0.0000 0.0000 0.0000 0.0000 0.0000 25.8879
#
#
#
# Elastic Compliance Matrix: (Units=1/GPa)
#
#
# Indices 1 2 3 4 5 6 
#
# 1 0.005791 -0.000968 -0.003798 0.000000 0.000000 0.000000
# 2 -0.000968 0.007622 -0.002427 0.000000 0.000000 0.000000
# 3 -0.003798 -0.002427 0.013166 0.000000 0.000000 0.000000
# 4 0.000000 0.000000 0.000000 0.019720 0.000000 0.000000
# 5 0.000000 0.000000 0.000000 0.000000 0.019664 0.000000
# 6 0.000000 0.000000 0.000000 0.000000 0.000000 0.038628
#
#
# Mechanical properties :
#
#
# Convention : Reuss Voigt Hill
#
# Bulk Modulus (GPa) = 82.00048 93.22429 87.61239
# Shear Modulus (GPa) = 40.63667 46.54244 43.58955
#
# Velocity S-wave (km/s) = 4.22895 4.52583 4.37991
# Velocity P-wave (km/s) = 7.74167 8.26671 8.00849
#
# Compressibility (1/GPa) = 0.01219505
#
# Stress axis : x y z
#
# Youngs Moduli (GPa) = 172.67250 131.20073 75.95043
#
# Poissons Ratio (x) = 0.12695 0.28844
# Poissons Ratio (y) = 0.16708 0.18433
# Poissons Ratio (z) = 0.65576 0.31843
#
# Static dielectric constant tensor:
#      x y z
#    x 1.827000 0.000000 0.000000 
#    y 0.000000 1.909890 0.000000 
#    z 0.000000 0.000000 1.943970 
# 
# From -- ./inp_files/7819.got.cif
#   From: 2010.05.17/outbox.cif.g08.bks.cpg/sg48_4_cif.got.tgz:7819.got - 2010.06.03 20:39:00.
