data_PCOD9391747
_publ_section_title
;
Structure prediction by ZEFSAII (Michael W. Deem and Ramdas Pophale) SiO2 
 PCOD9391747
Probable space group: P N N N
;
_chemical_formula_sum "Si O2"
_cell_formula_units_Z 32
_cell_length_a 8.972854
_cell_length_b 10.000527
_cell_length_c 15.093489
_cell_angle_alpha 90.000000
_cell_angle_beta 90.000000
_cell_angle_gamma 90.000000
_cell_volume 1354.388104
_symmetry_space_group_name_H-M "P N N N"
_symmetry_group_IT_number 48
_space_group.IT_coordinate_system_code '2'
_symmetry_cell_setting 'orthorhombic'
loop_
_space_group_symop_operation_xyz
x,y,z
1/2-x,1/2-y,z
x,1/2-y,1/2-z
1/2-x,y,1/2-z
-x,-y,-z
1/2+x,1/2+y,-z
-x,1/2+y,1/2+z
1/2+x,-y,1/2+z
loop_
_atom_site_type_symbol
_atom_site_label
_atom_site_fract_x
_atom_site_fract_y
_atom_site_fract_z
Si Si1 0.440697 0.167213 0.587343
Si Si2 0.318018 0.439444 0.096795
Si Si3 0.750000 0.250000 0.750000
Si Si4 0.474715 0.943512 0.143326
Si Si5 0.250000 0.054233 0.750000
Si Si6 0.750000 0.750000 0.750000
O O1 0.370803 0.122504 0.495002
O O2 0.463603 0.324972 0.582822
O O3 0.340474 0.132646 0.673250
O O4 0.591469 0.079644 0.600526
O O5 0.140650 0.459758 0.096880
O O6 0.342864 0.346545 0.183542
O O7 0.635388 0.147107 0.796188
O O8 0.612929 0.010535 0.194998
#
# Coordination Sequence:
#
# PCOD9391747 Si02
#       6
#     8   8   2   8   4   2
#     4  11  23  44  69 105 132 183 247 297 351 441
#     4  11  26  45  69  95 146 190 236 289 367 442
#     4  12  18  34  72  98 124 178 232 284 358 406
#     4  12  21  41  72 104 132 185 237 303 349 422
#     4  12  23  36  70 105 134 157 244 310 347 414
#     4  12  26  44  66 100 144 190 232 296 376 438
#
# _framework density 23.626906000000002
#
# number of rings (size 3 to 8) (size 9 to 14) (size 15 to 20)
#    0.000    0.500    5.000    3.750    3.500    1.000 
#    4.500    0.000    0.000    6.750    0.000    0.000 
#    0.000    0.000    0.000    0.000    0.000    0.000 
#
# Total GULP energy -178722.276721 kJ/mol
# GULP energy per Si atom -5585.071148 kJ/mol
# Density = 2.357313 g / cm^3
# Si number density = 23.626906 Si / 1000 Ang^3
#
#
#
# Elastic Constant Matrix: (Units=GPa)
#
#
# Indices 1 2 3 4 5 6 
#
# 1 178.8974 28.2253 59.4424 0.0000 0.0000 0.0000
# 2 28.2253 52.1370 31.7406 0.0000 0.0000 0.0000
# 3 59.4424 31.7406 156.3606 0.0000 0.0000 0.0000
# 4 0.0000 0.0000 0.0000 38.2383 0.0000 0.0000
# 5 0.0000 0.0000 0.0000 0.0000 52.1454 0.0000
# 6 0.0000 0.0000 0.0000 0.0000 0.0000 31.2860
#
#
#
# Elastic Compliance Matrix: (Units=1/GPa)
#
#
# Indices 1 2 3 4 5 6 
#
# 1 0.006641 -0.002348 -0.002048 0.000000 0.000000 0.000000
# 2 -0.002348 0.022715 -0.003718 0.000000 0.000000 0.000000
# 3 -0.002048 -0.003718 0.007929 0.000000 0.000000 0.000000
# 4 0.000000 0.000000 0.000000 0.026152 0.000000 0.000000
# 5 0.000000 0.000000 0.000000 0.000000 0.019177 0.000000
# 6 0.000000 0.000000 0.000000 0.000000 0.000000 0.031963
#
#
# Mechanical properties :
#
#
# Convention : Reuss Voigt Hill
#
# Bulk Modulus (GPa) = 47.49310 69.57905 58.53607
# Shear Modulus (GPa) = 36.27799 42.19973 39.23886
#
# Velocity S-wave (km/s) = 3.92274 4.23080 4.07968
# Velocity P-wave (km/s) = 6.37668 7.30611 6.85716
#
# Compressibility (1/GPa) = 0.02105569
#
# Stress axis : x y z
#
# Youngs Moduli (GPa) = 150.58546 44.02322 126.12254
#
# Poissons Ratio (x) = 0.10338 0.25828
# Poissons Ratio (y) = 0.35363 0.46897
# Poissons Ratio (z) = 0.30838 0.16369
#
# Static dielectric constant tensor:
#      x y z
#    x 1.963050 0.000000 0.000000 
#    y 0.000000 1.936420 0.000000 
#    z 0.000000 0.000000 1.934100 
# 
# From -- ./inp_files/10355.got.cif
#   From: 2010.05.17/outbox.cif.g08.bks.cpg/sg48_6_cif.got.tgz:10355.got - 2010.06.03 20:39:00.
