data_PCOD9391448
_publ_section_title
;
Structure prediction by ZEFSAII (Michael W. Deem and Ramdas Pophale) SiO2 
 PCOD9391448
Probable space group: P N N N
;
_chemical_formula_sum "Si O2"
_cell_formula_units_Z 38
_cell_length_a 25.065663
_cell_length_b 7.792148
_cell_length_c 9.671580
_cell_angle_alpha 90.000000
_cell_angle_beta 90.000000
_cell_angle_gamma 90.000000
_cell_volume 1889.008089
_symmetry_space_group_name_H-M "P N N N"
_symmetry_group_IT_number 48
_space_group.IT_coordinate_system_code '2'
_symmetry_cell_setting 'orthorhombic'
loop_
_space_group_symop_operation_xyz
x,y,z
1/2-x,1/2-y,z
x,1/2-y,1/2-z
1/2-x,y,1/2-z
-x,-y,-z
1/2+x,1/2+y,-z
-x,1/2+y,1/2+z
1/2+x,-y,1/2+z
loop_
_atom_site_type_symbol
_atom_site_label
_atom_site_fract_x
_atom_site_fract_y
_atom_site_fract_z
Si Si1 0.162406 0.080836 0.072148
Si Si2 0.605560 0.902931 0.050788
Si Si3 0.481015 0.250000 0.750000
Si Si4 0.935273 0.541855 0.764169
Si Si5 0.250000 0.250000 0.250000
Si Si6 0.810134 0.048712 0.227328
O O1 0.116040 0.005690 0.168531
O O2 0.214672 0.122506 0.158311
O O3 0.142070 0.267867 0.028278
O O4 0.173015 0.984120 0.930145
O O5 0.557868 0.802534 0.125531
O O6 0.644191 0.982909 0.167157
O O7 0.579257 0.006117 0.923556
O O8 0.516909 0.417382 0.780126
O O9 0.946622 0.750000 0.750000
O O10 0.806616 0.250000 0.250000
O O11 0.750000 0.974517 0.250000
#
# Coordination Sequence:
#
# PCOD9391448 Si02
#       6
#     8   8   4   8   2   8
#     4  11  22  42  68 100 129 175 223 282 335 417
#     4  11  22  46  64  99 132 175 230 277 339 411
#     4  12  24  42  71  95 134 194 222 278 352 392
#     4  10  25  43  64 101 138 174 235 281 338 405
#     4  12  20  40  78  98 132 176 228 280 358 410
#     4  11  25  42  67 100 137 175 220 282 350 407
#
# _framework density 20.116378000000001
#
# number of rings (size 3 to 8) (size 9 to 14) (size 15 to 20)
#    0.000    1.053    5.263    1.895    2.947    5.053 
#    0.000    0.000    0.000    0.000    0.000    0.000 
#    0.000    0.000    0.000    0.000    0.000    0.000 
#
# Total GULP energy -212057.383531 kJ/mol
# GULP energy per Si atom -5580.457461 kJ/mol
# Density = 2.007059 g / cm^3
# Si number density = 20.116378 Si / 1000 Ang^3
#
#
#
# Elastic Constant Matrix: (Units=GPa)
#
#
# Indices 1 2 3 4 5 6 
#
# 1 142.5494 41.6265 64.1690 0.0000 0.0000 0.0000
# 2 41.6265 48.1835 16.5509 0.0000 0.0000 0.0000
# 3 64.1690 16.5509 138.3151 0.0000 0.0000 0.0000
# 4 0.0000 0.0000 0.0000 57.4576 0.0000 0.0000
# 5 0.0000 0.0000 0.0000 0.0000 -11.0028 0.0000
# 6 0.0000 0.0000 0.0000 0.0000 0.0000 29.4531
#
#
#
# Elastic Compliance Matrix: (Units=1/GPa)
#
#
# Indices 1 2 3 4 5 6 
#
# 1 0.011385 -0.008365 -0.004281 0.000000 0.000000 0.000000
# 2 -0.008365 0.027790 0.000556 0.000000 0.000000 0.000000
# 3 -0.004281 0.000556 0.009149 0.000000 0.000000 0.000000
# 4 0.000000 0.000000 0.000000 0.017404 0.000000 0.000000
# 5 0.000000 0.000000 0.000000 0.000000 -0.090886 0.000000
# 6 0.000000 0.000000 0.000000 0.000000 0.000000 0.033952
#
#
# Mechanical properties :
#
#
# Convention : Reuss Voigt Hill
#
# Bulk Modulus (GPa) = 41.41937 63.74898 52.58417
# Shear Modulus (GPa) = 121.88094 28.96168 75.42131
#
# Velocity S-wave (km/s) = 7.79227 3.79846 6.12975
# Velocity P-wave (km/s) = 10.07938 7.14119 8.73471
#
# Compressibility (1/GPa) = 0.02414329
#
# Stress axis : x y z
#
# Youngs Moduli (GPa) = 87.83567 35.98423 109.29640
#
# Poissons Ratio (x) = 0.30101 0.46788
# Poissons Ratio (y) = 0.73476 -0.06071
# Poissons Ratio (z) = 0.37601 -0.01999
#
# Static dielectric constant tensor:
#      x y z
#    x 1.754230 0.000000 0.000000 
#    y 0.000000 1.705220 0.000000 
#    z 0.000000 0.000000 1.642790 
# 
# From -- ./inp_files/9046.got.cif
#   From: 2010.05.17/outbox.cif.g08.bks.cpg/sg48_5_cif.got.tgz:9046.got - 2010.06.03 20:39:00.
