data_PCOD9391656
_publ_section_title
;
Structure prediction by ZEFSAII (Michael W. Deem and Ramdas Pophale) SiO2 
 PCOD9391656
Probable space group: P N N N
;
_chemical_formula_sum "Si O2"
_cell_formula_units_Z 40
_cell_length_a 18.163358
_cell_length_b 9.562321
_cell_length_c 11.223243
_cell_angle_alpha 90.000000
_cell_angle_beta 90.000000
_cell_angle_gamma 90.000000
_cell_volume 1949.296162
_symmetry_space_group_name_H-M "P N N N"
_symmetry_group_IT_number 48
_space_group.IT_coordinate_system_code '2'
_symmetry_cell_setting 'orthorhombic'
loop_
_space_group_symop_operation_xyz
x,y,z
1/2-x,1/2-y,z
x,1/2-y,1/2-z
1/2-x,y,1/2-z
-x,-y,-z
1/2+x,1/2+y,-z
-x,1/2+y,1/2+z
1/2+x,-y,1/2+z
loop_
_atom_site_type_symbol
_atom_site_label
_atom_site_fract_x
_atom_site_fract_y
_atom_site_fract_z
Si Si1 0.561432 0.182625 0.383394
Si Si2 0.338172 0.417275 0.257412
Si Si3 0.411699 0.534706 0.496713
Si Si4 0.905026 0.568900 0.520619
Si Si5 0.665344 0.797801 0.125514
O O1 0.556600 0.250000 0.250000
O O2 0.591924 0.303310 0.468930
O O3 0.484005 0.128449 0.437810
O O4 0.604425 0.038319 0.410077
O O5 0.356091 0.250000 0.250000
O O6 0.250000 0.428569 0.250000
O O7 0.376504 0.487284 0.371603
O O8 0.370206 0.491325 0.140094
O O9 0.500000 0.500000 0.500000
O O10 0.362756 0.451906 0.594846
O O11 0.863492 0.707197 0.482914
O O12 0.750000 0.750000 0.130726
O O13 0.630506 0.750000 0.250000
#
# Coordination Sequence:
#
# PCOD9391656 Si02
#       5
#     8   8   8   8   8
#     4  11  24  42  63  97 136 171 222 286 344 405
#     4  11  22  40  68  97 132 174 225 285 349 417
#     4  12  22  40  68 100 131 173 230 285 337 412
#     4  11  22  42  65  93 132 175 219 282 347 403
#     4  11  23  40  64  95 131 177 226 268 331 415
#
# _framework density 20.520226999999998
#
# number of rings (size 3 to 8) (size 9 to 14) (size 15 to 20)
#    0.000    0.800    4.000    4.200    0.000    2.400 
#    0.000    5.000    0.000    7.200    0.000    0.000 
#    0.000    0.000    0.000    0.000    0.000    0.000 
#
# Total GULP energy -222779.155945 kJ/mol
# GULP energy per Si atom -5569.478899 kJ/mol
# Density = 2.047352 g / cm^3
# Si number density = 20.520227 Si / 1000 Ang^3
#
#
#
# Elastic Constant Matrix: (Units=GPa)
#
#
# Indices 1 2 3 4 5 6 
#
# 1 66.0222 28.8211 18.8188 0.0000 0.0000 0.0000
# 2 28.8211 114.4044 43.9292 0.0000 0.0000 0.0000
# 3 18.8188 43.9292 147.9040 0.0000 0.0000 0.0000
# 4 0.0000 0.0000 0.0000 32.1573 0.0000 0.0000
# 5 0.0000 0.0000 0.0000 0.0000 32.4935 0.0000
# 6 0.0000 0.0000 0.0000 0.0000 0.0000 -130.7989
#
#
#
# Elastic Compliance Matrix: (Units=1/GPa)
#
#
# Indices 1 2 3 4 5 6 
#
# 1 0.017152 -0.003931 -0.001015 0.000000 0.000000 0.000000
# 2 -0.003931 0.010767 -0.002698 0.000000 0.000000 0.000000
# 3 -0.001015 -0.002698 0.007692 0.000000 0.000000 0.000000
# 4 0.000000 0.000000 0.000000 0.031097 0.000000 0.000000
# 5 0.000000 0.000000 0.000000 0.000000 0.030775 0.000000
# 6 0.000000 0.000000 0.000000 0.000000 0.000000 -0.007645
#
#
# Mechanical properties :
#
#
# Convention : Reuss Voigt Hill
#
# Bulk Modulus (GPa) = 49.20539 56.82986 53.01762
# Shear Modulus (GPa) = 44.68288 2.55446 23.61867
#
# Velocity S-wave (km/s) = 4.67144 1.11694 3.39631
# Velocity P-wave (km/s) = 7.28886 5.42384 6.42439
#
# Compressibility (1/GPa) = 0.02032298
#
# Stress axis : x y z
#
# Youngs Moduli (GPa) = 58.30286 92.87458 130.01332
#
# Poissons Ratio (x) = 0.36512 0.13192
# Poissons Ratio (y) = 0.22921 0.35075
# Poissons Ratio (z) = 0.05916 0.25056
#
# Static dielectric constant tensor:
#      x y z
#    x 1.794490 0.000000 0.000000 
#    y 0.000000 1.694460 0.000000 
#    z 0.000000 0.000000 1.701240 
# 
# From -- ./inp_files/13787.got.cif
#   From: 2010.05.17/outbox.cif.g08.bks.cpg/sg48_7_cif.got.tgz:13787.got - 2010.06.03 20:39:00.
