data_PCOD9391859
_publ_section_title
;
Structure prediction by ZEFSAII (Michael W. Deem and Ramdas Pophale) SiO2 
 PCOD9391859
Probable space group: P N N N
;
_chemical_formula_sum "Si O2"
_cell_formula_units_Z 30
_cell_length_a 4.813096
_cell_length_b 18.272068
_cell_length_c 13.640287
_cell_angle_alpha 90.000000
_cell_angle_beta 90.000000
_cell_angle_gamma 90.000000
_cell_volume 1199.598006
_symmetry_space_group_name_H-M "P N N N"
_symmetry_group_IT_number 48
_space_group.IT_coordinate_system_code '2'
_symmetry_cell_setting 'orthorhombic'
loop_
_space_group_symop_operation_xyz
x,y,z
1/2-x,1/2-y,z
x,1/2-y,1/2-z
1/2-x,y,1/2-z
-x,-y,-z
1/2+x,1/2+y,-z
-x,1/2+y,1/2+z
1/2+x,-y,1/2+z
loop_
_atom_site_type_symbol
_atom_site_label
_atom_site_fract_x
_atom_site_fract_y
_atom_site_fract_z
Si Si1 0.250000 0.364988 0.250000
Si Si2 0.750000 0.750000 0.585804
Si Si3 0.597962 0.338668 0.931617
Si Si4 0.250000 0.533154 0.750000
Si Si5 0.250000 0.750000 0.250000
Si Si6 0.898333 0.938900 0.426421
O O1 0.351169 0.313701 0.339610
O O2 0.506051 0.413792 0.211318
O O3 0.518461 0.785946 0.515870
O O4 0.573817 0.299721 0.825518
O O5 0.413517 0.411292 0.939001
O O6 0.911857 0.367276 0.936881
O O7 0.407095 0.479524 0.676535
O O8 0.000000 0.000000 0.500000
#
# Coordination Sequence:
#
# PCOD9391859 Si02
#       6
#     4   4   8   4   2   8
#     4  11  26  45  74 105 144 187 238 294 356 423
#     4  11  26  47  72 106 144 189 238 295 356 424
#     4  12  26  45  71 103 142 187 236 293 352 420
#     4  12  24  45  70 103 142 188 236 294 352 420
#     4  12  28  48  72 106 144 190 240 296 356 424
#     4  12  25  44  71 103 141 185 235 291 352 420
#
# _framework density 25.008376999999999
#
# number of rings (size 3 to 8) (size 9 to 14) (size 15 to 20)
#    0.000    0.267    0.000    8.800    0.000   10.133 
#    0.000    0.000    0.000    0.000    0.000    0.000 
#    0.000    0.000    0.000    0.000    0.000    0.000 
#
# Total GULP energy -168132.496629 kJ/mol
# GULP energy per Si atom -5604.416554 kJ/mol
# Density = 2.495146 g / cm^3
# Si number density = 25.008377 Si / 1000 Ang^3
#
#
#
# Elastic Constant Matrix: (Units=GPa)
#
#
# Indices 1 2 3 4 5 6 
#
# 1 71.2686 16.5643 12.3478 0.0000 0.0000 0.0000
# 2 16.5643 129.8873 57.5493 0.0000 0.0000 0.0000
# 3 12.3478 57.5493 168.7159 0.0000 0.0000 0.0000
# 4 0.0000 0.0000 0.0000 39.7714 0.0000 0.0000
# 5 0.0000 0.0000 0.0000 0.0000 33.7882 0.0000
# 6 0.0000 0.0000 0.0000 0.0000 0.0000 53.3946
#
#
#
# Elastic Compliance Matrix: (Units=1/GPa)
#
#
# Indices 1 2 3 4 5 6 
#
# 1 0.014497 -0.001624 -0.000507 0.000000 0.000000 0.000000
# 2 -0.001624 0.009252 -0.003037 0.000000 0.000000 0.000000
# 3 -0.000507 -0.003037 0.007000 0.000000 0.000000 0.000000
# 4 0.000000 0.000000 0.000000 0.025144 0.000000 0.000000
# 5 0.000000 0.000000 0.000000 0.000000 0.029596 0.000000
# 6 0.000000 0.000000 0.000000 0.000000 0.000000 0.018728
#
#
# Mechanical properties :
#
#
# Convention : Reuss Voigt Hill
#
# Bulk Modulus (GPa) = 48.98951 60.31050 54.65000
# Shear Modulus (GPa) = 41.20076 44.28487 42.74282
#
# Velocity S-wave (km/s) = 4.06332 4.21265 4.13866
# Velocity P-wave (km/s) = 6.45336 6.91595 6.68866
#
# Compressibility (1/GPa) = 0.02041253
#
# Stress axis : x y z
#
# Youngs Moduli (GPa) = 68.98107 108.08871 142.85480
#
# Poissons Ratio (x) = 0.17555 0.07242
# Poissons Ratio (y) = 0.11203 0.43383
# Poissons Ratio (z) = 0.03497 0.32825
#
# Static dielectric constant tensor:
#      x y z
#    x 1.932110 0.000000 0.000000 
#    y 0.000000 1.940850 0.000000 
#    z 0.000000 0.000000 1.924180 
# 
# From -- ./inp_files/17410.got.cif
#   From: 2010.05.17/outbox.cif.g08.bks.cpg/sg48_9_cif.got.tgz:17410.got - 2010.06.03 20:39:00.
