data_PCOD9391092
_publ_section_title
;
Structure prediction by ZEFSAII (Michael W. Deem and Ramdas Pophale) SiO2 
 PCOD9391092
Probable space group: P N N N
;
_chemical_formula_sum "Si O2"
_cell_formula_units_Z 48
_cell_length_a 8.868828
_cell_length_b 15.697082
_cell_length_c 17.617368
_cell_angle_alpha 90.000000
_cell_angle_beta 90.000000
_cell_angle_gamma 90.000000
_cell_volume 2452.596960
_symmetry_space_group_name_H-M "P N N N"
_symmetry_group_IT_number 48
_space_group.IT_coordinate_system_code '2'
_symmetry_cell_setting 'orthorhombic'
loop_
_space_group_symop_operation_xyz
x,y,z
1/2-x,1/2-y,z
x,1/2-y,1/2-z
1/2-x,y,1/2-z
-x,-y,-z
1/2+x,1/2+y,-z
-x,1/2+y,1/2+z
1/2+x,-y,1/2+z
loop_
_atom_site_type_symbol
_atom_site_label
_atom_site_fract_x
_atom_site_fract_y
_atom_site_fract_z
Si Si1 0.431179 0.736573 0.986625
Si Si2 0.930665 0.440241 0.433831
Si Si3 0.078869 0.219407 0.856209
Si Si4 0.587271 0.965138 0.280413
Si Si5 0.372738 0.619493 0.317750
Si Si6 0.891154 0.080103 0.506821
O O1 0.250000 0.750000 0.987749
O O2 0.476056 0.659656 0.931979
O O3 0.494135 0.701242 0.065674
O O4 0.481562 0.834588 0.980875
O O5 0.960542 0.480667 0.352445
O O6 0.753027 0.436950 0.454288
O O7 0.000000 0.500000 0.500000
O O8 0.250000 0.250000 0.867890
O O9 0.092546 0.132512 0.810025
O O10 0.977079 0.296158 0.823520
O O11 0.750000 0.990851 0.250000
O O12 0.470559 0.960039 0.211750
O O13 0.250000 0.632720 0.250000
O O14 0.333805 0.599037 0.406006
O O15 0.000000 0.000000 0.500000
#
# Coordination Sequence:
#
# PCOD9391092 Si02
#       6
#     8   8   8   8   8   8
#     4   9  21  38  60  87 117 159 207 248 298 362
#     4  11  21  38  60  84 120 160 207 244 291 370
#     4  11  22  36  54  87 127 156 191 242 310 380
#     4  12  23  36  55  87 123 162 196 248 309 364
#     4  11  24  38  57  89 127 164 197 249 320 378
#     4  10  22  41  62  87 119 160 207 258 304 364
#
# _framework density 19.571092
#
# number of rings (size 3 to 8) (size 9 to 14) (size 15 to 20)
#    0.000    1.333    3.333    2.500    7.000    0.667 
#    3.000    0.000    0.000   11.500    0.000    1.167 
#    0.000    0.000    0.000    0.000    0.000    0.000 
#
# Total GULP energy -267612.175591 kJ/mol
# GULP energy per Si atom -5575.253658 kJ/mol
# Density = 1.952655 g / cm^3
# Si number density = 19.571092 Si / 1000 Ang^3
#
#
#
# Elastic Constant Matrix: (Units=GPa)
#
#
# Indices 1 2 3 4 5 6 
#
# 1 43.1470 10.1453 0.5292 0.0000 0.0000 0.0000
# 2 10.1453 111.0794 23.6190 0.0000 0.0000 0.0000
# 3 0.5292 23.6190 60.1086 0.0000 0.0000 0.0000
# 4 0.0000 0.0000 0.0000 36.5636 0.0000 0.0000
# 5 0.0000 0.0000 0.0000 0.0000 27.9305 0.0000
# 6 0.0000 0.0000 0.0000 0.0000 0.0000 17.9957
#
#
#
# Elastic Compliance Matrix: (Units=1/GPa)
#
#
# Indices 1 2 3 4 5 6 
#
# 1 0.023712 -0.002315 0.000701 0.000000 0.000000 0.000000
# 2 -0.002315 0.010049 -0.003928 0.000000 0.000000 0.000000
# 3 0.000701 -0.003928 0.018174 0.000000 0.000000 0.000000
# 4 0.000000 0.000000 0.000000 0.027350 0.000000 0.000000
# 5 0.000000 0.000000 0.000000 0.000000 0.035803 0.000000
# 6 0.000000 0.000000 0.000000 0.000000 0.000000 0.055569
#
#
# Mechanical properties :
#
#
# Convention : Reuss Voigt Hill
#
# Bulk Modulus (GPa) = 24.47926 31.43576 27.95751
# Shear Modulus (GPa) = 25.59392 28.50071 27.04731
#
# Velocity S-wave (km/s) = 3.62019 3.82024 3.72156
# Velocity P-wave (km/s) = 5.47809 5.96291 5.72563
#
# Compressibility (1/GPa) = 0.04085091
#
# Stress axis : x y z
#
# Youngs Moduli (GPa) = 42.17224 99.50960 55.02364
#
# Poissons Ratio (x) = 0.23034 -0.03856
# Poissons Ratio (y) = 0.09762 0.21615
# Poissons Ratio (z) = -0.02955 0.39091
#
# Static dielectric constant tensor:
#      x y z
#    x 1.827850 0.000000 0.000000 
#    y 0.000000 1.733560 0.000000 
#    z 0.000000 0.000000 1.715240 
# 
# From -- ./inp_files/12779.got.cif
#   From: 2010.05.17/outbox.cif.g08.bks.cpg/sg48_7_cif.got.tgz:12779.got - 2010.06.03 20:39:00.
