data_PCOD9391894
_publ_section_title
;
Structure prediction by ZEFSAII (Michael W. Deem and Ramdas Pophale) SiO2 
 PCOD9391894
Probable space group: P N N N
;
_chemical_formula_sum "Si O2"
_cell_formula_units_Z 48
_cell_length_a 19.352226
_cell_length_b 9.175762
_cell_length_c 11.860938
_cell_angle_alpha 90.000000
_cell_angle_beta 90.000000
_cell_angle_gamma 90.000000
_cell_volume 2106.163603
_symmetry_space_group_name_H-M "P N N N"
_symmetry_group_IT_number 48
_space_group.IT_coordinate_system_code '2'
_symmetry_cell_setting 'orthorhombic'
loop_
_space_group_symop_operation_xyz
x,y,z
1/2-x,1/2-y,z
x,1/2-y,1/2-z
1/2-x,y,1/2-z
-x,-y,-z
1/2+x,1/2+y,-z
-x,1/2+y,1/2+z
1/2+x,-y,1/2+z
loop_
_atom_site_type_symbol
_atom_site_label
_atom_site_fract_x
_atom_site_fract_y
_atom_site_fract_z
Si Si1 0.570643 0.665199 0.526645
Si Si2 0.060419 0.680254 0.639058
Si Si3 0.185940 0.815525 0.024686
Si Si4 0.362719 0.562665 0.317983
Si Si5 0.519966 0.596995 0.279232
Si Si6 0.689595 0.870412 0.609409
O O1 0.506416 0.723695 0.603151
O O2 0.615148 0.533302 0.575783
O O3 0.540232 0.598213 0.411179
O O4 0.624850 0.799398 0.541919
O O5 0.093905 0.750000 0.750000
O O6 0.113068 0.678979 0.536926
O O7 0.041153 0.522208 0.687275
O O8 0.250000 0.750000 0.956615
O O9 0.175260 0.706998 0.133243
O O10 0.209071 0.979813 0.048831
O O11 0.437341 0.601593 0.267276
O O12 0.330391 0.443793 0.230996
O O13 0.553466 0.750000 0.250000
O O14 0.750000 0.750000 0.613645
#
# Coordination Sequence:
#
# PCOD9391894 Si02
#       6
#     8   8   8   8   8   8
#     4  12  24  44  72 107 144 189 237 304 366 434
#     4  12  24  45  73 104 143 189 247 299 368 436
#     4  12  28  46  68 104 147 194 242 301 365 442
#     4  12  24  44  73 106 143 183 239 299 370 431
#     4  12  24  41  70 109 142 180 235 306 360 429
#     4  12  27  47  72 105 148 194 241 300 375 444
#
# _framework density 22.790254000000001
#
# number of rings (size 3 to 8) (size 9 to 14) (size 15 to 20)
#    0.000    0.000    5.000    5.500    0.000    7.000 
#    0.000    0.000    0.000    3.500    0.000    0.000 
#    0.000    0.000    0.000    0.000    0.000    0.000 
#
# Total GULP energy -267779.740134 kJ/mol
# GULP energy per Si atom -5578.744586 kJ/mol
# Density = 2.273838 g / cm^3
# Si number density = 22.790254 Si / 1000 Ang^3
#
#
#
# Elastic Constant Matrix: (Units=GPa)
#
#
# Indices 1 2 3 4 5 6 
#
# 1 115.0436 62.6514 47.7375 0.0000 0.0000 0.0000
# 2 62.6514 181.8015 44.8111 0.0000 0.0000 0.0000
# 3 47.7375 44.8111 83.2673 0.0000 0.0000 0.0000
# 4 0.0000 0.0000 0.0000 33.4473 0.0000 0.0000
# 5 0.0000 0.0000 0.0000 0.0000 19.8526 0.0000
# 6 0.0000 0.0000 0.0000 0.0000 0.0000 22.1393
#
#
#
# Elastic Compliance Matrix: (Units=1/GPa)
#
#
# Indices 1 2 3 4 5 6 
#
# 1 0.012656 -0.002967 -0.005659 0.000000 0.000000 0.000000
# 2 -0.002967 0.007037 -0.002086 0.000000 0.000000 0.000000
# 3 -0.005659 -0.002086 0.016377 0.000000 0.000000 0.000000
# 4 0.000000 0.000000 0.000000 0.029898 0.000000 0.000000
# 5 0.000000 0.000000 0.000000 0.000000 0.050371 0.000000
# 6 0.000000 0.000000 0.000000 0.000000 0.000000 0.045168
#
#
# Mechanical properties :
#
#
# Convention : Reuss Voigt Hill
#
# Bulk Modulus (GPa) = 68.27990 76.72362 72.50176
# Shear Modulus (GPa) = 26.62203 30.08200 28.35202
#
# Velocity S-wave (km/s) = 3.42150 3.63705 3.53092
# Velocity P-wave (km/s) = 6.75530 7.16769 6.96455
#
# Compressibility (1/GPa) = 0.01464560
#
# Stress axis : x y z
#
# Youngs Moduli (GPa) = 79.01195 142.10445 61.06173
#
# Poissons Ratio (x) = 0.42157 0.34557
# Poissons Ratio (y) = 0.23440 0.12739
# Poissons Ratio (z) = 0.44716 0.29647
#
# Static dielectric constant tensor:
#      x y z
#    x 1.852610 0.000000 0.000000 
#    y 0.000000 1.937560 0.000000 
#    z 0.000000 0.000000 1.946830 
# 
# From -- ./inp_files/27866.got.cif
#   From: 2010.05.17/outbox.cif.g08.bks.cpg/sg48_14_cif.got.tgz:27866.got - 2010.06.03 20:39:00.
