data_PCOD9391912
_publ_section_title
;
Structure prediction by ZEFSAII (Michael W. Deem and Ramdas Pophale) SiO2 
 PCOD9391912
Probable space group: P N N N
;
_chemical_formula_sum "Si O2"
_cell_formula_units_Z 36
_cell_length_a 10.273823
_cell_length_b 10.454277
_cell_length_c 12.027081
_cell_angle_alpha 90.000000
_cell_angle_beta 90.000000
_cell_angle_gamma 90.000000
_cell_volume 1291.773343
_symmetry_space_group_name_H-M "P N N N"
_symmetry_group_IT_number 48
_space_group.IT_coordinate_system_code '2'
_symmetry_cell_setting 'orthorhombic'
loop_
_space_group_symop_operation_xyz
x,y,z
1/2-x,1/2-y,z
x,1/2-y,1/2-z
1/2-x,y,1/2-z
-x,-y,-z
1/2+x,1/2+y,-z
-x,1/2+y,1/2+z
1/2+x,-y,1/2+z
loop_
_atom_site_type_symbol
_atom_site_label
_atom_site_fract_x
_atom_site_fract_y
_atom_site_fract_z
Si Si1 0.605931 0.097069 0.701533
Si Si2 0.398666 0.768917 0.005146
Si Si3 0.250000 0.250000 0.552778
Si Si4 0.647379 0.497421 0.338386
Si Si5 0.924191 0.671507 0.637276
O O1 0.750000 0.121039 0.750000
O O2 0.489448 0.042342 0.780467
O O3 0.634763 0.967474 0.631958
O O4 0.549649 0.288720 0.875325
O O5 0.250000 0.750000 0.032993
O O6 0.430281 0.668811 0.906177
O O7 0.397608 0.905648 0.940542
O O8 0.273198 0.377810 0.620798
O O9 0.130880 0.247801 0.465479
O O10 0.750000 0.438059 0.250000
O O11 0.905236 0.750000 0.750000
#
# Coordination Sequence:
#
# PCOD9391912 Si02
#       5
#     8   8   4   8   8
#     4  12  28  54  87 132 181 233 305 381 456 551
#     4  12  28  49  86 126 174 239 302 374 462 543
#     4  12  28  50  88 122 166 232 298 362 458 546
#     4  12  28  56  89 126 178 239 303 377 459 558
#     4  12  25  50  84 123 178 228 297 369 454 541
#
# _framework density 27.868666000000001
#
# number of rings (size 3 to 8) (size 9 to 14) (size 15 to 20)
#    0.000    0.000    2.222    6.667    3.111    1.333 
#    0.000    2.222    0.000    0.000    0.000    0.000 
#    0.000    0.000    0.000    0.000    0.000    0.000 
#
# Total GULP energy -201055.856780 kJ/mol
# GULP energy per Si atom -5584.884911 kJ/mol
# Density = 2.780524 g / cm^3
# Si number density = 27.868666 Si / 1000 Ang^3
#
#
#
# Elastic Constant Matrix: (Units=GPa)
#
#
# Indices 1 2 3 4 5 6 
#
# 1 69.7167 36.1300 83.2186 0.0000 0.0000 0.0000
# 2 36.1300 149.1109 73.8579 0.0000 0.0000 0.0000
# 3 83.2186 73.8579 180.6405 0.0000 0.0000 0.0000
# 4 0.0000 0.0000 0.0000 63.6883 0.0000 0.0000
# 5 0.0000 0.0000 0.0000 0.0000 82.1300 0.0000
# 6 0.0000 0.0000 0.0000 0.0000 0.0000 54.5921
#
#
#
# Elastic Compliance Matrix: (Units=1/GPa)
#
#
# Indices 1 2 3 4 5 6 
#
# 1 0.031906 -0.000565 -0.014468 0.000000 0.000000 0.000000
# 2 -0.000565 0.008420 -0.003182 0.000000 0.000000 0.000000
# 3 -0.014468 -0.003182 0.013502 0.000000 0.000000 0.000000
# 4 0.000000 0.000000 0.000000 0.015701 0.000000 0.000000
# 5 0.000000 0.000000 0.000000 0.000000 0.012176 0.000000
# 6 0.000000 0.000000 0.000000 0.000000 0.000000 0.018318
#
#
# Mechanical properties :
#
#
# Convention : Reuss Voigt Hill
#
# Bulk Modulus (GPa) = 57.47743 87.32013 72.39878
# Shear Modulus (GPa) = 35.14885 53.83286 44.49086
#
# Velocity S-wave (km/s) = 3.55524 4.39984 3.99989
# Velocity P-wave (km/s) = 6.12553 7.56387 6.88238
#
# Compressibility (1/GPa) = 0.01739813
#
# Stress axis : x y z
#
# Youngs Moduli (GPa) = 31.34176 118.77172 74.06228
#
# Poissons Ratio (x) = 0.06707 1.07153
# Poissons Ratio (y) = 0.01770 0.23569
# Poissons Ratio (z) = 0.45345 0.37797
#
# Static dielectric constant tensor:
#      x y z
#    x 0.664630 0.000000 0.000000 
#    y 0.000000 2.105640 0.000000 
#    z 0.000000 0.000000 2.213550 
# 
# From -- ./inp_files/19524.got.cif
#   From: 2010.05.17/outbox.cif.g08.bks.cpg/sg48_10_cif.got.tgz:19524.got - 2010.06.03 20:39:00.
