data_PCOD9391142
_publ_section_title
;
Structure prediction by ZEFSAII (Michael W. Deem and Ramdas Pophale) SiO2 
 PCOD9391142
Probable space group: P N N N
;
_chemical_formula_sum "Si O2"
_cell_formula_units_Z 34
_cell_length_a 11.972037
_cell_length_b 9.463788
_cell_length_c 13.344993
_cell_angle_alpha 90.000000
_cell_angle_beta 90.000000
_cell_angle_gamma 90.000000
_cell_volume 1511.998651
_symmetry_space_group_name_H-M "P N N N"
_symmetry_group_IT_number 48
_space_group.IT_coordinate_system_code '2'
_symmetry_cell_setting 'orthorhombic'
loop_
_space_group_symop_operation_xyz
x,y,z
1/2-x,1/2-y,z
x,1/2-y,1/2-z
1/2-x,y,1/2-z
-x,-y,-z
1/2+x,1/2+y,-z
-x,1/2+y,1/2+z
1/2+x,-y,1/2+z
loop_
_atom_site_type_symbol
_atom_site_label
_atom_site_fract_x
_atom_site_fract_y
_atom_site_fract_z
Si Si1 0.616957 0.013088 0.054155
Si Si2 0.833952 0.584062 0.562232
Si Si3 0.250000 0.250000 0.250000
Si Si4 0.427579 0.831133 0.522680
Si Si5 0.117666 0.593107 0.735999
O O1 0.590467 0.990211 0.172269
O O2 0.633797 0.183578 0.042603
O O3 0.500000 0.000000 0.000000
O O4 0.719121 0.928513 0.002873
O O5 0.813775 0.649008 0.671648
O O6 0.876618 0.422274 0.566525
O O7 0.937968 0.674345 0.517077
O O8 0.405458 0.931819 0.620160
O O9 0.065650 0.750000 0.750000
O O10 0.250000 0.604626 0.750000
#
# Coordination Sequence:
#
# PCOD9391142 Si02
#       5
#     8   8   2   8   8
#     4  11  22  38  66 102 138 178 219 276 344 421
#     4  11  24  41  66  97 134 177 231 283 340 417
#     4  12  28  44  66  94 134 184 224 286 352 416
#     4  10  22  42  68  97 134 178 227 283 339 415
#     4   9  17  34  64  93 123 166 219 262 325 404
#
# _framework density 22.486794
#
# number of rings (size 3 to 8) (size 9 to 14) (size 15 to 20)
#    0.000    1.647    2.353    2.118    8.235    0.000 
#    0.000    2.353    0.000    8.471    0.000    0.000 
#    0.000    0.000    0.000    0.000    0.000    0.000 
#
# Total GULP energy -189303.742081 kJ/mol
# GULP energy per Si atom -5567.757120 kJ/mol
# Density = 2.243561 g / cm^3
# Si number density = 22.486794 Si / 1000 Ang^3
#
#
#
# Elastic Constant Matrix: (Units=GPa)
#
#
# Indices 1 2 3 4 5 6 
#
# 1 137.5737 21.3636 49.4834 0.0000 0.0000 0.0000
# 2 21.3636 47.7773 36.7536 0.0000 0.0000 0.0000
# 3 49.4834 36.7536 122.9516 0.0000 0.0000 0.0000
# 4 0.0000 0.0000 0.0000 35.5511 0.0000 0.0000
# 5 0.0000 0.0000 0.0000 0.0000 31.2535 0.0000
# 6 0.0000 0.0000 0.0000 0.0000 0.0000 35.0529
#
#
#
# Elastic Compliance Matrix: (Units=1/GPa)
#
#
# Indices 1 2 3 4 5 6 
#
# 1 0.008585 -0.001533 -0.002997 0.000000 0.000000 0.000000
# 2 -0.001533 0.027455 -0.007590 0.000000 0.000000 0.000000
# 3 -0.002997 -0.007590 0.011608 0.000000 0.000000 0.000000
# 4 0.000000 0.000000 0.000000 0.028129 0.000000 0.000000
# 5 0.000000 0.000000 0.000000 0.000000 0.031996 0.000000
# 6 0.000000 0.000000 0.000000 0.000000 0.000000 0.028528
#
#
# Mechanical properties :
#
#
# Convention : Reuss Voigt Hill
#
# Bulk Modulus (GPa) = 42.72078 58.16709 50.44394
# Shear Modulus (GPa) = 29.70118 33.75162 31.72640
#
# Velocity S-wave (km/s) = 3.63826 3.87842 3.76026
# Velocity P-wave (km/s) = 6.05712 6.78082 6.42916
#
# Compressibility (1/GPa) = 0.02340781
#
# Stress axis : x y z
#
# Youngs Moduli (GPa) = 116.48460 36.42356 86.14642
#
# Poissons Ratio (x) = 0.05585 0.25815
# Poissons Ratio (y) = 0.17862 0.65384
# Poissons Ratio (z) = 0.34907 0.27645
#
# Static dielectric constant tensor:
#      x y z
#    x 1.913360 0.000000 0.000000 
#    y 0.000000 1.983520 0.000000 
#    z 0.000000 0.000000 1.957080 
# 
# From -- ./inp_files/19509.got.cif
#   From: 2010.05.17/outbox.cif.g08.bks.cpg/sg48_10_cif.got.tgz:19509.got - 2010.06.03 20:39:00.
