data_PCOD9391816
_publ_section_title
;
Structure prediction by ZEFSAII (Michael W. Deem and Ramdas Pophale) SiO2 
 PCOD9391816
Probable space group: P N N N
;
_chemical_formula_sum "Si O2"
_cell_formula_units_Z 40
_cell_length_a 8.676118
_cell_length_b 12.257918
_cell_length_c 15.735357
_cell_angle_alpha 90.000000
_cell_angle_beta 90.000000
_cell_angle_gamma 90.000000
_cell_volume 1673.473202
_symmetry_space_group_name_H-M "P N N N"
_symmetry_group_IT_number 48
_space_group.IT_coordinate_system_code '2'
_symmetry_cell_setting 'orthorhombic'
loop_
_space_group_symop_operation_xyz
x,y,z
1/2-x,1/2-y,z
x,1/2-y,1/2-z
1/2-x,y,1/2-z
-x,-y,-z
1/2+x,1/2+y,-z
-x,1/2+y,1/2+z
1/2+x,-y,1/2+z
loop_
_atom_site_type_symbol
_atom_site_label
_atom_site_fract_x
_atom_site_fract_y
_atom_site_fract_z
Si Si1 0.673522 0.411161 0.842354
Si Si2 0.398927 0.520797 0.647391
Si Si3 0.424020 0.213778 0.081448
Si Si4 0.974070 0.202185 0.606506
Si Si5 0.432972 0.913995 0.655860
O O1 0.750000 0.433721 0.750000
O O2 0.811319 0.363066 0.899028
O O3 0.556744 0.308659 0.837006
O O4 0.577171 0.513331 0.875656
O O5 0.530978 0.588390 0.598160
O O6 0.413996 0.391235 0.640696
O O7 0.230611 0.555767 0.615608
O O8 0.419046 0.555599 0.745159
O O9 0.250000 0.250000 0.098992
O O10 0.530674 0.288376 0.140886
O O11 0.467024 0.239695 0.984700
#
# Coordination Sequence:
#
# PCOD9391816 Si02
#       5
#     8   8   8   8   8
#     4  11  24  46  78 104 134 189 239 292 355 435
#     4  11  25  47  72 104 143 188 241 301 355 430
#     4  12  28  46  69 105 146 192 238 294 368 434
#     4  11  25  44  71 104 142 181 234 298 356 427
#     4  11  26  45  75 103 141 189 242 298 356 428
#
# _framework density 23.902384999999999
#
# number of rings (size 3 to 8) (size 9 to 14) (size 15 to 20)
#    0.000    0.800    2.000    4.200    8.400    3.200 
#    0.000    2.000    0.000    0.000    0.000    0.000 
#    0.000    0.000    0.000    0.000    0.000    0.000 
#
# Total GULP energy -223898.089328 kJ/mol
# GULP energy per Si atom -5597.452233 kJ/mol
# Density = 2.384798 g / cm^3
# Si number density = 23.902385 Si / 1000 Ang^3
#
#
#
# Elastic Constant Matrix: (Units=GPa)
#
#
# Indices 1 2 3 4 5 6 
#
# 1 103.0143 12.8807 -7.3143 0.0000 0.0000 0.0000
# 2 12.8807 103.5262 -7.6587 0.0000 0.0000 0.0000
# 3 -7.3143 -7.6587 45.2266 0.0000 0.0000 0.0000
# 4 0.0000 0.0000 0.0000 18.9341 0.0000 0.0000
# 5 0.0000 0.0000 0.0000 0.0000 22.3802 0.0000
# 6 0.0000 0.0000 0.0000 0.0000 0.0000 35.1827
#
#
#
# Elastic Compliance Matrix: (Units=1/GPa)
#
#
# Indices 1 2 3 4 5 6 
#
# 1 0.009950 -0.001133 0.001417 0.000000 0.000000 0.000000
# 2 -0.001133 0.009911 0.001495 0.000000 0.000000 0.000000
# 3 0.001417 0.001495 0.022593 0.000000 0.000000 0.000000
# 4 0.000000 0.000000 0.000000 0.052815 0.000000 0.000000
# 5 0.000000 0.000000 0.000000 0.000000 0.044682 0.000000
# 6 0.000000 0.000000 0.000000 0.000000 0.000000 0.028423
#
#
# Mechanical properties :
#
#
# Convention : Reuss Voigt Hill
#
# Bulk Modulus (GPa) = 21.73329 27.50918 24.62123
# Shear Modulus (GPa) = 27.75417 32.22336 29.98877
#
# Velocity S-wave (km/s) = 3.41126 3.67566 3.54593
# Velocity P-wave (km/s) = 4.96264 5.43580 5.20460
#
# Compressibility (1/GPa) = 0.04601236
#
# Stress axis : x y z
#
# Youngs Moduli (GPa) = 100.50559 100.89826 44.26100
#
# Poissons Ratio (x) = 0.11433 -0.06273
# Poissons Ratio (y) = 0.11388 -0.06617
# Poissons Ratio (z) = -0.14244 -0.15085
#
# Static dielectric constant tensor:
#      x y z
#    x 1.952280 0.000000 0.000000 
#    y 0.000000 1.890610 0.000000 
#    z 0.000000 0.000000 1.906460 
# 
# From -- ./inp_files/30008.got.cif
#   From: 2010.05.17/outbox.cif.g08.bks.cpg/sg48_16_cif.got.tgz:30008.got - 2010.06.03 20:39:00.
