data_PCOD9391777
_publ_section_title
;
Structure prediction by ZEFSAII (Michael W. Deem and Ramdas Pophale) SiO2 
 PCOD9391777
Probable space group: P N N N
;
_chemical_formula_sum "Si O2"
_cell_formula_units_Z 64
_cell_length_a 23.317588
_cell_length_b 14.450290
_cell_length_c 9.392832
_cell_angle_alpha 90.000000
_cell_angle_beta 90.000000
_cell_angle_gamma 90.000000
_cell_volume 3164.876314
_symmetry_space_group_name_H-M "P N N N"
_symmetry_group_IT_number 48
_space_group.IT_coordinate_system_code '2'
_symmetry_cell_setting 'orthorhombic'
loop_
_space_group_symop_operation_xyz
x,y,z
1/2-x,1/2-y,z
x,1/2-y,1/2-z
1/2-x,y,1/2-z
-x,-y,-z
1/2+x,1/2+y,-z
-x,1/2+y,1/2+z
1/2+x,-y,1/2+z
loop_
_atom_site_type_symbol
_atom_site_label
_atom_site_fract_x
_atom_site_fract_y
_atom_site_fract_z
Si Si1 0.393242 0.572057 0.222612
Si Si2 0.844045 0.040883 0.263274
Si Si3 0.676227 0.328938 0.998169
Si Si4 0.300248 0.616209 0.458280
Si Si5 0.955974 0.344516 0.203529
Si Si6 0.542362 0.920806 0.563955
Si Si7 0.500616 0.599848 0.421678
Si Si8 0.896553 0.647213 0.285224
O O1 0.377664 0.642139 0.096500
O O2 0.341549 0.577701 0.335783
O O3 0.406823 0.474491 0.147488
O O4 0.450447 0.599408 0.305800
O O5 0.806591 0.051444 0.404268
O O6 0.908517 0.075770 0.300078
O O7 0.850287 0.935643 0.212379
O O8 0.824476 0.113492 0.143563
O O9 0.678539 0.218591 0.007433
O O10 0.734239 0.364806 0.920495
O O11 0.926382 0.250000 0.250000
O O12 0.004446 0.368346 0.318995
O O13 0.984175 0.332709 0.049816
O O14 0.568424 0.862338 0.433854
O O15 0.500000 0.000000 0.500000
O O16 0.500000 0.500000 0.500000
O O17 0.558796 0.623883 0.341957
O O18 0.874881 0.750000 0.250000
#
# Coordination Sequence:
#
# PCOD9391777 Si02
#       8
#     8   8   8   8   8   8   8   8
#     4  12  21  37  62  87 129 169 201 247 302 363
#     4  12  22  40  64  88 123 162 208 257 310 368
#     4  11  24  41  62  91 128 159 205 253 311 376
#     4  11  24  41  62  93 124 164 202 253 311 379
#     4  12  23  37  60  90 125 162 206 248 300 369
#     4  12  21  41  59  87 128 166 203 248 297 365
#     4  12  21  40  59  87 128 166 203 249 295 364
#     4  12  25  41  62  90 124 164 209 254 308 366
#
# _framework density 20.221958999999998
#
# number of rings (size 3 to 8) (size 9 to 14) (size 15 to 20)
#    0.000    0.250    7.500    3.000    0.000    3.000 
#    2.250    0.000    0.000    1.500    0.000    0.000 
#    3.750    0.000    0.000    0.000    0.000    0.000 
#
# Total GULP energy -357838.113544 kJ/mol
# GULP energy per Si atom -5591.220524 kJ/mol
# Density = 2.017593 g / cm^3
# Si number density = 20.221959 Si / 1000 Ang^3
#
#
#
# Elastic Constant Matrix: (Units=GPa)
#
#
# Indices 1 2 3 4 5 6 
#
# 1 42.4669 20.8024 1.2372 0.0000 0.0000 0.0000
# 2 20.8024 91.5012 18.5022 0.0000 0.0000 0.0000
# 3 1.2372 18.5022 81.0528 0.0000 0.0000 0.0000
# 4 0.0000 0.0000 0.0000 29.6957 0.0000 0.0000
# 5 0.0000 0.0000 0.0000 0.0000 31.4348 0.0000
# 6 0.0000 0.0000 0.0000 0.0000 0.0000 23.9538
#
#
#
# Elastic Compliance Matrix: (Units=1/GPa)
#
#
# Indices 1 2 3 4 5 6 
#
# 1 0.026579 -0.006249 0.001021 0.000000 0.000000 0.000000
# 2 -0.006249 0.012927 -0.002855 0.000000 0.000000 0.000000
# 3 0.001021 -0.002855 0.012974 0.000000 0.000000 0.000000
# 4 0.000000 0.000000 0.000000 0.033675 0.000000 0.000000
# 5 0.000000 0.000000 0.000000 0.000000 0.031812 0.000000
# 6 0.000000 0.000000 0.000000 0.000000 0.000000 0.041747
#
#
# Mechanical properties :
#
#
# Convention : Reuss Voigt Hill
#
# Bulk Modulus (GPa) = 27.53878 32.90048 30.21963
# Shear Modulus (GPa) = 26.59781 28.64880 27.62331
#
# Velocity S-wave (km/s) = 3.63063 3.76801 3.69996
# Velocity P-wave (km/s) = 5.58777 5.93596 5.76449
#
# Compressibility (1/GPa) = 0.03631243
#
# Stress axis : x y z
#
# Youngs Moduli (GPa) = 37.62349 77.35796 77.07792
#
# Poissons Ratio (x) = 0.48341 -0.07868
# Poissons Ratio (y) = 0.23511 0.22009
# Poissons Ratio (z) = -0.03841 0.22089
#
# Static dielectric constant tensor:
#      x y z
#    x 1.896810 0.000000 0.000000 
#    y 0.000000 1.724900 0.000000 
#    z 0.000000 0.000000 1.753750 
# 
# From -- ./inp_files/16047.got.cif
#   From: 2010.05.17/outbox.cif.g08.bks.cpg/sg48_9_cif.got.tgz:16047.got - 2010.06.03 20:39:00.
