data_PCOD9391010
_publ_section_title
;
Structure prediction by ZEFSAII (Michael W. Deem and Ramdas Pophale) SiO2 
 PCOD9391010
Probable space group: P N N N
;
_chemical_formula_sum "Si O2"
_cell_formula_units_Z 64
_cell_length_a 12.711628
_cell_length_b 8.783583
_cell_length_c 24.325924
_cell_angle_alpha 90.000000
_cell_angle_beta 90.000000
_cell_angle_gamma 90.000000
_cell_volume 2716.077951
_symmetry_space_group_name_H-M "P N N N"
_symmetry_group_IT_number 48
_space_group.IT_coordinate_system_code '2'
_symmetry_cell_setting 'orthorhombic'
loop_
_space_group_symop_operation_xyz
x,y,z
1/2-x,1/2-y,z
x,1/2-y,1/2-z
1/2-x,y,1/2-z
-x,-y,-z
1/2+x,1/2+y,-z
-x,1/2+y,1/2+z
1/2+x,-y,1/2+z
loop_
_atom_site_type_symbol
_atom_site_label
_atom_site_fract_x
_atom_site_fract_y
_atom_site_fract_z
Si Si1 0.517371 0.422590 0.369226
Si Si2 0.086855 0.159197 0.482657
Si Si3 0.825287 0.128071 0.650039
Si Si4 0.195952 0.084194 0.195649
Si Si5 0.244250 0.934090 0.876460
Si Si6 0.200940 0.468297 0.502688
Si Si7 0.056579 0.673782 0.435476
Si Si8 0.022835 0.565286 0.656194
O O1 0.487030 0.394490 0.433344
O O2 0.432562 0.530777 0.338426
O O3 0.636873 0.478825 0.361373
O O4 0.512130 0.247350 0.350310
O O5 0.148834 0.319078 0.475069
O O6 0.177027 0.032533 0.486820
O O7 0.026195 0.209600 0.537809
O O8 0.750000 0.250000 0.682106
O O9 0.865400 0.229522 0.600986
O O10 0.741758 0.993892 0.641109
O O11 0.250000 0.250000 0.193045
O O12 0.250000 0.017827 0.250000
O O13 0.073255 0.045144 0.198615
O O14 0.250000 0.750000 0.887597
O O15 0.147215 0.960915 0.834381
O O16 0.210466 0.023525 0.931415
O O17 0.123554 0.600942 0.484396
O O18 0.007766 0.541510 0.396255
#
# Coordination Sequence:
#
# PCOD9391010 Si02
#       8
#     8   8   8   8   8   8   8   8
#     4  11  23  40  59  92 135 180 236 279 326 386
#     4  11  23  35  58  83 130 186 241 290 314 374
#     4  12  25  39  64  99 134 165 213 279 342 408
#     4  11  25  48  77 103 128 159 206 274 359 434
#     4  10  22  38  59  86 127 179 230 281 317 390
#     4  11  22  36  53  84 127 182 242 288 323 369
#     4  12  22  38  60  92 126 178 228 274 338 386
#     4  11  21  42  67  90 127 169 217 269 346 415
#
# _framework density 23.563388
#
# number of rings (size 3 to 8) (size 9 to 14) (size 15 to 20)
#    0.000    0.875    5.000    3.375    0.000    4.750 
#    0.000    0.000    0.000    0.750    0.000    0.000 
#    3.750    0.000    0.000    0.000    0.000    0.000 
#
# Total GULP energy -356440.261229 kJ/mol
# GULP energy per Si atom -5569.379082 kJ/mol
# Density = 2.350976 g / cm^3
# Si number density = 23.563388 Si / 1000 Ang^3
#
#
#
# Elastic Constant Matrix: (Units=GPa)
#
#
# Indices 1 2 3 4 5 6 
#
# 1 205.9367 56.5150 50.5409 0.0000 0.0000 0.0000
# 2 56.5150 81.9240 18.1852 0.0000 0.0000 0.0000
# 3 50.5409 18.1852 41.5576 0.0000 0.0000 0.0000
# 4 0.0000 0.0000 0.0000 13.1652 0.0000 0.0000
# 5 0.0000 0.0000 0.0000 0.0000 25.9417 0.0000
# 6 0.0000 0.0000 0.0000 0.0000 0.0000 29.5161
#
#
#
# Elastic Compliance Matrix: (Units=1/GPa)
#
#
# Indices 1 2 3 4 5 6 
#
# 1 0.007784 -0.003620 -0.007882 0.000000 0.000000 0.000000
# 2 -0.003620 0.015203 -0.002250 0.000000 0.000000 0.000000
# 3 -0.007882 -0.002250 0.034634 0.000000 0.000000 0.000000
# 4 0.000000 0.000000 0.000000 0.075958 0.000000 0.000000
# 5 0.000000 0.000000 0.000000 0.000000 0.038548 0.000000
# 6 0.000000 0.000000 0.000000 0.000000 0.000000 0.033880
#
#
# Mechanical properties :
#
#
# Convention : Reuss Voigt Hill
#
# Bulk Modulus (GPa) = 33.20526 64.43339 48.81933
# Shear Modulus (GPa) = 20.52964 27.33641 23.93303
#
# Velocity S-wave (km/s) = 2.95490 3.40975 3.19044
# Velocity P-wave (km/s) = 5.07586 6.55026 5.85962
#
# Compressibility (1/GPa) = 0.03011571
#
# Stress axis : x y z
#
# Youngs Moduli (GPa) = 128.47311 65.77596 28.87343
#
# Poissons Ratio (x) = 0.23810 0.22759
# Poissons Ratio (y) = 0.46506 0.06498
# Poissons Ratio (z) = 1.01266 0.14802
#
# Static dielectric constant tensor:
#      x y z
#    x 2.028170 0.000000 0.000000 
#    y 0.000000 1.970510 0.000000 
#    z 0.000000 0.000000 2.009400 
# 
# From -- ./inp_files/38981.got.cif
#   From: 2010.05.17/outbox.cif.g08.bks.cpg/sg48_20_cif.got.tgz:38981.got - 2010.06.03 20:39:00.
