data_PCOD9391068
_publ_section_title
;
Structure prediction by ZEFSAII (Michael W. Deem and Ramdas Pophale) SiO2 
 PCOD9391068
Probable space group: P N N N
;
_chemical_formula_sum "Si O2"
_cell_formula_units_Z 44
_cell_length_a 15.427382
_cell_length_b 7.867401
_cell_length_c 15.639740
_cell_angle_alpha 90.000000
_cell_angle_beta 90.000000
_cell_angle_gamma 90.000000
_cell_volume 1898.248428
_symmetry_space_group_name_H-M "P N N N"
_symmetry_group_IT_number 48
_space_group.IT_coordinate_system_code '2'
_symmetry_cell_setting 'orthorhombic'
loop_
_space_group_symop_operation_xyz
x,y,z
1/2-x,1/2-y,z
x,1/2-y,1/2-z
1/2-x,y,1/2-z
-x,-y,-z
1/2+x,1/2+y,-z
-x,1/2+y,1/2+z
1/2+x,-y,1/2+z
loop_
_atom_site_type_symbol
_atom_site_label
_atom_site_fract_x
_atom_site_fract_y
_atom_site_fract_z
Si Si1 0.105209 0.633429 0.569378
Si Si2 0.693813 0.962485 0.668169
Si Si3 0.649282 0.074065 0.946448
Si Si4 0.095823 0.212796 0.026261
Si Si5 0.464279 0.580038 0.279052
Si Si6 0.420260 0.750000 0.750000
O O1 0.150576 0.765040 0.506796
O O2 0.118737 0.438193 0.540103
O O3 0.003121 0.677177 0.553293
O O4 0.128182 0.680905 0.666257
O O5 0.750000 0.918595 0.750000
O O6 0.650853 0.814355 0.613177
O O7 0.760999 0.050557 0.604197
O O8 0.613528 0.065656 0.708824
O O9 0.576606 0.095351 0.872780
O O10 0.620386 0.904305 0.998547
O O11 0.513797 0.750000 0.250000
O O12 0.519429 0.409506 0.275560
#
# Coordination Sequence:
#
# PCOD9391068 Si02
#       6
#     8   8   8   8   8   4
#     4  11  25  40  62  89 131 176 220 265 324 398
#     4  10  22  40  65 103 137 167 210 273 349 410
#     4  11  23  38  63  92 134 172 213 264 335 405
#     4  11  22  40  62  92 131 173 214 265 327 405
#     4  11  22  36  61  96 132 171 207 270 336 407
#     4  12  24  42  61  89 128 174 226 270 328 394
#
# _framework density 23.179265000000001
#
# number of rings (size 3 to 8) (size 9 to 14) (size 15 to 20)
#    0.000    1.091    3.636    2.182    2.545   12.727 
#    0.000    0.000    0.000    2.182    0.000    2.545 
#    0.000    0.000    0.000    0.000    0.000    0.000 
#
# Total GULP energy -246255.369323 kJ/mol
# GULP energy per Si atom -5596.712939 kJ/mol
# Density = 2.312651 g / cm^3
# Si number density = 23.179265 Si / 1000 Ang^3
#
#
#
# Elastic Constant Matrix: (Units=GPa)
#
#
# Indices 1 2 3 4 5 6 
#
# 1 46.1448 10.0662 25.8173 0.0000 0.0000 0.0000
# 2 10.0662 166.0976 55.9315 0.0000 0.0000 0.0000
# 3 25.8173 55.9315 132.3802 0.0000 0.0000 0.0000
# 4 0.0000 0.0000 0.0000 16.0280 0.0000 0.0000
# 5 0.0000 0.0000 0.0000 0.0000 31.1499 0.0000
# 6 0.0000 0.0000 0.0000 0.0000 0.0000 16.1193
#
#
#
# Elastic Compliance Matrix: (Units=1/GPa)
#
#
# Indices 1 2 3 4 5 6 
#
# 1 0.024328 0.000144 -0.004805 0.000000 0.000000 0.000000
# 2 0.000144 0.007020 -0.002994 0.000000 0.000000 0.000000
# 3 -0.004805 -0.002994 0.009756 0.000000 0.000000 0.000000
# 4 0.000000 0.000000 0.000000 0.062391 0.000000 0.000000
# 5 0.000000 0.000000 0.000000 0.000000 0.032103 0.000000
# 6 0.000000 0.000000 0.000000 0.000000 0.000000 0.062037
#
#
# Mechanical properties :
#
#
# Convention : Reuss Voigt Hill
#
# Bulk Modulus (GPa) = 38.77010 58.69473 48.73241
# Shear Modulus (GPa) = 22.56888 29.51328 26.04108
#
# Velocity S-wave (km/s) = 3.12375 3.57215 3.35545
# Velocity P-wave (km/s) = 5.45646 6.51082 6.00681
#
# Compressibility (1/GPa) = 0.02579307
#
# Stress axis : x y z
#
# Youngs Moduli (GPa) = 41.10483 142.44885 102.49938
#
# Poissons Ratio (x) = -0.02048 0.49254
# Poissons Ratio (y) = -0.00591 0.30689
# Poissons Ratio (z) = 0.19752 0.42650
#
# Static dielectric constant tensor:
#      x y z
#    x 1.932640 0.000000 0.000000 
#    y 0.000000 1.926970 0.000000 
#    z 0.000000 0.000000 1.903080 
# 
# From -- ./inp_files/27814.got.cif
#   From: 2010.05.17/outbox.cif.g08.bks.cpg/sg48_14_cif.got.tgz:27814.got - 2010.06.03 20:39:00.
