data_PCOD9391434
_publ_section_title
;
Structure prediction by ZEFSAII (Michael W. Deem and Ramdas Pophale) SiO2 
 PCOD9391434
Probable space group: P N N N
;
_chemical_formula_sum "Si O2"
_cell_formula_units_Z 40
_cell_length_a 27.554258
_cell_length_b 6.063720
_cell_length_c 10.833793
_cell_angle_alpha 90.000000
_cell_angle_beta 90.000000
_cell_angle_gamma 90.000000
_cell_volume 1810.124276
_symmetry_space_group_name_H-M "P N N N"
_symmetry_group_IT_number 48
_space_group.IT_coordinate_system_code '2'
_symmetry_cell_setting 'orthorhombic'
loop_
_space_group_symop_operation_xyz
x,y,z
1/2-x,1/2-y,z
x,1/2-y,1/2-z
1/2-x,y,1/2-z
-x,-y,-z
1/2+x,1/2+y,-z
-x,1/2+y,1/2+z
1/2+x,-y,1/2+z
loop_
_atom_site_type_symbol
_atom_site_label
_atom_site_fract_x
_atom_site_fract_y
_atom_site_fract_z
Si Si1 0.750000 0.250000 0.250000
Si Si2 0.326110 0.429600 0.140227
Si Si3 0.981111 0.303689 0.918291
Si Si4 0.596703 0.250000 0.750000
Si Si5 0.940936 0.438730 0.352083
Si Si6 0.750000 0.250000 0.750000
Si Si7 0.328533 0.074143 0.642526
O O1 0.786966 0.391715 0.334738
O O2 0.326538 0.250000 0.250000
O O3 0.370557 0.595139 0.166332
O O4 0.280641 0.588033 0.163918
O O5 0.326260 0.343257 0.999835
O O6 0.941429 0.398530 0.824313
O O7 0.950252 0.158110 0.013006
O O8 0.023621 0.152228 0.860356
O O9 0.000000 0.500000 0.000000
O O10 0.953878 0.250000 0.250000
O O11 0.884148 0.494424 0.336415
O O12 0.319015 0.250000 0.750000
#
# Coordination Sequence:
#
# PCOD9391434 Si02
#       7
#     2   8   8   4   8   2   8
#     4  12  28  52  80 104 150 184 266 322 386 448
#     4  11  26  46  76 105 146 188 241 309 373 459
#     4  11  25  42  72 105 148 197 245 306 367 449
#     4  11  24  43  68 106 144 193 240 299 366 434
#     4  11  25  45  69 106 150 194 248 305 375 451
#     4  10  24  48  76 104 138 180 242 304 390 432
#     4  12  28  48  75 111 145 198 247 311 384 458
#
# _framework density 22.097930000000002
#
# number of rings (size 3 to 8) (size 9 to 14) (size 15 to 20)
#    0.000    0.800    3.000    2.400    7.000    7.200 
#    0.000    0.000    0.000    0.000    0.000    0.000 
#    0.000    0.000    0.000    0.000    0.000    0.000 
#
# Total GULP energy -223288.566386 kJ/mol
# GULP energy per Si atom -5582.214160 kJ/mol
# Density = 2.204763 g / cm^3
# Si number density = 22.097930 Si / 1000 Ang^3
#
#
#
# Elastic Constant Matrix: (Units=GPa)
#
#
# Indices 1 2 3 4 5 6 
#
# 1 160.7119 60.4997 57.2272 0.0000 0.0000 0.0000
# 2 60.4997 97.0968 55.2808 0.0000 0.0000 0.0000
# 3 57.2272 55.2808 163.9643 0.0000 0.0000 0.0000
# 4 0.0000 0.0000 0.0000 41.9233 0.0000 0.0000
# 5 0.0000 0.0000 0.0000 0.0000 18.0492 0.0000
# 6 0.0000 0.0000 0.0000 0.0000 0.0000 -39.5096
#
#
#
# Elastic Compliance Matrix: (Units=1/GPa)
#
#
# Indices 1 2 3 4 5 6 
#
# 1 0.008396 -0.004410 -0.001444 0.000000 0.000000 0.000000
# 2 -0.004410 0.015061 -0.003539 0.000000 0.000000 0.000000
# 3 -0.001444 -0.003539 0.007796 0.000000 0.000000 0.000000
# 4 0.000000 0.000000 0.000000 0.023853 0.000000 0.000000
# 5 0.000000 0.000000 0.000000 0.000000 0.055404 0.000000
# 6 0.000000 0.000000 0.000000 0.000000 0.000000 -0.025310
#
#
# Mechanical properties :
#
#
# Convention : Reuss Voigt Hill
#
# Bulk Modulus (GPa) = 80.19873 85.30984 82.75428
# Shear Modulus (GPa) = 46.23557 20.67695 33.45626
#
# Velocity S-wave (km/s) = 4.57913 3.06223 3.89524
# Velocity P-wave (km/s) = 8.02055 7.15487 7.60004
#
# Compressibility (1/GPa) = 0.01246903
#
# Stress axis : x y z
#
# Youngs Moduli (GPa) = 119.09782 66.39460 128.27159
#
# Poissons Ratio (x) = 0.29278 0.18520
# Poissons Ratio (y) = 0.52519 0.45394
# Poissons Ratio (z) = 0.17195 0.23496
#
# Static dielectric constant tensor:
#      x y z
#    x 1.804970 0.000000 0.000000 
#    y 0.000000 1.837090 0.000000 
#    z 0.000000 0.000000 1.872310 
# 
# From -- ./inp_files/23558.got.cif
#   From: 2010.05.17/outbox.cif.g08.bks.cpg/sg48_12_cif.got.tgz:23558.got - 2010.06.03 20:39:00.
