data_PCOD9391879
_publ_section_title
;
Structure prediction by ZEFSAII (Michael W. Deem and Ramdas Pophale) SiO2 
 PCOD9391879
Probable space group: P N N N
;
_chemical_formula_sum "Si O2"
_cell_formula_units_Z 32
_cell_length_a 11.465473
_cell_length_b 23.487620
_cell_length_c 4.774744
_cell_angle_alpha 90.000000
_cell_angle_beta 90.000000
_cell_angle_gamma 90.000000
_cell_volume 1285.822673
_symmetry_space_group_name_H-M "P N N N"
_symmetry_group_IT_number 48
_space_group.IT_coordinate_system_code '2'
_symmetry_cell_setting 'orthorhombic'
loop_
_space_group_symop_operation_xyz
x,y,z
1/2-x,1/2-y,z
x,1/2-y,1/2-z
1/2-x,y,1/2-z
-x,-y,-z
1/2+x,1/2+y,-z
-x,1/2+y,1/2+z
1/2+x,-y,1/2+z
loop_
_atom_site_type_symbol
_atom_site_label
_atom_site_fract_x
_atom_site_fract_y
_atom_site_fract_z
Si Si1 0.941236 0.038860 0.745552
Si Si2 0.750000 0.949435 0.750000
Si Si3 0.250000 0.367766 0.750000
Si Si4 0.609150 0.384348 0.249294
Si Si5 0.547389 0.710843 0.994740
O O1 0.914714 0.094717 0.561637
O O2 0.844332 0.994329 0.856378
O O3 0.958581 0.071616 0.040896
O O4 0.000000 0.000000 0.500000
O O5 0.792373 0.909284 0.499013
O O6 0.353080 0.329869 0.876158
O O7 0.750000 0.385915 0.250000
O O8 0.554215 0.324738 0.156805
O O9 0.504804 0.750000 0.250000
O O10 0.600867 0.750000 0.750000
#
# Coordination Sequence:
#
# PCOD9391879 Si02
#       5
#     8   4   4   8   8
#     4  12  23  41  68 103 147 191 239 294 368 462
#     4  12  22  40  67 106 141 188 232 284 394 446
#     4  12  25  44  70 106 144 186 251 316 374 468
#     4  12  24  46  69 105 147 192 248 311 370 455
#     4  12  27  48  73 103 143 199 260 320 390 436
#
# _framework density 24.886789
#
# number of rings (size 3 to 8) (size 9 to 14) (size 15 to 20)
#    0.000    0.000    2.500    8.625    0.000    1.500 
#    0.000    1.250    0.000    0.000    0.000    0.000 
#    0.000    0.000    0.000    0.000    0.000    0.000 
#
# Total GULP energy -178573.330492 kJ/mol
# GULP energy per Si atom -5580.416578 kJ/mol
# Density = 2.483015 g / cm^3
# Si number density = 24.886789 Si / 1000 Ang^3
#
#
#
# Elastic Constant Matrix: (Units=GPa)
#
#
# Indices 1 2 3 4 5 6 
#
# 1 66.1515 33.1159 5.8906 0.0000 0.0000 0.0000
# 2 33.1159 128.2434 54.9727 0.0000 0.0000 0.0000
# 3 5.8906 54.9727 171.9327 0.0000 0.0000 0.0000
# 4 0.0000 0.0000 0.0000 -16.2678 0.0000 0.0000
# 5 0.0000 0.0000 0.0000 0.0000 24.5807 0.0000
# 6 0.0000 0.0000 0.0000 0.0000 0.0000 15.3973
#
#
#
# Elastic Compliance Matrix: (Units=1/GPa)
#
#
# Indices 1 2 3 4 5 6 
#
# 1 0.017502 -0.004940 0.000980 0.000000 0.000000 0.000000
# 2 -0.004940 0.010430 -0.003166 0.000000 0.000000 0.000000
# 3 0.000980 -0.003166 0.006795 0.000000 0.000000 0.000000
# 4 0.000000 0.000000 0.000000 -0.061471 0.000000 0.000000
# 5 0.000000 0.000000 0.000000 0.000000 0.040682 0.000000
# 6 0.000000 0.000000 0.000000 0.000000 0.000000 0.064946
#
#
# Mechanical properties :
#
#
# Convention : Reuss Voigt Hill
#
# Bulk Modulus (GPa) = 48.83680 61.58734 55.21207
# Shear Modulus (GPa) = 50.01931 22.89860 36.45895
#
# Velocity S-wave (km/s) = 4.48803 3.03662 3.83167
# Velocity P-wave (km/s) = 6.82075 6.09061 6.46599
#
# Compressibility (1/GPa) = 0.02047636
#
# Stress axis : x y z
#
# Youngs Moduli (GPa) = 57.13524 95.87569 147.17076
#
# Poissons Ratio (x) = 0.47358 -0.14418
# Poissons Ratio (y) = 0.28222 0.46589
# Poissons Ratio (z) = -0.05597 0.30351
#
# Static dielectric constant tensor:
#      x y z
#    x 2.042560 0.000000 0.000000 
#    y 0.000000 1.964900 0.000000 
#    z 0.000000 0.000000 1.914830 
# 
# From -- ./inp_files/3005.got.cif
#   From: 2010.05.17/outbox.cif.g08.bks.cpg/sg48_2_cif.got.tgz:3005.got - 2010.06.03 20:39:00.
