data_PCOD9391847
_publ_section_title
;
Structure prediction by ZEFSAII (Michael W. Deem and Ramdas Pophale) SiO2 
 PCOD9391847
Probable space group: P N N N
;
_chemical_formula_sum "Si O2"
_cell_formula_units_Z 34
_cell_length_a 7.320575
_cell_length_b 9.842457
_cell_length_c 20.742991
_cell_angle_alpha 90.000000
_cell_angle_beta 90.000000
_cell_angle_gamma 90.000000
_cell_volume 1494.583211
_symmetry_space_group_name_H-M "P N N N"
_symmetry_group_IT_number 48
_space_group.IT_coordinate_system_code '2'
_symmetry_cell_setting 'orthorhombic'
loop_
_space_group_symop_operation_xyz
x,y,z
1/2-x,1/2-y,z
x,1/2-y,1/2-z
1/2-x,y,1/2-z
-x,-y,-z
1/2+x,1/2+y,-z
-x,1/2+y,1/2+z
1/2+x,-y,1/2+z
loop_
_atom_site_type_symbol
_atom_site_label
_atom_site_fract_x
_atom_site_fract_y
_atom_site_fract_z
Si Si1 0.750000 0.250000 0.250000
Si Si2 0.750000 0.750000 0.941046
Si Si3 0.057251 0.906194 0.637678
Si Si4 0.536965 0.713753 0.323811
Si Si5 0.214249 0.516615 0.515828
Si Si6 0.250000 0.750000 0.420337
O O1 0.867631 0.157546 0.297191
O O2 0.584526 0.797093 0.893210
O O3 0.777161 0.628396 0.991977
O O4 0.218931 0.937331 0.585875
O O5 0.991004 0.057247 0.658238
O O6 0.750000 0.750000 0.332537
O O7 0.491324 0.750000 0.250000
O O8 0.414654 0.795532 0.374396
O O9 0.297065 0.627281 0.467352
O O10 0.000000 0.500000 0.500000
#
# Coordination Sequence:
#
# PCOD9391847 Si02
#       6
#     2   4   8   8   8   4
#     4  12  26  50  74 102 156 198 246 318 376 464
#     4  12  26  47  76 109 154 190 246 326 384 458
#     4  12  27  49  71 112 150 199 256 308 399 461
#     4  11  25  46  74 106 148 199 257 315 375 459
#     4  12  26  45  76 108 146 195 252 320 379 454
#     4  12  24  46  72 108 146 192 256 308 374 456
#
# _framework density 22.748818
#
# number of rings (size 3 to 8) (size 9 to 14) (size 15 to 20)
#    0.000    0.235    2.353    7.412    4.941    2.353 
#    4.235    0.000    0.000    0.000    0.000    0.000 
#    0.000    0.000    0.000    0.000    0.000    0.000 
#
# Total GULP energy -189864.771384 kJ/mol
# GULP energy per Si atom -5584.257982 kJ/mol
# Density = 2.269704 g / cm^3
# Si number density = 22.748818 Si / 1000 Ang^3
#
#
#
# Elastic Constant Matrix: (Units=GPa)
#
#
# Indices 1 2 3 4 5 6 
#
# 1 104.2736 19.0085 63.9078 0.0000 0.0000 0.0000
# 2 19.0085 117.8022 52.3121 0.0000 0.0000 0.0000
# 3 63.9078 52.3121 190.0765 0.0000 0.0000 0.0000
# 4 0.0000 0.0000 0.0000 48.6535 0.0000 0.0000
# 5 0.0000 0.0000 0.0000 0.0000 53.4681 0.0000
# 6 0.0000 0.0000 0.0000 0.0000 0.0000 48.0049
#
#
#
# Elastic Compliance Matrix: (Units=1/GPa)
#
#
# Indices 1 2 3 4 5 6 
#
# 1 0.012082 -0.000166 -0.004017 0.000000 0.000000 0.000000
# 2 -0.000166 0.009673 -0.002606 0.000000 0.000000 0.000000
# 3 -0.004017 -0.002606 0.007329 0.000000 0.000000 0.000000
# 4 0.000000 0.000000 0.000000 0.020554 0.000000 0.000000
# 5 0.000000 0.000000 0.000000 0.000000 0.018703 0.000000
# 6 0.000000 0.000000 0.000000 0.000000 0.000000 0.020831
#
#
# Mechanical properties :
#
#
# Convention : Reuss Voigt Hill
#
# Bulk Modulus (GPa) = 64.49062 75.84544 70.16803
# Shear Modulus (GPa) = 46.33152 48.48689 47.40920
#
# Velocity S-wave (km/s) = 4.51783 4.62172 4.57007
# Velocity P-wave (km/s) = 7.45821 7.86722 7.66544
#
# Compressibility (1/GPa) = 0.01550613
#
# Stress axis : x y z
#
# Youngs Moduli (GPa) = 82.76694 103.38072 136.44749
#
# Poissons Ratio (x) = 0.01715 0.54806
# Poissons Ratio (y) = 0.01373 0.35563
# Poissons Ratio (z) = 0.33244 0.26945
#
# Static dielectric constant tensor:
#      x y z
#    x 2.209660 0.000000 0.000000 
#    y 0.000000 1.916640 0.000000 
#    z 0.000000 0.000000 1.752610 
# 
# From -- ./inp_files/33248.got.cif
#   From: 2010.05.17/outbox.cif.g08.bks.cpg/sg48_17_cif.got.tgz:33248.got - 2010.06.03 20:39:00.
