data_PCOD9391492
_publ_section_title
;
Structure prediction by ZEFSAII (Michael W. Deem and Ramdas Pophale) SiO2 
 PCOD9391492
Probable space group: P N N N
;
_chemical_formula_sum "Si O2"
_cell_formula_units_Z 36
_cell_length_a 9.504557
_cell_length_b 22.144295
_cell_length_c 7.779724
_cell_angle_alpha 90.000000
_cell_angle_beta 90.000000
_cell_angle_gamma 90.000000
_cell_volume 1637.411845
_symmetry_space_group_name_H-M "P N N N"
_symmetry_group_IT_number 48
_space_group.IT_coordinate_system_code '2'
_symmetry_cell_setting 'orthorhombic'
loop_
_space_group_symop_operation_xyz
x,y,z
1/2-x,1/2-y,z
x,1/2-y,1/2-z
1/2-x,y,1/2-z
-x,-y,-z
1/2+x,1/2+y,-z
-x,1/2+y,1/2+z
1/2+x,-y,1/2+z
loop_
_atom_site_type_symbol
_atom_site_label
_atom_site_fract_x
_atom_site_fract_y
_atom_site_fract_z
Si Si1 0.750000 0.989854 0.750000
Si Si2 0.700619 0.187429 0.445665
Si Si3 0.080223 0.599238 0.114030
Si Si4 0.931275 0.691599 0.372997
Si Si5 0.725717 0.908520 0.054056
O O1 0.701478 0.948630 0.590615
O O2 0.629257 0.035110 0.815677
O O3 0.750000 0.250000 0.532490
O O4 0.750000 0.186566 0.250000
O O5 0.785594 0.132228 0.530998
O O6 0.533361 0.194890 0.463094
O O7 0.018738 0.642902 0.260821
O O8 0.938662 0.591882 0.002867
O O9 0.917635 0.750000 0.250000
O O10 0.788504 0.659053 0.432855
O O11 0.750000 0.932869 0.250000
#
# Coordination Sequence:
#
# PCOD9391492 Si02
#       5
#     4   8   8   8   8
#     4  12  24  46  73  97 144 194 240 294 352 418
#     4  11  23  40  69 105 135 178 236 290 356 424
#     4  11  23  44  68 100 139 186 233 296 350 426
#     4  11  22  45  71  97 140 183 229 293 365 418
#     4  10  27  44  67 103 138 187 238 286 354 427
#
# _framework density 21.985917000000001
#
# number of rings (size 3 to 8) (size 9 to 14) (size 15 to 20)
#    0.000    1.111    4.444    0.667    3.111    8.444 
#    0.000    0.000    0.000    8.000    0.000    0.000 
#    0.000    0.000    0.000    0.000    0.000    0.000 
#
# Total GULP energy -200727.846466 kJ/mol
# GULP energy per Si atom -5575.773513 kJ/mol
# Density = 2.193588 g / cm^3
# Si number density = 21.985917 Si / 1000 Ang^3
#
#
#
# Elastic Constant Matrix: (Units=GPa)
#
#
# Indices 1 2 3 4 5 6 
#
# 1 134.2952 49.7854 22.4288 0.0000 0.0000 0.0000
# 2 49.7854 132.6927 52.0737 0.0000 0.0000 0.0000
# 3 22.4288 52.0737 90.0644 0.0000 0.0000 0.0000
# 4 0.0000 0.0000 0.0000 23.3410 0.0000 0.0000
# 5 0.0000 0.0000 0.0000 0.0000 15.3621 0.0000
# 6 0.0000 0.0000 0.0000 0.0000 0.0000 -0.9351
#
#
#
# Elastic Compliance Matrix: (Units=1/GPa)
#
#
# Indices 1 2 3 4 5 6 
#
# 1 0.008658 -0.003107 -0.000360 0.000000 0.000000 0.000000
# 2 -0.003107 0.010863 -0.005507 0.000000 0.000000 0.000000
# 3 -0.000360 -0.005507 0.014377 0.000000 0.000000 0.000000
# 4 0.000000 0.000000 0.000000 0.042843 0.000000 0.000000
# 5 0.000000 0.000000 0.000000 0.000000 0.065095 0.000000
# 6 0.000000 0.000000 0.000000 0.000000 0.000000 -1.069446
#
#
# Mechanical properties :
#
#
# Convention : Reuss Voigt Hill
#
# Bulk Modulus (GPa) = 62.69493 67.29202 64.99348
# Shear Modulus (GPa) = -5.52887 23.07122 8.77118
#
# Velocity S-wave (km/s) = -1.58751 3.24290 1.99953
# Velocity P-wave (km/s) = 5.02171 6.68545 5.91239
#
# Compressibility (1/GPa) = 0.01595025
#
# Stress axis : x y z
#
# Youngs Moduli (GPa) = 115.49605 92.05295 69.55642
#
# Poissons Ratio (x) = 0.28605 0.02501
# Poissons Ratio (y) = 0.35890 0.38306
# Poissons Ratio (z) = 0.04152 0.50695
#
# Static dielectric constant tensor:
#      x y z
#    x 2.009940 0.000000 0.000000 
#    y 0.000000 1.844860 0.000000 
#    z 0.000000 0.000000 1.859240 
# 
# From -- ./inp_files/8769.got.cif
#   From: 2010.05.17/outbox.cif.g08.bks.cpg/sg48_5_cif.got.tgz:8769.got - 2010.06.03 20:39:00.
