data_PCOD9391587
_publ_section_title
;
Structure prediction by ZEFSAII (Michael W. Deem and Ramdas Pophale) SiO2 
 PCOD9391587
Probable space group: P N N N
;
_chemical_formula_sum "Si O2"
_cell_formula_units_Z 58
_cell_length_a 9.193801
_cell_length_b 30.743947
_cell_length_c 10.912809
_cell_angle_alpha 90.000000
_cell_angle_beta 90.000000
_cell_angle_gamma 90.000000
_cell_volume 3084.546176
_symmetry_space_group_name_H-M "P N N N"
_symmetry_group_IT_number 48
_space_group.IT_coordinate_system_code '2'
_symmetry_cell_setting 'orthorhombic'
loop_
_space_group_symop_operation_xyz
x,y,z
1/2-x,1/2-y,z
x,1/2-y,1/2-z
1/2-x,y,1/2-z
-x,-y,-z
1/2+x,1/2+y,-z
-x,1/2+y,1/2+z
1/2+x,-y,1/2+z
loop_
_atom_site_type_symbol
_atom_site_label
_atom_site_fract_x
_atom_site_fract_y
_atom_site_fract_z
Si Si1 0.508905 0.688837 0.717740
Si Si2 0.925837 0.941604 0.500303
Si Si3 0.702539 0.879884 0.390066
Si Si4 0.211593 0.297515 0.449243
Si Si5 0.198445 0.976129 0.386715
Si Si6 0.577977 0.088742 0.244729
Si Si7 0.520493 0.447745 0.994876
Si Si8 0.750000 0.250000 0.250000
O O1 0.638622 0.689139 0.619302
O O2 0.587784 0.705502 0.843168
O O3 0.457451 0.639697 0.738544
O O4 0.366437 0.717572 0.685189
O O5 0.840178 0.899262 0.462530
O O6 0.037702 0.956071 0.395307
O O7 0.014107 0.934008 0.624750
O O8 0.815331 0.980592 0.530980
O O9 0.750000 0.874898 0.250000
O O10 0.665118 0.834128 0.453927
O O11 0.580908 0.917294 0.410788
O O12 0.250000 0.250000 0.501682
O O13 0.250000 0.986377 0.250000
O O14 0.314699 0.943618 0.445780
O O15 0.750000 0.081564 0.250000
O O16 0.506908 0.069574 0.367208
O O17 0.500000 0.500000 0.000000
#
# Coordination Sequence:
#
# PCOD9391587 Si02
#       8
#     8   8   8   8   8   8   8   2
#     4  11  21  36  65  97 129 159 198 259 325 386
#     4  11  24  41  61  90 122 165 216 265 316 383
#     4  12  26  42  65  94 126 169 222 268 318 393
#     4  11  22  41  65  96 128 165 203 255 332 395
#     4  11  23  41  60  85 124 170 212 262 321 375
#     4  12  23  38  64  95 126 163 215 266 323 383
#     4  12  24  40  62  91 125 168 215 272 317 375
#     4  12  20  34  64 108 126 154 196 260 324 384
#
# _framework density 18.803414
#
# number of rings (size 3 to 8) (size 9 to 14) (size 15 to 20)
#    0.000    0.552    7.586    2.069    0.000    1.931 
#    0.000    0.000    0.000    0.000    0.000    0.966 
#    0.000    0.000    0.000    0.000    0.000    0.000 
#
# Total GULP energy -323814.110199 kJ/mol
# GULP energy per Si atom -5583.001900 kJ/mol
# Density = 1.876062 g / cm^3
# Si number density = 18.803414 Si / 1000 Ang^3
#
#
#
# Elastic Constant Matrix: (Units=GPa)
#
#
# Indices 1 2 3 4 5 6 
#
# 1 94.0355 25.7771 38.1065 0.0000 0.0000 0.0000
# 2 25.7771 117.3188 28.3136 0.0000 0.0000 0.0000
# 3 38.1065 28.3136 82.6496 0.0000 0.0000 0.0000
# 4 0.0000 0.0000 0.0000 18.8596 0.0000 0.0000
# 5 0.0000 0.0000 0.0000 0.0000 27.9192 0.0000
# 6 0.0000 0.0000 0.0000 0.0000 0.0000 35.5606
#
#
#
# Elastic Compliance Matrix: (Units=1/GPa)
#
#
# Indices 1 2 3 4 5 6 
#
# 1 0.013340 -0.001577 -0.005610 0.000000 0.000000 0.000000
# 2 -0.001577 0.009478 -0.002520 0.000000 0.000000 0.000000
# 3 -0.005610 -0.002520 0.015549 0.000000 0.000000 0.000000
# 4 0.000000 0.000000 0.000000 0.053023 0.000000 0.000000
# 5 0.000000 0.000000 0.000000 0.000000 0.035818 0.000000
# 6 0.000000 0.000000 0.000000 0.000000 0.000000 0.028121
#
#
# Mechanical properties :
#
#
# Convention : Reuss Voigt Hill
#
# Bulk Modulus (GPa) = 52.76185 53.15538 52.95862
# Shear Modulus (GPa) = 27.61483 29.92167 28.76825
#
# Velocity S-wave (km/s) = 3.83640 3.99342 3.91570
# Velocity P-wave (km/s) = 6.90974 7.04227 6.97632
#
# Compressibility (1/GPa) = 0.01895309
#
# Stress axis : x y z
#
# Youngs Moduli (GPa) = 74.96194 105.50243 64.31183
#
# Poissons Ratio (x) = 0.16639 0.36081
# Poissons Ratio (y) = 0.11822 0.16206
# Poissons Ratio (z) = 0.42056 0.26586
#
# Static dielectric constant tensor:
#      x y z
#    x 1.692290 0.000000 0.000000 
#    y 0.000000 1.667540 0.000000 
#    z 0.000000 0.000000 1.633510 
# 
# From -- ./inp_files/19037.got.cif
#   From: 2010.05.17/outbox.cif.g08.bks.cpg/sg48_10_cif.got.tgz:19037.got - 2010.06.03 20:39:00.
