data_PCOD9391613
_publ_section_title
;
Structure prediction by ZEFSAII (Michael W. Deem and Ramdas Pophale) SiO2 
 PCOD9391613
Probable space group: P N N N
;
_chemical_formula_sum "Si O2"
_cell_formula_units_Z 64
_cell_length_a 9.092056
_cell_length_b 24.039491
_cell_length_c 14.286141
_cell_angle_alpha 90.000000
_cell_angle_beta 90.000000
_cell_angle_gamma 90.000000
_cell_volume 3122.498957
_symmetry_space_group_name_H-M "P N N N"
_symmetry_group_IT_number 48
_space_group.IT_coordinate_system_code '2'
_symmetry_cell_setting 'orthorhombic'
loop_
_space_group_symop_operation_xyz
x,y,z
1/2-x,1/2-y,z
x,1/2-y,1/2-z
1/2-x,y,1/2-z
-x,-y,-z
1/2+x,1/2+y,-z
-x,1/2+y,1/2+z
1/2+x,-y,1/2+z
loop_
_atom_site_type_symbol
_atom_site_label
_atom_site_fract_x
_atom_site_fract_y
_atom_site_fract_z
Si Si1 0.579392 0.187998 0.777277
Si Si2 0.072263 0.753021 0.855235
Si Si3 0.927255 0.549658 0.939668
Si Si4 0.898151 0.585429 0.300134
Si Si5 0.401910 0.626058 0.923843
Si Si6 0.885124 0.550047 0.495890
Si Si7 0.075258 0.534388 0.742285
Si Si8 0.923372 0.343228 0.997265
O O1 0.522249 0.250000 0.750000
O O2 0.750000 0.187123 0.750000
O O3 0.502172 0.138340 0.718703
O O4 0.575847 0.177643 0.890091
O O5 0.250000 0.750000 0.848432
O O6 0.011697 0.750000 0.750000
O O7 0.044088 0.814413 0.891125
O O8 0.032929 0.705443 0.929476
O O9 0.001557 0.555246 0.837857
O O10 0.963864 0.606410 0.993154
O O11 0.751095 0.542441 0.935209
O O12 0.000000 0.500000 0.000000
O O13 0.750000 0.603301 0.250000
O O14 0.824331 0.558107 0.393266
O O15 0.983447 0.528829 0.268588
O O16 0.430481 0.580220 0.841275
O O17 0.236750 0.633235 0.965234
O O18 0.514102 0.604416 0.999975
O O19 0.000000 0.500000 0.500000
O O20 0.250000 0.527864 0.750000
#
# Coordination Sequence:
#
# PCOD9391613 Si02
#       8
#     8   8   8   8   8   8   8   8
#     4  11  26  42  66  97 131 179 231 291 341 405
#     4   9  20  35  64  98 128 172 223 271 332 411
#     4  12  24  41  69  95 134 177 231 274 344 423
#     4  11  24  45  65  92 134 175 232 275 339 411
#     4  11  22  39  67  97 137 174 214 286 348 401
#     4  12  25  43  63  99 132 175 220 288 349 407
#     4  11  21  40  67 101 136 176 222 280 338 426
#     4  11  22  42  67  98 133 179 234 281 348 416
#
# _framework density 20.496404999999999
#
# number of rings (size 3 to 8) (size 9 to 14) (size 15 to 20)
#    0.000    1.000    2.500    5.250    8.750    1.750 
#    0.000    0.625    0.000    0.750    0.000    0.000 
#    0.000    0.000    0.000    0.000    0.000    0.000 
#
# Total GULP energy -356446.000002 kJ/mol
# GULP energy per Si atom -5569.468750 kJ/mol
# Density = 2.044975 g / cm^3
# Si number density = 20.496405 Si / 1000 Ang^3
#
#
#
# Elastic Constant Matrix: (Units=GPa)
#
#
# Indices 1 2 3 4 5 6 
#
# 1 75.7862 30.5796 8.4118 0.0000 0.0000 0.0000
# 2 30.5796 152.2223 23.6792 0.0000 0.0000 0.0000
# 3 8.4118 23.6792 86.5671 0.0000 0.0000 0.0000
# 4 0.0000 0.0000 0.0000 31.1270 0.0000 0.0000
# 5 0.0000 0.0000 0.0000 0.0000 11.8914 0.0000
# 6 0.0000 0.0000 0.0000 0.0000 0.0000 25.8114
#
#
#
# Elastic Compliance Matrix: (Units=1/GPa)
#
#
# Indices 1 2 3 4 5 6 
#
# 1 0.014392 -0.002792 -0.000635 0.000000 0.000000 0.000000
# 2 -0.002792 0.007403 -0.001754 0.000000 0.000000 0.000000
# 3 -0.000635 -0.001754 0.012093 0.000000 0.000000 0.000000
# 4 0.000000 0.000000 0.000000 0.032126 0.000000 0.000000
# 5 0.000000 0.000000 0.000000 0.000000 0.084094 0.000000
# 6 0.000000 0.000000 0.000000 0.000000 0.000000 0.038743
#
#
# Mechanical properties :
#
#
# Convention : Reuss Voigt Hill
#
# Bulk Modulus (GPa) = 42.50474 48.87964 45.69219
# Shear Modulus (GPa) = 24.14813 30.55964 27.35389
#
# Velocity S-wave (km/s) = 3.43616 3.86550 3.65714
# Velocity P-wave (km/s) = 6.04364 6.61986 6.33830
#
# Compressibility (1/GPa) = 0.02352679
#
# Stress axis : x y z
#
# Youngs Moduli (GPa) = 69.48198 135.07833 82.69183
#
# Poissons Ratio (x) = 0.37721 0.05248
# Poissons Ratio (y) = 0.19403 0.14501
# Poissons Ratio (z) = 0.04410 0.23688
#
# Static dielectric constant tensor:
#      x y z
#    x 1.612540 0.000000 0.000000 
#    y 0.000000 1.731240 0.000000 
#    z 0.000000 0.000000 1.744940 
# 
# From -- ./inp_files/25744.got.cif
#   From: 2010.05.17/outbox.cif.g08.bks.cpg/sg48_13_cif.got.tgz:25744.got - 2010.06.03 20:39:00.
