data_PCOD9391428
_publ_section_title
;
Structure prediction by ZEFSAII (Michael W. Deem and Ramdas Pophale) SiO2 
 PCOD9391428
Probable space group: P N N N
;
_chemical_formula_sum "Si O2"
_cell_formula_units_Z 22
_cell_length_a 7.136575
_cell_length_b 4.599389
_cell_length_c 26.947631
_cell_angle_alpha 90.000000
_cell_angle_beta 90.000000
_cell_angle_gamma 90.000000
_cell_volume 884.525929
_symmetry_space_group_name_H-M "P N N N"
_symmetry_group_IT_number 48
_space_group.IT_coordinate_system_code '2'
_symmetry_cell_setting 'orthorhombic'
loop_
_space_group_symop_operation_xyz
x,y,z
1/2-x,1/2-y,z
x,1/2-y,1/2-z
1/2-x,y,1/2-z
-x,-y,-z
1/2+x,1/2+y,-z
-x,1/2+y,1/2+z
1/2+x,-y,1/2+z
loop_
_atom_site_type_symbol
_atom_site_label
_atom_site_fract_x
_atom_site_fract_y
_atom_site_fract_z
Si Si1 0.750000 0.250000 0.181581
Si Si2 0.250000 0.250000 0.750000
Si Si3 0.054134 0.881450 0.119752
Si Si4 0.541243 0.138223 0.052783
O O1 0.846488 0.510926 0.214012
O O2 0.583613 0.428394 0.154192
O O3 0.250000 0.750000 0.140081
O O4 0.957757 0.603433 0.095603
O O5 0.084275 0.093177 0.072085
O O6 0.750000 0.250000 0.049342
O O7 0.500000 0.000000 0.000000
#
# Coordination Sequence:
#
# PCOD9391428 Si02
#       4
#     4   2   8   8
#     4  11  24  50  80 118 154 196 262 318 424 479
#     4  10  24  46  86 118 144 198 242 330 404 504
#     4  12  26  47  76 112 153 208 258 322 391 469
#     4  12  26  46  69 106 159 210 269 324 376 447
#
# _framework density 24.872078999999999
#
# number of rings (size 3 to 8) (size 9 to 14) (size 15 to 20)
#    0.000    0.364    1.818    6.545    0.000    2.909 
#    3.273    0.909    0.000    4.364    9.455    0.000 
#    0.000    0.000    0.000    0.000    0.000    0.000 
#
# Total GULP energy -122895.359148 kJ/mol
# GULP energy per Si atom -5586.152689 kJ/mol
# Density = 2.481547 g / cm^3
# Si number density = 24.872079 Si / 1000 Ang^3
#
#
#
# Elastic Constant Matrix: (Units=GPa)
#
#
# Indices 1 2 3 4 5 6 
#
# 1 157.8568 74.4136 53.6082 0.0000 0.0000 0.0000
# 2 74.4136 230.5380 78.3117 0.0000 0.0000 0.0000
# 3 53.6082 78.3117 108.3484 0.0000 0.0000 0.0000
# 4 0.0000 0.0000 0.0000 74.5520 0.0000 0.0000
# 5 0.0000 0.0000 0.0000 0.0000 5.6486 0.0000
# 6 0.0000 0.0000 0.0000 0.0000 0.0000 62.9466
#
#
#
# Elastic Compliance Matrix: (Units=1/GPa)
#
#
# Indices 1 2 3 4 5 6 
#
# 1 0.008063 -0.001653 -0.002794 0.000000 0.000000 0.000000
# 2 -0.001653 0.006088 -0.003582 0.000000 0.000000 0.000000
# 3 -0.002794 -0.003582 0.013201 0.000000 0.000000 0.000000
# 4 0.000000 0.000000 0.000000 0.013413 0.000000 0.000000
# 5 0.000000 0.000000 0.000000 0.000000 0.177033 0.000000
# 6 0.000000 0.000000 0.000000 0.000000 0.000000 0.015886
#
#
# Mechanical properties :
#
#
# Convention : Reuss Voigt Hill
#
# Bulk Modulus (GPa) = 88.55524 101.04560 94.80042
# Shear Modulus (GPa) = 19.72300 47.99009 33.85655
#
# Velocity S-wave (km/s) = 2.81904 4.39735 3.69348
# Velocity P-wave (km/s) = 6.80276 8.15454 7.50913
#
# Compressibility (1/GPa) = 0.01129239
#
# Stress axis : x y z
#
# Youngs Moduli (GPa) = 124.01902 164.24984 75.74960
#
# Poissons Ratio (x) = 0.27158 0.21168
# Poissons Ratio (y) = 0.20506 0.27136
# Poissons Ratio (z) = 0.34657 0.58841
#
# Static dielectric constant tensor:
#      x y z
#    x 2.055540 0.000000 0.000000 
#    y 0.000000 2.052330 0.000000 
#    z 0.000000 0.000000 2.166510 
# 
# From -- ./inp_files/38145.got.cif
#   From: 2010.05.17/outbox.cif.g08.bks.cpg/sg48_20_cif.got.tgz:38145.got - 2010.06.03 20:39:00.
