data_PCOD9391271
_publ_section_title
;
Structure prediction by ZEFSAII (Michael W. Deem and Ramdas Pophale) SiO2 
 PCOD9391271
Probable space group: P N N N
;
_chemical_formula_sum "Si O2"
_cell_formula_units_Z 42
_cell_length_a 9.688364
_cell_length_b 10.221188
_cell_length_c 25.282015
_cell_angle_alpha 90.000000
_cell_angle_beta 90.000000
_cell_angle_gamma 90.000000
_cell_volume 2503.591730
_symmetry_space_group_name_H-M "P N N N"
_symmetry_group_IT_number 48
_space_group.IT_coordinate_system_code '2'
_symmetry_cell_setting 'orthorhombic'
loop_
_space_group_symop_operation_xyz
x,y,z
1/2-x,1/2-y,z
x,1/2-y,1/2-z
1/2-x,y,1/2-z
-x,-y,-z
1/2+x,1/2+y,-z
-x,1/2+y,1/2+z
1/2+x,-y,1/2+z
loop_
_atom_site_type_symbol
_atom_site_label
_atom_site_fract_x
_atom_site_fract_y
_atom_site_fract_z
Si Si1 0.750000 0.250000 0.750000
Si Si2 0.167133 0.627473 0.353541
Si Si3 0.198151 0.962248 0.989089
Si Si4 0.977253 0.301887 0.008311
Si Si5 0.713115 0.608839 0.587195
Si Si6 0.619368 0.680538 0.090847
O O1 0.832796 0.340915 0.708913
O O2 0.250000 0.750000 0.379052
O O3 0.258652 0.502177 0.369345
O O4 0.012673 0.636747 0.375454
O O5 0.175061 0.052257 0.938769
O O6 0.093893 0.840819 0.986115
O O7 0.349396 0.900478 0.996034
O O8 0.186179 0.056947 0.040077
O O9 0.066731 0.281533 0.955022
O O10 0.071152 0.357256 0.056034
O O11 0.750000 0.750000 0.609809
O O12 0.750000 0.750000 0.118466
#
# Coordination Sequence:
#
# PCOD9391271 Si02
#       6
#     2   8   8   8   8   8
#     4   8  24  48  68  76 104 152 216 264 308 346
#     4  10  23  42  65  80 108 158 204 254 302 351
#     4  11  21  31  49  79 135 167 192 224 283 362
#     4  11  21  32  47  83 128 174 190 223 278 372
#     4  12  20  33  56  85 123 158 199 234 290 358
#     4  12  21  33  54  88 122 157 194 236 289 357
#
# _framework density 16.775898999999999
#
# number of rings (size 3 to 8) (size 9 to 14) (size 15 to 20)
#    0.571    0.381    5.714    3.429    2.667    0.000 
#    0.000    0.952    0.000    0.000    0.000    0.000 
#    0.000    0.000    0.000    0.000    0.000    0.000 
#
# Total GULP energy -233847.697224 kJ/mol
# GULP energy per Si atom -5567.802315 kJ/mol
# Density = 1.673772 g / cm^3
# Si number density = 16.775899 Si / 1000 Ang^3
#
#
#
# Elastic Constant Matrix: (Units=GPa)
#
#
# Indices 1 2 3 4 5 6 
#
# 1 96.7698 40.8498 20.3072 0.0000 0.0000 0.0000
# 2 40.8498 129.3492 30.1135 0.0000 0.0000 0.0000
# 3 20.3072 30.1135 64.1428 0.0000 0.0000 0.0000
# 4 0.0000 0.0000 0.0000 12.6309 0.0000 0.0000
# 5 0.0000 0.0000 0.0000 0.0000 9.2940 0.0000
# 6 0.0000 0.0000 0.0000 0.0000 0.0000 25.8114
#
#
#
# Elastic Compliance Matrix: (Units=1/GPa)
#
#
# Indices 1 2 3 4 5 6 
#
# 1 0.012221 -0.003322 -0.002310 0.000000 0.000000 0.000000
# 2 -0.003322 0.009583 -0.003447 0.000000 0.000000 0.000000
# 3 -0.002310 -0.003447 0.017940 0.000000 0.000000 0.000000
# 4 0.000000 0.000000 0.000000 0.079171 0.000000 0.000000
# 5 0.000000 0.000000 0.000000 0.000000 0.107596 0.000000
# 6 0.000000 0.000000 0.000000 0.000000 0.000000 0.038743
#
#
# Mechanical properties :
#
#
# Convention : Reuss Voigt Hill
#
# Bulk Modulus (GPa) = 46.32592 52.53365 49.42979
# Shear Modulus (GPa) = 17.20549 22.81335 20.00942
#
# Velocity S-wave (km/s) = 3.20599 3.69167 3.45737
# Velocity P-wave (km/s) = 6.43265 7.03947 6.74289
#
# Compressibility (1/GPa) = 0.02158619
#
# Stress axis : x y z
#
# Youngs Moduli (GPa) = 81.82855 104.35611 55.74222
#
# Poissons Ratio (x) = 0.34664 0.12874
# Poissons Ratio (y) = 0.27181 0.19215
# Poissons Ratio (z) = 0.18898 0.35973
#
# Static dielectric constant tensor:
#      x y z
#    x 1.638080 0.000000 0.000000 
#    y 0.000000 1.626150 0.000000 
#    z 0.000000 0.000000 1.548980 
# 
# From -- ./inp_files/35793.got.cif
#   From: 2010.05.17/outbox.cif.g08.bks.cpg/sg48_18_cif.got.tgz:35793.got - 2010.06.03 20:39:00.
