data_PCOD9391791
_publ_section_title
;
Structure prediction by ZEFSAII (Michael W. Deem and Ramdas Pophale) SiO2 
 PCOD9391791
Probable space group: P N N N
;
_chemical_formula_sum "Si O2"
_cell_formula_units_Z 24
_cell_length_a 27.520728
_cell_length_b 5.038453
_cell_length_c 8.067744
_cell_angle_alpha 90.000000
_cell_angle_beta 90.000000
_cell_angle_gamma 90.000000
_cell_volume 1118.688668
_symmetry_space_group_name_H-M "P N N N"
_symmetry_group_IT_number 48
_space_group.IT_coordinate_system_code '2'
_symmetry_cell_setting 'orthorhombic'
loop_
_space_group_symop_operation_xyz
x,y,z
1/2-x,1/2-y,z
x,1/2-y,1/2-z
1/2-x,y,1/2-z
-x,-y,-z
1/2+x,1/2+y,-z
-x,1/2+y,1/2+z
1/2+x,-y,1/2+z
loop_
_atom_site_type_symbol
_atom_site_label
_atom_site_fract_x
_atom_site_fract_y
_atom_site_fract_z
Si Si1 0.458101 0.987819 0.864399
Si Si2 0.638495 0.166132 0.936133
Si Si3 0.307067 0.315704 0.940817
O O1 0.474472 0.750000 0.750000
O O2 0.451760 0.250000 0.750000
O O3 0.408530 0.891813 0.952326
O O4 0.500000 0.000000 0.000000
O O5 0.625102 0.250000 0.750000
O O6 0.673773 0.391448 0.014642
O O7 0.666930 0.890242 0.938353
O O8 0.250000 0.250000 0.954137
O O9 0.320748 0.250000 0.750000
#
# Coordination Sequence:
#
# PCOD9391791 Si02
#       3
#     8   8   8
#     4  12  26  46  71  99 135 177 226 279 339 404
#     4  12  25  42  66  98 134 173 221 275 334 398
#     4  11  24  43  67  95 131 176 223 273 334 399
#
# _framework density 21.453690999999999
#
# number of rings (size 3 to 8) (size 9 to 14) (size 15 to 20)
#    0.000    0.333    0.000   10.000    0.000    9.333 
#    0.000    0.000    0.000    0.000    0.000    0.000 
#    0.000    0.000    0.000    0.000    0.000    0.000 
#
# Total GULP energy -134288.277351 kJ/mol
# GULP energy per Si atom -5595.344890 kJ/mol
# Density = 2.140486 g / cm^3
# Si number density = 21.453691 Si / 1000 Ang^3
#
#
#
# Elastic Constant Matrix: (Units=GPa)
#
#
# Indices 1 2 3 4 5 6 
#
# 1 128.4431 42.3221 55.2995 0.0000 0.0000 0.0000
# 2 42.3221 129.2774 53.1294 0.0000 0.0000 0.0000
# 3 55.2995 53.1294 149.9269 0.0000 0.0000 0.0000
# 4 0.0000 0.0000 0.0000 49.5163 0.0000 0.0000
# 5 0.0000 0.0000 0.0000 0.0000 -2.1632 0.0000
# 6 0.0000 0.0000 0.0000 0.0000 0.0000 19.4869
#
#
#
# Elastic Compliance Matrix: (Units=1/GPa)
#
#
# Indices 1 2 3 4 5 6 
#
# 1 0.009674 -0.001990 -0.002863 0.000000 0.000000 0.000000
# 2 -0.001990 0.009463 -0.002619 0.000000 0.000000 0.000000
# 3 -0.002863 -0.002619 0.008654 0.000000 0.000000 0.000000
# 4 0.000000 0.000000 0.000000 0.020195 0.000000 0.000000
# 5 0.000000 0.000000 0.000000 0.000000 -0.462272 0.000000
# 6 0.000000 0.000000 0.000000 0.000000 0.000000 0.051316
#
#
# Mechanical properties :
#
#
# Convention : Reuss Voigt Hill
#
# Bulk Modulus (GPa) = 77.84438 78.79439 78.31939
# Shear Modulus (GPa) = -14.54582 30.49442 7.97430
#
# Velocity S-wave (km/s) = -2.60669 3.77424 1.93004
# Velocity P-wave (km/s) = 5.22531 7.46998 6.44610
#
# Compressibility (1/GPa) = 0.01284614
#
# Stress axis : x y z
#
# Youngs Moduli (GPa) = 103.37032 105.66997 115.55264
#
# Poissons Ratio (x) = 0.21033 0.33081
# Poissons Ratio (y) = 0.20576 0.30268
# Poissons Ratio (z) = 0.29593 0.27679
#
# Static dielectric constant tensor:
#      x y z
#    x 1.890740 0.000000 0.000000 
#    y 0.000000 1.760040 0.000000 
#    z 0.000000 0.000000 1.716770 
# 
# From -- ./inp_files/6146.got.cif
#   From: 2010.05.17/outbox.cif.g08.bks.cpg/sg48_4_cif.got.tgz:6146.got - 2010.06.03 20:39:00.
