data_PCOD9391709
_publ_section_title
;
Structure prediction by ZEFSAII (Michael W. Deem and Ramdas Pophale) SiO2 
 PCOD9391709
Probable space group: P N N N
;
_chemical_formula_sum "Si O2"
_cell_formula_units_Z 32
_cell_length_a 17.852098
_cell_length_b 17.073336
_cell_length_c 4.737728
_cell_angle_alpha 90.000000
_cell_angle_beta 90.000000
_cell_angle_gamma 90.000000
_cell_volume 1444.035178
_symmetry_space_group_name_H-M "P N N N"
_symmetry_group_IT_number 48
_space_group.IT_coordinate_system_code '2'
_symmetry_cell_setting 'orthorhombic'
loop_
_space_group_symop_operation_xyz
x,y,z
1/2-x,1/2-y,z
x,1/2-y,1/2-z
1/2-x,y,1/2-z
-x,-y,-z
1/2+x,1/2+y,-z
-x,1/2+y,1/2+z
1/2+x,-y,1/2+z
loop_
_atom_site_type_symbol
_atom_site_label
_atom_site_fract_x
_atom_site_fract_y
_atom_site_fract_z
Si Si1 0.588109 0.838315 0.829921
Si Si2 0.834714 0.910345 0.179128
Si Si3 0.925509 0.305304 0.012300
Si Si4 0.802892 0.070905 0.486218
O O1 0.609218 0.750000 0.750000
O O2 0.610524 0.644653 0.352353
O O3 0.635577 0.898582 0.637237
O O4 0.498116 0.842448 0.832354
O O5 0.750000 0.884322 0.250000
O O6 0.836734 0.997159 0.313063
O O7 0.948038 0.250000 0.750000
O O8 0.868081 0.371644 0.916734
O O9 0.889267 0.250000 0.250000
O O10 0.750000 0.046909 0.750000
O O11 0.750000 0.110521 0.250000
#
# Coordination Sequence:
#
# PCOD9391709 Si02
#       4
#     8   8   8   8
#     4  11  23  40  62  90 125 163 208 261 316 379
#     4  11  23  40  62  90 125 163 208 261 316 379
#     4  11  24  42  64  93 128 166 214 268 321 383
#     4  11  24  42  64  93 128 166 214 268 321 383
#
# _framework density 22.160124
#
# number of rings (size 3 to 8) (size 9 to 14) (size 15 to 20)
#    0.000    1.000    0.000    9.000    0.000    8.000 
#    0.000    0.000    0.000    0.000    0.000    0.000 
#    0.000    0.000    0.000    0.000    0.000    0.000 
#
# Total GULP energy -178695.608879 kJ/mol
# GULP energy per Si atom -5584.237777 kJ/mol
# Density = 2.210969 g / cm^3
# Si number density = 22.160124 Si / 1000 Ang^3
#
#
#
# Elastic Constant Matrix: (Units=GPa)
#
#
# Indices 1 2 3 4 5 6 
#
# 1 86.3782 61.7467 11.2284 0.0000 0.0000 0.0000
# 2 61.7467 69.5876 9.6177 0.0000 0.0000 0.0000
# 3 11.2284 9.6177 92.3307 0.0000 0.0000 0.0000
# 4 0.0000 0.0000 0.0000 32.9826 0.0000 0.0000
# 5 0.0000 0.0000 0.0000 0.0000 36.3926 0.0000
# 6 0.0000 0.0000 0.0000 0.0000 0.0000 38.5720
#
#
#
# Elastic Compliance Matrix: (Units=1/GPa)
#
#
# Indices 1 2 3 4 5 6 
#
# 1 0.031737 -0.028031 -0.000940 0.000000 0.000000 0.000000
# 2 -0.028031 0.039338 -0.000689 0.000000 0.000000 0.000000
# 3 -0.000940 -0.000689 0.011017 0.000000 0.000000 0.000000
# 4 0.000000 0.000000 0.000000 0.030319 0.000000 0.000000
# 5 0.000000 0.000000 0.000000 0.000000 0.027478 0.000000
# 6 0.000000 0.000000 0.000000 0.000000 0.000000 0.025926
#
#
# Mechanical properties :
#
#
# Convention : Reuss Voigt Hill
#
# Bulk Modulus (GPa) = 43.91222 45.94246 44.92734
# Shear Modulus (GPa) = 21.48465 32.63636 27.06051
#
# Velocity S-wave (km/s) = 3.11709 3.84181 3.49827
# Velocity P-wave (km/s) = 5.72834 6.36053 6.05270
#
# Compressibility (1/GPa) = 0.02277270
#
# Stress axis : x y z
#
# Youngs Moduli (GPa) = 31.50908 25.42059 90.77163
#
# Poissons Ratio (x) = 0.71257 0.08530
# Poissons Ratio (y) = 0.88323 0.06252
# Poissons Ratio (z) = 0.02961 0.01751
#
# Static dielectric constant tensor:
#      x y z
#    x 1.836080 0.000000 0.000000 
#    y 0.000000 1.799130 0.000000 
#    z 0.000000 0.000000 1.805040 
# 
# From -- ./inp_files/4032.got.cif
#   From: 2010.05.17/outbox.cif.g08.bks.cpg/sg48_3_cif.got.tgz:4032.got - 2010.06.03 20:39:00.
