data_PCOD9391559
_publ_section_title
;
Structure prediction by ZEFSAII (Michael W. Deem and Ramdas Pophale) SiO2 
 PCOD9391559
Probable space group: P N N N
;
_chemical_formula_sum "Si O2"
_cell_formula_units_Z 58
_cell_length_a 8.039091
_cell_length_b 24.048187
_cell_length_c 14.588589
_cell_angle_alpha 90.000000
_cell_angle_beta 90.000000
_cell_angle_gamma 90.000000
_cell_volume 2820.347192
_symmetry_space_group_name_H-M "P N N N"
_symmetry_group_IT_number 48
_space_group.IT_coordinate_system_code '2'
_symmetry_cell_setting 'orthorhombic'
loop_
_space_group_symop_operation_xyz
x,y,z
1/2-x,1/2-y,z
x,1/2-y,1/2-z
1/2-x,y,1/2-z
-x,-y,-z
1/2+x,1/2+y,-z
-x,1/2+y,1/2+z
1/2+x,-y,1/2+z
loop_
_atom_site_type_symbol
_atom_site_label
_atom_site_fract_x
_atom_site_fract_y
_atom_site_fract_z
Si Si1 0.690802 0.580697 0.354688
Si Si2 0.402641 0.863676 0.562845
Si Si3 0.623788 0.025985 0.824150
Si Si4 0.740725 0.686852 0.022014
Si Si5 0.809381 0.485716 0.492467
Si Si6 0.250000 0.750000 0.750000
Si Si7 0.450741 0.410083 0.253974
Si Si8 0.064795 0.676271 0.894199
O O1 0.750000 0.578878 0.250000
O O2 0.493624 0.574728 0.355451
O O3 0.738750 0.637430 0.404654
O O4 0.744395 0.525591 0.411786
O O5 0.565323 0.831588 0.525042
O O6 0.326181 0.919749 0.518834
O O7 0.459624 0.884899 0.664538
O O8 0.241117 0.825014 0.554603
O O9 0.750000 0.048760 0.750000
O O10 0.711225 0.000678 0.913992
O O11 0.532005 0.976132 0.769166
O O12 0.750000 0.750000 0.059272
O O13 0.897663 0.686856 0.951203
O O14 0.000000 0.500000 0.500000
O O15 0.118602 0.716684 0.812161
O O16 0.250000 0.399663 0.250000
O O17 0.529230 0.381885 0.342998
#
# Coordination Sequence:
#
# PCOD9391559 Si02
#       8
#     8   8   8   8   8   2   8   8
#     4  12  25  46  71 101 137 185 237 294 363 419
#     4  12  23  42  70  99 141 181 228 284 350 425
#     4  11  24  40  69 109 144 178 220 280 358 445
#     4  12  28  47  69  97 136 185 246 305 352 412
#     4  12  22  41  69 104 142 178 222 284 354 432
#     4  12  24  40  66  96 144 188 240 272 340 428
#     4  11  20  38  64 101 144 180 221 272 346 430
#     4  12  24  42  64 101 135 188 229 284 348 417
#
# _framework density 20.564844999999998
#
# number of rings (size 3 to 8) (size 9 to 14) (size 15 to 20)
#    0.000    0.276    4.138    7.034    0.000    0.276 
#    0.000    0.000    0.000    0.000    0.000    0.000 
#    0.000    0.000    0.000    0.000    0.000    0.000 
#
# Total GULP energy -323483.429786 kJ/mol
# GULP energy per Si atom -5577.300514 kJ/mol
# Density = 2.051804 g / cm^3
# Si number density = 20.564845 Si / 1000 Ang^3
#
#
#
# Elastic Constant Matrix: (Units=GPa)
#
#
# Indices 1 2 3 4 5 6 
#
# 1 124.8278 41.4878 43.9414 0.0000 0.0000 0.0000
# 2 41.4878 87.0979 19.5981 0.0000 0.0000 0.0000
# 3 43.9414 19.5981 79.5367 0.0000 0.0000 0.0000
# 4 0.0000 0.0000 0.0000 -4.8344 0.0000 0.0000
# 5 0.0000 0.0000 0.0000 0.0000 31.5807 0.0000
# 6 0.0000 0.0000 0.0000 0.0000 0.0000 29.2348
#
#
#
# Elastic Compliance Matrix: (Units=1/GPa)
#
#
# Indices 1 2 3 4 5 6 
#
# 1 0.011220 -0.004182 -0.005168 0.000000 0.000000 0.000000
# 2 -0.004182 0.013714 -0.001069 0.000000 0.000000 0.000000
# 3 -0.005168 -0.001069 0.015692 0.000000 0.000000 0.000000
# 4 0.000000 0.000000 0.000000 -0.206852 0.000000 0.000000
# 5 0.000000 0.000000 0.000000 0.000000 0.031665 0.000000
# 6 0.000000 0.000000 0.000000 0.000000 0.000000 0.034206
#
#
# Mechanical properties :
#
#
# Convention : Reuss Voigt Hill
#
# Bulk Modulus (GPa) = 50.53671 55.72410 53.13040
# Shear Modulus (GPa) = -68.56620 23.62523 -22.47049
#
# Velocity S-wave (km/s) = -5.78047 3.39310 -3.30913
# Velocity P-wave (km/s) = 4.46364 6.51969 3.36023
#
# Compressibility (1/GPa) = 0.01978760
#
# Stress axis : x y z
#
# Youngs Moduli (GPa) = 89.12494 72.91981 63.72848
#
# Poissons Ratio (x) = 0.30492 0.32938
# Poissons Ratio (y) = 0.37269 0.06812
# Poissons Ratio (z) = 0.46064 0.07794
#
# Static dielectric constant tensor:
#      x y z
#    x 1.519060 0.000000 0.000000 
#    y 0.000000 1.581640 0.000000 
#    z 0.000000 0.000000 1.731930 
# 
# From -- ./inp_files/25720.got.cif
#   From: 2010.05.17/outbox.cif.g08.bks.cpg/sg48_13_cif.got.tgz:25720.got - 2010.06.03 20:39:00.
