data_PCOD9391165
_publ_section_title
;
Structure prediction by ZEFSAII (Michael W. Deem and Ramdas Pophale) SiO2 
 PCOD9391165
Probable space group: P N N N
;
_chemical_formula_sum "Si O2"
_cell_formula_units_Z 32
_cell_length_a 7.113634
_cell_length_b 16.005961
_cell_length_c 11.781114
_cell_angle_alpha 90.000000
_cell_angle_beta 90.000000
_cell_angle_gamma 90.000000
_cell_volume 1341.404100
_symmetry_space_group_name_H-M "P N N N"
_symmetry_group_IT_number 48
_space_group.IT_coordinate_system_code '2'
_symmetry_cell_setting 'orthorhombic'
loop_
_space_group_symop_operation_xyz
x,y,z
1/2-x,1/2-y,z
x,1/2-y,1/2-z
1/2-x,y,1/2-z
-x,-y,-z
1/2+x,1/2+y,-z
-x,1/2+y,1/2+z
1/2+x,-y,1/2+z
loop_
_atom_site_type_symbol
_atom_site_label
_atom_site_fract_x
_atom_site_fract_y
_atom_site_fract_z
Si Si1 0.980918 0.934636 0.670453
Si Si2 0.788353 0.393499 0.879799
Si Si3 0.592492 0.391471 0.095563
Si Si4 0.056236 0.281465 0.027901
O O1 0.968682 0.934528 0.806999
O O2 0.196873 0.916395 0.634601
O O3 0.883709 0.854954 0.613601
O O4 0.909279 0.021600 0.622451
O O5 0.750000 0.371934 0.750000
O O6 0.605222 0.408254 0.960248
O O7 0.912844 0.321334 0.938311
O O8 0.543230 0.293210 0.096753
O O9 0.250000 0.250000 0.973515
#
# Coordination Sequence:
#
# PCOD9391165 Si02
#       4
#     8   8   8   8
#     4  10  22  44  71 103 136 183 240 292 361 425
#     4  11  25  46  70  97 151 191 236 291 375 440
#     4  10  22  43  72  96 139 184 234 293 351 422
#     4  11  24  43  73 103 137 181 246 298 362 429
#
# _framework density 23.855599999999999
#
# number of rings (size 3 to 8) (size 9 to 14) (size 15 to 20)
#    0.000    1.500    0.000    6.750    3.500    8.000 
#    9.000    1.250    5.500    0.000    0.000    0.000 
#    0.000    0.000    0.000    0.000    0.000    0.000 
#
# Total GULP energy -178824.814457 kJ/mol
# GULP energy per Si atom -5588.275452 kJ/mol
# Density = 2.380130 g / cm^3
# Si number density = 23.855600 Si / 1000 Ang^3
#
#
#
# Elastic Constant Matrix: (Units=GPa)
#
#
# Indices 1 2 3 4 5 6 
#
# 1 54.7365 25.8030 8.3194 0.0000 0.0000 0.0000
# 2 25.8030 110.0193 15.1061 0.0000 0.0000 0.0000
# 3 8.3194 15.1061 166.4086 0.0000 0.0000 0.0000
# 4 0.0000 0.0000 0.0000 39.5022 0.0000 0.0000
# 5 0.0000 0.0000 0.0000 0.0000 37.9743 0.0000
# 6 0.0000 0.0000 0.0000 0.0000 0.0000 18.4415
#
#
#
# Elastic Compliance Matrix: (Units=1/GPa)
#
#
# Indices 1 2 3 4 5 6 
#
# 1 0.020599 -0.004749 -0.000599 0.000000 0.000000 0.000000
# 2 -0.004749 0.010299 -0.000697 0.000000 0.000000 0.000000
# 3 -0.000599 -0.000697 0.006103 0.000000 0.000000 0.000000
# 4 0.000000 0.000000 0.000000 0.025315 0.000000 0.000000
# 5 0.000000 0.000000 0.000000 0.000000 0.026334 0.000000
# 6 0.000000 0.000000 0.000000 0.000000 0.000000 0.054225
#
#
# Mechanical properties :
#
#
# Convention : Reuss Voigt Hill
#
# Bulk Modulus (GPa) = 40.14425 47.73570 43.93998
# Shear Modulus (GPa) = 30.62447 37.97932 34.30190
#
# Velocity S-wave (km/s) = 3.58682 3.99438 3.79608
# Velocity P-wave (km/s) = 5.83252 6.42862 6.13781
#
# Compressibility (1/GPa) = 0.02491017
#
# Stress axis : x y z
#
# Youngs Moduli (GPa) = 48.54602 97.09820 163.86584
#
# Poissons Ratio (x) = 0.46111 0.09811
# Poissons Ratio (y) = 0.23054 0.11429
# Poissons Ratio (z) = 0.02907 0.06772
#
# Static dielectric constant tensor:
#      x y z
#    x 1.981210 0.000000 0.000000 
#    y 0.000000 1.879760 0.000000 
#    z 0.000000 0.000000 1.965170 
# 
# From -- ./inp_files/10247.got.cif
#   From: 2010.05.17/outbox.cif.g08.bks.cpg/sg48_6_cif.got.tgz:10247.got - 2010.06.03 20:39:00.
