data_PCOD9391012
_publ_section_title
;
Structure prediction by ZEFSAII (Michael W. Deem and Ramdas Pophale) SiO2 
 PCOD9391012
Probable space group: P N N N
;
_chemical_formula_sum "Si O2"
_cell_formula_units_Z 46
_cell_length_a 21.022165
_cell_length_b 10.086529
_cell_length_c 11.633420
_cell_angle_alpha 90.000000
_cell_angle_beta 90.000000
_cell_angle_gamma 90.000000
_cell_volume 2466.758252
_symmetry_space_group_name_H-M "P N N N"
_symmetry_group_IT_number 48
_space_group.IT_coordinate_system_code '2'
_symmetry_cell_setting 'orthorhombic'
loop_
_space_group_symop_operation_xyz
x,y,z
1/2-x,1/2-y,z
x,1/2-y,1/2-z
1/2-x,y,1/2-z
-x,-y,-z
1/2+x,1/2+y,-z
-x,1/2+y,1/2+z
1/2+x,-y,1/2+z
loop_
_atom_site_type_symbol
_atom_site_label
_atom_site_fract_x
_atom_site_fract_y
_atom_site_fract_z
Si Si1 0.250000 0.750000 0.750000
Si Si2 0.495929 0.250000 0.750000
Si Si3 0.938588 0.420243 0.547503
Si Si4 0.646653 0.300934 0.433378
Si Si5 0.184536 0.621764 0.181881
Si Si6 0.469917 0.512689 0.626826
Si Si7 0.093857 0.098914 0.242288
O O1 0.300038 0.685748 0.663241
O O2 0.535762 0.182104 0.645661
O O3 0.459349 0.370322 0.687468
O O4 0.893378 0.336178 0.461161
O O5 0.901384 0.535043 0.615976
O O6 0.000000 0.500000 0.500000
O O7 0.683965 0.334321 0.550629
O O8 0.592358 0.402479 0.394183
O O9 0.158751 0.750000 0.250000
O O10 0.250000 0.592390 0.250000
O O11 0.138337 0.497328 0.185051
O O12 0.500000 0.500000 0.500000
O O13 0.522337 0.583858 0.708091
O O14 0.113138 0.250000 0.250000
#
# Coordination Sequence:
#
# PCOD9391012 Si02
#       7
#     2   4   8   8   8   8   8
#     4  12  32  40  62  98 136 192 226 262 330 428
#     4  10  22  38  60 108 128 168 218 276 368 400
#     4  11  22  37  66  96 132 166 217 284 346 400
#     4  12  24  45  65  96 136 177 232 275 339 423
#     4  11  22  42  70  92 124 177 230 282 327 402
#     4  11  21  39  68  94 135 169 214 285 352 401
#     4  11  23  37  61 104 132 159 217 285 355 389
#
# _framework density 18.647956000000001
#
# number of rings (size 3 to 8) (size 9 to 14) (size 15 to 20)
#    0.000    0.870    5.217    3.130    7.304    0.348 
#    0.000    0.000    0.000    0.522    0.000    0.000 
#    0.000    0.000    0.000    0.000    0.000    0.000 
#
# Total GULP energy -256329.002286 kJ/mol
# GULP energy per Si atom -5572.369615 kJ/mol
# Density = 1.860551 g / cm^3
# Si number density = 18.647956 Si / 1000 Ang^3
#
#
#
# Elastic Constant Matrix: (Units=GPa)
#
#
# Indices 1 2 3 4 5 6 
#
# 1 122.2527 42.0026 42.8571 0.0000 0.0000 0.0000
# 2 42.0026 132.7543 38.8766 0.0000 0.0000 0.0000
# 3 42.8571 38.8766 97.9574 0.0000 0.0000 0.0000
# 4 0.0000 0.0000 0.0000 37.2999 0.0000 0.0000
# 5 0.0000 0.0000 0.0000 0.0000 42.7010 0.0000
# 6 0.0000 0.0000 0.0000 0.0000 0.0000 35.1567
#
#
#
# Elastic Compliance Matrix: (Units=1/GPa)
#
#
# Indices 1 2 3 4 5 6 
#
# 1 0.010186 -0.002170 -0.003595 0.000000 0.000000 0.000000
# 2 -0.002170 0.008986 -0.002617 0.000000 0.000000 0.000000
# 3 -0.003595 -0.002617 0.012820 0.000000 0.000000 0.000000
# 4 0.000000 0.000000 0.000000 0.026810 0.000000 0.000000
# 5 0.000000 0.000000 0.000000 0.000000 0.023419 0.000000
# 6 0.000000 0.000000 0.000000 0.000000 0.000000 0.028444
#
#
# Mechanical properties :
#
#
# Convention : Reuss Voigt Hill
#
# Bulk Modulus (GPa) = 65.67035 66.71522 66.19279
# Shear Modulus (GPa) = 37.73502 38.31340 38.02421
#
# Velocity S-wave (km/s) = 4.50327 4.53765 4.52049
# Velocity P-wave (km/s) = 7.89503 7.95660 7.92587
#
# Compressibility (1/GPa) = 0.01522757
#
# Stress axis : x y z
#
# Youngs Moduli (GPa) = 98.17797 111.28979 78.00338
#
# Poissons Ratio (x) = 0.24148 0.28043
# Poissons Ratio (y) = 0.21303 0.20412
# Poissons Ratio (z) = 0.35296 0.29122
#
# Static dielectric constant tensor:
#      x y z
#    x 1.640450 0.000000 0.000000 
#    y 0.000000 1.672650 0.000000 
#    z 0.000000 0.000000 1.690450 
# 
# From -- ./inp_files/23303.got.cif
#   From: 2010.05.17/outbox.cif.g08.bks.cpg/sg48_12_cif.got.tgz:23303.got - 2010.06.03 20:39:00.
