data_PCOD9391814
_publ_section_title
;
Structure prediction by ZEFSAII (Michael W. Deem and Ramdas Pophale) SiO2 
 PCOD9391814
Probable space group: P N N N
;
_chemical_formula_sum "Si O2"
_cell_formula_units_Z 24
_cell_length_a 9.600645
_cell_length_b 8.073261
_cell_length_c 11.993200
_cell_angle_alpha 90.000000
_cell_angle_beta 90.000000
_cell_angle_gamma 90.000000
_cell_volume 929.575096
_symmetry_space_group_name_H-M "P N N N"
_symmetry_group_IT_number 48
_space_group.IT_coordinate_system_code '2'
_symmetry_cell_setting 'orthorhombic'
loop_
_space_group_symop_operation_xyz
x,y,z
1/2-x,1/2-y,z
x,1/2-y,1/2-z
1/2-x,y,1/2-z
-x,-y,-z
1/2+x,1/2+y,-z
-x,1/2+y,1/2+z
1/2+x,-y,1/2+z
loop_
_atom_site_type_symbol
_atom_site_label
_atom_site_fract_x
_atom_site_fract_y
_atom_site_fract_z
Si Si1 0.730654 0.053468 0.878974
Si Si2 0.043781 0.930573 0.700314
Si Si3 0.813440 0.930922 0.100701
O O1 0.750000 0.250000 0.889862
O O2 0.750000 0.005550 0.750000
O O3 0.570460 0.995296 0.886285
O O4 0.827823 0.965079 0.969901
O O5 0.015336 0.750000 0.750000
O O6 0.063582 0.046582 0.810288
O O7 0.192605 0.940914 0.638670
O O8 0.750000 0.750000 0.114636
#
# Coordination Sequence:
#
# PCOD9391814 Si02
#       3
#     8   8   8
#     4  11  27  45  69 100 147 184 238 290 360 422
#     4  11  24  46  75 102 141 187 241 293 361 426
#     4  11  25  44  75 106 141 186 240 296 361 425
#
# _framework density 25.818247
#
# number of rings (size 3 to 8) (size 9 to 14) (size 15 to 20)
#    0.000    1.000    0.000    7.000   14.000    1.333 
#    0.000    0.000    0.000    0.000    0.000    0.000 
#    0.000    0.000    0.000    0.000    0.000    0.000 
#
# Total GULP energy -134356.237646 kJ/mol
# GULP energy per Si atom -5598.176569 kJ/mol
# Density = 2.575948 g / cm^3
# Si number density = 25.818247 Si / 1000 Ang^3
#
#
#
# Elastic Constant Matrix: (Units=GPa)
#
#
# Indices 1 2 3 4 5 6 
#
# 1 47.3885 4.5179 7.9493 0.0000 0.0000 0.0000
# 2 4.5179 156.0208 30.8483 0.0000 0.0000 0.0000
# 3 7.9493 30.8483 178.8818 0.0000 0.0000 0.0000
# 4 0.0000 0.0000 0.0000 27.2541 0.0000 0.0000
# 5 0.0000 0.0000 0.0000 0.0000 39.7085 0.0000
# 6 0.0000 0.0000 0.0000 0.0000 0.0000 28.9644
#
#
#
# Elastic Compliance Matrix: (Units=1/GPa)
#
#
# Indices 1 2 3 4 5 6 
#
# 1 0.021290 -0.000445 -0.000869 0.000000 0.000000 0.000000
# 2 -0.000445 0.006645 -0.001126 0.000000 0.000000 0.000000
# 3 -0.000869 -0.001126 0.005823 0.000000 0.000000 0.000000
# 4 0.000000 0.000000 0.000000 0.036692 0.000000 0.000000
# 5 0.000000 0.000000 0.000000 0.000000 0.025184 0.000000
# 6 0.000000 0.000000 0.000000 0.000000 0.000000 0.034525
#
#
# Mechanical properties :
#
#
# Convention : Reuss Voigt Hill
#
# Bulk Modulus (GPa) = 34.62837 52.10245 43.36541
# Shear Modulus (GPa) = 34.56253 41.78377 38.17315
#
# Velocity S-wave (km/s) = 3.66278 4.02728 3.84934
# Velocity P-wave (km/s) = 5.59727 6.46912 6.04892
#
# Compressibility (1/GPa) = 0.02887806
#
# Stress axis : x y z
#
# Youngs Moduli (GPa) = 46.96950 150.49039 171.72893
#
# Poissons Ratio (x) = 0.06691 0.14931
# Poissons Ratio (y) = 0.02088 0.19340
# Poissons Ratio (z) = 0.04084 0.16948
#
# Static dielectric constant tensor:
#      x y z
#    x 2.252230 0.000000 0.000000 
#    y 0.000000 1.941820 0.000000 
#    z 0.000000 0.000000 2.107420 
# 
# From -- ./inp_files/19201.got.cif
#   From: 2010.05.17/outbox.cif.g08.bks.cpg/sg48_10_cif.got.tgz:19201.got - 2010.06.03 20:39:00.
