data_PCOD9391564
_publ_section_title
;
Structure prediction by ZEFSAII (Michael W. Deem and Ramdas Pophale) SiO2 
 PCOD9391564
Probable space group: P N N N
;
_chemical_formula_sum "Si O2"
_cell_formula_units_Z 40
_cell_length_a 11.502666
_cell_length_b 9.303210
_cell_length_c 17.978893
_cell_angle_alpha 90.000000
_cell_angle_beta 90.000000
_cell_angle_gamma 90.000000
_cell_volume 1923.952216
_symmetry_space_group_name_H-M "P N N N"
_symmetry_group_IT_number 48
_space_group.IT_coordinate_system_code '2'
_symmetry_cell_setting 'orthorhombic'
loop_
_space_group_symop_operation_xyz
x,y,z
1/2-x,1/2-y,z
x,1/2-y,1/2-z
1/2-x,y,1/2-z
-x,-y,-z
1/2+x,1/2+y,-z
-x,1/2+y,1/2+z
1/2+x,-y,1/2+z
loop_
_atom_site_type_symbol
_atom_site_label
_atom_site_fract_x
_atom_site_fract_y
_atom_site_fract_z
Si Si1 0.250000 0.494859 0.250000
Si Si2 0.026656 0.623541 0.092916
Si Si3 0.116962 0.079683 0.742958
Si Si4 0.881276 0.812646 0.547560
Si Si5 0.977604 0.646851 0.688070
Si Si6 0.750000 0.250000 0.864909
O O1 0.143585 0.397736 0.273642
O O2 0.233578 0.607123 0.183729
O O3 0.097471 0.481408 0.066253
O O4 0.124967 0.748274 0.097064
O O5 0.956868 0.567344 0.166109
O O6 0.933463 0.687712 0.035153
O O7 0.118086 0.250000 0.750000
O O8 0.250000 0.029150 0.750000
O O9 0.049543 0.000045 0.809328
O O10 0.750000 0.750000 0.550756
O O11 0.953288 0.722711 0.609860
O O12 0.036647 0.750000 0.750000
#
# Coordination Sequence:
#
# PCOD9391564 Si02
#       6
#     4   8   8   8   8   4
#     4  11  21  34  68 100 138 160 234 296 338 398
#     4  11  24  47  65 103 144 183 236 293 360 431
#     4  11  25  45  70  98 139 189 234 285 352 423
#     4  11  25  45  69  99 146 186 227 298 366 427
#     4  12  21  41  68 102 128 177 234 285 346 413
#     4  11  20  40  66  98 133 186 224 294 341 412
#
# _framework density 20.790537
#
# number of rings (size 3 to 8) (size 9 to 14) (size 15 to 20)
#    0.000    0.800    4.000    3.900    2.800    0.400 
#    7.200    5.000    0.000    0.000    0.000    0.000 
#    0.000    0.000    0.000    0.000    0.000    0.000 
#
# Total GULP energy -222829.104098 kJ/mol
# GULP energy per Si atom -5570.727602 kJ/mol
# Density = 2.074322 g / cm^3
# Si number density = 20.790537 Si / 1000 Ang^3
#
#
#
# Elastic Constant Matrix: (Units=GPa)
#
#
# Indices 1 2 3 4 5 6 
#
# 1 110.6430 13.6953 37.3152 0.0000 0.0000 0.0000
# 2 13.6953 52.9058 15.2293 0.0000 0.0000 0.0000
# 3 37.3152 15.2293 89.6159 0.0000 0.0000 0.0000
# 4 0.0000 0.0000 0.0000 37.6307 0.0000 0.0000
# 5 0.0000 0.0000 0.0000 0.0000 29.7566 0.0000
# 6 0.0000 0.0000 0.0000 0.0000 0.0000 20.2062
#
#
#
# Elastic Compliance Matrix: (Units=1/GPa)
#
#
# Indices 1 2 3 4 5 6 
#
# 1 0.010635 -0.001554 -0.004164 0.000000 0.000000 0.000000
# 2 -0.001554 0.020101 -0.002769 0.000000 0.000000 0.000000
# 3 -0.004164 -0.002769 0.013363 0.000000 0.000000 0.000000
# 4 0.000000 0.000000 0.000000 0.026574 0.000000 0.000000
# 5 0.000000 0.000000 0.000000 0.000000 0.033606 0.000000
# 6 0.000000 0.000000 0.000000 0.000000 0.000000 0.049490
#
#
# Mechanical properties :
#
#
# Convention : Reuss Voigt Hill
#
# Bulk Modulus (GPa) = 36.86695 42.84939 39.85817
# Shear Modulus (GPa) = 27.81106 29.98034 28.89570
#
# Velocity S-wave (km/s) = 3.66140 3.80151 3.73211
# Velocity P-wave (km/s) = 5.97038 6.31850 6.14691
#
# Compressibility (1/GPa) = 0.02712456
#
# Stress axis : x y z
#
# Youngs Moduli (GPa) = 94.03050 49.74910 74.83265
#
# Poissons Ratio (x) = 0.07732 0.31161
# Poissons Ratio (y) = 0.14615 0.20719
# Poissons Ratio (z) = 0.39155 0.13774
#
# Static dielectric constant tensor:
#      x y z
#    x 1.847850 0.000000 0.000000 
#    y 0.000000 1.728880 0.000000 
#    z 0.000000 0.000000 1.814230 
# 
# From -- ./inp_files/34055.got.cif
#   From: 2010.05.17/outbox.cif.g08.bks.cpg/sg48_18_cif.got.tgz:34055.got - 2010.06.03 20:39:00.
