data_PCOD9391538
_publ_section_title
;
Structure prediction by ZEFSAII (Michael W. Deem and Ramdas Pophale) SiO2 
 PCOD9391538
Probable space group: P N N N
;
_chemical_formula_sum "Si O2"
_cell_formula_units_Z 48
_cell_length_a 17.884124
_cell_length_b 22.341433
_cell_length_c 4.959310
_cell_angle_alpha 90.000000
_cell_angle_beta 90.000000
_cell_angle_gamma 90.000000
_cell_volume 1981.526818
_symmetry_space_group_name_H-M "P N N N"
_symmetry_group_IT_number 48
_space_group.IT_coordinate_system_code '2'
_symmetry_cell_setting 'orthorhombic'
loop_
_space_group_symop_operation_xyz
x,y,z
1/2-x,1/2-y,z
x,1/2-y,1/2-z
1/2-x,y,1/2-z
-x,-y,-z
1/2+x,1/2+y,-z
-x,1/2+y,1/2+z
1/2+x,-y,1/2+z
loop_
_atom_site_type_symbol
_atom_site_label
_atom_site_fract_x
_atom_site_fract_y
_atom_site_fract_z
Si Si1 0.011054 0.939104 0.156644
Si Si2 0.834591 0.659666 0.838597
Si Si3 0.923986 0.289202 0.978734
Si Si4 0.798722 0.529752 0.002536
Si Si5 0.103269 0.917285 0.663092
Si Si6 0.078022 0.170674 0.828107
O O1 0.037515 0.939713 0.462449
O O2 0.936946 0.900217 0.147990
O O3 0.074756 0.909288 0.967927
O O4 0.000000 0.000000 0.000000
O O5 0.750000 0.671135 0.750000
O O6 0.841496 0.587050 0.875734
O O7 0.604904 0.684925 0.872719
O O8 0.855274 0.684987 0.128123
O O9 0.883848 0.250000 0.750000
O O10 0.002097 0.308011 0.824202
O O11 0.937114 0.250000 0.250000
O O12 0.881669 0.350247 0.058087
O O13 0.750000 0.507314 0.750000
O O14 0.750000 0.555368 0.250000
O O15 0.839502 0.471715 0.126275
#
# Coordination Sequence:
#
# PCOD9391538 Si02
#       6
#     8   8   8   8   8   8
#     4  11  20  33  55  87 121 149 183 239 301 361
#     4  11  21  36  57  87 123 160 192 227 283 362
#     4  11  23  41  63  86 112 150 201 262 315 346
#     4  11  22  37  58  87 126 167 196 227 282 362
#     4  11  22  37  58  86 117 154 198 241 295 357
#     4  11  21  36  58  85 115 152 198 244 298 358
#
# _framework density 24.223745999999998
#
# number of rings (size 3 to 8) (size 9 to 14) (size 15 to 20)
#    0.000    1.000    0.000   11.000    0.000    0.000 
#    0.000    0.000    0.000   10.500    0.000    0.000 
#    0.000    0.000    0.000    0.000    0.000    0.000 
#
# Total GULP energy -268143.666270 kJ/mol
# GULP energy per Si atom -5586.326381 kJ/mol
# Density = 2.416861 g / cm^3
# Si number density = 24.223746 Si / 1000 Ang^3
#
#
#
# Elastic Constant Matrix: (Units=GPa)
#
#
# Indices 1 2 3 4 5 6 
#
# 1 29.6513 8.8209 27.4352 0.0000 0.0000 0.0000
# 2 8.8209 137.3886 27.3343 0.0000 0.0000 0.0000
# 3 27.4352 27.3343 156.2050 0.0000 0.0000 0.0000
# 4 0.0000 0.0000 0.0000 40.6371 0.0000 0.0000
# 5 0.0000 0.0000 0.0000 0.0000 26.3033 0.0000
# 6 0.0000 0.0000 0.0000 0.0000 0.0000 2.7823
#
#
#
# Elastic Compliance Matrix: (Units=1/GPa)
#
#
# Indices 1 2 3 4 5 6 
#
# 1 0.040468 -0.001227 -0.006893 0.000000 0.000000 0.000000
# 2 -0.001227 0.007578 -0.001111 0.000000 0.000000 0.000000
# 3 -0.006893 -0.001111 0.007807 0.000000 0.000000 0.000000
# 4 0.000000 0.000000 0.000000 0.024608 0.000000 0.000000
# 5 0.000000 0.000000 0.000000 0.000000 0.038018 0.000000
# 6 0.000000 0.000000 0.000000 0.000000 0.000000 0.359410
#
#
# Mechanical properties :
#
#
# Convention : Reuss Voigt Hill
#
# Bulk Modulus (GPa) = 26.74338 50.04730 38.39534
# Shear Modulus (GPa) = 9.82677 31.25485 20.54081
#
# Velocity S-wave (km/s) = 2.01630 3.59591 2.91514
# Velocity P-wave (km/s) = 4.06014 6.16004 5.21684
#
# Compressibility (1/GPa) = 0.03739243
#
# Stress axis : x y z
#
# Youngs Moduli (GPa) = 24.71080 131.95459 128.09261
#
# Poissons Ratio (x) = 0.16188 0.88294
# Poissons Ratio (y) = 0.03032 0.14227
# Poissons Ratio (z) = 0.17033 0.14656
#
# Static dielectric constant tensor:
#      x y z
#    x 1.968980 0.000000 0.000000 
#    y 0.000000 2.064090 0.000000 
#    z 0.000000 0.000000 1.832120 
# 
# From -- ./inp_files/4529.got.cif
#   From: 2010.05.17/outbox.cif.g08.bks.cpg/sg48_3_cif.got.tgz:4529.got - 2010.06.03 20:39:00.
