data_PCOD9391093
_publ_section_title
;
Structure prediction by ZEFSAII (Michael W. Deem and Ramdas Pophale) SiO2 
 PCOD9391093
Probable space group: P N N N
;
_chemical_formula_sum "Si O2"
_cell_formula_units_Z 48
_cell_length_a 15.181834
_cell_length_b 12.147534
_cell_length_c 12.392391
_cell_angle_alpha 90.000000
_cell_angle_beta 90.000000
_cell_angle_gamma 90.000000
_cell_volume 2285.427608
_symmetry_space_group_name_H-M "P N N N"
_symmetry_group_IT_number 48
_space_group.IT_coordinate_system_code '2'
_symmetry_cell_setting 'orthorhombic'
loop_
_space_group_symop_operation_xyz
x,y,z
1/2-x,1/2-y,z
x,1/2-y,1/2-z
1/2-x,y,1/2-z
-x,-y,-z
1/2+x,1/2+y,-z
-x,1/2+y,1/2+z
1/2+x,-y,1/2+z
loop_
_atom_site_type_symbol
_atom_site_label
_atom_site_fract_x
_atom_site_fract_y
_atom_site_fract_z
Si Si1 0.429374 0.900071 0.010523
Si Si2 0.088444 0.847071 0.996105
Si Si3 0.567470 0.561895 0.874999
Si Si4 0.225605 0.367314 0.519648
Si Si5 0.742260 0.091510 0.125948
Si Si6 0.832715 0.966544 0.674129
O O1 0.374964 0.928517 0.118237
O O2 0.454252 0.771983 0.017059
O O3 0.358171 0.903120 0.914138
O O4 0.500000 0.000000 0.000000
O O5 0.188264 0.844303 0.951238
O O6 0.030781 0.904876 0.902875
O O7 0.082641 0.932670 0.095935
O O8 0.632615 0.624485 0.957807
O O9 0.596561 0.587321 0.753749
O O10 0.250000 0.250000 0.565746
O O11 0.230377 0.464631 0.605347
O O12 0.296419 0.393173 0.424007
O O13 0.750000 0.122905 0.250000
O O14 0.750000 0.992535 0.750000
#
# Coordination Sequence:
#
# PCOD9391093 Si02
#       6
#     8   8   8   8   8   8
#     4  11  25  41  62  95 130 162 214 277 317 372
#     4  10  22  41  62  87 128 169 206 263 318 382
#     4   9  20  38  62  89 119 165 209 253 321 384
#     4   9  19  37  61  90 128 161 203 273 322 376
#     4  10  23  42  61  89 125 172 220 252 322 394
#     4   9  20  39  61  93 122 158 213 257 319 383
#
# _framework density 21.002635000000001
#
# number of rings (size 3 to 8) (size 9 to 14) (size 15 to 20)
#    0.000    2.333    0.000    1.500    7.000    5.333 
#    0.000    4.167    0.000    0.000    0.000    0.000 
#    0.000    0.000    0.000    0.000    0.000    0.000 
#
# Total GULP energy -267768.659211 kJ/mol
# GULP energy per Si atom -5578.513734 kJ/mol
# Density = 2.095483 g / cm^3
# Si number density = 21.002635 Si / 1000 Ang^3
#
#
#
# Elastic Constant Matrix: (Units=GPa)
#
#
# Indices 1 2 3 4 5 6 
#
# 1 78.3786 28.5741 3.7558 0.0000 0.0000 0.0000
# 2 28.5741 134.9903 -4.8672 0.0000 0.0000 0.0000
# 3 3.7558 -4.8672 31.1382 0.0000 0.0000 0.0000
# 4 0.0000 0.0000 0.0000 0.6080 0.0000 0.0000
# 5 0.0000 0.0000 0.0000 0.0000 14.3401 0.0000
# 6 0.0000 0.0000 0.0000 0.0000 0.0000 29.1492
#
#
#
# Elastic Compliance Matrix: (Units=1/GPa)
#
#
# Indices 1 2 3 4 5 6 
#
# 1 0.013968 -0.003035 -0.002159 0.000000 0.000000 0.000000
# 2 -0.003035 0.008109 0.001634 0.000000 0.000000 0.000000
# 3 -0.002159 0.001634 0.032631 0.000000 0.000000 0.000000
# 4 0.000000 0.000000 0.000000 1.644672 0.000000 0.000000
# 5 0.000000 0.000000 0.000000 0.000000 0.069735 0.000000
# 6 0.000000 0.000000 0.000000 0.000000 0.000000 0.034306
#
#
# Mechanical properties :
#
#
# Convention : Reuss Voigt Hill
#
# Bulk Modulus (GPa) = 21.01379 33.27028 27.14203
# Shear Modulus (GPa) = 2.73762 23.28909 13.01335
#
# Velocity S-wave (km/s) = 1.14293 3.33358 2.49189
# Velocity P-wave (km/s) = 3.43056 5.54007 4.60766
#
# Compressibility (1/GPa) = 0.04758779
#
# Stress axis : x y z
#
# Youngs Moduli (GPa) = 71.59036 123.31691 30.64603
#
# Poissons Ratio (x) = 0.37422 0.06617
# Poissons Ratio (y) = 0.21725 -0.05006
# Poissons Ratio (z) = 0.15458 -0.20145
#
# Static dielectric constant tensor:
#      x y z
#    x 1.802270 0.000000 0.000000 
#    y 0.000000 1.799670 0.000000 
#    z 0.000000 0.000000 1.726220 
# 
# From -- ./inp_files/27238.got.cif
#   From: 2010.05.17/outbox.cif.g08.bks.cpg/sg48_14_cif.got.tgz:27238.got - 2010.06.03 20:39:00.
