data_PCOD9391967
_publ_section_title
;
Structure prediction by ZEFSAII (Michael W. Deem and Ramdas Pophale) SiO2 
 PCOD9391967
Probable space group: P N N N
;
_chemical_formula_sum "Si O2"
_cell_formula_units_Z 50
_cell_length_a 15.000000
_cell_length_b 18.000000
_cell_length_c 9.000000
_cell_angle_alpha 90.000000
_cell_angle_beta 90.000000
_cell_angle_gamma 90.000000
_cell_volume 2430.000000
_symmetry_space_group_name_H-M "P N N N"
_symmetry_group_IT_number 48
_space_group.IT_coordinate_system_code '2'
_symmetry_cell_setting 'orthorhombic'
loop_
_space_group_symop_operation_xyz
x,y,z
1/2-x,1/2-y,z
x,1/2-y,1/2-z
1/2-x,y,1/2-z
-x,-y,-z
1/2+x,1/2+y,-z
-x,1/2+y,1/2+z
1/2+x,-y,1/2+z
loop_
_atom_site_type_symbol
_atom_site_label
_atom_site_fract_x
_atom_site_fract_y
_atom_site_fract_z
Si Si1 0.418756 0.772625 0.581449
Si Si2 0.224120 0.476030 0.568249
Si Si3 0.250000 0.250000 0.250000
Si Si4 0.395636 0.364922 0.127884
Si Si5 0.578937 0.939226 0.959955
Si Si6 0.170413 0.617972 0.372391
Si Si7 0.013818 0.827863 0.335336
O O1 0.398437 0.750000 0.750000
O O2 0.511301 0.822602 0.585040
O O3 0.342706 0.815246 0.489601
O O4 0.434613 0.699753 0.482403
O O5 0.250000 0.478092 0.750000
O O6 0.151402 0.414398 0.504620
O O7 0.320825 0.466903 0.490240
O O8 0.184112 0.549067 0.485040
O O9 0.318641 0.304011 0.163070
O O10 0.418307 0.408811 0.286338
O O11 0.563347 0.875730 0.086917
O O12 0.500000 0.000000 0.000000
O O13 0.250000 0.622692 0.250000
O O14 0.079134 0.624451 0.272332
O O15 0.989922 0.750000 0.250000
#
# Coordination Sequence:
#
# PCOD9391967 Si02
#       7
#     8   8   2   8   8   8   8
#     4  11  24  44  77 114 142 188 259 305 380 443
#     4  12  29  46  70 113 147 197 254 304 375 447
#     4  12  20  44  78 104 152 194 232 304 384 464
#     4  12  24  46  74 109 151 196 241 308 382 451
#     4  12  24  45  76 103 151 197 249 305 379 455
#     4  11  26  50  73 101 151 200 246 308 375 451
#     4  10  23  43  72 106 144 192 246 305 376 448
#
# _framework density 20.576132000000001
#
# number of rings (size 3 to 8) (size 9 to 14) (size 15 to 20)
#    0.000    0.640    4.000    2.880    6.720    4.800 
#    0.000    1.200    0.000    0.000    0.000    0.000 
#    0.000    0.000    0.000    0.000    0.000    0.000 
#
# Total GULP energy -278807.772162 kJ/mol
# GULP energy per Si atom -5576.155443 kJ/mol
# Density = 2.052930 g / cm^3
# Si number density = 20.576132 Si / 1000 Ang^3
#
#
#
# Elastic Constant Matrix: (Units=GPa)
#
#
# Indices 1 2 3 4 5 6 
#
# 1 58.7689 27.5974 18.0374 0.0000 0.0000 0.0000
# 2 27.5974 78.7657 32.5746 0.0000 0.0000 0.0000
# 3 18.0374 32.5746 176.8177 0.0000 0.0000 0.0000
# 4 0.0000 0.0000 0.0000 42.9664 0.0000 0.0000
# 5 0.0000 0.0000 0.0000 0.0000 51.1410 0.0000
# 6 0.0000 0.0000 0.0000 0.0000 0.0000 41.9973
#
#
#
# Elastic Compliance Matrix: (Units=1/GPa)
#
#
# Indices 1 2 3 4 5 6 
#
# 1 0.020479 -0.006832 -0.000830 0.000000 0.000000 0.000000
# 2 -0.006832 0.016022 -0.002255 0.000000 0.000000 0.000000
# 3 -0.000830 -0.002255 0.006156 0.000000 0.000000 0.000000
# 4 0.000000 0.000000 0.000000 0.023274 0.000000 0.000000
# 5 0.000000 0.000000 0.000000 0.000000 0.019554 0.000000
# 6 0.000000 0.000000 0.000000 0.000000 0.000000 0.023811
#
#
# Mechanical properties :
#
#
# Convention : Reuss Voigt Hill
#
# Bulk Modulus (GPa) = 43.81646 52.30789 48.06217
# Shear Modulus (GPa) = 36.56656 42.96380 39.76518
#
# Velocity S-wave (km/s) = 4.22018 4.57447 4.40089
# Velocity P-wave (km/s) = 6.71473 7.30601 7.01660
#
# Compressibility (1/GPa) = 0.02282248
#
# Stress axis : x y z
#
# Youngs Moduli (GPa) = 48.83089 62.41401 162.45244
#
# Poissons Ratio (x) = 0.42640 0.13491
# Poissons Ratio (y) = 0.33360 0.36629
# Poissons Ratio (z) = 0.04055 0.14073
#
# Static dielectric constant tensor:
#      x y z
#    x 1.733590 0.000000 0.000000 
#    y 0.000000 1.839020 0.000000 
#    z 0.000000 0.000000 1.743800 
# 
# From -- ./inp_files/12824.got.cif
#   From: 2010.05.17/outbox.ucp.g08.bks.cvg/sg48_7_cif.got.tgz:12824.got - 2010.06.11 16:38:40.
