data_PCOD9391019
_publ_section_title
;
Structure prediction by ZEFSAII (Michael W. Deem and Ramdas Pophale) SiO2 
 PCOD9391019
Probable space group: P N N N
;
_chemical_formula_sum "Si O2"
_cell_formula_units_Z 56
_cell_length_a 15.528276
_cell_length_b 8.692696
_cell_length_c 20.450097
_cell_angle_alpha 90.000000
_cell_angle_beta 90.000000
_cell_angle_gamma 90.000000
_cell_volume 2760.406909
_symmetry_space_group_name_H-M "P N N N"
_symmetry_group_IT_number 48
_space_group.IT_coordinate_system_code '2'
_symmetry_cell_setting 'orthorhombic'
loop_
_space_group_symop_operation_xyz
x,y,z
1/2-x,1/2-y,z
x,1/2-y,1/2-z
1/2-x,y,1/2-z
-x,-y,-z
1/2+x,1/2+y,-z
-x,1/2+y,1/2+z
1/2+x,-y,1/2+z
loop_
_atom_site_type_symbol
_atom_site_label
_atom_site_fract_x
_atom_site_fract_y
_atom_site_fract_z
Si Si1 0.404906 0.573197 0.507649
Si Si2 0.978178 0.842682 0.966148
Si Si3 0.608027 0.468802 0.856916
Si Si4 0.847683 0.800827 0.427780
Si Si5 0.213666 0.417836 0.100909
Si Si6 0.988822 0.801504 0.324845
Si Si7 0.418152 0.406463 0.283650
O O1 0.500000 0.500000 0.500000
O O2 0.434673 0.742655 0.527716
O O3 0.354867 0.484478 0.564385
O O4 0.348790 0.519169 0.445355
O O5 0.945514 0.895565 0.894462
O O6 0.901589 0.768590 0.010340
O O7 0.000000 0.000000 0.000000
O O8 0.702695 0.478782 0.886246
O O9 0.560634 0.304212 0.861108
O O10 0.614399 0.501241 0.779855
O O11 0.750000 0.750000 0.426276
O O12 0.902223 0.764565 0.363577
O O13 0.250000 0.250000 0.077634
O O14 0.160325 0.379405 0.166635
O O15 0.981842 0.750000 0.250000
O O16 0.016063 0.980716 0.321699
O O17 0.452023 0.250000 0.250000
#
# Coordination Sequence:
#
# PCOD9391019 Si02
#       7
#     8   8   8   8   8   8   8
#     4  10  22  38  64  89 127 171 220 258 320 395
#     4  11  22  41  66  90 129 172 214 264 329 388
#     4  11  23  39  63  89 134 167 215 268 327 397
#     4  11  22  41  67  95 124 163 221 278 326 394
#     4  12  22  38  62  96 131 170 218 266 334 394
#     4  10  24  44  62  93 123 172 215 264 339 398
#     4  11  23  38  64  92 129 170 217 262 321 402
#
# _framework density 20.286864999999999
#
# number of rings (size 3 to 8) (size 9 to 14) (size 15 to 20)
#    0.000    1.143    2.857    5.143    2.000    0.857 
#    0.000    4.286    0.000    0.000    0.000    1.000 
#    0.000    0.000    0.000    0.000    0.000    0.000 
#
# Total GULP energy -312255.387356 kJ/mol
# GULP energy per Si atom -5575.989060 kJ/mol
# Density = 2.024069 g / cm^3
# Si number density = 20.286865 Si / 1000 Ang^3
#
#
#
# Elastic Constant Matrix: (Units=GPa)
#
#
# Indices 1 2 3 4 5 6 
#
# 1 150.2124 67.4006 54.8232 0.0000 0.0000 0.0000
# 2 67.4006 127.7826 24.8335 0.0000 0.0000 0.0000
# 3 54.8232 24.8335 100.7309 0.0000 0.0000 0.0000
# 4 0.0000 0.0000 0.0000 29.6349 0.0000 0.0000
# 5 0.0000 0.0000 0.0000 0.0000 36.7845 0.0000
# 6 0.0000 0.0000 0.0000 0.0000 0.0000 29.3310
#
#
#
# Elastic Compliance Matrix: (Units=1/GPa)
#
#
# Indices 1 2 3 4 5 6 
#
# 1 0.010362 -0.004589 -0.004508 0.000000 0.000000 0.000000
# 2 -0.004589 0.010252 -0.000030 0.000000 0.000000 0.000000
# 3 -0.004508 -0.000030 0.012388 0.000000 0.000000 0.000000
# 4 0.000000 0.000000 0.000000 0.033744 0.000000 0.000000
# 5 0.000000 0.000000 0.000000 0.000000 0.027185 0.000000
# 6 0.000000 0.000000 0.000000 0.000000 0.000000 0.034094
#
#
# Mechanical properties :
#
#
# Convention : Reuss Voigt Hill
#
# Bulk Modulus (GPa) = 67.80534 74.76005 71.28270
# Shear Modulus (GPa) = 33.06974 34.59466 33.83220
#
# Velocity S-wave (km/s) = 4.04184 4.13398 4.08817
# Velocity P-wave (km/s) = 7.43490 7.72773 7.58273
#
# Compressibility (1/GPa) = 0.01474810
#
# Stress axis : x y z
#
# Youngs Moduli (GPa) = 96.50840 97.53910 80.72151
#
# Poissons Ratio (x) = 0.44764 0.36389
# Poissons Ratio (y) = 0.44291 0.00240
# Poissons Ratio (z) = 0.43506 0.00290
#
# Static dielectric constant tensor:
#      x y z
#    x 1.753700 0.000000 0.000000 
#    y 0.000000 1.830340 0.000000 
#    z 0.000000 0.000000 1.794610 
# 
# From -- ./inp_files/34472.got.cif
#   From: 2010.05.17/outbox.cif.g08.bks.cpg/sg48_18_cif.got.tgz:34472.got - 2010.06.03 20:39:00.
