data_PCOD9391066
_publ_section_title
;
Structure prediction by ZEFSAII (Michael W. Deem and Ramdas Pophale) SiO2 
 PCOD9391066
Probable space group: P N N N
;
_chemical_formula_sum "Si O2"
_cell_formula_units_Z 56
_cell_length_a 15.469612
_cell_length_b 11.515619
_cell_length_c 14.574244
_cell_angle_alpha 90.000000
_cell_angle_beta 90.000000
_cell_angle_gamma 90.000000
_cell_volume 2596.287275
_symmetry_space_group_name_H-M "P N N N"
_symmetry_group_IT_number 48
_space_group.IT_coordinate_system_code '2'
_symmetry_cell_setting 'orthorhombic'
loop_
_space_group_symop_operation_xyz
x,y,z
1/2-x,1/2-y,z
x,1/2-y,1/2-z
1/2-x,y,1/2-z
-x,-y,-z
1/2+x,1/2+y,-z
-x,1/2+y,1/2+z
1/2+x,-y,1/2+z
loop_
_atom_site_type_symbol
_atom_site_label
_atom_site_fract_x
_atom_site_fract_y
_atom_site_fract_z
Si Si1 0.140544 0.621740 0.786934
Si Si2 0.031659 0.165726 0.520031
Si Si3 0.204297 0.533795 0.605959
Si Si4 0.980167 0.511729 0.851802
Si Si5 0.323377 0.157476 0.460905
Si Si6 0.341181 0.535846 0.197553
Si Si7 0.850682 0.212077 0.961842
O O1 0.158820 0.750000 0.750000
O O2 0.160445 0.530641 0.705517
O O3 0.203319 0.591516 0.871048
O O4 0.042251 0.610342 0.812936
O O5 0.057401 0.070232 0.443515
O O6 0.091245 0.275816 0.497399
O O7 0.929642 0.200427 0.520536
O O8 0.038471 0.097641 0.616401
O O9 0.211584 0.418761 0.546332
O O10 0.147108 0.619492 0.544154
O O11 0.910662 0.479615 0.777115
O O12 0.250000 0.250000 0.435048
O O13 0.339435 0.072106 0.374481
O O14 0.250000 0.547701 0.250000
O O15 0.363408 0.646627 0.134723
O O16 0.750000 0.250000 0.959690
#
# Coordination Sequence:
#
# PCOD9391066 Si02
#       7
#     8   8   8   8   8   8   8
#     4  11  22  39  68  98 126 171 222 281 337 389
#     4  11  25  43  66  95 135 182 222 271 355 396
#     4  10  22  40  64  97 130 165 223 273 334 407
#     4  11  25  42  64  97 133 169 229 283 321 411
#     4  11  25  44  67  94 139 182 221 274 346 410
#     4  11  26  43  67  99 135 175 232 281 331 406
#     4  11  23  42  69  95 133 178 224 281 346 400
#
# _framework density 21.569261000000001
#
# number of rings (size 3 to 8) (size 9 to 14) (size 15 to 20)
#    0.000    1.143    0.000    6.000    6.000    9.143 
#    0.000    4.286    0.000    0.000    0.000    0.000 
#    0.000    0.000    0.000    0.000    0.000    0.000 
#
# Total GULP energy -312844.273810 kJ/mol
# GULP energy per Si atom -5586.504889 kJ/mol
# Density = 2.152017 g / cm^3
# Si number density = 21.569261 Si / 1000 Ang^3
#
#
#
# Elastic Constant Matrix: (Units=GPa)
#
#
# Indices 1 2 3 4 5 6 
#
# 1 84.2285 11.3115 40.9714 0.0000 0.0000 0.0000
# 2 11.3115 39.2020 30.5501 0.0000 0.0000 0.0000
# 3 40.9714 30.5501 139.0008 0.0000 0.0000 0.0000
# 4 0.0000 0.0000 0.0000 28.6420 0.0000 0.0000
# 5 0.0000 0.0000 0.0000 0.0000 29.7456 0.0000
# 6 0.0000 0.0000 0.0000 0.0000 0.0000 29.3792
#
#
#
# Elastic Compliance Matrix: (Units=1/GPa)
#
#
# Indices 1 2 3 4 5 6 
#
# 1 0.013891 -0.000986 -0.003878 0.000000 0.000000 0.000000
# 2 -0.000986 0.030851 -0.006490 0.000000 0.000000 0.000000
# 3 -0.003878 -0.006490 0.009764 0.000000 0.000000 0.000000
# 4 0.000000 0.000000 0.000000 0.034914 0.000000 0.000000
# 5 0.000000 0.000000 0.000000 0.000000 0.033618 0.000000
# 6 0.000000 0.000000 0.000000 0.000000 0.000000 0.034038
#
#
# Mechanical properties :
#
#
# Convention : Reuss Voigt Hill
#
# Bulk Modulus (GPa) = 31.44851 47.56636 39.50743
# Shear Modulus (GPa) = 26.26288 29.52657 27.89472
#
# Velocity S-wave (km/s) = 3.49321 3.70390 3.60010
# Velocity P-wave (km/s) = 5.55715 6.35552 5.96969
#
# Compressibility (1/GPa) = 0.03179801
#
# Stress axis : x y z
#
# Youngs Moduli (GPa) = 71.98816 32.41383 102.42178
#
# Poissons Ratio (x) = 0.03197 0.39716
# Poissons Ratio (y) = 0.07100 0.66470
# Poissons Ratio (z) = 0.27915 0.21036
#
# Static dielectric constant tensor:
#      x y z
#    x 1.790450 0.000000 0.000000 
#    y 0.000000 1.831840 0.000000 
#    z 0.000000 0.000000 1.815770 
# 
# From -- ./inp_files/27296.got.cif
#   From: 2010.05.17/outbox.cif.g08.bks.cpg/sg48_14_cif.got.tgz:27296.got - 2010.06.03 20:39:00.
