data_PCOD9391665
_publ_section_title
;
Structure prediction by ZEFSAII (Michael W. Deem and Ramdas Pophale) SiO2 
 PCOD9391665
Probable space group: P N N N
;
_chemical_formula_sum "Si O2"
_cell_formula_units_Z 58
_cell_length_a 8.586073
_cell_length_b 27.915434
_cell_length_c 11.808506
_cell_angle_alpha 90.000000
_cell_angle_beta 90.000000
_cell_angle_gamma 90.000000
_cell_volume 2830.309411
_symmetry_space_group_name_H-M "P N N N"
_symmetry_group_IT_number 48
_space_group.IT_coordinate_system_code '2'
_symmetry_cell_setting 'orthorhombic'
loop_
_space_group_symop_operation_xyz
x,y,z
1/2-x,1/2-y,z
x,1/2-y,1/2-z
1/2-x,y,1/2-z
-x,-y,-z
1/2+x,1/2+y,-z
-x,1/2+y,1/2+z
1/2+x,-y,1/2+z
loop_
_atom_site_type_symbol
_atom_site_label
_atom_site_fract_x
_atom_site_fract_y
_atom_site_fract_z
Si Si1 0.250000 0.250000 0.250000
Si Si2 0.976960 0.528638 0.882694
Si Si3 0.698824 0.380976 0.378920
Si Si4 0.932758 0.263789 0.620841
Si Si5 0.565250 0.566271 0.283378
Si Si6 0.067719 0.306023 0.063712
Si Si7 0.781348 0.900752 0.506467
Si Si8 0.450614 0.877512 0.420750
O O1 0.134655 0.280107 0.172286
O O2 0.109588 0.568485 0.870536
O O3 0.993615 0.486819 0.791186
O O4 0.000000 0.500000 0.000000
O O5 0.822311 0.560777 0.896922
O O6 0.750000 0.370576 0.250000
O O7 0.584514 0.337706 0.412504
O O8 0.822068 0.385186 0.481777
O O9 0.750000 0.250000 0.604769
O O10 0.972802 0.250000 0.750000
O O11 0.958530 0.320213 0.598728
O O12 0.032327 0.231809 0.534541
O O13 0.750000 0.562695 0.250000
O O14 0.590853 0.589690 0.407319
O O15 0.453587 0.598452 0.204539
O O16 0.196141 0.345659 0.035640
O O17 0.605473 0.903434 0.467538
#
# Coordination Sequence:
#
# PCOD9391665 Si02
#       8
#     2   8   8   8   8   8   8   8
#     4  12  28  40  72  92 132 180 238 270 320 424
#     4   9  19  42  63  90 129 172 221 281 339 405
#     4  11  25  42  65  92 136 178 226 283 342 409
#     4  11  23  41  66 102 141 174 227 283 346 420
#     4   9  18  37  67  95 130 172 221 281 345 410
#     4  11  24  43  64  97 131 180 223 278 336 402
#     4   9  20  39  65  95 135 170 224 280 339 403
#     4  11  22  41  66  99 133 176 225 284 343 413
#
# _framework density 20.492460000000001
#
# number of rings (size 3 to 8) (size 9 to 14) (size 15 to 20)
#    0.000    1.793    1.379    2.069    3.862    0.000 
#    0.000   14.828    0.000    0.000    0.000    0.000 
#    0.000    0.000    0.000    0.000    0.000    0.000 
#
# Total GULP energy -323331.005531 kJ/mol
# GULP energy per Si atom -5574.672509 kJ/mol
# Density = 2.044582 g / cm^3
# Si number density = 20.492460 Si / 1000 Ang^3
#
#
#
# Elastic Constant Matrix: (Units=GPa)
#
#
# Indices 1 2 3 4 5 6 
#
# 1 52.4738 8.2220 19.0621 0.0000 0.0000 0.0000
# 2 8.2220 132.7190 28.9182 0.0000 0.0000 0.0000
# 3 19.0621 28.9182 73.2073 0.0000 0.0000 0.0000
# 4 0.0000 0.0000 0.0000 -107.3636 0.0000 0.0000
# 5 0.0000 0.0000 0.0000 0.0000 -14.6357 0.0000
# 6 0.0000 0.0000 0.0000 0.0000 0.0000 33.7706
#
#
#
# Elastic Compliance Matrix: (Units=1/GPa)
#
#
# Indices 1 2 3 4 5 6 
#
# 1 0.021050 -0.000120 -0.005434 0.000000 0.000000 0.000000
# 2 -0.000120 0.008245 -0.003226 0.000000 0.000000 0.000000
# 3 -0.005434 -0.003226 0.016349 0.000000 0.000000 0.000000
# 4 0.000000 0.000000 0.000000 -0.009314 0.000000 0.000000
# 5 0.000000 0.000000 0.000000 0.000000 -0.068326 0.000000
# 6 0.000000 0.000000 0.000000 0.000000 0.000000 0.029612
#
#
# Mechanical properties :
#
#
# Convention : Reuss Voigt Hill
#
# Bulk Modulus (GPa) = 35.60626 41.20050 38.40338
# Shear Modulus (GPa) = 203.78700 -4.16588 99.81056
#
# Velocity S-wave (km/s) = 9.98302 -1.42734 6.98654
# Velocity P-wave (km/s) = 12.25945 4.17522 9.15769
#
# Compressibility (1/GPa) = 0.02808495
#
# Stress axis : x y z
#
# Youngs Moduli (GPa) = 47.50634 121.28575 61.16639
#
# Poissons Ratio (x) = 0.01457 0.33235
# Poissons Ratio (y) = 0.00571 0.19730
# Poissons Ratio (z) = 0.25813 0.39122
#
# Static dielectric constant tensor:
#      x y z
#    x 1.650210 0.000000 0.000000 
#    y 0.000000 1.702700 0.000000 
#    z 0.000000 0.000000 1.558240 
# 
# From -- ./inp_files/18983.got.cif
#   From: 2010.05.17/outbox.cif.g08.bks.cpg/sg48_10_cif.got.tgz:18983.got - 2010.06.03 20:39:00.
