data_PCOD9391361
_publ_section_title
;
Structure prediction by ZEFSAII (Michael W. Deem and Ramdas Pophale) SiO2 
 PCOD9391361
Probable space group: P N N N
;
_chemical_formula_sum "Si O2"
_cell_formula_units_Z 54
_cell_length_a 12.032667
_cell_length_b 13.493888
_cell_length_c 14.242245
_cell_angle_alpha 90.000000
_cell_angle_beta 90.000000
_cell_angle_gamma 90.000000
_cell_volume 2312.477157
_symmetry_space_group_name_H-M "P N N N"
_symmetry_group_IT_number 48
_space_group.IT_coordinate_system_code '2'
_symmetry_cell_setting 'orthorhombic'
loop_
_space_group_symop_operation_xyz
x,y,z
1/2-x,1/2-y,z
x,1/2-y,1/2-z
1/2-x,y,1/2-z
-x,-y,-z
1/2+x,1/2+y,-z
-x,1/2+y,1/2+z
1/2+x,-y,1/2+z
loop_
_atom_site_type_symbol
_atom_site_label
_atom_site_fract_x
_atom_site_fract_y
_atom_site_fract_z
Si Si1 0.363370 0.909254 0.300942
Si Si2 0.501329 0.180659 0.521079
Si Si3 0.750000 0.410643 0.250000
Si Si4 0.284000 0.852186 0.554920
Si Si5 0.075374 0.097431 0.518538
Si Si6 0.294466 0.056335 0.447257
Si Si7 0.250000 0.250000 0.750000
Si Si8 0.596427 0.916705 0.230986
O O1 0.250000 0.873399 0.250000
O O2 0.426810 0.850855 0.386386
O O3 0.464417 0.913620 0.228594
O O4 0.336920 0.015503 0.347864
O O5 0.583597 0.152313 0.436501
O O6 0.486853 0.298054 0.520267
O O7 0.389078 0.117950 0.502202
O O8 0.725083 0.354008 0.344927
O O9 0.853379 0.482954 0.270566
O O10 0.250000 0.750000 0.504856
O O11 0.261717 0.953257 0.500293
O O12 0.176344 0.109718 0.445351
O O13 0.130544 0.091111 0.622185
O O14 0.000000 0.000000 0.500000
O O15 0.341643 0.171368 0.712382
#
# Coordination Sequence:
#
# PCOD9391361 Si02
#       8
#     8   8   4   8   8   8   2   8
#     4  11  24  45  71 107 147 189 231 302 375 441
#     4  11  25  43  73 100 144 189 243 293 363 440
#     4  11  21  39  67  96 132 174 234 290 344 410
#     4  11  22  40  63 100 134 178 230 289 349 421
#     4  12  25  43  68 105 139 188 237 308 359 436
#     4  11  23  46  73 101 142 188 247 288 364 443
#     4  10  24  40  68 108 130 176 228 302 362 428
#     4  11  23  40  69  98 140 173 234 293 362 421
#
# _framework density 23.351582000000001
#
# number of rings (size 3 to 8) (size 9 to 14) (size 15 to 20)
#    0.000    0.889    1.481    6.889    4.148    1.185 
#    0.000    8.519    0.000    2.667    0.000    0.000 
#    0.000    0.000    0.000    0.000    0.000    0.000 
#
# Total GULP energy -301196.151759 kJ/mol
# GULP energy per Si atom -5577.706514 kJ/mol
# Density = 2.329843 g / cm^3
# Si number density = 23.351582 Si / 1000 Ang^3
#
#
#
# Elastic Constant Matrix: (Units=GPa)
#
#
# Indices 1 2 3 4 5 6 
#
# 1 170.8607 34.1228 11.3998 0.0000 0.0000 0.0000
# 2 34.1228 108.0967 20.3672 0.0000 0.0000 0.0000
# 3 11.3998 20.3672 47.5220 0.0000 0.0000 0.0000
# 4 0.0000 0.0000 0.0000 13.8033 0.0000 0.0000
# 5 0.0000 0.0000 0.0000 0.0000 36.2527 0.0000
# 6 0.0000 0.0000 0.0000 0.0000 0.0000 35.0171
#
#
#
# Elastic Compliance Matrix: (Units=1/GPa)
#
#
# Indices 1 2 3 4 5 6 
#
# 1 0.006269 -0.001844 -0.000713 0.000000 0.000000 0.000000
# 2 -0.001844 0.010606 -0.004103 0.000000 0.000000 0.000000
# 3 -0.000713 -0.004103 0.022973 0.000000 0.000000 0.000000
# 4 0.000000 0.000000 0.000000 0.072446 0.000000 0.000000
# 5 0.000000 0.000000 0.000000 0.000000 0.027584 0.000000
# 6 0.000000 0.000000 0.000000 0.000000 0.000000 0.028557
#
#
# Mechanical properties :
#
#
# Convention : Reuss Voigt Hill
#
# Bulk Modulus (GPa) = 37.69935 50.91768 44.30851
# Shear Modulus (GPa) = 26.23303 34.38727 30.31015
#
# Velocity S-wave (km/s) = 3.35534 3.84159 3.60667
# Velocity P-wave (km/s) = 5.58484 6.44432 6.02991
#
# Compressibility (1/GPa) = 0.02652566
#
# Stress axis : x y z
#
# Youngs Moduli (GPa) = 159.52358 94.28326 43.53017
#
# Poissons Ratio (x) = 0.17390 0.03105
# Poissons Ratio (y) = 0.29423 0.17862
# Poissons Ratio (z) = 0.11378 0.38687
#
# Static dielectric constant tensor:
#      x y z
#    x 1.975810 0.000000 0.000000 
#    y 0.000000 1.923390 0.000000 
#    z 0.000000 0.000000 1.987100 
# 
# From -- ./inp_files/26563.got.cif
#   From: 2010.05.17/outbox.cif.g08.bks.cpg/sg48_14_cif.got.tgz:26563.got - 2010.06.03 20:39:00.
