data_PCOD9391061
_publ_section_title
;
Structure prediction by ZEFSAII (Michael W. Deem and Ramdas Pophale) SiO2 
 PCOD9391061
Probable space group: P N N N
;
_chemical_formula_sum "Si O2"
_cell_formula_units_Z 30
_cell_length_a 7.330992
_cell_length_b 10.114348
_cell_length_c 18.595834
_cell_angle_alpha 90.000000
_cell_angle_beta 90.000000
_cell_angle_gamma 90.000000
_cell_volume 1378.847698
_symmetry_space_group_name_H-M "P N N N"
_symmetry_group_IT_number 48
_space_group.IT_coordinate_system_code '2'
_symmetry_cell_setting 'orthorhombic'
loop_
_space_group_symop_operation_xyz
x,y,z
1/2-x,1/2-y,z
x,1/2-y,1/2-z
1/2-x,y,1/2-z
-x,-y,-z
1/2+x,1/2+y,-z
-x,1/2+y,1/2+z
1/2+x,-y,1/2+z
loop_
_atom_site_type_symbol
_atom_site_label
_atom_site_fract_x
_atom_site_fract_y
_atom_site_fract_z
Si Si1 0.750000 0.750000 0.250000
Si Si2 0.302475 0.899050 0.666262
Si Si3 0.964990 0.897195 0.373227
Si Si4 0.250000 0.250000 0.515387
Si Si5 0.707491 0.900449 0.624407
O O1 0.612460 0.670605 0.301425
O O2 0.250000 0.750000 0.647870
O O3 0.250000 0.915234 0.750000
O O4 0.512028 0.933282 0.656073
O O5 0.183620 0.988624 0.614333
O O6 0.923775 0.791943 0.436142
O O7 0.150772 0.979803 0.363700
O O8 0.297444 0.131253 0.460661
O O9 0.750000 0.750000 0.654511
#
# Coordination Sequence:
#
# PCOD9391061 Si02
#       5
#     2   8   8   4   8
#     4  10  24  44  64 100 146 194 220 302 364 418
#     4  11  22  39  63  96 132 180 229 298 352 408
#     4  11  21  44  66  95 145 178 235 289 351 433
#     4   9  22  41  68  97 144 183 224 298 348 423
#     4  10  22  40  63 102 127 181 235 286 351 419
#
# _framework density 21.757297000000001
#
# number of rings (size 3 to 8) (size 9 to 14) (size 15 to 20)
#    0.800    0.800    4.000    0.800    0.000    2.133 
#    0.000    9.333    0.000    0.000    0.000    0.000 
#    0.000    0.000    0.000    0.000    0.000    0.000 
#
# Total GULP energy -167183.403370 kJ/mol
# GULP energy per Si atom -5572.780112 kJ/mol
# Density = 2.170778 g / cm^3
# Si number density = 21.757297 Si / 1000 Ang^3
#
#
#
# Elastic Constant Matrix: (Units=GPa)
#
#
# Indices 1 2 3 4 5 6 
#
# 1 200.5153 52.2179 48.0125 0.0000 0.0000 0.0000
# 2 52.2179 92.4450 46.6905 0.0000 0.0000 0.0000
# 3 48.0125 46.6905 99.3330 0.0000 0.0000 0.0000
# 4 0.0000 0.0000 0.0000 41.3578 0.0000 0.0000
# 5 0.0000 0.0000 0.0000 0.0000 41.0017 0.0000
# 6 0.0000 0.0000 0.0000 0.0000 0.0000 48.1708
#
#
#
# Elastic Compliance Matrix: (Units=1/GPa)
#
#
# Indices 1 2 3 4 5 6 
#
# 1 0.006067 -0.002551 -0.001733 0.000000 0.000000 0.000000
# 2 -0.002551 0.015258 -0.005939 0.000000 0.000000 0.000000
# 3 -0.001733 -0.005939 0.013696 0.000000 0.000000 0.000000
# 4 0.000000 0.000000 0.000000 0.024179 0.000000 0.000000
# 5 0.000000 0.000000 0.000000 0.000000 0.024389 0.000000
# 6 0.000000 0.000000 0.000000 0.000000 0.000000 0.020759
#
#
# Mechanical properties :
#
#
# Convention : Reuss Voigt Hill
#
# Bulk Modulus (GPa) = 68.61278 76.23723 72.42500
# Shear Modulus (GPa) = 38.56464 42.46422 40.51443
#
# Velocity S-wave (km/s) = 4.21467 4.42262 4.31990
# Velocity P-wave (km/s) = 7.43563 7.82275 7.63164
#
# Compressibility (1/GPa) = 0.01457455
#
# Stress axis : x y z
#
# Youngs Moduli (GPa) = 164.83834 65.54042 73.01337
#
# Poissons Ratio (x) = 0.16722 0.12653
# Poissons Ratio (y) = 0.42058 0.43359
# Poissons Ratio (z) = 0.28566 0.38921
#
# Static dielectric constant tensor:
#      x y z
#    x 1.762190 0.000000 0.000000 
#    y 0.000000 1.660040 0.000000 
#    z 0.000000 0.000000 1.815010 
# 
# From -- ./inp_files/1838.got.cif
#   From: 2010.05.17/outbox.cif.g08.bks.cpg/sg48_1_cif.got.tgz:1838.got - 2010.06.03 20:39:00.
