data_PCOD9391861
_publ_section_title
;
Structure prediction by ZEFSAII (Michael W. Deem and Ramdas Pophale) SiO2 
 PCOD9391861
Probable space group: P N N N
;
_chemical_formula_sum "Si O2"
_cell_formula_units_Z 32
_cell_length_a 8.308754
_cell_length_b 12.686680
_cell_length_c 14.095863
_cell_angle_alpha 90.000000
_cell_angle_beta 90.000000
_cell_angle_gamma 90.000000
_cell_volume 1485.852012
_symmetry_space_group_name_H-M "P N N N"
_symmetry_group_IT_number 48
_space_group.IT_coordinate_system_code '2'
_symmetry_cell_setting 'orthorhombic'
loop_
_space_group_symop_operation_xyz
x,y,z
1/2-x,1/2-y,z
x,1/2-y,1/2-z
1/2-x,y,1/2-z
-x,-y,-z
1/2+x,1/2+y,-z
-x,1/2+y,1/2+z
1/2+x,-y,1/2+z
loop_
_atom_site_type_symbol
_atom_site_label
_atom_site_fract_x
_atom_site_fract_y
_atom_site_fract_z
Si Si1 0.065291 0.761094 0.053269
Si Si2 0.565100 0.784679 0.644109
Si Si3 0.134705 0.407183 0.829865
Si Si4 0.536840 0.981444 0.355621
O O1 0.250000 0.750000 0.080825
O O2 0.017236 0.878847 0.086722
O O3 0.951150 0.676354 0.105105
O O4 0.040131 0.739975 0.941858
O O5 0.750000 0.750000 0.632814
O O6 0.513027 0.750000 0.750000
O O7 0.550106 0.909681 0.626627
O O8 0.250000 0.355086 0.750000
O O9 0.268282 0.485768 0.874340
O O10 0.013446 0.464279 0.758156
#
# Coordination Sequence:
#
# PCOD9391861 Si02
#       4
#     8   8   8   8
#     4  12  24  38  69 105 135 164 226 285 340 403
#     4  11  26  46  65  87 135 190 230 274 330 404
#     4   8  21  41  73  97 133 169 220 281 341 400
#     4   9  21  43  68  94 129 180 221 275 342 404
#
# _framework density 21.536466999999998
#
# number of rings (size 3 to 8) (size 9 to 14) (size 15 to 20)
#    1.500    0.250    0.000    3.750    3.500   10.500 
#    0.000    3.750    0.000    0.000    0.000    0.000 
#    0.000    0.000    0.000    0.000    0.000    0.000 
#
# Total GULP energy -178185.317618 kJ/mol
# GULP energy per Si atom -5568.291176 kJ/mol
# Density = 2.148745 g / cm^3
# Si number density = 21.536467 Si / 1000 Ang^3
#
#
#
# Elastic Constant Matrix: (Units=GPa)
#
#
# Indices 1 2 3 4 5 6 
#
# 1 85.2400 52.4546 47.8410 0.0000 0.0000 0.0000
# 2 52.4546 97.9403 37.4268 0.0000 0.0000 0.0000
# 3 47.8410 37.4268 90.3011 0.0000 0.0000 0.0000
# 4 0.0000 0.0000 0.0000 13.2567 0.0000 0.0000
# 5 0.0000 0.0000 0.0000 0.0000 20.3173 0.0000
# 6 0.0000 0.0000 0.0000 0.0000 0.0000 35.8702
#
#
#
# Elastic Compliance Matrix: (Units=1/GPa)
#
#
# Indices 1 2 3 4 5 6 
#
# 1 0.021286 -0.008425 -0.007785 0.000000 0.000000 0.000000
# 2 -0.008425 0.015467 -0.001947 0.000000 0.000000 0.000000
# 3 -0.007785 -0.001947 0.016005 0.000000 0.000000 0.000000
# 4 0.000000 0.000000 0.000000 0.075434 0.000000 0.000000
# 5 0.000000 0.000000 0.000000 0.000000 0.049219 0.000000
# 6 0.000000 0.000000 0.000000 0.000000 0.000000 0.027878
#
#
# Mechanical properties :
#
#
# Convention : Reuss Voigt Hill
#
# Bulk Modulus (GPa) = 60.81382 60.99182 60.90282
# Shear Modulus (GPa) = 20.23605 22.93942 21.58774
#
# Velocity S-wave (km/s) = 3.06864 3.26719 3.16947
# Velocity P-wave (km/s) = 6.39174 6.52798 6.46022
#
# Compressibility (1/GPa) = 0.01644363
#
# Stress axis : x y z
#
# Youngs Moduli (GPa) = 46.98023 64.65568 62.47887
#
# Poissons Ratio (x) = 0.54473 0.48640
# Poissons Ratio (y) = 0.39581 0.12163
# Poissons Ratio (z) = 0.36574 0.12587
#
# Static dielectric constant tensor:
#      x y z
#    x 1.830120 0.000000 0.000000 
#    y 0.000000 1.794750 0.000000 
#    z 0.000000 0.000000 1.995380 
# 
# From -- ./inp_files/24794.got.cif
#   From: 2010.05.17/outbox.cif.g08.bks.cpg/sg48_13_cif.got.tgz:24794.got - 2010.06.03 20:39:00.
