data_PCOD9391307
_publ_section_title
;
Structure prediction by ZEFSAII (Michael W. Deem and Ramdas Pophale) SiO2 
 PCOD9391307
Probable space group: P N N N
;
_chemical_formula_sum "Si O2"
_cell_formula_units_Z 32
_cell_length_a 22.072307
_cell_length_b 4.823358
_cell_length_c 11.224841
_cell_angle_alpha 90.000000
_cell_angle_beta 90.000000
_cell_angle_gamma 90.000000
_cell_volume 1195.026190
_symmetry_space_group_name_H-M "P N N N"
_symmetry_group_IT_number 48
_space_group.IT_coordinate_system_code '2'
_symmetry_cell_setting 'orthorhombic'
loop_
_space_group_symop_operation_xyz
x,y,z
1/2-x,1/2-y,z
x,1/2-y,1/2-z
1/2-x,y,1/2-z
-x,-y,-z
1/2+x,1/2+y,-z
-x,1/2+y,1/2+z
1/2+x,-y,1/2+z
loop_
_atom_site_type_symbol
_atom_site_label
_atom_site_fract_x
_atom_site_fract_y
_atom_site_fract_z
Si Si1 0.436698 0.083267 0.365697
Si Si2 0.148590 0.636589 0.878373
Si Si3 0.186533 0.130608 0.030768
Si Si4 0.032187 0.360841 0.878381
O O1 0.461676 0.250000 0.250000
O O2 0.364876 0.112769 0.369019
O O3 0.454340 0.234447 0.489546
O O4 0.464310 0.775394 0.368175
O O5 0.166370 0.750000 0.750000
O O6 0.167137 0.329832 0.919608
O O7 0.074756 0.637379 0.885973
O O8 0.181566 0.828503 0.973998
O O9 0.250000 0.250000 0.073053
O O10 0.057529 0.250000 0.750000
#
# Coordination Sequence:
#
# PCOD9391307 Si02
#       4
#     8   8   8   8
#     4  10  24  45  72 106 149 197 244 298 373 447
#     4  11  23  43  72 106 146 191 242 308 381 444
#     4  11  25  44  69 103 144 195 255 308 357 432
#     4  10  23  43  71 108 149 188 240 307 377 450
#
# _framework density 26.777657999999999
#
# number of rings (size 3 to 8) (size 9 to 14) (size 15 to 20)
#    0.000    1.500    0.000    4.500    0.000   16.500 
#    0.000    0.000    0.000    6.000    0.000    0.000 
#    0.000    0.000    0.000    0.000    0.000    0.000 
#
# Total GULP energy -178363.969147 kJ/mol
# GULP energy per Si atom -5573.874036 kJ/mol
# Density = 2.671671 g / cm^3
# Si number density = 26.777658 Si / 1000 Ang^3
#
#
#
# Elastic Constant Matrix: (Units=GPa)
#
#
# Indices 1 2 3 4 5 6 
#
# 1 212.8748 38.2470 9.5692 0.0000 0.0000 0.0000
# 2 38.2470 102.3271 10.8054 0.0000 0.0000 0.0000
# 3 9.5692 10.8054 135.8322 0.0000 0.0000 0.0000
# 4 0.0000 0.0000 0.0000 36.1117 0.0000 0.0000
# 5 0.0000 0.0000 0.0000 0.0000 14.8354 0.0000
# 6 0.0000 0.0000 0.0000 0.0000 0.0000 55.6410
#
#
#
# Elastic Compliance Matrix: (Units=1/GPa)
#
#
# Indices 1 2 3 4 5 6 
#
# 1 0.005042 -0.001863 -0.000207 0.000000 0.000000 0.000000
# 2 -0.001863 0.010543 -0.000708 0.000000 0.000000 0.000000
# 3 -0.000207 -0.000708 0.007433 0.000000 0.000000 0.000000
# 4 0.000000 0.000000 0.000000 0.027692 0.000000 0.000000
# 5 0.000000 0.000000 0.000000 0.000000 0.067406 0.000000
# 6 0.000000 0.000000 0.000000 0.000000 0.000000 0.017972
#
#
# Mechanical properties :
#
#
# Convention : Reuss Voigt Hill
#
# Bulk Modulus (GPa) = 57.26131 63.14189 60.20160
# Shear Modulus (GPa) = 33.90665 47.47846 40.69256
#
# Velocity S-wave (km/s) = 3.56227 4.21534 3.90249
# Velocity P-wave (km/s) = 6.19275 6.87920 6.54498
#
# Compressibility (1/GPa) = 0.01746380
#
# Stress axis : x y z
#
# Youngs Moduli (GPa) = 198.35206 94.84554 134.53715
#
# Poissons Ratio (x) = 0.17665 0.02785
# Poissons Ratio (y) = 0.36944 0.09519
# Poissons Ratio (z) = 0.04106 0.06710
#
# Static dielectric constant tensor:
#      x y z
#    x 2.295010 0.000000 0.000000 
#    y 0.000000 2.226080 0.000000 
#    z 0.000000 0.000000 2.052120 
# 
# From -- ./inp_files/23090.got.cif
#   From: 2010.05.17/outbox.cif.g08.bks.cpg/sg48_12_cif.got.tgz:23090.got - 2010.06.03 20:39:00.
