data_PCOD9391053
_publ_section_title
;
Structure prediction by ZEFSAII (Michael W. Deem and Ramdas Pophale) SiO2 
 PCOD9391053
Probable space group: P N N N
;
_chemical_formula_sum "Si O2"
_cell_formula_units_Z 34
_cell_length_a 31.898945
_cell_length_b 5.726165
_cell_length_c 8.660530
_cell_angle_alpha 90.000000
_cell_angle_beta 90.000000
_cell_angle_gamma 90.000000
_cell_volume 1581.920479
_symmetry_space_group_name_H-M "P N N N"
_symmetry_group_IT_number 48
_space_group.IT_coordinate_system_code '2'
_symmetry_cell_setting 'orthorhombic'
loop_
_space_group_symop_operation_xyz
x,y,z
1/2-x,1/2-y,z
x,1/2-y,1/2-z
1/2-x,y,1/2-z
-x,-y,-z
1/2+x,1/2+y,-z
-x,1/2+y,1/2+z
1/2+x,-y,1/2+z
loop_
_atom_site_type_symbol
_atom_site_label
_atom_site_fract_x
_atom_site_fract_y
_atom_site_fract_z
Si Si1 0.818659 0.955584 0.976652
Si Si2 0.477066 0.490127 0.664447
Si Si3 0.750000 0.750000 0.750000
Si Si4 0.874960 0.250000 0.750000
Si Si5 0.674102 0.250000 0.250000
Si Si6 0.885707 0.955972 0.470454
O O1 0.780586 0.881189 0.868210
O O2 0.844455 0.128969 0.869804
O O3 0.854564 0.762429 0.008437
O O4 0.802852 0.068684 0.137059
O O5 0.492319 0.250000 0.750000
O O6 0.500000 0.500000 0.500000
O O7 0.428558 0.435964 0.623132
O O8 0.480394 0.750000 0.750000
O O9 0.897635 0.063031 0.639462
O O10 0.643439 0.382078 0.365732
#
# Coordination Sequence:
#
# PCOD9391053 Si02
#       6
#     8   8   2   4   4   8
#     4  11  23  44  69 101 133 187 228 306 348 454
#     4  12  28  49  75 112 155 201 248 316 375 446
#     4  12  24  46  66  98 154 170 246 286 388 426
#     4  10  22  39  72 102 128 188 234 288 372 421
#     4  10  22  42  73  95 130 176 241 280 364 411
#     4  11  22  44  72 103 140 181 248 290 364 437
#
# _framework density 21.492861999999999
#
# number of rings (size 3 to 8) (size 9 to 14) (size 15 to 20)
#    0.000    0.941    3.529    2.824    4.941    2.353 
#    0.000    3.529    0.000    0.000    0.000    0.000 
#    0.000    0.000    0.000    0.000    0.000    0.000 
#
# Total GULP energy -189349.857182 kJ/mol
# GULP energy per Si atom -5569.113447 kJ/mol
# Density = 2.144394 g / cm^3
# Si number density = 21.492862 Si / 1000 Ang^3
#
#
#
# Elastic Constant Matrix: (Units=GPa)
#
#
# Indices 1 2 3 4 5 6 
#
# 1 61.8590 43.9011 39.6013 0.0000 0.0000 0.0000
# 2 43.9011 130.3795 98.8929 0.0000 0.0000 0.0000
# 3 39.6013 98.8929 193.0715 0.0000 0.0000 0.0000
# 4 0.0000 0.0000 0.0000 63.0293 0.0000 0.0000
# 5 0.0000 0.0000 0.0000 0.0000 40.4706 0.0000
# 6 0.0000 0.0000 0.0000 0.0000 0.0000 -13.2882
#
#
#
# Elastic Compliance Matrix: (Units=1/GPa)
#
#
# Indices 1 2 3 4 5 6 
#
# 1 0.021395 -0.006338 -0.001142 0.000000 0.000000 0.000000
# 2 -0.006338 0.014420 -0.006086 0.000000 0.000000 0.000000
# 3 -0.001142 -0.006086 0.008531 0.000000 0.000000 0.000000
# 4 0.000000 0.000000 0.000000 0.015866 0.000000 0.000000
# 5 0.000000 0.000000 0.000000 0.000000 0.024709 0.000000
# 6 0.000000 0.000000 0.000000 0.000000 0.000000 -0.075255
#
#
# Mechanical properties :
#
#
# Convention : Reuss Voigt Hill
#
# Bulk Modulus (GPa) = 58.09194 83.34452 70.71823
# Shear Modulus (GPa) = 117.54442 31.56999 74.55720
#
# Velocity S-wave (km/s) = 7.40329 3.83673 5.89615
# Velocity P-wave (km/s) = 10.00827 7.64783 8.90659
#
# Compressibility (1/GPa) = 0.01721409
#
# Stress axis : x y z
#
# Youngs Moduli (GPa) = 46.74027 69.34602 117.21747
#
# Poissons Ratio (x) = 0.43950 0.13387
# Poissons Ratio (y) = 0.29623 0.71342
# Poissons Ratio (z) = 0.05338 0.42206
#
# Static dielectric constant tensor:
#      x y z
#    x 1.175580 0.000000 0.000000 
#    y 0.000000 2.067040 0.000000 
#    z 0.000000 0.000000 1.774770 
# 
# From -- ./inp_files/1201.got.cif
#   From: 2010.05.17/outbox.cif.g08.bks.cpg/sg48_1_cif.got.tgz:1201.got - 2010.06.03 20:39:00.
