data_PCOD9391553
_publ_section_title
;
Structure prediction by ZEFSAII (Michael W. Deem and Ramdas Pophale) SiO2 
 PCOD9391553
Probable space group: P N N N
;
_chemical_formula_sum "Si O2"
_cell_formula_units_Z 48
_cell_length_a 10.514640
_cell_length_b 10.077863
_cell_length_c 22.275855
_cell_angle_alpha 90.000000
_cell_angle_beta 90.000000
_cell_angle_gamma 90.000000
_cell_volume 2360.463234
_symmetry_space_group_name_H-M "P N N N"
_symmetry_group_IT_number 48
_space_group.IT_coordinate_system_code '2'
_symmetry_cell_setting 'orthorhombic'
loop_
_space_group_symop_operation_xyz
x,y,z
1/2-x,1/2-y,z
x,1/2-y,1/2-z
1/2-x,y,1/2-z
-x,-y,-z
1/2+x,1/2+y,-z
-x,1/2+y,1/2+z
1/2+x,-y,1/2+z
loop_
_atom_site_type_symbol
_atom_site_label
_atom_site_fract_x
_atom_site_fract_y
_atom_site_fract_z
Si Si1 0.836676 0.379142 0.487575
Si Si2 0.951017 0.491005 0.858669
Si Si3 0.334520 0.374622 0.557415
Si Si4 0.424965 0.249331 0.065693
Si Si5 0.666112 0.495283 0.888796
Si Si6 0.902412 0.903949 0.762536
O O1 0.750000 0.250000 0.490763
O O2 0.754669 0.501287 0.461357
O O3 0.884000 0.409985 0.555435
O O4 0.952909 0.342403 0.445169
O O5 0.951555 0.641818 0.883658
O O6 0.807095 0.442163 0.872668
O O7 0.966099 0.503579 0.787538
O O8 0.059572 0.414779 0.894361
O O9 0.250000 0.250000 0.577609
O O10 0.403451 0.326958 0.496478
O O11 0.319309 0.357911 0.082628
O O12 0.587912 0.530133 0.828513
O O13 0.942172 0.750000 0.750000
O O14 0.750000 0.903182 0.750000
#
# Coordination Sequence:
#
# PCOD9391553 Si02
#       6
#     8   8   8   8   8   8
#     4  12  24  38  60  98 134 172 212 260 331 395
#     4  11  20  37  62  93 131 166 214 263 325 386
#     4  12  24  40  61  94 134 177 212 265 329 391
#     4  12  21  37  62  97 131 166 205 273 334 389
#     4  11  21  37  60  96 133 160 212 264 331 391
#     4   9  18  32  60  93 122 161 204 262 318 381
#
# _framework density 20.334990999999999
#
# number of rings (size 3 to 8) (size 9 to 14) (size 15 to 20)
#    0.000    0.833    6.667    2.500    0.000    0.000 
#    0.000    0.000    0.000   12.500    4.333    0.000 
#    0.000    0.000    0.000    0.000    0.000    0.000 
#
# Total GULP energy -267993.856810 kJ/mol
# GULP energy per Si atom -5583.205350 kJ/mol
# Density = 2.028871 g / cm^3
# Si number density = 20.334991 Si / 1000 Ang^3
#
#
#
# Elastic Constant Matrix: (Units=GPa)
#
#
# Indices 1 2 3 4 5 6 
#
# 1 38.5382 24.6797 24.9840 0.0000 0.0000 0.0000
# 2 24.6797 77.2308 17.2934 0.0000 0.0000 0.0000
# 3 24.9840 17.2934 128.3215 0.0000 0.0000 0.0000
# 4 0.0000 0.0000 0.0000 24.4894 0.0000 0.0000
# 5 0.0000 0.0000 0.0000 0.0000 22.4254 0.0000
# 6 0.0000 0.0000 0.0000 0.0000 0.0000 26.6581
#
#
#
# Elastic Compliance Matrix: (Units=1/GPa)
#
#
# Indices 1 2 3 4 5 6 
#
# 1 0.036220 -0.010306 -0.005663 0.000000 0.000000 0.000000
# 2 -0.010306 0.016284 -0.000188 0.000000 0.000000 0.000000
# 3 -0.005663 -0.000188 0.008921 0.000000 0.000000 0.000000
# 4 0.000000 0.000000 0.000000 0.040834 0.000000 0.000000
# 5 0.000000 0.000000 0.000000 0.000000 0.044592 0.000000
# 6 0.000000 0.000000 0.000000 0.000000 0.000000 0.037512
#
#
# Mechanical properties :
#
#
# Convention : Reuss Voigt Hill
#
# Bulk Modulus (GPa) = 34.35249 42.00051 38.17650
# Shear Modulus (GPa) = 22.08678 26.52348 24.30513
#
# Velocity S-wave (km/s) = 3.29925 3.61546 3.46097
# Velocity P-wave (km/s) = 5.60744 6.17478 5.89794
#
# Compressibility (1/GPa) = 0.02910997
#
# Stress axis : x y z
#
# Youngs Moduli (GPa) = 27.60943 61.41115 112.09740
#
# Poissons Ratio (x) = 0.63291 0.63480
# Poissons Ratio (y) = 0.28455 0.02106
# Poissons Ratio (z) = 0.15635 0.01154
#
# Static dielectric constant tensor:
#      x y z
#    x 1.847950 0.000000 0.000000 
#    y 0.000000 1.744220 0.000000 
#    z 0.000000 0.000000 1.743430 
# 
# From -- ./inp_files/36244.got.cif
#   From: 2010.05.17/outbox.cif.g08.bks.cpg/sg48_19_cif.got.tgz:36244.got - 2010.06.03 20:39:00.
