data_PCOD9391032
_publ_section_title
;
Structure prediction by ZEFSAII (Michael W. Deem and Ramdas Pophale) SiO2 
 PCOD9391032
Probable space group: P N N N
;
_chemical_formula_sum "Si O2"
_cell_formula_units_Z 58
_cell_length_a 6.624169
_cell_length_b 16.202546
_cell_length_c 25.921520
_cell_angle_alpha 90.000000
_cell_angle_beta 90.000000
_cell_angle_gamma 90.000000
_cell_volume 2782.115343
_symmetry_space_group_name_H-M "P N N N"
_symmetry_group_IT_number 48
_space_group.IT_coordinate_system_code '2'
_symmetry_cell_setting 'orthorhombic'
loop_
_space_group_symop_operation_xyz
x,y,z
1/2-x,1/2-y,z
x,1/2-y,1/2-z
1/2-x,y,1/2-z
-x,-y,-z
1/2+x,1/2+y,-z
-x,1/2+y,1/2+z
1/2+x,-y,1/2+z
loop_
_atom_site_type_symbol
_atom_site_label
_atom_site_fract_x
_atom_site_fract_y
_atom_site_fract_z
Si Si1 0.790316 0.656160 0.097413
Si Si2 0.295047 0.049577 0.804851
Si Si3 0.436388 0.536678 0.055870
Si Si4 0.250000 0.750000 0.750000
Si Si5 0.677892 0.342032 0.400528
Si Si6 0.449403 0.381645 0.306830
Si Si7 0.457372 0.435594 0.153742
Si Si8 0.868168 0.162808 0.516416
O O1 0.750000 0.750000 0.115153
O O2 0.869046 0.606338 0.147891
O O3 0.611954 0.596227 0.077644
O O4 0.923289 0.670203 0.046081
O O5 0.250000 0.091680 0.750000
O O6 0.447202 0.971345 0.798655
O O7 0.077452 0.009852 0.819220
O O8 0.376970 0.470326 0.099292
O O9 0.249706 0.595696 0.048618
O O10 0.500000 0.500000 0.000000
O O11 0.410954 0.686857 0.722346
O O12 0.750000 0.250000 0.407099
O O13 0.483165 0.354157 0.366092
O O14 0.634043 0.371691 0.458114
O O15 0.859336 0.379697 0.366858
O O16 0.205183 0.394178 0.307616
O O17 0.750000 0.250000 0.517762
#
# Coordination Sequence:
#
# PCOD9391032 Si02
#       8
#     8   8   8   2   8   8   8   8
#     4  11  24  42  69 101 132 181 231 281 348 413
#     4  10  23  46  66  95 135 168 231 291 345 409
#     4  11  22  40  64 101 136 172 228 264 332 423
#     4  12  24  48  70 100 140 176 252 298 336 430
#     4  10  22  39  56  93 135 169 220 267 326 403
#     4  11  23  45  66  94 135 177 227 285 350 399
#     4  10  23  41  65  93 129 177 223 272 336 420
#     4  11  22  39  66  95 139 175 211 280 330 399
#
# _framework density 20.847445
#
# number of rings (size 3 to 8) (size 9 to 14) (size 15 to 20)
#    0.000    1.379    4.138    0.828    1.931    1.931 
#    0.000    4.138    0.000    0.000    0.000    0.000 
#    0.000    0.000    0.000    0.000    0.000    0.000 
#
# Total GULP energy -323014.623467 kJ/mol
# GULP energy per Si atom -5569.217646 kJ/mol
# Density = 2.079999 g / cm^3
# Si number density = 20.847445 Si / 1000 Ang^3
#
#
#
# Elastic Constant Matrix: (Units=GPa)
#
#
# Indices 1 2 3 4 5 6 
#
# 1 63.7345 22.2616 30.6750 0.0000 0.0000 0.0000
# 2 22.2616 79.2858 26.6973 0.0000 0.0000 0.0000
# 3 30.6750 26.6973 106.2785 0.0000 0.0000 0.0000
# 4 0.0000 0.0000 0.0000 42.8085 0.0000 0.0000
# 5 0.0000 0.0000 0.0000 0.0000 25.8309 0.0000
# 6 0.0000 0.0000 0.0000 0.0000 0.0000 27.6785
#
#
#
# Elastic Compliance Matrix: (Units=1/GPa)
#
#
# Indices 1 2 3 4 5 6 
#
# 1 0.019245 -0.003860 -0.004585 0.000000 0.000000 0.000000
# 2 -0.003860 0.014552 -0.002542 0.000000 0.000000 0.000000
# 3 -0.004585 -0.002542 0.011371 0.000000 0.000000 0.000000
# 4 0.000000 0.000000 0.000000 0.023360 0.000000 0.000000
# 5 0.000000 0.000000 0.000000 0.000000 0.038713 0.000000
# 6 0.000000 0.000000 0.000000 0.000000 0.000000 0.036129
#
#
# Mechanical properties :
#
#
# Convention : Reuss Voigt Hill
#
# Bulk Modulus (GPa) = 43.11153 45.39628 44.25390
# Shear Modulus (GPa) = 28.88925 30.57457 29.73191
#
# Velocity S-wave (km/s) = 3.72660 3.83376 3.78056
# Velocity P-wave (km/s) = 6.26427 6.43581 6.35062
#
# Compressibility (1/GPa) = 0.02319565
#
# Stress axis : x y z
#
# Youngs Moduli (GPa) = 51.96160 68.71873 87.94256
#
# Poissons Ratio (x) = 0.26523 0.40323
# Poissons Ratio (y) = 0.20055 0.22351
# Poissons Ratio (z) = 0.23825 0.17465
#
# Static dielectric constant tensor:
#      x y z
#    x 1.605880 0.000000 0.000000 
#    y 0.000000 1.724270 0.000000 
#    z 0.000000 0.000000 1.815620 
# 
# From -- ./inp_files/37173.got.cif
#   From: 2010.05.17/outbox.cif.g08.bks.cpg/sg48_19_cif.got.tgz:37173.got - 2010.06.03 20:39:00.
