data_PCOD9391584
_publ_section_title
;
Structure prediction by ZEFSAII (Michael W. Deem and Ramdas Pophale) SiO2 
 PCOD9391584
Probable space group: P N N N
;
_chemical_formula_sum "Si O2"
_cell_formula_units_Z 64
_cell_length_a 17.548101
_cell_length_b 9.941693
_cell_length_c 19.431394
_cell_angle_alpha 90.000000
_cell_angle_beta 90.000000
_cell_angle_gamma 90.000000
_cell_volume 3389.958887
_symmetry_space_group_name_H-M "P N N N"
_symmetry_group_IT_number 48
_space_group.IT_coordinate_system_code '2'
_symmetry_cell_setting 'orthorhombic'
loop_
_space_group_symop_operation_xyz
x,y,z
1/2-x,1/2-y,z
x,1/2-y,1/2-z
1/2-x,y,1/2-z
-x,-y,-z
1/2+x,1/2+y,-z
-x,1/2+y,1/2+z
1/2+x,-y,1/2+z
loop_
_atom_site_type_symbol
_atom_site_label
_atom_site_fract_x
_atom_site_fract_y
_atom_site_fract_z
Si Si1 0.527496 0.121487 0.454043
Si Si2 0.197881 0.866725 0.988274
Si Si3 0.697881 0.633275 0.488274
Si Si4 0.472504 0.378513 0.545957
Si Si5 0.830084 0.684942 0.852235
Si Si6 0.071426 0.567889 0.180627
Si Si7 0.571426 0.932111 0.680627
Si Si8 0.330084 0.815058 0.352235
O O1 0.618791 0.117636 0.448718
O O2 0.500000 0.250000 0.500000
O O3 0.488613 0.088608 0.380863
O O4 0.500000 0.000000 0.500000
O O5 0.250000 0.750000 0.957296
O O6 0.250000 1.000000 0.994900
O O7 0.173043 0.816416 0.064628
O O8 0.750000 0.750000 0.457296
O O9 0.618791 0.617636 0.448718
O O10 0.673043 0.683584 0.564628
O O11 0.500000 0.500000 0.500000
O O12 0.511387 0.411392 0.619137
O O13 0.750000 0.750000 0.830136
O O14 0.857670 0.534370 0.835217
O O15 0.891573 0.785043 0.820202
O O16 0.038637 0.500000 0.250000
O O17 0.108427 0.714957 0.179798
O O18 0.642330 0.034370 0.664783
O O19 0.250000 0.750000 0.330136
#
# Coordination Sequence:
#
# PCOD9391584 Si02
#       8
#     8   8   8   8   8   8   8   8
#     4  12  22  40  62  88 120 163 205 260 312 364
#     4  11  21  36  61  89 120 155 208 261 315 364
#     4  11  21  36  61  89 120 155 208 261 315 364
#     4  12  22  40  62  88 120 163 205 260 312 364
#     4  11  22  37  58  85 127 164 203 246 302 377
#     4  12  24  39  58  88 122 167 208 250 307 376
#     4  12  24  39  58  88 122 167 208 250 307 376
#     4  11  22  37  58  85 127 164 203 246 302 377
#
# _framework density 18.879284999999999
#
# number of rings (size 3 to 8) (size 9 to 14) (size 15 to 20)
#    0.000    0.500    5.000    6.000    0.000    3.000 
#    0.000    0.000    0.000    0.750    0.000    1.750 
#    0.000    0.000    0.000    0.000    0.000    0.000 
#
# Total GULP energy -356729.744060 kJ/mol
# GULP energy per Si atom -5573.902251 kJ/mol
# Density = 1.883631 g / cm^3
# Si number density = 18.879285 Si / 1000 Ang^3
#
#
#
# Elastic Constant Matrix: (Units=GPa)
#
#
# Indices 1 2 3 4 5 6 
#
# 1 134.9259 39.8740 61.4806 0.0000 0.0000 0.0000
# 2 39.8740 123.2191 21.8806 0.0000 0.0000 0.0000
# 3 61.4806 21.8806 118.6706 0.0000 0.0000 0.0000
# 4 0.0000 0.0000 0.0000 19.8096 0.0000 0.0000
# 5 0.0000 0.0000 0.0000 0.0000 3.4213 0.0000
# 6 0.0000 0.0000 0.0000 0.0000 0.0000 22.8950
#
#
#
# Elastic Compliance Matrix: (Units=1/GPa)
#
#
# Indices 1 2 3 4 5 6 
#
# 1 0.010391 -0.002488 -0.004924 0.000000 0.000000 0.000000
# 2 -0.002488 0.008986 -0.000368 0.000000 0.000000 0.000000
# 3 -0.004924 -0.000368 0.011046 0.000000 0.000000 0.000000
# 4 0.000000 0.000000 0.000000 0.050480 0.000000 0.000000
# 5 0.000000 0.000000 0.000000 0.000000 0.292285 0.000000
# 6 0.000000 0.000000 0.000000 0.000000 0.000000 0.043678
#
#
# Mechanical properties :
#
#
# Convention : Reuss Voigt Hill
#
# Bulk Modulus (GPa) = 67.28631 69.25400 68.27016
# Shear Modulus (GPa) = 11.43171 26.13056 18.78113
#
# Velocity S-wave (km/s) = 2.46339 3.72437 3.15747
# Velocity P-wave (km/s) = 6.61882 7.43349 7.03795
#
# Compressibility (1/GPa) = 0.01486186
#
# Stress axis : x y z
#
# Youngs Moduli (GPa) = 96.24096 111.28339 90.53268
#
# Poissons Ratio (x) = 0.27687 0.44582
# Poissons Ratio (y) = 0.23944 0.03331
# Poissons Ratio (z) = 0.47393 0.04094
#
# Static dielectric constant tensor:
#      x y z
#    x 1.653630 0.000000 0.000000 
#    y 0.000000 1.646840 0.000000 
#    z 0.000000 0.000000 0.932600 
# 
# From -- ./inp_files/34707.got.cif
#   From: 2010.05.17/outbox.cif.g08.bks.cpg/sg48_18_cif.got.tgz:34707.got - 2010.06.03 20:39:00.
