data_PCOD9391718
_publ_section_title
;
Structure prediction by ZEFSAII (Michael W. Deem and Ramdas Pophale) SiO2 
 PCOD9391718
Probable space group: P N N N
;
_chemical_formula_sum "Si O2"
_cell_formula_units_Z 36
_cell_length_a 9.982316
_cell_length_b 20.476606
_cell_length_c 9.685796
_cell_angle_alpha 90.000000
_cell_angle_beta 90.000000
_cell_angle_gamma 90.000000
_cell_volume 1979.814978
_symmetry_space_group_name_H-M "P N N N"
_symmetry_group_IT_number 48
_space_group.IT_coordinate_system_code '2'
_symmetry_cell_setting 'orthorhombic'
loop_
_space_group_symop_operation_xyz
x,y,z
1/2-x,1/2-y,z
x,1/2-y,1/2-z
1/2-x,y,1/2-z
-x,-y,-z
1/2+x,1/2+y,-z
-x,1/2+y,1/2+z
1/2+x,-y,1/2+z
loop_
_atom_site_type_symbol
_atom_site_label
_atom_site_fract_x
_atom_site_fract_y
_atom_site_fract_z
Si Si1 0.250000 0.106286 0.750000
Si Si2 0.750000 0.427194 0.750000
Si Si3 0.750000 0.098772 0.250000
Si Si4 0.021307 0.819255 0.178926
Si Si5 0.894529 0.286402 0.381656
Si Si6 0.658147 0.499435 0.474707
O O1 0.378706 0.151131 0.721441
O O2 0.216610 0.061585 0.612823
O O3 0.628233 0.376763 0.784969
O O4 0.724402 0.474509 0.618086
O O5 0.643333 0.143435 0.324943
O O6 0.819276 0.057341 0.365553
O O7 0.054160 0.750000 0.250000
O O8 0.024588 0.798307 0.018907
O O9 0.750000 0.250000 0.410493
O O10 0.957684 0.250000 0.250000
O O11 0.500000 0.500000 0.500000
#
# Coordination Sequence:
#
# PCOD9391718 Si02
#       6
#     4   4   4   8   8   8
#     4  11  27  44  64  94 139 181 208 276 348 379
#     4  12  23  40  72 100 123 180 228 268 322 398
#     4   9  19  36  60  88 125 161 206 272 316 367
#     4  12  24  41  65  98 134 171 223 269 331 397
#     4   9  19  35  61  95 124 162 214 267 315 378
#     4  11  23  41  63  95 132 166 221 271 323 390
#
# _framework density 18.183516999999998
#
# number of rings (size 3 to 8) (size 9 to 14) (size 15 to 20)
#    0.000    1.556    4.444    2.000    3.111    2.667 
#    0.000    0.000    0.000    4.000    0.000    0.000 
#    0.000    0.000    0.000    0.000    0.000    0.000 
#
# Total GULP energy -200476.586942 kJ/mol
# GULP energy per Si atom -5568.794082 kJ/mol
# Density = 1.814213 g / cm^3
# Si number density = 18.183517 Si / 1000 Ang^3
#
#
#
# Elastic Constant Matrix: (Units=GPa)
#
#
# Indices 1 2 3 4 5 6 
#
# 1 80.0291 17.7871 55.1368 0.0000 0.0000 0.0000
# 2 17.7871 73.8016 66.9346 0.0000 0.0000 0.0000
# 3 55.1368 66.9346 163.8213 0.0000 0.0000 0.0000
# 4 0.0000 0.0000 0.0000 -46.8130 0.0000 0.0000
# 5 0.0000 0.0000 0.0000 0.0000 -4.2228 0.0000
# 6 0.0000 0.0000 0.0000 0.0000 0.0000 177.3597
#
#
#
# Elastic Compliance Matrix: (Units=1/GPa)
#
#
# Indices 1 2 3 4 5 6 
#
# 1 0.016397 0.001673 -0.006202 0.000000 0.000000 0.000000
# 2 0.001673 0.021698 -0.009429 0.000000 0.000000 0.000000
# 3 -0.006202 -0.009429 0.012044 0.000000 0.000000 0.000000
# 4 0.000000 0.000000 0.000000 -0.021362 0.000000 0.000000
# 5 0.000000 0.000000 0.000000 0.000000 -0.236808 0.000000
# 6 0.000000 0.000000 0.000000 0.000000 0.000000 0.005638
#
#
# Mechanical properties :
#
#
# Convention : Reuss Voigt Hill
#
# Bulk Modulus (GPa) = 44.99722 66.37431 55.68577
# Shear Modulus (GPa) = -29.92750 37.11767 3.59508
#
# Velocity S-wave (km/s) = -4.06132 4.52296 1.40762
# Velocity P-wave (km/s) = 1.67555 7.99111 5.77344
#
# Compressibility (1/GPa) = 0.02222359
#
# Stress axis : x y z
#
# Youngs Moduli (GPa) = 60.98810 46.08759 83.02856
#
# Poissons Ratio (x) = -0.07712 0.51497
# Poissons Ratio (y) = -0.10206 0.78284
# Poissons Ratio (z) = 0.37827 0.43454
#
# Static dielectric constant tensor:
#      x y z
#    x 1.467680 0.000000 0.000000 
#    y 0.000000 1.624410 0.000000 
#    z 0.000000 0.000000 1.824840 
# 
# From -- ./inp_files/8793.got.cif
#   From: 2010.05.17/outbox.cif.g08.bks.cpg/sg48_5_cif.got.tgz:8793.got - 2010.06.03 20:39:00.
