data_PCOD9391737
_publ_section_title
;
Structure prediction by ZEFSAII (Michael W. Deem and Ramdas Pophale) SiO2 
 PCOD9391737
Probable space group: P N N N
;
_chemical_formula_sum "Si O2"
_cell_formula_units_Z 56
_cell_length_a 12.782161
_cell_length_b 15.997040
_cell_length_c 12.802084
_cell_angle_alpha 90.000000
_cell_angle_beta 90.000000
_cell_angle_gamma 90.000000
_cell_volume 2617.728412
_symmetry_space_group_name_H-M "P N N N"
_symmetry_group_IT_number 48
_space_group.IT_coordinate_system_code '2'
_symmetry_cell_setting 'orthorhombic'
loop_
_space_group_symop_operation_xyz
x,y,z
1/2-x,1/2-y,z
x,1/2-y,1/2-z
1/2-x,y,1/2-z
-x,-y,-z
1/2+x,1/2+y,-z
-x,1/2+y,1/2+z
1/2+x,-y,1/2+z
loop_
_atom_site_type_symbol
_atom_site_label
_atom_site_fract_x
_atom_site_fract_y
_atom_site_fract_z
Si Si1 0.025349 0.614871 0.511587
Si Si2 0.316522 0.030929 0.497396
Si Si3 0.332907 0.099175 0.837697
Si Si4 0.040992 0.844066 0.236622
Si Si5 0.371992 0.734262 0.625762
Si Si6 0.458557 0.553893 0.600539
Si Si7 0.836241 0.998726 0.676526
O O1 0.112254 0.544658 0.544022
O O2 0.019997 0.629066 0.384635
O O3 0.059524 0.699957 0.563162
O O4 0.911683 0.584486 0.549762
O O5 0.241761 0.094473 0.561276
O O6 0.230975 0.985169 0.426690
O O7 0.250000 0.118469 0.750000
O O8 0.436419 0.152011 0.810302
O O9 0.379360 0.005205 0.836340
O O10 0.082091 0.750000 0.250000
O O11 0.118959 0.914640 0.279603
O O12 0.250000 0.750000 0.603423
O O13 0.386719 0.750000 0.750000
O O14 0.405954 0.642528 0.587699
O O15 0.500000 0.500000 0.500000
O O16 0.566374 0.561836 0.662646
O O17 0.750000 0.959623 0.750000
#
# Coordination Sequence:
#
# PCOD9391737 Si02
#       7
#     8   8   8   8   8   8   8
#     4  11  25  43  70 103 142 181 242 294 360 421
#     4  11  23  44  70  99 136 192 232 291 353 440
#     4  11  23  42  69  98 130 190 235 285 350 428
#     4  11  26  42  68 106 142 175 239 303 361 426
#     4  11  28  46  70 108 145 188 235 302 358 427
#     4  11  25  43  71 101 139 184 245 284 354 446
#     4  11  24  43  67  99 134 188 228 283 363 430
#
# _framework density 21.392593000000002
#
# number of rings (size 3 to 8) (size 9 to 14) (size 15 to 20)
#    0.000    1.000    4.286    0.857   10.000    0.571 
#    0.000    2.143    0.000    0.000    0.000    0.000 
#    0.000    0.000    0.000    0.000    0.000    0.000 
#
# Total GULP energy -312222.635916 kJ/mol
# GULP energy per Si atom -5575.404213 kJ/mol
# Density = 2.134390 g / cm^3
# Si number density = 21.392593 Si / 1000 Ang^3
#
#
#
# Elastic Constant Matrix: (Units=GPa)
#
#
# Indices 1 2 3 4 5 6 
#
# 1 135.8147 31.1390 21.3372 0.0000 0.0000 0.0000
# 2 31.1390 108.5590 16.8002 0.0000 0.0000 0.0000
# 3 21.3372 16.8002 49.9961 0.0000 0.0000 0.0000
# 4 0.0000 0.0000 0.0000 16.2840 0.0000 0.0000
# 5 0.0000 0.0000 0.0000 0.0000 23.7319 0.0000
# 6 0.0000 0.0000 0.0000 0.0000 0.0000 6.8867
#
#
#
# Elastic Compliance Matrix: (Units=1/GPa)
#
#
# Indices 1 2 3 4 5 6 
#
# 1 0.008256 -0.001923 -0.002877 0.000000 0.000000 0.000000
# 2 -0.001923 0.010165 -0.002595 0.000000 0.000000 0.000000
# 3 -0.002877 -0.002595 0.022102 0.000000 0.000000 0.000000
# 4 0.000000 0.000000 0.000000 0.061410 0.000000 0.000000
# 5 0.000000 0.000000 0.000000 0.000000 0.042137 0.000000
# 6 0.000000 0.000000 0.000000 0.000000 0.000000 0.145207
#
#
# Mechanical properties :
#
#
# Convention : Reuss Voigt Hill
#
# Bulk Modulus (GPa) = 38.86240 48.10251 43.48245
# Shear Modulus (GPa) = 15.99262 24.38674 20.18968
#
# Velocity S-wave (km/s) = 2.73715 3.38000 3.07542
# Velocity P-wave (km/s) = 5.30990 6.14548 5.74291
#
# Compressibility (1/GPa) = 0.02573182
#
# Stress axis : x y z
#
# Youngs Moduli (GPa) = 121.12597 98.37947 45.24574
#
# Poissons Ratio (x) = 0.18917 0.13018
# Poissons Ratio (y) = 0.23290 0.11741
# Poissons Ratio (z) = 0.34851 0.25530
#
# Static dielectric constant tensor:
#      x y z
#    x 1.796570 0.000000 0.000000 
#    y 0.000000 1.729760 0.000000 
#    z 0.000000 0.000000 2.060850 
# 
# From -- ./inp_files/26535.got.cif
#   From: 2010.05.17/outbox.cif.g08.bks.cpg/sg48_14_cif.got.tgz:26535.got - 2010.06.03 20:39:00.
