data_PCOD9391614
_publ_section_title
;
Structure prediction by ZEFSAII (Michael W. Deem and Ramdas Pophale) SiO2 
 PCOD9391614
Probable space group: P N N N
;
_chemical_formula_sum "Si O2"
_cell_formula_units_Z 40
_cell_length_a 13.218700
_cell_length_b 9.670638
_cell_length_c 15.257328
_cell_angle_alpha 90.000000
_cell_angle_beta 90.000000
_cell_angle_gamma 90.000000
_cell_volume 1950.394016
_symmetry_space_group_name_H-M "P N N N"
_symmetry_group_IT_number 48
_space_group.IT_coordinate_system_code '2'
_symmetry_cell_setting 'orthorhombic'
loop_
_space_group_symop_operation_xyz
x,y,z
1/2-x,1/2-y,z
x,1/2-y,1/2-z
1/2-x,y,1/2-z
-x,-y,-z
1/2+x,1/2+y,-z
-x,1/2+y,1/2+z
1/2+x,-y,1/2+z
loop_
_atom_site_type_symbol
_atom_site_label
_atom_site_fract_x
_atom_site_fract_y
_atom_site_fract_z
Si Si1 0.483565 0.037971 0.399206
Si Si2 0.979481 0.043769 0.598305
Si Si3 0.640734 0.292668 0.851818
Si Si4 0.869339 0.582026 0.251600
Si Si5 0.860332 0.788762 0.647965
O O1 0.386762 0.951262 0.364146
O O2 0.574086 0.987120 0.335189
O O3 0.500000 0.000000 0.500000
O O4 0.451104 0.197007 0.391607
O O5 0.888893 0.947917 0.634743
O O6 0.943831 0.201748 0.600997
O O7 0.000000 0.000000 0.500000
O O8 0.073030 0.028669 0.664851
O O9 0.750000 0.250000 0.885952
O O10 0.635963 0.250000 0.750000
O O11 0.880817 0.750000 0.250000
O O12 0.750000 0.551486 0.250000
O O13 0.750000 0.750000 0.610465
O O14 0.858891 0.750000 0.750000
#
# Coordination Sequence:
#
# PCOD9391614 Si02
#       5
#     8   8   8   8   8
#     4  12  23  42  64  96 130 169 212 263 317 385
#     4  12  23  42  64  96 130 169 212 263 317 385
#     4  11  21  40  68  91 120 160 214 266 314 370
#     4  11  24  45  68  93 129 177 221 263 316 383
#     4  11  23  40  66  95 130 162 202 266 334 378
#
# _framework density 20.508676000000001
#
# number of rings (size 3 to 8) (size 9 to 14) (size 15 to 20)
#    0.000    0.600    6.000    2.400    0.000    6.400 
#    0.000    2.000    0.000    0.000    0.000    0.000 
#    0.000    0.000    0.000    0.000    0.000    0.000 
#
# Total GULP energy -223578.438335 kJ/mol
# GULP energy per Si atom -5589.460958 kJ/mol
# Density = 2.046200 g / cm^3
# Si number density = 20.508676 Si / 1000 Ang^3
#
#
#
# Elastic Constant Matrix: (Units=GPa)
#
#
# Indices 1 2 3 4 5 6 
#
# 1 135.7313 7.0467 39.1313 0.0000 0.0000 0.0000
# 2 7.0467 56.9745 0.8210 0.0000 0.0000 0.0000
# 3 39.1313 0.8210 134.1552 0.0000 0.0000 0.0000
# 4 0.0000 0.0000 0.0000 30.0229 0.0000 0.0000
# 5 0.0000 0.0000 0.0000 0.0000 4.3635 0.0000
# 6 0.0000 0.0000 0.0000 0.0000 0.0000 31.7697
#
#
#
# Elastic Compliance Matrix: (Units=1/GPa)
#
#
# Indices 1 2 3 4 5 6 
#
# 1 0.008097 -0.000967 -0.002356 0.000000 0.000000 0.000000
# 2 -0.000967 0.017669 0.000174 0.000000 0.000000 0.000000
# 3 -0.002356 0.000174 0.008140 0.000000 0.000000 0.000000
# 4 0.000000 0.000000 0.000000 0.033308 0.000000 0.000000
# 5 0.000000 0.000000 0.000000 0.000000 0.229172 0.000000
# 6 0.000000 0.000000 0.000000 0.000000 0.000000 0.031477
#
#
# Mechanical properties :
#
#
# Convention : Reuss Voigt Hill
#
# Bulk Modulus (GPa) = 36.22213 46.76209 41.49211
# Shear Modulus (GPa) = 14.56182 31.88870 23.22526
#
# Velocity S-wave (km/s) = 2.66753 3.94748 3.36886
# Velocity P-wave (km/s) = 5.21420 6.60511 5.95043
#
# Compressibility (1/GPa) = 0.02760743
#
# Stress axis : x y z
#
# Youngs Moduli (GPa) = 123.50378 56.59673 122.84777
#
# Poissons Ratio (x) = 0.05476 0.28941
# Poissons Ratio (y) = 0.11949 -0.02139
# Poissons Ratio (z) = 0.29096 -0.00985
#
# Static dielectric constant tensor:
#      x y z
#    x 1.743500 0.000000 0.000000 
#    y 0.000000 1.698670 0.000000 
#    z 0.000000 0.000000 1.730040 
# 
# From -- ./inp_files/27051.got.cif
#   From: 2010.05.17/outbox.cif.g08.bks.cpg/sg48_14_cif.got.tgz:27051.got - 2010.06.03 20:39:00.
