data_PCOD9391464
_publ_section_title
;
Structure prediction by ZEFSAII (Michael W. Deem and Ramdas Pophale) SiO2 
 PCOD9391464
Probable space group: P N N N
;
_chemical_formula_sum "Si O2"
_cell_formula_units_Z 22
_cell_length_a 5.323510
_cell_length_b 5.318837
_cell_length_c 31.659313
_cell_angle_alpha 90.000000
_cell_angle_beta 90.000000
_cell_angle_gamma 90.000000
_cell_volume 896.429710
_symmetry_space_group_name_H-M "P N N N"
_symmetry_group_IT_number 48
_space_group.IT_coordinate_system_code '2'
_symmetry_cell_setting 'orthorhombic'
loop_
_space_group_symop_operation_xyz
x,y,z
1/2-x,1/2-y,z
x,1/2-y,1/2-z
1/2-x,y,1/2-z
-x,-y,-z
1/2+x,1/2+y,-z
-x,1/2+y,1/2+z
1/2+x,-y,1/2+z
loop_
_atom_site_type_symbol
_atom_site_label
_atom_site_fract_x
_atom_site_fract_y
_atom_site_fract_z
Si Si1 0.250000 0.750000 0.389073
Si Si2 0.001681 0.912300 0.548569
Si Si3 0.750000 0.250000 0.250000
Si Si4 0.901417 0.488951 0.331121
O O1 0.465420 0.645417 0.419860
O O2 0.350662 0.963403 0.357666
O O3 0.250000 0.750000 0.555369
O O4 0.750000 0.750000 0.554775
O O5 0.000000 0.000000 0.500000
O O6 0.919192 0.415517 0.281690
O O7 0.750000 0.750000 0.333462
O O8 0.750000 0.250000 0.348837
#
# Coordination Sequence:
#
# PCOD9391464 Si02
#       4
#     4   8   2   8
#     4  12  30  46  83 121 166 214 297 347 432 504
#     4  12  29  51  81 120 167 230 283 351 428 510
#     4   8  22  52  84 114 172 212 282 340 452 504
#     4  10  25  48  81 118 165 219 271 356 424 516
#
# _framework density 24.541799000000001
#
# number of rings (size 3 to 8) (size 9 to 14) (size 15 to 20)
#    1.091    0.000    1.818    1.636   10.182    0.000 
#    0.000    5.455    8.000    0.000    0.000    0.000 
#    0.000    0.000    0.000    0.000    0.000    0.000 
#
# Total GULP energy -123218.964398 kJ/mol
# GULP energy per Si atom -5600.862018 kJ/mol
# Density = 2.448594 g / cm^3
# Si number density = 24.541799 Si / 1000 Ang^3
#
#
#
# Elastic Constant Matrix: (Units=GPa)
#
#
# Indices 1 2 3 4 5 6 
#
# 1 146.2583 62.6927 57.9249 0.0000 0.0000 0.0000
# 2 62.6927 148.6129 60.7655 0.0000 0.0000 0.0000
# 3 57.9249 60.7655 227.9650 0.0000 0.0000 0.0000
# 4 0.0000 0.0000 0.0000 96.8577 0.0000 0.0000
# 5 0.0000 0.0000 0.0000 0.0000 27.1601 0.0000
# 6 0.0000 0.0000 0.0000 0.0000 0.0000 60.7200
#
#
#
# Elastic Compliance Matrix: (Units=1/GPa)
#
#
# Indices 1 2 3 4 5 6 
#
# 1 0.008720 -0.003112 -0.001386 0.000000 0.000000 0.000000
# 2 -0.003112 0.008662 -0.001518 0.000000 0.000000 0.000000
# 3 -0.001386 -0.001518 0.005144 0.000000 0.000000 0.000000
# 4 0.000000 0.000000 0.000000 0.010324 0.000000 0.000000
# 5 0.000000 0.000000 0.000000 0.000000 0.036819 0.000000
# 6 0.000000 0.000000 0.000000 0.000000 0.000000 0.016469
#
#
# Mechanical properties :
#
#
# Convention : Reuss Voigt Hill
#
# Bulk Modulus (GPa) = 95.29835 98.40028 96.84931
# Shear Modulus (GPa) = 49.17929 59.71110 54.44519
#
# Velocity S-wave (km/s) = 4.48135 4.93793 4.71517
# Velocity P-wave (km/s) = 8.10506 8.52601 8.31820
#
# Compressibility (1/GPa) = 0.01049336
#
# Stress axis : x y z
#
# Youngs Moduli (GPa) = 114.67781 115.44119 194.41611
#
# Poissons Ratio (x) = 0.35923 0.26951
# Poissons Ratio (y) = 0.35685 0.29519
# Poissons Ratio (z) = 0.15897 0.17528
#
# Static dielectric constant tensor:
#      x y z
#    x 1.918450 0.000000 0.000000 
#    y 0.000000 1.994780 0.000000 
#    z 0.000000 0.000000 1.918180 
# 
# From -- ./inp_files/38141.got.cif
#   From: 2010.05.17/outbox.cif.g08.bks.cpg/sg48_20_cif.got.tgz:38141.got - 2010.06.03 20:39:00.
