data_PCOD9391097
_publ_section_title
;
Structure prediction by ZEFSAII (Michael W. Deem and Ramdas Pophale) SiO2 
 PCOD9391097
Probable space group: P N N N
;
_chemical_formula_sum "Si O2"
_cell_formula_units_Z 48
_cell_length_a 8.405009
_cell_length_b 30.762240
_cell_length_c 9.034029
_cell_angle_alpha 90.000000
_cell_angle_beta 90.000000
_cell_angle_gamma 90.000000
_cell_volume 2335.810569
_symmetry_space_group_name_H-M "P N N N"
_symmetry_group_IT_number 48
_space_group.IT_coordinate_system_code '2'
_symmetry_cell_setting 'orthorhombic'
loop_
_space_group_symop_operation_xyz
x,y,z
1/2-x,1/2-y,z
x,1/2-y,1/2-z
1/2-x,y,1/2-z
-x,-y,-z
1/2+x,1/2+y,-z
-x,1/2+y,1/2+z
1/2+x,-y,1/2+z
loop_
_atom_site_type_symbol
_atom_site_label
_atom_site_fract_x
_atom_site_fract_y
_atom_site_fract_z
Si Si1 0.250000 0.907882 0.250000
Si Si2 0.501079 0.640230 0.052363
Si Si3 0.058288 0.386789 0.232270
Si Si4 0.993314 0.449529 0.961705
Si Si5 0.250000 0.404348 0.750000
Si Si6 0.078220 0.290376 0.167080
Si Si7 0.064821 0.741178 0.424291
O O1 0.370807 0.876708 0.334176
O O2 0.335195 0.937244 0.127811
O O3 0.664400 0.626454 0.130640
O O4 0.482524 0.691802 0.034052
O O5 0.489414 0.614256 0.898036
O O6 0.250000 0.390154 0.250000
O O7 0.013755 0.338769 0.173331
O O8 0.004504 0.422086 0.113557
O O9 0.131572 0.433969 0.847744
O O10 0.000000 0.500000 0.000000
O O11 0.992756 0.250000 0.250000
O O12 0.250000 0.293299 0.250000
O O13 0.060976 0.273653 0.001045
O O14 0.250000 0.750000 0.468526
O O15 0.057654 0.750000 0.250000
#
# Coordination Sequence:
#
# PCOD9391097 Si02
#       7
#     4   8   8   8   4   8   8
#     4  10  26  44  65 104 140 172 229 284 354 416
#     4  11  23  44  68 101 142 186 229 287 347 424
#     4  11  23  42  70  98 134 178 234 286 346 411
#     4  11  26  46  74 101 139 178 230 295 354 426
#     4  10  24  44  73 102 136 182 231 284 354 418
#     4  10  22  41  62  95 134 174 231 281 326 408
#     4  11  25  41  65  98 141 184 231 282 346 409
#
# _framework density 20.549612
#
# number of rings (size 3 to 8) (size 9 to 14) (size 15 to 20)
#    0.000    1.333    3.333    1.000    8.167    2.333 
#    0.000    3.333    0.000    0.000    0.000    0.000 
#    0.000    0.000    0.000    0.000    0.000    0.000 
#
# Total GULP energy -267982.822155 kJ/mol
# GULP energy per Si atom -5582.975462 kJ/mol
# Density = 2.050284 g / cm^3
# Si number density = 20.549612 Si / 1000 Ang^3
#
#
#
# Elastic Constant Matrix: (Units=GPa)
#
#
# Indices 1 2 3 4 5 6 
#
# 1 44.5933 21.4354 21.8300 0.0000 0.0000 0.0000
# 2 21.4354 153.7797 54.3225 0.0000 0.0000 0.0000
# 3 21.8300 54.3225 130.5502 0.0000 0.0000 0.0000
# 4 0.0000 0.0000 0.0000 31.8430 0.0000 0.0000
# 5 0.0000 0.0000 0.0000 0.0000 31.4240 0.0000
# 6 0.0000 0.0000 0.0000 0.0000 0.0000 6.7771
#
#
#
# Elastic Compliance Matrix: (Units=1/GPa)
#
#
# Indices 1 2 3 4 5 6 
#
# 1 0.025138 -0.002367 -0.003219 0.000000 0.000000 0.000000
# 2 -0.002367 0.007846 -0.002869 0.000000 0.000000 0.000000
# 3 -0.003219 -0.002869 0.009392 0.000000 0.000000 0.000000
# 4 0.000000 0.000000 0.000000 0.031404 0.000000 0.000000
# 5 0.000000 0.000000 0.000000 0.000000 0.031823 0.000000
# 6 0.000000 0.000000 0.000000 0.000000 0.000000 0.147557
#
#
# Mechanical properties :
#
#
# Convention : Reuss Voigt Hill
#
# Bulk Modulus (GPa) = 39.26637 58.23324 48.74981
# Shear Modulus (GPa) = 17.94956 29.43118 23.69037
#
# Velocity S-wave (km/s) = 2.95867 3.78855 3.39903
# Velocity P-wave (km/s) = 5.55168 6.89470 6.25931
#
# Compressibility (1/GPa) = 0.02546709
#
# Stress axis : x y z
#
# Youngs Moduli (GPa) = 39.77988 127.44950 106.47470
#
# Poissons Ratio (x) = 0.30168 0.34270
# Poissons Ratio (y) = 0.09416 0.30548
# Poissons Ratio (z) = 0.12803 0.36566
#
# Static dielectric constant tensor:
#      x y z
#    x 1.827490 0.000000 0.000000 
#    y 0.000000 1.758030 0.000000 
#    z 0.000000 0.000000 1.764370 
# 
# From -- ./inp_files/9535.got.cif
#   From: 2010.05.17/outbox.cif.g08.bks.cpg/sg48_5_cif.got.tgz:9535.got - 2010.06.03 20:39:00.
