data_PCOD9391839
_publ_section_title
;
Structure prediction by ZEFSAII (Michael W. Deem and Ramdas Pophale) SiO2 
 PCOD9391839
Probable space group: P N N N
;
_chemical_formula_sum "Si O2"
_cell_formula_units_Z 36
_cell_length_a 11.921327
_cell_length_b 22.397639
_cell_length_c 6.367425
_cell_angle_alpha 90.000000
_cell_angle_beta 90.000000
_cell_angle_gamma 90.000000
_cell_volume 1700.163466
_symmetry_space_group_name_H-M "P N N N"
_symmetry_group_IT_number 48
_space_group.IT_coordinate_system_code '2'
_symmetry_cell_setting 'orthorhombic'
loop_
_space_group_symop_operation_xyz
x,y,z
1/2-x,1/2-y,z
x,1/2-y,1/2-z
1/2-x,y,1/2-z
-x,-y,-z
1/2+x,1/2+y,-z
-x,1/2+y,1/2+z
1/2+x,-y,1/2+z
loop_
_atom_site_type_symbol
_atom_site_label
_atom_site_fract_x
_atom_site_fract_y
_atom_site_fract_z
Si Si1 0.635862 0.395669 0.179124
Si Si2 0.881706 0.522114 0.413266
Si Si3 0.379511 0.820399 0.290135
Si Si4 0.950839 0.605499 0.021045
Si Si5 0.750000 0.897631 0.750000
O O1 0.750000 0.363862 0.250000
O O2 0.679917 0.458158 0.084509
O O3 0.543642 0.415887 0.350090
O O4 0.586122 0.349241 0.013073
O O5 0.903713 0.557211 0.192430
O O6 0.819613 0.563522 0.580782
O O7 0.000000 0.500000 0.500000
O O8 0.378594 0.750000 0.250000
O O9 0.250000 0.841164 0.250000
O O10 0.473842 0.846862 0.140118
O O11 0.845920 0.632210 0.892391
#
# Coordination Sequence:
#
# PCOD9391839 Si02
#       5
#     8   8   8   8   4
#     4  12  24  40  69 102 140 183 227 287 365 427
#     4  12  25  40  68 104 143 184 231 289 358 438
#     4  11  25  45  69 103 142 185 239 308 360 425
#     4  12  24  45  67 101 143 185 241 290 359 434
#     4  12  26  42  68 101 145 184 230 286 358 434
#
# _framework density 21.174436
#
# number of rings (size 3 to 8) (size 9 to 14) (size 15 to 20)
#    0.000    0.222    6.667    2.667    4.667    0.889 
#    0.000    0.000    0.000   18.667    0.000    0.000 
#    0.000    0.000    0.000    0.000    0.000    0.000 
#
# Total GULP energy -200508.027317 kJ/mol
# GULP energy per Si atom -5569.667425 kJ/mol
# Density = 2.112624 g / cm^3
# Si number density = 21.174436 Si / 1000 Ang^3
#
#
#
# Elastic Constant Matrix: (Units=GPa)
#
#
# Indices 1 2 3 4 5 6 
#
# 1 133.5277 20.0347 50.6596 0.0000 0.0000 0.0000
# 2 20.0347 83.5239 45.6729 0.0000 0.0000 0.0000
# 3 50.6596 45.6729 124.5806 0.0000 0.0000 0.0000
# 4 0.0000 0.0000 0.0000 -22.0735 0.0000 0.0000
# 5 0.0000 0.0000 0.0000 0.0000 59.1109 0.0000
# 6 0.0000 0.0000 0.0000 0.0000 0.0000 -38.2726
#
#
#
# Elastic Compliance Matrix: (Units=1/GPa)
#
#
# Indices 1 2 3 4 5 6 
#
# 1 0.008858 -0.000194 -0.003531 0.000000 0.000000 0.000000
# 2 -0.000194 0.014979 -0.005413 0.000000 0.000000 0.000000
# 3 -0.003531 -0.005413 0.011447 0.000000 0.000000 0.000000
# 4 0.000000 0.000000 0.000000 -0.045303 0.000000 0.000000
# 5 0.000000 0.000000 0.000000 0.000000 0.016917 0.000000
# 6 0.000000 0.000000 0.000000 0.000000 0.000000 -0.026128
#
#
# Mechanical properties :
#
#
# Convention : Reuss Voigt Hill
#
# Bulk Modulus (GPa) = 58.79258 63.81851 61.30555
# Shear Modulus (GPa) = 1060.71728 14.77063 537.74395
#
# Velocity S-wave (km/s) = 22.40602 2.64402 15.95338
# Velocity P-wave (km/s) = 26.40453 6.28697 19.19278
#
# Compressibility (1/GPa) = 0.01700895
#
# Stress axis : x y z
#
# Youngs Moduli (GPa) = 112.89541 66.76068 87.35882
#
# Poissons Ratio (x) = 0.01295 0.30845
# Poissons Ratio (y) = 0.02190 0.47284
# Poissons Ratio (z) = 0.39861 0.36135
#
# Static dielectric constant tensor:
#      x y z
#    x 1.700000 0.000000 0.000000 
#    y 0.000000 1.749930 0.000000 
#    z 0.000000 0.000000 1.974700 
# 
# From -- ./inp_files/2204.got.cif
#   From: 2010.05.17/outbox.cif.g08.bks.cpg/sg48_2_cif.got.tgz:2204.got - 2010.06.03 20:39:00.
