data_PCOD9391007
_publ_section_title
;
Structure prediction by ZEFSAII (Michael W. Deem and Ramdas Pophale) SiO2 
 PCOD9391007
Probable space group: P N N N
;
_chemical_formula_sum "Si O2"
_cell_formula_units_Z 46
_cell_length_a 11.730613
_cell_length_b 20.083985
_cell_length_c 9.822966
_cell_angle_alpha 90.000000
_cell_angle_beta 90.000000
_cell_angle_gamma 90.000000
_cell_volume 2314.265795
_symmetry_space_group_name_H-M "P N N N"
_symmetry_group_IT_number 48
_space_group.IT_coordinate_system_code '2'
_symmetry_cell_setting 'orthorhombic'
loop_
_space_group_symop_operation_xyz
x,y,z
1/2-x,1/2-y,z
x,1/2-y,1/2-z
1/2-x,y,1/2-z
-x,-y,-z
1/2+x,1/2+y,-z
-x,1/2+y,1/2+z
1/2+x,-y,1/2+z
loop_
_atom_site_type_symbol
_atom_site_label
_atom_site_fract_x
_atom_site_fract_y
_atom_site_fract_z
Si Si1 0.258341 0.370384 0.092714
Si Si2 0.750000 0.250000 0.750000
Si Si3 0.591323 0.129860 0.796012
Si Si4 0.134656 0.990174 0.478389
Si Si5 0.953736 0.933052 0.068937
Si Si6 0.250000 0.494042 0.750000
Si Si7 0.351810 0.184760 0.842328
O O1 0.250000 0.352444 0.250000
O O2 0.191048 0.440408 0.068773
O O3 0.385190 0.387240 0.038053
O O4 0.202284 0.316518 0.991686
O O5 0.664836 0.196283 0.817287
O O6 0.649058 0.067415 0.867970
O O7 0.554472 0.107871 0.643339
O O8 0.467407 0.144952 0.857769
O O9 0.193813 0.970027 0.620449
O O10 0.000000 0.000000 0.500000
O O11 0.859701 0.957412 0.180337
O O12 0.000000 0.000000 0.000000
O O13 0.378561 0.250000 0.750000
O O14 0.250000 0.154955 0.750000
#
# Coordination Sequence:
#
# PCOD9391007 Si02
#       7
#     8   2   8   8   8   4   8
#     4  11  23  38  63 111 139 166 229 309 371 399
#     4  12  32  40  62  98 136 200 228 268 346 456
#     4  12  23  44  64  99 137 185 241 274 341 450
#     4  11  21  37  68  98 144 176 225 300 366 416
#     4  11  22  37  66  98 137 172 226 295 362 418
#     4  10  22  38  58 110 134 180 224 288 388 408
#     4  11  22  43  71  94 125 184 239 283 341 429
#
# _framework density 19.876715000000001
#
# number of rings (size 3 to 8) (size 9 to 14) (size 15 to 20)
#    0.000    0.870    6.087    2.087    7.304    0.000 
#    0.000    1.739    0.000    0.522    0.000    0.000 
#    0.000    0.000    0.000    0.000    0.000    0.000 
#
# Total GULP energy -256335.719523 kJ/mol
# GULP energy per Si atom -5572.515642 kJ/mol
# Density = 1.983147 g / cm^3
# Si number density = 19.876715 Si / 1000 Ang^3
#
#
#
# Elastic Constant Matrix: (Units=GPa)
#
#
# Indices 1 2 3 4 5 6 
#
# 1 93.4990 24.0635 34.0917 0.0000 0.0000 0.0000
# 2 24.0635 101.5388 36.2948 0.0000 0.0000 0.0000
# 3 34.0917 36.2948 152.8957 0.0000 0.0000 0.0000
# 4 0.0000 0.0000 0.0000 19.1149 0.0000 0.0000
# 5 0.0000 0.0000 0.0000 0.0000 35.8105 0.0000
# 6 0.0000 0.0000 0.0000 0.0000 0.0000 32.8915
#
#
#
# Elastic Compliance Matrix: (Units=1/GPa)
#
#
# Indices 1 2 3 4 5 6 
#
# 1 0.012026 -0.002067 -0.002191 0.000000 0.000000 0.000000
# 2 -0.002067 0.011117 -0.002178 0.000000 0.000000 0.000000
# 3 -0.002191 -0.002178 0.007546 0.000000 0.000000 0.000000
# 4 0.000000 0.000000 0.000000 0.052315 0.000000 0.000000
# 5 0.000000 0.000000 0.000000 0.000000 0.027925 0.000000
# 6 0.000000 0.000000 0.000000 0.000000 0.000000 0.030403
#
#
# Mechanical properties :
#
#
# Convention : Reuss Voigt Hill
#
# Bulk Modulus (GPa) = 56.12567 59.64819 57.88693
# Shear Modulus (GPa) = 31.22218 34.46227 32.84223
#
# Velocity S-wave (km/s) = 3.96762 4.16841 4.06925
# Velocity P-wave (km/s) = 7.02051 7.29670 7.15993
#
# Compressibility (1/GPa) = 0.01781716
#
# Stress axis : x y z
#
# Youngs Moduli (GPa) = 83.15257 89.95367 132.52151
#
# Poissons Ratio (x) = 0.18593 0.29033
# Poissons Ratio (y) = 0.17187 0.28864
# Poissons Ratio (z) = 0.18217 0.19593
#
# Static dielectric constant tensor:
#      x y z
#    x 1.682540 0.000000 0.000000 
#    y 0.000000 1.784010 0.000000 
#    z 0.000000 0.000000 1.721430 
# 
# From -- ./inp_files/11283.got.cif
#   From: 2010.05.17/outbox.cif.g08.bks.cpg/sg48_6_cif.got.tgz:11283.got - 2010.06.03 20:39:00.
