data_PCOD9391763
_publ_section_title
;
Structure prediction by ZEFSAII (Michael W. Deem and Ramdas Pophale) SiO2 
 PCOD9391763
Probable space group: P N N N
;
_chemical_formula_sum "Si O2"
_cell_formula_units_Z 40
_cell_length_a 10.870862
_cell_length_b 9.492954
_cell_length_c 15.787860
_cell_angle_alpha 90.000000
_cell_angle_beta 90.000000
_cell_angle_gamma 90.000000
_cell_volume 1629.253361
_symmetry_space_group_name_H-M "P N N N"
_symmetry_group_IT_number 48
_space_group.IT_coordinate_system_code '2'
_symmetry_cell_setting 'orthorhombic'
loop_
_space_group_symop_operation_xyz
x,y,z
1/2-x,1/2-y,z
x,1/2-y,1/2-z
1/2-x,y,1/2-z
-x,-y,-z
1/2+x,1/2+y,-z
-x,1/2+y,1/2+z
1/2+x,-y,1/2+z
loop_
_atom_site_type_symbol
_atom_site_label
_atom_site_fract_x
_atom_site_fract_y
_atom_site_fract_z
Si Si1 0.634396 0.852261 0.953947
Si Si2 0.303453 0.594892 0.986631
Si Si3 0.885958 0.685709 0.142492
Si Si4 0.036180 0.887642 0.707258
Si Si5 0.994968 0.039796 0.864042
O O1 0.750000 0.750000 0.936995
O O2 0.542994 0.851323 0.875602
O O3 0.576067 0.806900 0.042898
O O4 0.688454 0.001952 0.982519
O O5 0.250000 0.750000 0.969649
O O6 0.384424 0.531779 0.908727
O O7 0.394668 0.570677 0.065438
O O8 0.750000 0.750000 0.148642
O O9 0.889039 0.527213 0.178248
O O10 0.969699 0.811300 0.175802
O O11 0.098546 0.750000 0.750000
O O12 0.953724 0.942548 0.786104
#
# Coordination Sequence:
#
# PCOD9391763 Si02
#       5
#     8   8   8   8   8
#     4  11  23  48  74 103 140 200 244 301 377 454
#     4  11  24  43  74 101 141 194 252 300 365 450
#     4  11  24  49  73  95 146 204 242 285 384 457
#     4  12  28  42  74 114 148 179 250 325 368 428
#     4  11  25  45  67 104 148 187 244 312 371 440
#
# _framework density 24.551123
#
# number of rings (size 3 to 8) (size 9 to 14) (size 15 to 20)
#    0.000    0.800    4.000    3.600    5.600    4.400 
#    0.000    2.000    0.000    0.000    0.000    0.000 
#    0.000    0.000    0.000    0.000    0.000    0.000 
#
# Total GULP energy -223554.994447 kJ/mol
# GULP energy per Si atom -5588.874861 kJ/mol
# Density = 2.449524 g / cm^3
# Si number density = 24.551123 Si / 1000 Ang^3
#
#
#
# Elastic Constant Matrix: (Units=GPa)
#
#
# Indices 1 2 3 4 5 6 
#
# 1 41.0382 33.6805 33.5475 0.0000 0.0000 0.0000
# 2 33.6805 175.8707 69.2703 0.0000 0.0000 0.0000
# 3 33.5475 69.2703 165.5522 0.0000 0.0000 0.0000
# 4 0.0000 0.0000 0.0000 49.5823 0.0000 0.0000
# 5 0.0000 0.0000 0.0000 0.0000 194.9722 0.0000
# 6 0.0000 0.0000 0.0000 0.0000 0.0000 48.7824
#
#
#
# Elastic Compliance Matrix: (Units=1/GPa)
#
#
# Indices 1 2 3 4 5 6 
#
# 1 0.031632 -0.004230 -0.004640 0.000000 0.000000 0.000000
# 2 -0.004230 0.007374 -0.002228 0.000000 0.000000 0.000000
# 3 -0.004640 -0.002228 0.007913 0.000000 0.000000 0.000000
# 4 0.000000 0.000000 0.000000 0.020169 0.000000 0.000000
# 5 0.000000 0.000000 0.000000 0.000000 0.005129 0.000000
# 6 0.000000 0.000000 0.000000 0.000000 0.000000 0.020499
#
#
# Mechanical properties :
#
#
# Convention : Reuss Voigt Hill
#
# Bulk Modulus (GPa) = 40.44917 72.82865 56.63891
# Shear Modulus (GPa) = 40.59985 75.06487 57.83236
#
# Velocity S-wave (km/s) = 4.07097 5.53546 4.85871
# Velocity P-wave (km/s) = 6.21356 8.40140 7.38890
#
# Compressibility (1/GPa) = 0.02472238
#
# Stress axis : x y z
#
# Youngs Moduli (GPa) = 31.61311 135.61705 126.37585
#
# Poissons Ratio (x) = 0.57370 0.58638
# Poissons Ratio (y) = 0.13373 0.28158
# Poissons Ratio (z) = 0.14668 0.30217
#
# Static dielectric constant tensor:
#      x y z
#    x 1.965040 0.000000 0.000000 
#    y 0.000000 2.014420 0.000000 
#    z 0.000000 0.000000 2.036210 
# 
# From -- ./inp_files/30847.got.cif
#   From: 2010.05.17/outbox.cif.g08.bks.cpg/sg48_16_cif.got.tgz:30847.got - 2010.06.03 20:39:00.
