data_PCOD9391882
_publ_section_title
;
Structure prediction by ZEFSAII (Michael W. Deem and Ramdas Pophale) SiO2 
 PCOD9391882
Probable space group: P N N N
;
_chemical_formula_sum "Si O2"
_cell_formula_units_Z 32
_cell_length_a 12.424424
_cell_length_b 15.327683
_cell_length_c 7.276902
_cell_angle_alpha 90.000000
_cell_angle_beta 90.000000
_cell_angle_gamma 90.000000
_cell_volume 1385.795989
_symmetry_space_group_name_H-M "P N N N"
_symmetry_group_IT_number 48
_space_group.IT_coordinate_system_code '2'
_symmetry_cell_setting 'orthorhombic'
loop_
_space_group_symop_operation_xyz
x,y,z
1/2-x,1/2-y,z
x,1/2-y,1/2-z
1/2-x,y,1/2-z
-x,-y,-z
1/2+x,1/2+y,-z
-x,1/2+y,1/2+z
1/2+x,-y,1/2+z
loop_
_atom_site_type_symbol
_atom_site_label
_atom_site_fract_x
_atom_site_fract_y
_atom_site_fract_z
Si Si1 0.965027 0.921017 0.126438
Si Si2 0.750000 0.750000 0.250000
Si Si3 0.579314 0.762834 0.949414
Si Si4 0.106515 0.885007 0.474931
Si Si5 0.250000 0.750000 0.250000
Si Si6 0.250000 0.001529 0.750000
O O1 0.038228 0.928591 0.309317
O O2 0.839224 0.939092 0.155507
O O3 0.973137 0.825642 0.033824
O O4 0.000000 0.000000 0.000000
O O5 0.665486 0.708304 0.396977
O O6 0.629365 0.750000 0.750000
O O7 0.486176 0.833622 0.916890
O O8 0.179431 0.812601 0.376942
O O9 0.182337 0.943814 0.603056
#
# Coordination Sequence:
#
# PCOD9391882 Si02
#       6
#     8   2   8   8   2   4
#     4  12  25  51  70 113 159 198 257 327 392 463
#     4  12  22  52  72 106 148 192 254 320 378 444
#     4  12  26  48  79 110 148 203 266 316 383 476
#     4  12  26  49  75 113 154 207 265 322 377 480
#     4  12  22  42  76 106 148 206 264 324 370 442
#     4  12  29  45  81 109 164 210 248 328 416 448
#
# _framework density 23.091421
#
# number of rings (size 3 to 8) (size 9 to 14) (size 15 to 20)
#    0.000    0.000    5.000    4.875    3.500    0.000 
#    4.500    0.000    0.000    0.000    0.000    0.000 
#    0.000    0.000    0.000    0.000    0.000    0.000 
#
# Total GULP energy -179011.569580 kJ/mol
# GULP energy per Si atom -5594.111549 kJ/mol
# Density = 2.303886 g / cm^3
# Si number density = 23.091421 Si / 1000 Ang^3
#
#
#
# Elastic Constant Matrix: (Units=GPa)
#
#
# Indices 1 2 3 4 5 6 
#
# 1 140.6505 35.0693 60.4462 0.0000 0.0000 0.0000
# 2 35.0693 101.2662 45.3324 0.0000 0.0000 0.0000
# 3 60.4462 45.3324 153.5919 0.0000 0.0000 0.0000
# 4 0.0000 0.0000 0.0000 33.5913 0.0000 0.0000
# 5 0.0000 0.0000 0.0000 0.0000 49.7552 0.0000
# 6 0.0000 0.0000 0.0000 0.0000 0.0000 41.9470
#
#
#
# Elastic Compliance Matrix: (Units=1/GPa)
#
#
# Indices 1 2 3 4 5 6 
#
# 1 0.008812 -0.001727 -0.002958 0.000000 0.000000 0.000000
# 2 -0.001727 0.011717 -0.002778 0.000000 0.000000 0.000000
# 3 -0.002958 -0.002778 0.008495 0.000000 0.000000 0.000000
# 4 0.000000 0.000000 0.000000 0.029770 0.000000 0.000000
# 5 0.000000 0.000000 0.000000 0.000000 0.020098 0.000000
# 6 0.000000 0.000000 0.000000 0.000000 0.000000 0.023840
#
#
# Mechanical properties :
#
#
# Convention : Reuss Voigt Hill
#
# Bulk Modulus (GPa) = 70.94239 75.24495 73.09367
# Shear Modulus (GPa) = 40.86380 42.03608 41.44994
#
# Velocity S-wave (km/s) = 4.21129 4.27127 4.24138
# Velocity P-wave (km/s) = 7.37805 7.54860 7.46381
#
# Compressibility (1/GPa) = 0.01409595
#
# Stress axis : x y z
#
# Youngs Moduli (GPa) = 113.48445 85.34640 117.71710
#
# Poissons Ratio (x) = 0.14743 0.34821
# Poissons Ratio (y) = 0.19603 0.32707
# Poissons Ratio (z) = 0.33569 0.23713
#
# Static dielectric constant tensor:
#      x y z
#    x 1.664160 0.000000 0.000000 
#    y 0.000000 1.956270 0.000000 
#    z 0.000000 0.000000 1.883680 
# 
# From -- ./inp_files/10373.got.cif
#   From: 2010.05.17/outbox.cif.g08.bks.cpg/sg48_6_cif.got.tgz:10373.got - 2010.06.03 20:39:00.
