data_PCOD9391931
_publ_section_title
;
Structure prediction by ZEFSAII (Michael W. Deem and Ramdas Pophale) SiO2 
 PCOD9391931
Probable space group: P N N N
;
_chemical_formula_sum "Si O2"
_cell_formula_units_Z 32
_cell_length_a 14.565447
_cell_length_b 8.411682
_cell_length_c 11.637839
_cell_angle_alpha 90.000000
_cell_angle_beta 90.000000
_cell_angle_gamma 90.000000
_cell_volume 1425.866968
_symmetry_space_group_name_H-M "P N N N"
_symmetry_group_IT_number 48
_space_group.IT_coordinate_system_code '2'
_symmetry_cell_setting 'orthorhombic'
loop_
_space_group_symop_operation_xyz
x,y,z
1/2-x,1/2-y,z
x,1/2-y,1/2-z
1/2-x,y,1/2-z
-x,-y,-z
1/2+x,1/2+y,-z
-x,1/2+y,1/2+z
1/2+x,-y,1/2+z
loop_
_atom_site_type_symbol
_atom_site_label
_atom_site_fract_x
_atom_site_fract_y
_atom_site_fract_z
Si Si1 0.688536 0.566909 0.859177
Si Si2 0.822151 0.365148 0.024521
Si Si3 0.649396 0.789042 0.076227
Si Si4 0.468031 0.630795 0.092125
O O1 0.750000 0.600965 0.750000
O O2 0.752085 0.447505 0.933692
O O3 0.656861 0.710907 0.944922
O O4 0.598420 0.466497 0.823320
O O5 0.750000 0.250000 0.090894
O O6 0.862909 0.522025 0.082635
O O7 0.904229 0.263525 0.969056
O O8 0.750000 0.750000 0.123254
O O9 0.562994 0.704371 0.131753
O O10 0.500000 0.500000 0.000000
#
# Coordination Sequence:
#
# PCOD9391931 Si02
#       4
#     8   8   8   8
#     4   9  18  31  47  71 101 132 163 208 261 307
#     4   9  17  27  43  67  94 129 166 209 251 295
#     4   9  17  29  46  68  97 131 169 208 250 301
#     4   9  17  29  44  65  96 131 167 208 255 302
#
# _framework density 22.442488000000001
#
# number of rings (size 3 to 8) (size 9 to 14) (size 15 to 20)
#    0.000    3.000    0.000    2.250    0.000    9.000 
#    0.000    0.000    0.000    0.000    0.000    3.500 
#    0.000    0.000    0.000  210.000    0.000    0.750 
#
# Total GULP energy -178142.082400 kJ/mol
# GULP energy per Si atom -5566.940075 kJ/mol
# Density = 2.239141 g / cm^3
# Si number density = 22.442488 Si / 1000 Ang^3
#
#
#
# Elastic Constant Matrix: (Units=GPa)
#
#
# Indices 1 2 3 4 5 6 
#
# 1 156.0664 61.4779 15.4198 0.0000 0.0000 0.0000
# 2 61.4779 157.4286 23.9165 0.0000 0.0000 0.0000
# 3 15.4198 23.9165 64.2735 0.0000 0.0000 0.0000
# 4 0.0000 0.0000 0.0000 -0.4204 0.0000 0.0000
# 5 0.0000 0.0000 0.0000 0.0000 -5.4983 0.0000
# 6 0.0000 0.0000 0.0000 0.0000 0.0000 40.3015
#
#
#
# Elastic Compliance Matrix: (Units=1/GPa)
#
#
# Indices 1 2 3 4 5 6 
#
# 1 0.007608 -0.002855 -0.000763 0.000000 0.000000 0.000000
# 2 -0.002855 0.007804 -0.002219 0.000000 0.000000 0.000000
# 3 -0.000763 -0.002219 0.016567 0.000000 0.000000 0.000000
# 4 0.000000 0.000000 0.000000 -2.378884 0.000000 0.000000
# 5 0.000000 0.000000 0.000000 0.000000 -0.181873 0.000000
# 6 0.000000 0.000000 0.000000 0.000000 0.000000 0.024813
#
#
# Mechanical properties :
#
#
# Convention : Reuss Voigt Hill
#
# Bulk Modulus (GPa) = 49.24811 64.37744 56.81277
# Shear Modulus (GPa) = -2.01165 25.34019 11.66427
#
# Velocity S-wave (km/s) = -0.94779 3.36388 2.28226
# Velocity P-wave (km/s) = 4.56005 6.62083 5.68460
#
# Compressibility (1/GPa) = 0.02030535
#
# Stress axis : x y z
#
# Youngs Moduli (GPa) = 131.44887 128.13785 60.36019
#
# Poissons Ratio (x) = 0.36583 0.04604
# Poissons Ratio (y) = 0.37528 0.13394
# Poissons Ratio (z) = 0.10027 0.28434
#
# Static dielectric constant tensor:
#      x y z
#    x 1.915850 0.000000 0.000000 
#    y 0.000000 1.927790 0.000000 
#    z 0.000000 0.000000 1.904640 
# 
# From -- ./inp_files/12102.got.cif
#   From: 2010.05.17/outbox.cif.g08.bks.cpg/sg48_7_cif.got.tgz:12102.got - 2010.06.03 20:39:00.
