data_PCOD9391023
_publ_section_title
;
Structure prediction by ZEFSAII (Michael W. Deem and Ramdas Pophale) SiO2 
 PCOD9391023
Probable space group: P N N N
;
_chemical_formula_sum "Si O2"
_cell_formula_units_Z 56
_cell_length_a 10.096120
_cell_length_b 13.582016
_cell_length_c 20.284661
_cell_angle_alpha 90.000000
_cell_angle_beta 90.000000
_cell_angle_gamma 90.000000
_cell_volume 2781.547596
_symmetry_space_group_name_H-M "P N N N"
_symmetry_group_IT_number 48
_space_group.IT_coordinate_system_code '2'
_symmetry_cell_setting 'orthorhombic'
loop_
_space_group_symop_operation_xyz
x,y,z
1/2-x,1/2-y,z
x,1/2-y,1/2-z
1/2-x,y,1/2-z
-x,-y,-z
1/2+x,1/2+y,-z
-x,1/2+y,1/2+z
1/2+x,-y,1/2+z
loop_
_atom_site_type_symbol
_atom_site_label
_atom_site_fract_x
_atom_site_fract_y
_atom_site_fract_z
Si Si1 0.439262 0.037352 0.799946
Si Si2 0.360625 0.829688 0.561624
Si Si3 0.386477 0.541036 0.069202
Si Si4 0.703989 0.362998 0.678719
Si Si5 0.633406 0.670841 0.901610
Si Si6 0.092083 0.138728 0.244231
Si Si7 0.845961 0.986006 0.148536
O O1 0.547037 0.118513 0.820821
O O2 0.309090 0.045617 0.845428
O O3 0.396052 0.039478 0.722688
O O4 0.520738 0.933261 0.795600
O O5 0.250000 0.750000 0.552547
O O6 0.373390 0.897541 0.497315
O O7 0.501857 0.777491 0.572351
O O8 0.330520 0.900829 0.623804
O O9 0.280742 0.580733 0.121768
O O10 0.346494 0.427036 0.055247
O O11 0.535678 0.552035 0.100101
O O12 0.750000 0.250000 0.675122
O O13 0.750000 0.402788 0.750000
O O14 0.750000 0.750000 0.893537
O O15 0.586923 0.618324 0.833498
O O16 0.040240 0.250000 0.250000
O O17 0.250000 0.139416 0.250000
#
# Coordination Sequence:
#
# PCOD9391023 Si02
#       7
#     8   8   8   8   8   8   8
#     4  11  21  38  62 100 132 165 208 274 328 397
#     4  11  25  43  63  94 132 176 223 269 329 394
#     4  11  22  46  65  86 131 176 220 271 322 384
#     4  11  22  39  67  94 121 167 222 270 321 383
#     4  11  21  39  63  93 126 175 216 261 322 396
#     4  11  20  31  58  98 137 164 205 257 324 392
#     4  10  22  38  65  91 132 172 206 265 343 385
#
# _framework density 20.132677000000001
#
# number of rings (size 3 to 8) (size 9 to 14) (size 15 to 20)
#    0.000    1.143    5.714    3.429    2.000    0.000 
#    0.000    9.286    0.000    0.000    0.000    0.000 
#    0.000    0.000    0.000    0.000    0.000    0.000 
#
# Total GULP energy -311753.206284 kJ/mol
# GULP energy per Si atom -5567.021541 kJ/mol
# Density = 2.008685 g / cm^3
# Si number density = 20.132677 Si / 1000 Ang^3
#
#
#
# Elastic Constant Matrix: (Units=GPa)
#
#
# Indices 1 2 3 4 5 6 
#
# 1 165.1566 61.1765 43.5168 0.0000 0.0000 0.0000
# 2 61.1765 87.3322 21.0545 0.0000 0.0000 0.0000
# 3 43.5168 21.0545 59.0027 0.0000 0.0000 0.0000
# 4 0.0000 0.0000 0.0000 27.5565 0.0000 0.0000
# 5 0.0000 0.0000 0.0000 0.0000 27.1217 0.0000
# 6 0.0000 0.0000 0.0000 0.0000 0.0000 29.0652
#
#
#
# Elastic Compliance Matrix: (Units=1/GPa)
#
#
# Indices 1 2 3 4 5 6 
#
# 1 0.009350 -0.005347 -0.004988 0.000000 0.000000 0.000000
# 2 -0.005347 0.015586 -0.001618 0.000000 0.000000 0.000000
# 3 -0.004988 -0.001618 0.021204 0.000000 0.000000 0.000000
# 4 0.000000 0.000000 0.000000 0.036289 0.000000 0.000000
# 5 0.000000 0.000000 0.000000 0.000000 0.036871 0.000000
# 6 0.000000 0.000000 0.000000 0.000000 0.000000 0.034405
#
#
# Mechanical properties :
#
#
# Convention : Reuss Voigt Hill
#
# Bulk Modulus (GPa) = 44.97500 62.55410 53.76455
# Shear Modulus (GPa) = 27.02365 29.13158 28.07762
#
# Velocity S-wave (km/s) = 3.66769 3.80805 3.73852
# Velocity P-wave (km/s) = 6.35009 7.10446 6.73784
#
# Compressibility (1/GPa) = 0.02223458
#
# Stress axis : x y z
#
# Youngs Moduli (GPa) = 106.95549 64.15915 47.15992
#
# Poissons Ratio (x) = 0.34306 0.23522
# Poissons Ratio (y) = 0.57189 0.07631
# Poissons Ratio (z) = 0.53347 0.10382
#
# Static dielectric constant tensor:
#      x y z
#    x 1.855130 0.000000 0.000000 
#    y 0.000000 1.769780 0.000000 
#    z 0.000000 0.000000 1.785330 
# 
# From -- ./inp_files/33583.got.cif
#   From: 2010.05.17/outbox.cif.g08.bks.cpg/sg48_17_cif.got.tgz:33583.got - 2010.06.03 20:39:00.
