data_PCOD9391359
_publ_section_title
;
Structure prediction by ZEFSAII (Michael W. Deem and Ramdas Pophale) SiO2 
 PCOD9391359
Probable space group: P N N N
;
_chemical_formula_sum "Si O2"
_cell_formula_units_Z 30
_cell_length_a 5.263876
_cell_length_b 12.425535
_cell_length_c 22.247967
_cell_angle_alpha 90.000000
_cell_angle_beta 90.000000
_cell_angle_gamma 90.000000
_cell_volume 1455.161108
_symmetry_space_group_name_H-M "P N N N"
_symmetry_group_IT_number 48
_space_group.IT_coordinate_system_code '2'
_symmetry_cell_setting 'orthorhombic'
loop_
_space_group_symop_operation_xyz
x,y,z
1/2-x,1/2-y,z
x,1/2-y,1/2-z
1/2-x,y,1/2-z
-x,-y,-z
1/2+x,1/2+y,-z
-x,1/2+y,1/2+z
1/2+x,-y,1/2+z
loop_
_atom_site_type_symbol
_atom_site_label
_atom_site_fract_x
_atom_site_fract_y
_atom_site_fract_z
Si Si1 0.428638 0.458252 0.583674
Si Si2 0.250000 0.250000 0.978624
Si Si3 0.413695 0.410107 0.072189
Si Si4 0.750000 0.250000 0.250000
Si Si5 0.880911 0.580419 0.811132
O O1 0.392268 0.337211 0.562128
O O2 0.671663 0.516202 0.553284
O O3 0.488612 0.481508 0.653910
O O4 0.168161 0.522282 0.573476
O O5 0.430992 0.314037 0.024943
O O6 0.325225 0.377951 0.139609
O O7 0.576175 0.173083 0.208545
O O8 0.750000 0.545231 0.750000
#
# Coordination Sequence:
#
# PCOD9391359 Si02
#       5
#     8   4   8   2   8
#     4  10  25  43  65 101 138 178 230 277 342 411
#     4  12  24  44  71  97 146 190 220 278 354 406
#     4  10  25  41  65 104 136 174 229 286 330 418
#     4  12  22  40  72  96 128 182 216 298 358 392
#     4  10  24  40  66 100 134 170 230 292 341 403
#
# _framework density 20.616274000000001
#
# number of rings (size 3 to 8) (size 9 to 14) (size 15 to 20)
#    1.600    0.000    0.000    3.600    7.467    4.267 
#    0.000    0.000    0.000   12.000    0.000    0.000 
#    0.000    0.000    0.000    0.000    0.000    0.000 
#
# Total GULP energy -167434.012803 kJ/mol
# GULP energy per Si atom -5581.133760 kJ/mol
# Density = 2.056935 g / cm^3
# Si number density = 20.616274 Si / 1000 Ang^3
#
#
#
# Elastic Constant Matrix: (Units=GPa)
#
#
# Indices 1 2 3 4 5 6 
#
# 1 134.3240 54.8165 62.6413 0.0000 0.0000 0.0000
# 2 54.8165 133.9898 90.1506 0.0000 0.0000 0.0000
# 3 62.6413 90.1506 179.2162 0.0000 0.0000 0.0000
# 4 0.0000 0.0000 0.0000 40.4939 0.0000 0.0000
# 5 0.0000 0.0000 0.0000 0.0000 26.6090 0.0000
# 6 0.0000 0.0000 0.0000 0.0000 0.0000 11.4976
#
#
#
# Elastic Compliance Matrix: (Units=1/GPa)
#
#
# Indices 1 2 3 4 5 6 
#
# 1 0.009407 -0.002473 -0.002044 0.000000 0.000000 0.000000
# 2 -0.002473 0.011932 -0.005137 0.000000 0.000000 0.000000
# 3 -0.002044 -0.005137 0.008879 0.000000 0.000000 0.000000
# 4 0.000000 0.000000 0.000000 0.024695 0.000000 0.000000
# 5 0.000000 0.000000 0.000000 0.000000 0.037581 0.000000
# 6 0.000000 0.000000 0.000000 0.000000 0.000000 0.086974
#
#
# Mechanical properties :
#
#
# Convention : Reuss Voigt Hill
#
# Bulk Modulus (GPa) = 91.67628 95.86073 93.76850
# Shear Modulus (GPa) = 24.70188 31.71487 28.20837
#
# Velocity S-wave (km/s) = 3.46522 3.92642 3.70301
# Velocity P-wave (km/s) = 7.78298 8.19477 7.99153
#
# Compressibility (1/GPa) = 0.01090795
#
# Stress axis : x y z
#
# Youngs Moduli (GPa) = 106.30123 83.81026 112.63126
#
# Poissons Ratio (x) = 0.20730 0.23021
# Poissons Ratio (y) = 0.26293 0.57864
# Poissons Ratio (z) = 0.21727 0.43057
#
# Static dielectric constant tensor:
#      x y z
#    x 1.761680 0.000000 0.000000 
#    y 0.000000 1.723720 0.000000 
#    z 0.000000 0.000000 1.804410 
# 
# From -- ./inp_files/32682.got.cif
#   From: 2010.05.17/outbox.cif.g08.bks.cpg/sg48_17_cif.got.tgz:32682.got - 2010.06.03 20:39:00.
