data_PCOD9391269
_publ_section_title
;
Structure prediction by ZEFSAII (Michael W. Deem and Ramdas Pophale) SiO2 
 PCOD9391269
Probable space group: P N N N
;
_chemical_formula_sum "Si O2"
_cell_formula_units_Z 38
_cell_length_a 24.128183
_cell_length_b 7.340784
_cell_length_c 10.352582
_cell_angle_alpha 90.000000
_cell_angle_beta 90.000000
_cell_angle_gamma 90.000000
_cell_volume 1833.647043
_symmetry_space_group_name_H-M "P N N N"
_symmetry_group_IT_number 48
_space_group.IT_coordinate_system_code '2'
_symmetry_cell_setting 'orthorhombic'
loop_
_space_group_symop_operation_xyz
x,y,z
1/2-x,1/2-y,z
x,1/2-y,1/2-z
1/2-x,y,1/2-z
-x,-y,-z
1/2+x,1/2+y,-z
-x,1/2+y,1/2+z
1/2+x,-y,1/2+z
loop_
_atom_site_type_symbol
_atom_site_label
_atom_site_fract_x
_atom_site_fract_y
_atom_site_fract_z
Si Si1 0.102194 0.443423 0.483813
Si Si2 0.750000 0.750000 0.250000
Si Si3 0.451593 0.034869 0.742450
Si Si4 0.960849 0.750000 0.750000
Si Si5 0.654599 0.922794 0.090592
Si Si6 0.315127 0.738249 0.404551
O O1 0.058020 0.509337 0.591175
O O2 0.074648 0.357074 0.356560
O O3 0.133367 0.274445 0.548652
O O4 0.146619 0.599272 0.456185
O O5 0.711151 0.881491 0.165347
O O6 0.465662 0.250000 0.750000
O O7 0.393318 0.002922 0.814966
O O8 0.498343 0.907331 0.803418
O O9 0.662894 0.053063 0.968786
O O10 0.250000 0.750000 0.438972
O O11 0.319104 0.750000 0.250000
#
# Coordination Sequence:
#
# PCOD9391269 Si02
#       6
#     8   2   8   4   8   8
#     4  11  23  44  63  98 132 176 230 272 342 413
#     4  12  20  44  74 102 128 182 224 290 356 396
#     4  10  23  42  62  99 134 168 230 287 328 401
#     4  12  24  38  70  90 136 194 218 274 342 402
#     4  11  23  43  68  97 137 166 226 283 339 402
#     4  11  25  42  64  97 135 175 221 275 337 410
#
# _framework density 20.723727
#
# number of rings (size 3 to 8) (size 9 to 14) (size 15 to 20)
#    0.000    1.053    3.158    4.421    0.000    5.895 
#    0.000    2.105    0.000    0.000    0.000    0.000 
#    0.000    0.000    0.000    0.000    0.000    0.000 
#
# Total GULP energy -212402.055806 kJ/mol
# GULP energy per Si atom -5589.527784 kJ/mol
# Density = 2.067656 g / cm^3
# Si number density = 20.723727 Si / 1000 Ang^3
#
#
#
# Elastic Constant Matrix: (Units=GPa)
#
#
# Indices 1 2 3 4 5 6 
#
# 1 83.9639 30.1394 15.5995 0.0000 0.0000 0.0000
# 2 30.1394 79.2094 17.8653 0.0000 0.0000 0.0000
# 3 15.5995 17.8653 55.0695 0.0000 0.0000 0.0000
# 4 0.0000 0.0000 0.0000 34.8989 0.0000 0.0000
# 5 0.0000 0.0000 0.0000 0.0000 -38.9244 0.0000
# 6 0.0000 0.0000 0.0000 0.0000 0.0000 44.9643
#
#
#
# Elastic Compliance Matrix: (Units=1/GPa)
#
#
# Indices 1 2 3 4 5 6 
#
# 1 0.014089 -0.004813 -0.002430 0.000000 0.000000 0.000000
# 2 -0.004813 0.015266 -0.003589 0.000000 0.000000 0.000000
# 3 -0.002430 -0.003589 0.020011 0.000000 0.000000 0.000000
# 4 0.000000 0.000000 0.000000 0.028654 0.000000 0.000000
# 5 0.000000 0.000000 0.000000 0.000000 -0.025691 0.000000
# 6 0.000000 0.000000 0.000000 0.000000 0.000000 0.022240
#
#
# Mechanical properties :
#
#
# Convention : Reuss Voigt Hill
#
# Bulk Modulus (GPa) = 36.09728 38.38347 37.24037
# Shear Modulus (GPa) = 47.40845 18.49699 32.95272
#
# Velocity S-wave (km/s) = 4.78812 2.99080 3.99193
# Velocity P-wave (km/s) = 6.92995 5.52162 6.26548
#
# Compressibility (1/GPa) = 0.02770292
#
# Stress axis : x y z
#
# Youngs Moduli (GPa) = 70.97793 65.50691 49.97145
#
# Poissons Ratio (x) = 0.31528 0.12141
# Poissons Ratio (y) = 0.34161 0.17935
# Poissons Ratio (z) = 0.17245 0.23511
#
# Static dielectric constant tensor:
#      x y z
#    x 1.771210 0.000000 0.000000 
#    y 0.000000 1.718400 0.000000 
#    z 0.000000 0.000000 1.751140 
# 
# From -- ./inp_files/15721.got.cif
#   From: 2010.05.17/outbox.cif.g08.bks.cpg/sg48_8_cif.got.tgz:15721.got - 2010.06.03 20:39:00.
