data_PCOD9391702
_publ_section_title
;
Structure prediction by ZEFSAII (Michael W. Deem and Ramdas Pophale) SiO2 
 PCOD9391702
Probable space group: P N N N
;
_chemical_formula_sum "Si O2"
_cell_formula_units_Z 64
_cell_length_a 9.402027
_cell_length_b 21.013449
_cell_length_c 16.610208
_cell_angle_alpha 90.000000
_cell_angle_beta 90.000000
_cell_angle_gamma 90.000000
_cell_volume 3281.662431
_symmetry_space_group_name_H-M "P N N N"
_symmetry_group_IT_number 48
_space_group.IT_coordinate_system_code '2'
_symmetry_cell_setting 'orthorhombic'
loop_
_space_group_symop_operation_xyz
x,y,z
1/2-x,1/2-y,z
x,1/2-y,1/2-z
1/2-x,y,1/2-z
-x,-y,-z
1/2+x,1/2+y,-z
-x,1/2+y,1/2+z
1/2+x,-y,1/2+z
loop_
_atom_site_type_symbol
_atom_site_label
_atom_site_fract_x
_atom_site_fract_y
_atom_site_fract_z
Si Si1 0.785862 0.425858 0.344823
Si Si2 0.477715 0.976966 0.314388
Si Si3 0.173871 0.681651 0.535777
Si Si4 0.892965 0.727065 0.464125
Si Si5 0.716420 0.628695 0.164721
Si Si6 0.210522 0.910467 0.394097
Si Si7 0.548481 0.977605 0.132266
Si Si8 0.400338 0.784647 0.166487
O O1 0.750000 0.425823 0.250000
O O2 0.798648 0.357057 0.383132
O O3 0.655164 0.464649 0.384897
O O4 0.933262 0.465341 0.354924
O O5 0.582957 0.917114 0.321835
O O6 0.332502 0.954050 0.354938
O O7 0.473826 0.991302 0.219111
O O8 0.250000 0.750000 0.535087
O O9 0.227343 0.634609 0.464243
O O10 0.008307 0.695259 0.521070
O O11 0.750000 0.750000 0.508130
O O12 0.825776 0.677205 0.402530
O O13 0.986043 0.773242 0.404858
O O14 0.750000 0.660733 0.250000
O O15 0.845715 0.582488 0.141943
O O16 0.141513 0.859078 0.330982
O O17 0.081555 0.955454 0.422618
O O18 0.250000 0.750000 0.147432
O O19 0.446026 0.750000 0.250000
#
# Coordination Sequence:
#
# PCOD9391702 Si02
#       8
#     8   8   8   8   8   8   8   8
#     4   9  22  47  68  91 110 144 215 271 327 378
#     4   9  18  35  60  86 119 158 201 254 298 352
#     4  12  25  44  62  86 128 163 203 262 315 389
#     4  12  23  36  50  82 126 171 214 251 291 353
#     4   9  18  31  50  77 117 166 211 239 274 334
#     4  12  20  35  56  91 136 165 199 244 310 367
#     4   9  20  34  59  91 119 158 202 261 289 363
#     4  11  23  33  50  80 131 186 226 238 276 355
#
# _framework density 19.502310999999999
#
# number of rings (size 3 to 8) (size 9 to 14) (size 15 to 20)
#    0.000    1.625    3.750    2.625    8.750    1.250 
#    0.000    1.250    0.000    0.000    0.000    0.875 
#    0.000    0.000    0.000    0.000    0.000    0.000 
#
# Total GULP energy -357103.580175 kJ/mol
# GULP energy per Si atom -5579.743440 kJ/mol
# Density = 1.945792 g / cm^3
# Si number density = 19.502311 Si / 1000 Ang^3
#
#
#
# Elastic Constant Matrix: (Units=GPa)
#
#
# Indices 1 2 3 4 5 6 
#
# 1 159.4732 52.4868 28.5614 0.0000 0.0000 0.0000
# 2 52.4868 82.3187 28.4365 0.0000 0.0000 0.0000
# 3 28.5614 28.4365 37.2977 0.0000 0.0000 0.0000
# 4 0.0000 0.0000 0.0000 20.8344 0.0000 0.0000
# 5 0.0000 0.0000 0.0000 0.0000 10.1798 0.0000
# 6 0.0000 0.0000 0.0000 0.0000 0.0000 9.8009
#
#
#
# Elastic Compliance Matrix: (Units=1/GPa)
#
#
# Indices 1 2 3 4 5 6 
#
# 1 0.008194 -0.004150 -0.003110 0.000000 0.000000 0.000000
# 2 -0.004150 0.018593 -0.010998 0.000000 0.000000 0.000000
# 3 -0.003110 -0.010998 0.037578 0.000000 0.000000 0.000000
# 4 0.000000 0.000000 0.000000 0.047998 0.000000 0.000000
# 5 0.000000 0.000000 0.000000 0.000000 0.098234 0.000000
# 6 0.000000 0.000000 0.000000 0.000000 0.000000 0.102031
#
#
# Mechanical properties :
#
#
# Convention : Reuss Voigt Hill
#
# Bulk Modulus (GPa) = 35.90866 55.33989 45.62427
# Shear Modulus (GPa) = 13.94987 19.47002 16.70995
#
# Velocity S-wave (km/s) = 2.67740 3.16309 2.93032
# Velocity P-wave (km/s) = 5.29249 6.46358 5.90713
#
# Compressibility (1/GPa) = 0.02784844
#
# Stress axis : x y z
#
# Youngs Moduli (GPa) = 122.04778 53.78383 26.61119
#
# Poissons Ratio (x) = 0.22319 0.08277
# Poissons Ratio (y) = 0.50647 0.29267
# Poissons Ratio (z) = 0.37963 0.59151
#
# Static dielectric constant tensor:
#      x y z
#    x 1.734780 0.000000 0.000000 
#    y 0.000000 1.706570 0.000000 
#    z 0.000000 0.000000 1.718800 
# 
# From -- ./inp_files/30580.got.cif
#   From: 2010.05.17/outbox.cif.g08.bks.cpg/sg48_16_cif.got.tgz:30580.got - 2010.06.03 20:39:00.
