data_PCOD9391405
_publ_section_title
;
Structure prediction by ZEFSAII (Michael W. Deem and Ramdas Pophale) SiO2 
 PCOD9391405
Probable space group: P N N N
;
_chemical_formula_sum "Si O2"
_cell_formula_units_Z 36
_cell_length_a 8.895834
_cell_length_b 19.898950
_cell_length_c 9.524712
_cell_angle_alpha 90.000000
_cell_angle_beta 90.000000
_cell_angle_gamma 90.000000
_cell_volume 1686.043145
_symmetry_space_group_name_H-M "P N N N"
_symmetry_group_IT_number 48
_space_group.IT_coordinate_system_code '2'
_symmetry_cell_setting 'orthorhombic'
loop_
_space_group_symop_operation_xyz
x,y,z
1/2-x,1/2-y,z
x,1/2-y,1/2-z
1/2-x,y,1/2-z
-x,-y,-z
1/2+x,1/2+y,-z
-x,1/2+y,1/2+z
1/2+x,-y,1/2+z
loop_
_atom_site_type_symbol
_atom_site_label
_atom_site_fract_x
_atom_site_fract_y
_atom_site_fract_z
Si Si1 0.547165 0.679084 0.673737
Si Si2 0.250000 0.886259 0.750000
Si Si3 0.250000 0.854910 0.250000
Si Si4 0.750000 0.750000 0.458702
Si Si5 0.658441 0.463937 0.974153
Si Si6 0.750000 0.564463 0.750000
Si Si7 0.996709 0.250000 0.750000
O O1 0.563436 0.750000 0.750000
O O2 0.372286 0.661689 0.673385
O O3 0.661400 0.692069 0.544389
O O4 0.610696 0.614907 0.756169
O O5 0.295384 0.935578 0.623939
O O6 0.171210 0.900863 0.132558
O O7 0.383492 0.806884 0.192856
O O8 0.887209 0.721440 0.365352
O O9 0.758328 0.518699 0.888947
O O10 0.500000 0.500000 0.000000
#
# Coordination Sequence:
#
# PCOD9391405 Si02
#       7
#     8   4   4   4   8   4   4
#     4  12  24  44  72 108 138 181 237 304 359 424
#     4  12  27  46  76 108 139 194 248 294 370 431
#     4  10  24  47  73 104 150 188 242 304 364 438
#     4  11  23  42  68 110 143 183 234 298 374 430
#     4  11  25  47  70 102 145 192 239 296 352 435
#     4  11  23  47  73  97 149 184 236 296 357 427
#     4  10  24  44  72 106 144 190 234 302 374 436
#
# _framework density 21.351768
#
# number of rings (size 3 to 8) (size 9 to 14) (size 15 to 20)
#    0.000    0.889    4.444    1.667    6.222    0.889 
#    4.000    0.000    0.000    0.000    0.000    0.000 
#    0.000    0.000    0.000    0.000    0.000    0.000 
#
# Total GULP energy -200453.068071 kJ/mol
# GULP energy per Si atom -5568.140780 kJ/mol
# Density = 2.130317 g / cm^3
# Si number density = 21.351768 Si / 1000 Ang^3
#
#
#
# Elastic Constant Matrix: (Units=GPa)
#
#
# Indices 1 2 3 4 5 6 
#
# 1 139.9083 55.4435 52.9462 0.0000 0.0000 0.0000
# 2 55.4435 114.3027 46.7304 0.0000 0.0000 0.0000
# 3 52.9462 46.7304 119.4706 0.0000 0.0000 0.0000
# 4 0.0000 0.0000 0.0000 12.8207 0.0000 0.0000
# 5 0.0000 0.0000 0.0000 0.0000 28.2167 0.0000
# 6 0.0000 0.0000 0.0000 0.0000 0.0000 -546.0365
#
#
#
# Elastic Compliance Matrix: (Units=1/GPa)
#
#
# Indices 1 2 3 4 5 6 
#
# 1 0.009626 -0.003482 -0.002904 0.000000 0.000000 0.000000
# 2 -0.003482 0.011674 -0.003023 0.000000 0.000000 0.000000
# 3 -0.002904 -0.003023 0.010840 0.000000 0.000000 0.000000
# 4 0.000000 0.000000 0.000000 0.077999 0.000000 0.000000
# 5 0.000000 0.000000 0.000000 0.000000 0.035440 0.000000
# 6 0.000000 0.000000 0.000000 0.000000 0.000000 -0.001831
#
#
# Mechanical properties :
#
#
# Convention : Reuss Voigt Hill
#
# Bulk Modulus (GPa) = 75.06715 75.99131 75.52923
# Shear Modulus (GPa) = 29.93898 -86.42906 -28.24504
#
# Velocity S-wave (km/s) = 3.74863 -6.36919 -3.64104
# Velocity P-wave (km/s) = 7.34643 4.29200 4.21596
#
# Compressibility (1/GPa) = 0.01332141
#
# Stress axis : x y z
#
# Youngs Moduli (GPa) = 103.88007 85.66366 92.25337
#
# Poissons Ratio (x) = 0.29829 0.26792
# Poissons Ratio (y) = 0.36172 0.27887
# Poissons Ratio (z) = 0.30169 0.25895
#
# Static dielectric constant tensor:
#      x y z
#    x 1.745680 0.000000 0.000000 
#    y 0.000000 1.761630 0.000000 
#    z 0.000000 0.000000 1.862030 
# 
# From -- ./inp_files/8835.got.cif
#   From: 2010.05.17/outbox.cif.g08.bks.cpg/sg48_5_cif.got.tgz:8835.got - 2010.06.03 20:39:00.
