data_PCOD9391966
_publ_section_title
;
Structure prediction by ZEFSAII (Michael W. Deem and Ramdas Pophale) SiO2 
 PCOD9391966
Probable space group: P N N N
;
_chemical_formula_sum "Si O2"
_cell_formula_units_Z 56
_cell_length_a 9.000000
_cell_length_b 21.000000
_cell_length_c 15.000000
_cell_angle_alpha 90.000000
_cell_angle_beta 90.000000
_cell_angle_gamma 90.000000
_cell_volume 2835.000000
_symmetry_space_group_name_H-M "P N N N"
_symmetry_group_IT_number 48
_space_group.IT_coordinate_system_code '2'
_symmetry_cell_setting 'orthorhombic'
loop_
_space_group_symop_operation_xyz
x,y,z
1/2-x,1/2-y,z
x,1/2-y,1/2-z
1/2-x,y,1/2-z
-x,-y,-z
1/2+x,1/2+y,-z
-x,1/2+y,1/2+z
1/2+x,-y,1/2+z
loop_
_atom_site_type_symbol
_atom_site_label
_atom_site_fract_x
_atom_site_fract_y
_atom_site_fract_z
Si Si1 0.952674 0.805996 0.555358
Si Si2 0.058430 0.672639 0.456477
Si Si3 0.928993 0.374538 0.226386
Si Si4 0.579145 0.674056 0.239058
Si Si5 0.643876 0.867726 0.603292
Si Si6 0.652223 0.517274 0.664331
Si Si7 0.610362 0.378089 0.594320
O O1 0.776492 0.816727 0.579553
O O2 0.014301 0.740813 0.506244
O O3 0.041908 0.823991 0.646053
O O4 0.994735 0.859568 0.482800
O O5 0.232207 0.655757 0.435714
O O6 0.979548 0.665346 0.361048
O O7 0.975316 0.625504 0.524388
O O8 0.750000 0.377946 0.250000
O O9 0.039932 0.355091 0.308980
O O10 0.004122 0.442217 0.193449
O O11 0.584245 0.750000 0.250000
O O12 0.750000 0.649950 0.250000
O O13 0.463367 0.647508 0.313016
O O14 0.739718 0.931044 0.618981
O O15 0.750000 0.496063 0.750000
O O16 0.625814 0.453960 0.607035
#
# Coordination Sequence:
#
# PCOD9391966 Si02
#       7
#     8   8   8   8   8   8   8
#     4  11  23  40  65  96 132 174 216 269 341 408
#     4  12  24  40  66  97 131 174 221 275 335 403
#     4  10  22  44  68  95 128 173 223 287 340 395
#     4  11  24  41  62  89 132 179 216 269 335 404
#     4  10  23  43  67  93 131 173 221 276 334 404
#     4   9  21  43  66  93 133 180 227 274 337 401
#     4  12  24  41  66 100 135 176 224 279 332 398
#
# _framework density 19.753086
#
# number of rings (size 3 to 8) (size 9 to 14) (size 15 to 20)
#    0.000    1.286    1.429    5.143    2.000    4.571 
#    0.000    9.286    0.000    0.000    0.000    0.000 
#    0.000    0.000    0.000    0.000    0.000    0.000 
#
# Total GULP energy -312355.910915 kJ/mol
# GULP energy per Si atom -5577.784123 kJ/mol
# Density = 1.970813 g / cm^3
# Si number density = 19.753086 Si / 1000 Ang^3
#
#
#
# Elastic Constant Matrix: (Units=GPa)
#
#
# Indices 1 2 3 4 5 6 
#
# 1 178.1834 51.5858 67.2196 0.0000 0.0000 0.0000
# 2 51.5858 90.8102 43.1595 0.0000 0.0000 0.0000
# 3 67.2196 43.1595 164.8257 0.0000 0.0000 0.0000
# 4 0.0000 0.0000 0.0000 30.0261 0.0000 0.0000
# 5 0.0000 0.0000 0.0000 0.0000 47.4086 0.0000
# 6 0.0000 0.0000 0.0000 0.0000 0.0000 26.5502
#
#
#
# Elastic Compliance Matrix: (Units=1/GPa)
#
#
# Indices 1 2 3 4 5 6 
#
# 1 0.007340 -0.003137 -0.002172 0.000000 0.000000 0.000000
# 2 -0.003137 0.013918 -0.002365 0.000000 0.000000 0.000000
# 3 -0.002172 -0.002365 0.007572 0.000000 0.000000 0.000000
# 4 0.000000 0.000000 0.000000 0.033304 0.000000 0.000000
# 5 0.000000 0.000000 0.000000 0.000000 0.021093 0.000000
# 6 0.000000 0.000000 0.000000 0.000000 0.000000 0.037665
#
#
# Mechanical properties :
#
#
# Convention : Reuss Voigt Hill
#
# Bulk Modulus (GPa) = 74.17435 84.19435 79.18435
# Shear Modulus (GPa) = 35.52796 38.92059 37.22428
#
# Velocity S-wave (km/s) = 4.24560 4.44368 4.34577
# Velocity P-wave (km/s) = 7.85275 8.30929 8.08425
#
# Compressibility (1/GPa) = 0.01348175
#
# Stress axis : x y z
#
# Youngs Moduli (GPa) = 136.24392 71.84862 132.06505
#
# Poissons Ratio (x) = 0.22541 0.28682
# Poissons Ratio (y) = 0.42743 0.31234
# Poissons Ratio (z) = 0.29590 0.16992
#
# Static dielectric constant tensor:
#      x y z
#    x 1.701180 0.000000 0.000000 
#    y 0.000000 1.737120 0.000000 
#    z 0.000000 0.000000 1.730070 
# 
# From -- ./inp_files/25629.got.cif
#   From: 2010.05.17/outbox.ucp.g08.bks.cvg/sg48_13_cif.got.tgz:25629.got - 2010.06.11 16:38:40.
