data_PCOD9391889
_publ_section_title
;
Structure prediction by ZEFSAII (Michael W. Deem and Ramdas Pophale) SiO2 
 PCOD9391889
Probable space group: P N N N
;
_chemical_formula_sum "Si O2"
_cell_formula_units_Z 30
_cell_length_a 13.400564
_cell_length_b 8.269092
_cell_length_c 9.861927
_cell_angle_alpha 90.000000
_cell_angle_beta 90.000000
_cell_angle_gamma 90.000000
_cell_volume 1092.805028
_symmetry_space_group_name_H-M "P N N N"
_symmetry_group_IT_number 48
_space_group.IT_coordinate_system_code '2'
_symmetry_cell_setting 'orthorhombic'
loop_
_space_group_symop_operation_xyz
x,y,z
1/2-x,1/2-y,z
x,1/2-y,1/2-z
1/2-x,y,1/2-z
-x,-y,-z
1/2+x,1/2+y,-z
-x,1/2+y,1/2+z
1/2+x,-y,1/2+z
loop_
_atom_site_type_symbol
_atom_site_label
_atom_site_fract_x
_atom_site_fract_y
_atom_site_fract_z
Si Si1 0.577953 0.969112 0.876772
Si Si2 0.425286 0.750000 0.750000
Si Si3 0.608803 0.194332 0.547629
Si Si4 0.127979 0.149894 0.996032
Si Si5 0.250000 0.250000 0.750000
O O1 0.502666 0.900760 0.763281
O O2 0.645942 0.818039 0.923114
O O3 0.500000 0.000000 0.000000
O O4 0.627646 0.144587 0.865174
O O5 0.366884 0.762830 0.610053
O O6 0.489027 0.166035 0.542297
O O7 0.651557 0.016296 0.573343
O O8 0.183743 0.147455 0.852570
#
# Coordination Sequence:
#
# PCOD9391889 Si02
#       5
#     8   4   8   8   2
#     4   8  16  31  48  74 105 142 192 245 273 347
#     4   8  14  26  54  78  96 138 196 250 284 314
#     4   9  18  33  54  74 110 151 205 233 285 361
#     4   9  20  34  46  78 111 152 186 243 293 373
#     4  12  24  32  58  82 128 154 186 260 354 342
#
# _framework density 27.452290000000001
#
# number of rings (size 3 to 8) (size 9 to 14) (size 15 to 20)
#    0.000    3.733    0.000    0.000   11.200    0.000 
#    0.000    2.667    0.000   12.800    0.000    0.000 
#    0.000   40.533    0.000    0.000    0.000    0.000 
#
# Total GULP energy -167631.818523 kJ/mol
# GULP energy per Si atom -5587.727284 kJ/mol
# Density = 2.738981 g / cm^3
# Si number density = 27.452290 Si / 1000 Ang^3
#
#
#
# Elastic Constant Matrix: (Units=GPa)
#
#
# Indices 1 2 3 4 5 6 
#
# 1 96.8621 34.2209 17.1207 0.0000 0.0000 0.0000
# 2 34.2209 342.0603 57.8878 0.0000 0.0000 0.0000
# 3 17.1207 57.8878 88.2690 0.0000 0.0000 0.0000
# 4 0.0000 0.0000 0.0000 60.3135 0.0000 0.0000
# 5 0.0000 0.0000 0.0000 0.0000 16.8815 0.0000
# 6 0.0000 0.0000 0.0000 0.0000 0.0000 13.4085
#
#
#
# Elastic Compliance Matrix: (Units=1/GPa)
#
#
# Indices 1 2 3 4 5 6 
#
# 1 0.010893 -0.000824 -0.001573 0.000000 0.000000 0.000000
# 2 -0.000824 0.003351 -0.002038 0.000000 0.000000 0.000000
# 3 -0.001573 -0.002038 0.012970 0.000000 0.000000 0.000000
# 4 0.000000 0.000000 0.000000 0.016580 0.000000 0.000000
# 5 0.000000 0.000000 0.000000 0.000000 0.059236 0.000000
# 6 0.000000 0.000000 0.000000 0.000000 0.000000 0.074579
#
#
# Mechanical properties :
#
#
# Convention : Reuss Voigt Hill
#
# Bulk Modulus (GPa) = 54.50757 82.85002 68.67880
# Shear Modulus (GPa) = 25.96145 45.98484 35.97314
#
# Velocity S-wave (km/s) = 3.07855 4.09722 3.62385
# Velocity P-wave (km/s) = 5.70396 7.25452 6.52546
#
# Compressibility (1/GPa) = 0.01834607
#
# Stress axis : x y z
#
# Youngs Moduli (GPa) = 91.80283 298.44512 77.09884
#
# Poissons Ratio (x) = 0.24581 0.12125
# Poissons Ratio (y) = 0.07561 0.15710
# Poissons Ratio (z) = 0.14437 0.60813
#
# Static dielectric constant tensor:
#      x y z
#    x 2.144100 0.000000 0.000000 
#    y 0.000000 2.314480 0.000000 
#    z 0.000000 0.000000 2.147790 
# 
# From -- ./inp_files/20745.got.cif
#   From: 2010.05.17/outbox.cif.g08.bks.cpg/sg48_11_cif.got.tgz:20745.got - 2010.06.03 20:39:00.
