data_PCOD9391438
_publ_section_title
;
Structure prediction by ZEFSAII (Michael W. Deem and Ramdas Pophale) SiO2 
 PCOD9391438
Probable space group: P N N N
;
_chemical_formula_sum "Si O2"
_cell_formula_units_Z 44
_cell_length_a 26.251074
_cell_length_b 5.232188
_cell_length_c 15.500092
_cell_angle_alpha 90.000000
_cell_angle_beta 90.000000
_cell_angle_gamma 90.000000
_cell_volume 2128.946229
_symmetry_space_group_name_H-M "P N N N"
_symmetry_group_IT_number 48
_space_group.IT_coordinate_system_code '2'
_symmetry_cell_setting 'orthorhombic'
loop_
_space_group_symop_operation_xyz
x,y,z
1/2-x,1/2-y,z
x,1/2-y,1/2-z
1/2-x,y,1/2-z
-x,-y,-z
1/2+x,1/2+y,-z
-x,1/2+y,1/2+z
1/2+x,-y,1/2+z
loop_
_atom_site_type_symbol
_atom_site_label
_atom_site_fract_x
_atom_site_fract_y
_atom_site_fract_z
Si Si1 0.896381 0.766229 0.523344
Si Si2 0.750000 0.250000 0.750000
Si Si3 0.175707 0.750000 0.750000
Si Si4 0.164862 0.440583 0.177488
Si Si5 0.014832 0.134733 0.153418
Si Si6 0.750000 0.750000 0.250000
Si Si7 0.571394 0.250000 0.750000
Si Si8 0.099270 0.726400 0.589661
O O1 0.849249 0.820572 0.587027
O O2 0.947316 0.750050 0.582165
O O3 0.888628 0.493663 0.479220
O O4 0.900678 0.996167 0.455318
O O5 0.791369 0.353497 0.819607
O O6 0.207404 0.484293 0.767555
O O7 0.139532 0.712905 0.666990
O O8 0.184891 0.250000 0.250000
O O9 0.111368 0.543703 0.214691
O O10 0.018166 0.250000 0.250000
O O11 0.957316 0.160651 0.123375
O O12 0.036352 0.850793 0.172616
#
# Coordination Sequence:
#
# PCOD9391438 Si02
#       8
#     8   2   4   8   8   2   4   8
#     4  12  25  44  68 109 146 193 227 294 347 424
#     4  10  26  40  76 100 132 194 238 298 342 442
#     4  11  24  52  76 110 128 198 234 307 380 428
#     4  11  22  44  69  96 138 189 239 282 356 420
#     4  12  24  41  68 105 146 196 236 274 348 433
#     4  10  24  48  92  92 128 168 266 294 372 448
#     4  11  20  38  70  94 140 194 236 275 330 442
#     4  12  28  44  72 105 153 177 243 295 353 423
#
# _framework density 20.667503
#
# number of rings (size 3 to 8) (size 9 to 14) (size 15 to 20)
#    0.000    0.545    4.545    3.545    5.091    0.727 
#    0.000    3.636    4.000    0.000    0.000    0.000 
#    0.000    0.000    0.000    0.000    0.000    0.000 
#
# Total GULP energy -245056.757308 kJ/mol
# GULP energy per Si atom -5569.471757 kJ/mol
# Density = 2.062046 g / cm^3
# Si number density = 20.667503 Si / 1000 Ang^3
#
#
#
# Elastic Constant Matrix: (Units=GPa)
#
#
# Indices 1 2 3 4 5 6 
#
# 1 123.3544 0.6371 27.3440 0.0000 0.0000 0.0000
# 2 0.6371 44.1037 -8.6935 0.0000 0.0000 0.0000
# 3 27.3440 -8.6935 70.5962 0.0000 0.0000 0.0000
# 4 0.0000 0.0000 0.0000 42.5231 0.0000 0.0000
# 5 0.0000 0.0000 0.0000 0.0000 -178.4046 0.0000
# 6 0.0000 0.0000 0.0000 0.0000 0.0000 -63.7938
#
#
#
# Elastic Compliance Matrix: (Units=1/GPa)
#
#
# Indices 1 2 3 4 5 6 
#
# 1 0.008898 -0.000828 -0.003548 0.000000 0.000000 0.000000
# 2 -0.000828 0.023315 0.003192 0.000000 0.000000 0.000000
# 3 -0.003548 0.003192 0.015932 0.000000 0.000000 0.000000
# 4 0.000000 0.000000 0.000000 0.023517 0.000000 0.000000
# 5 0.000000 0.000000 0.000000 0.000000 -0.005605 0.000000
# 6 0.000000 0.000000 0.000000 0.000000 0.000000 -0.015676
#
#
# Mechanical properties :
#
#
# Convention : Reuss Voigt Hill
#
# Bulk Modulus (GPa) = 21.84547 30.73663 26.29105
# Shear Modulus (GPa) = 73.52048 -25.35059 24.08494
#
# Velocity S-wave (km/s) = 5.97078 -3.50607 3.41743
# Velocity P-wave (km/s) = 7.62408 1.21894 5.32169
#
# Compressibility (1/GPa) = 0.04577608
#
# Stress axis : x y z
#
# Youngs Moduli (GPa) = 112.39061 42.89100 62.76503
#
# Poissons Ratio (x) = 0.03551 0.22271
# Poissons Ratio (y) = 0.09305 -0.20033
# Poissons Ratio (z) = 0.39879 -0.13690
#
# Static dielectric constant tensor:
#      x y z
#    x 1.698170 0.000000 0.000000 
#    y 0.000000 1.894430 0.000000 
#    z 0.000000 0.000000 1.819630 
# 
# From -- ./inp_files/28748.got.cif
#   From: 2010.05.17/outbox.cif.g08.bks.cpg/sg48_15_cif.got.tgz:28748.got - 2010.06.03 20:39:00.
