data_PCOD9391393
_publ_section_title
;
Structure prediction by ZEFSAII (Michael W. Deem and Ramdas Pophale) SiO2 
 PCOD9391393
Probable space group: P N N N
;
_chemical_formula_sum "Si O2"
_cell_formula_units_Z 40
_cell_length_a 8.221376
_cell_length_b 15.466495
_cell_length_c 14.807506
_cell_angle_alpha 90.000000
_cell_angle_beta 90.000000
_cell_angle_gamma 90.000000
_cell_volume 1882.861320
_symmetry_space_group_name_H-M "P N N N"
_symmetry_group_IT_number 48
_space_group.IT_coordinate_system_code '2'
_symmetry_cell_setting 'orthorhombic'
loop_
_space_group_symop_operation_xyz
x,y,z
1/2-x,1/2-y,z
x,1/2-y,1/2-z
1/2-x,y,1/2-z
-x,-y,-z
1/2+x,1/2+y,-z
-x,1/2+y,1/2+z
1/2+x,-y,1/2+z
loop_
_atom_site_type_symbol
_atom_site_label
_atom_site_fract_x
_atom_site_fract_y
_atom_site_fract_z
Si Si1 0.440105 0.341383 0.220106
Si Si2 0.067935 0.573583 0.431866
Si Si3 0.951525 0.088101 0.547055
Si Si4 0.059810 0.025141 0.737473
Si Si5 0.446159 0.732673 0.965371
O O1 0.511591 0.250000 0.250000
O O2 0.250000 0.345150 0.250000
O O3 0.523613 0.422280 0.268303
O O4 0.474780 0.326706 0.113936
O O5 0.257709 0.583823 0.450636
O O6 0.010768 0.671216 0.450279
O O7 0.000000 0.500000 0.500000
O O8 0.032937 0.548941 0.329330
O O9 0.010021 0.171601 0.490180
O O10 0.008000 0.079766 0.650584
O O11 0.000000 0.000000 0.500000
O O12 0.250000 0.036844 0.750000
O O13 0.250000 0.750000 0.950608
#
# Coordination Sequence:
#
# PCOD9391393 Si02
#       5
#     8   8   8   8   8
#     4  11  24  41  66 102 132 175 233 289 345 404
#     4  11  22  44  70  98 135 182 231 287 347 415
#     4  11  24  44  68 101 139 180 230 288 349 418
#     4  12  26  43  67 101 139 185 229 286 349 419
#     4  10  24  43  71  99 136 183 229 286 354 421
#
# _framework density 21.244261000000002
#
# number of rings (size 3 to 8) (size 9 to 14) (size 15 to 20)
#    0.000    1.000    2.000    4.200    5.600    2.400 
#    7.200    4.000    0.000    0.000    0.000    0.000 
#    0.000    0.000    0.000    0.000    0.000    0.000 
#
# Total GULP energy -223033.097177 kJ/mol
# GULP energy per Si atom -5575.827429 kJ/mol
# Density = 2.119591 g / cm^3
# Si number density = 21.244261 Si / 1000 Ang^3
#
#
#
# Elastic Constant Matrix: (Units=GPa)
#
#
# Indices 1 2 3 4 5 6 
#
# 1 48.1717 9.0983 -0.1607 0.0000 0.0000 0.0000
# 2 9.0983 100.6938 2.4699 0.0000 0.0000 0.0000
# 3 -0.1607 2.4699 66.4680 0.0000 0.0000 0.0000
# 4 0.0000 0.0000 0.0000 50.8098 0.0000 0.0000
# 5 0.0000 0.0000 0.0000 0.0000 33.9191 0.0000
# 6 0.0000 0.0000 0.0000 0.0000 0.0000 21.4813
#
#
#
# Elastic Compliance Matrix: (Units=1/GPa)
#
#
# Indices 1 2 3 4 5 6 
#
# 1 0.021120 -0.001911 0.000122 0.000000 0.000000 0.000000
# 2 -0.001911 0.010113 -0.000380 0.000000 0.000000 0.000000
# 3 0.000122 -0.000380 0.015059 0.000000 0.000000 0.000000
# 4 0.000000 0.000000 0.000000 0.019681 0.000000 0.000000
# 5 0.000000 0.000000 0.000000 0.000000 0.029482 0.000000
# 6 0.000000 0.000000 0.000000 0.000000 0.000000 0.046552
#
#
# Mechanical properties :
#
#
# Convention : Reuss Voigt Hill
#
# Bulk Modulus (GPa) = 23.83593 26.46096 25.14845
# Shear Modulus (GPa) = 31.18530 34.83712 33.01121
#
# Velocity S-wave (km/s) = 3.83553 4.05388 3.94622
# Velocity P-wave (km/s) = 5.55512 5.86469 5.71200
#
# Compressibility (1/GPa) = 0.04195347
#
# Stress axis : x y z
#
# Youngs Moduli (GPa) = 47.34739 98.88129 66.40431
#
# Poissons Ratio (x) = 0.18900 -0.00811
# Poissons Ratio (y) = 0.09050 0.02526
# Poissons Ratio (z) = -0.00578 0.03762
#
# Static dielectric constant tensor:
#      x y z
#    x 1.791330 0.000000 0.000000 
#    y 0.000000 1.969230 0.000000 
#    z 0.000000 0.000000 1.994760 
# 
# From -- ./inp_files/25096.got.cif
#   From: 2010.05.17/outbox.cif.g08.bks.cpg/sg48_13_cif.got.tgz:25096.got - 2010.06.03 20:39:00.
