data_PCOD9391835
_publ_section_title
;
Structure prediction by ZEFSAII (Michael W. Deem and Ramdas Pophale) SiO2 
 PCOD9391835
Probable space group: P N N N
;
_chemical_formula_sum "Si O2"
_cell_formula_units_Z 60
_cell_length_a 21.330405
_cell_length_b 11.710606
_cell_length_c 11.559332
_cell_angle_alpha 90.000000
_cell_angle_beta 90.000000
_cell_angle_gamma 90.000000
_cell_volume 2887.428298
_symmetry_space_group_name_H-M "P N N N"
_symmetry_group_IT_number 48
_space_group.IT_coordinate_system_code '2'
_symmetry_cell_setting 'orthorhombic'
loop_
_space_group_symop_operation_xyz
x,y,z
1/2-x,1/2-y,z
x,1/2-y,1/2-z
1/2-x,y,1/2-z
-x,-y,-z
1/2+x,1/2+y,-z
-x,1/2+y,1/2+z
1/2+x,-y,1/2+z
loop_
_atom_site_type_symbol
_atom_site_label
_atom_site_fract_x
_atom_site_fract_y
_atom_site_fract_z
Si Si1 0.089875 0.675147 0.504634
Si Si2 0.929858 0.431595 0.736519
Si Si3 0.128118 0.275566 0.534000
Si Si4 0.963224 0.750000 0.250000
Si Si5 0.930441 0.056763 0.508486
Si Si6 0.678936 0.945060 0.126584
Si Si7 0.185230 0.503060 0.603192
Si Si8 0.029652 0.326475 0.356349
O O1 0.099162 0.640058 0.370230
O O2 0.076414 0.809248 0.518555
O O3 0.145609 0.616690 0.577249
O O4 0.023911 0.631058 0.555239
O O5 0.900842 0.449448 0.862755
O O6 0.942745 0.557155 0.691947
O O7 0.992525 0.359375 0.765889
O O8 0.079268 0.272014 0.639765
O O9 0.179279 0.182050 0.572343
O O10 0.157554 0.401015 0.525626
O O11 0.084397 0.256450 0.422250
O O12 0.885965 0.993360 0.419423
O O13 0.000000 0.000000 0.500000
O O14 0.678052 0.955931 0.265366
O O15 0.740381 0.013108 0.085289
O O16 0.004698 0.250000 0.250000
#
# Coordination Sequence:
#
# PCOD9391835 Si02
#       8
#     8   8   8   4   8   8   8   8
#     4  12  24  42  66  94 134 179 225 271 337 417
#     4  12  22  41  62  95 134 172 218 273 334 414
#     4  12  21  40  68  98 134 177 226 283 342 412
#     4  12  20  34  67  98 127 174 222 274 338 402
#     4  12  26  43  68 100 134 172 222 287 350 400
#     4  11  25  44  66  99 136 172 229 286 340 417
#     4  11  25  43  69  95 131 186 227 276 343 415
#     4  12  25  37  63 103 140 171 219 284 349 403
#
# _framework density 20.779737000000001
#
# number of rings (size 3 to 8) (size 9 to 14) (size 15 to 20)
#    0.000    0.267    5.333    4.800    3.733    1.600 
#    0.000    2.000    0.000    2.400    0.000    0.000 
#    0.000    0.000    0.000    0.000    0.000    0.000 
#
# Total GULP energy -335037.965511 kJ/mol
# GULP energy per Si atom -5583.966092 kJ/mol
# Density = 2.073244 g / cm^3
# Si number density = 20.779737 Si / 1000 Ang^3
#
#
#
# Elastic Constant Matrix: (Units=GPa)
#
#
# Indices 1 2 3 4 5 6 
#
# 1 101.9164 24.4694 18.5605 0.0000 0.0000 0.0000
# 2 24.4694 93.3413 -4.5234 0.0000 0.0000 0.0000
# 3 18.5605 -4.5234 57.6128 0.0000 0.0000 0.0000
# 4 0.0000 0.0000 0.0000 36.2190 0.0000 0.0000
# 5 0.0000 0.0000 0.0000 0.0000 22.2455 0.0000
# 6 0.0000 0.0000 0.0000 0.0000 0.0000 24.7247
#
#
#
# Elastic Compliance Matrix: (Units=1/GPa)
#
#
# Indices 1 2 3 4 5 6 
#
# 1 0.011273 -0.003143 -0.003878 0.000000 0.000000 0.000000
# 2 -0.003143 0.011631 0.001926 0.000000 0.000000 0.000000
# 3 -0.003878 0.001926 0.018758 0.000000 0.000000 0.000000
# 4 0.000000 0.000000 0.000000 0.027610 0.000000 0.000000
# 5 0.000000 0.000000 0.000000 0.000000 0.044953 0.000000
# 6 0.000000 0.000000 0.000000 0.000000 0.000000 0.040445
#
#
# Mechanical properties :
#
#
# Convention : Reuss Voigt Hill
#
# Bulk Modulus (GPa) = 31.77644 36.65372 34.21508
# Shear Modulus (GPa) = 28.51420 30.92879 29.72149
#
# Velocity S-wave (km/s) = 3.70836 3.86218 3.78605
# Velocity P-wave (km/s) = 5.80182 6.12911 5.96771
#
# Compressibility (1/GPa) = 0.03146986
#
# Stress axis : x y z
#
# Youngs Moduli (GPa) = 88.70798 85.97953 53.31076
#
# Poissons Ratio (x) = 0.27025 0.20676
# Poissons Ratio (y) = 0.27882 -0.10266
# Poissons Ratio (z) = 0.34405 -0.16558
#
# Static dielectric constant tensor:
#      x y z
#    x 1.751350 0.000000 0.000000 
#    y 0.000000 1.862380 0.000000 
#    z 0.000000 0.000000 1.792320 
# 
# From -- ./inp_files/22949.got.cif
#   From: 2010.05.17/outbox.cif.g08.bks.cpg/sg48_12_cif.got.tgz:22949.got - 2010.06.03 20:39:00.
