data_PCOD9391644
_publ_section_title
;
Structure prediction by ZEFSAII (Michael W. Deem and Ramdas Pophale) SiO2 
 PCOD9391644
Probable space group: P N N N
;
_chemical_formula_sum "Si O2"
_cell_formula_units_Z 60
_cell_length_a 11.712594
_cell_length_b 11.894009
_cell_length_c 22.724359
_cell_angle_alpha 90.000000
_cell_angle_beta 90.000000
_cell_angle_gamma 90.000000
_cell_volume 3165.723600
_symmetry_space_group_name_H-M "P N N N"
_symmetry_group_IT_number 48
_space_group.IT_coordinate_system_code '2'
_symmetry_cell_setting 'orthorhombic'
loop_
_space_group_symop_operation_xyz
x,y,z
1/2-x,1/2-y,z
x,1/2-y,1/2-z
1/2-x,y,1/2-z
-x,-y,-z
1/2+x,1/2+y,-z
-x,1/2+y,1/2+z
1/2+x,-y,1/2+z
loop_
_atom_site_type_symbol
_atom_site_label
_atom_site_fract_x
_atom_site_fract_y
_atom_site_fract_z
Si Si1 0.539479 0.110558 0.190223
Si Si2 0.816836 0.865242 0.617063
Si Si3 0.587640 0.955198 0.585562
Si Si4 0.088924 0.102272 0.510983
Si Si5 0.583345 0.369744 0.175980
Si Si6 0.250000 0.750000 0.525921
Si Si7 0.793466 0.039568 0.399103
Si Si8 0.983549 0.167595 0.971949
O O1 0.408878 0.114046 0.168177
O O2 0.596876 0.234677 0.181087
O O3 0.561092 0.085655 0.258442
O O4 0.604286 0.026461 0.146884
O O5 0.750000 0.750000 0.628893
O O6 0.720214 0.958342 0.602746
O O7 0.878922 0.856348 0.554121
O O8 0.527514 0.886403 0.636721
O O9 0.556939 0.890784 0.524525
O O10 0.528527 0.076170 0.579053
O O11 0.034213 0.210786 0.541968
O O12 0.193286 0.055778 0.551023
O O13 0.000000 0.000000 0.500000
O O14 0.682141 0.434693 0.140260
O O15 0.190472 0.845038 0.564873
O O16 0.147159 0.688469 0.492703
#
# Coordination Sequence:
#
# PCOD9391644 Si02
#       8
#     8   8   8   8   8   4   8   8
#     4  11  22  38  60  87 123 161 211 255 315 375
#     4  12  22  39  58  92 128 161 204 257 320 388
#     4  11  23  40  57  85 130 160 203 254 312 382
#     4  12  23  37  60  91 128 167 207 255 316 377
#     4  11  22  38  59  89 119 166 205 254 313 372
#     4  12  18  34  59  86 124 167 202 250 306 376
#     4  12  21  35  60  88 126 161 203 263 306 374
#     4  11  23  37  58  88 123 169 204 251 316 381
#
# _framework density 18.953012000000001
#
# number of rings (size 3 to 8) (size 9 to 14) (size 15 to 20)
#    0.000    0.533    8.000    1.200    1.867    1.600 
#    0.000    0.000    0.000    0.800    0.000    1.867 
#    0.000    0.000    0.000    0.000    0.000    0.000 
#
# Total GULP energy -334744.508162 kJ/mol
# GULP energy per Si atom -5579.075136 kJ/mol
# Density = 1.890987 g / cm^3
# Si number density = 18.953012 Si / 1000 Ang^3
#
#
#
# Elastic Constant Matrix: (Units=GPa)
#
#
# Indices 1 2 3 4 5 6 
#
# 1 84.4367 8.6201 15.0304 0.0000 0.0000 0.0000
# 2 8.6201 70.6300 8.0425 0.0000 0.0000 0.0000
# 3 15.0304 8.0425 68.4973 0.0000 0.0000 0.0000
# 4 0.0000 0.0000 0.0000 18.3547 0.0000 0.0000
# 5 0.0000 0.0000 0.0000 0.0000 -15.9738 0.0000
# 6 0.0000 0.0000 0.0000 0.0000 0.0000 26.4400
#
#
#
# Elastic Compliance Matrix: (Units=1/GPa)
#
#
# Indices 1 2 3 4 5 6 
#
# 1 0.012428 -0.001223 -0.002584 0.000000 0.000000 0.000000
# 2 -0.001223 0.014470 -0.001431 0.000000 0.000000 0.000000
# 3 -0.002584 -0.001431 0.015334 0.000000 0.000000 0.000000
# 4 0.000000 0.000000 0.000000 0.054482 0.000000 0.000000
# 5 0.000000 0.000000 0.000000 0.000000 -0.062602 0.000000
# 6 0.000000 0.000000 0.000000 0.000000 0.000000 0.037821
#
#
# Mechanical properties :
#
#
# Convention : Reuss Voigt Hill
#
# Bulk Modulus (GPa) = 31.48750 31.88332 31.68541
# Shear Modulus (GPa) = 53.76739 18.55559 36.16149
#
# Velocity S-wave (km/s) = 5.33201 3.13234 4.37275
# Velocity P-wave (km/s) = 7.38625 5.47183 6.49991
#
# Compressibility (1/GPa) = 0.03175863
#
# Stress axis : x y z
#
# Youngs Moduli (GPa) = 80.46420 69.10649 65.21458
#
# Poissons Ratio (x) = 0.08449 0.16848
# Poissons Ratio (y) = 0.09838 0.09331
# Poissons Ratio (z) = 0.20788 0.09887
#
# Static dielectric constant tensor:
#      x y z
#    x 1.772000 0.000000 0.000000 
#    y 0.000000 1.667010 0.000000 
#    z 0.000000 0.000000 1.648920 
# 
# From -- ./inp_files/34206.got.cif
#   From: 2010.05.17/outbox.cif.g08.bks.cpg/sg48_18_cif.got.tgz:34206.got - 2010.06.03 20:39:00.
