data_PCOD9391340
_publ_section_title
;
Structure prediction by ZEFSAII (Michael W. Deem and Ramdas Pophale) SiO2 
 PCOD9391340
Probable space group: P N N N
;
_chemical_formula_sum "Si O2"
_cell_formula_units_Z 36
_cell_length_a 21.696793
_cell_length_b 11.915972
_cell_length_c 5.336090
_cell_angle_alpha 90.000000
_cell_angle_beta 90.000000
_cell_angle_gamma 90.000000
_cell_volume 1379.584053
_symmetry_space_group_name_H-M "P N N N"
_symmetry_group_IT_number 48
_space_group.IT_coordinate_system_code '2'
_symmetry_cell_setting 'orthorhombic'
loop_
_space_group_symop_operation_xyz
x,y,z
1/2-x,1/2-y,z
x,1/2-y,1/2-z
1/2-x,y,1/2-z
-x,-y,-z
1/2+x,1/2+y,-z
-x,1/2+y,1/2+z
1/2+x,-y,1/2+z
loop_
_atom_site_type_symbol
_atom_site_label
_atom_site_fract_x
_atom_site_fract_y
_atom_site_fract_z
Si Si1 0.750000 0.466665 0.250000
Si Si2 0.841240 0.176803 0.000610
Si Si3 0.850357 0.855344 0.430519
Si Si4 0.085997 0.033706 0.181612
Si Si5 0.509889 0.626959 0.253547
O O1 0.724764 0.382989 0.039515
O O2 0.695519 0.546404 0.348218
O O3 0.854284 0.250000 0.250000
O O4 0.843722 0.250000 0.750000
O O5 0.884885 0.066861 0.983617
O O6 0.833254 0.750000 0.250000
O O7 0.858846 0.882528 0.730528
O O8 0.923921 0.867433 0.388131
O O9 0.034575 0.100360 0.026213
O O10 0.043416 0.953249 0.353549
O O11 0.482634 0.750000 0.250000
#
# Coordination Sequence:
#
# PCOD9391340 Si02
#       5
#     4   8   8   8   8
#     4  12  26  50  74 108 154 200 260 322 382 462
#     4  12  28  50  79 115 151 204 262 325 399 470
#     4  11  25  47  74 108 147 204 257 317 385 468
#     4  11  24  48  77 108 154 197 251 324 398 466
#     4  10  23  46  75 110 149 193 251 318 393 473
#
# _framework density 26.094819999999999
#
# number of rings (size 3 to 8) (size 9 to 14) (size 15 to 20)
#    0.000    0.889    2.222    3.333    0.000    9.778 
#   16.000    0.000    9.778    0.000    0.000    0.000 
#    0.000    0.000    0.000    0.000    0.000    0.000 
#
# Total GULP energy -200602.337700 kJ/mol
# GULP energy per Si atom -5572.287158 kJ/mol
# Density = 2.603543 g / cm^3
# Si number density = 26.094820 Si / 1000 Ang^3
#
#
#
# Elastic Constant Matrix: (Units=GPa)
#
#
# Indices 1 2 3 4 5 6 
#
# 1 75.0267 48.3689 23.0924 0.0000 0.0000 0.0000
# 2 48.3689 200.1861 72.2766 0.0000 0.0000 0.0000
# 3 23.0924 72.2766 99.6278 0.0000 0.0000 0.0000
# 4 0.0000 0.0000 0.0000 23.1482 0.0000 0.0000
# 5 0.0000 0.0000 0.0000 0.0000 30.6409 0.0000
# 6 0.0000 0.0000 0.0000 0.0000 0.0000 324.6768
#
#
#
# Elastic Compliance Matrix: (Units=1/GPa)
#
#
# Indices 1 2 3 4 5 6 
#
# 1 0.015896 -0.003401 -0.001217 0.000000 0.000000 0.000000
# 2 -0.003401 0.007496 -0.004650 0.000000 0.000000 0.000000
# 3 -0.001217 -0.004650 0.013693 0.000000 0.000000 0.000000
# 4 0.000000 0.000000 0.000000 0.043200 0.000000 0.000000
# 5 0.000000 0.000000 0.000000 0.000000 0.032636 0.000000
# 6 0.000000 0.000000 0.000000 0.000000 0.000000 0.003080
#
#
# Mechanical properties :
#
#
# Convention : Reuss Voigt Hill
#
# Bulk Modulus (GPa) = 53.91228 73.59070 63.75149
# Shear Modulus (GPa) = 35.53173 91.10003 63.31588
#
# Velocity S-wave (km/s) = 3.69404 5.91498 4.93117
# Velocity P-wave (km/s) = 6.23695 8.65516 7.54359
#
# Compressibility (1/GPa) = 0.01854865
#
# Stress axis : x y z
#
# Youngs Moduli (GPa) = 62.90891 133.40535 73.03227
#
# Poissons Ratio (x) = 0.45377 0.08887
# Poissons Ratio (y) = 0.21398 0.33957
# Poissons Ratio (z) = 0.07655 0.62029
#
# Static dielectric constant tensor:
#      x y z
#    x 2.094690 0.000000 0.000000 
#    y 0.000000 2.055110 0.000000 
#    z 0.000000 0.000000 2.945620 
# 
# From -- ./inp_files/5677.got.cif
#   From: 2010.05.17/outbox.cif.g08.bks.cpg/sg48_3_cif.got.tgz:5677.got - 2010.06.03 20:39:00.
