data_PCOD9391172
_publ_section_title
;
Structure prediction by ZEFSAII (Michael W. Deem and Ramdas Pophale) SiO2 
 PCOD9391172
Probable space group: P N N N
;
_chemical_formula_sum "Si O2"
_cell_formula_units_Z 50
_cell_length_a 15.311692
_cell_length_b 17.961695
_cell_length_c 8.462045
_cell_angle_alpha 90.000000
_cell_angle_beta 90.000000
_cell_angle_gamma 90.000000
_cell_volume 2327.264970
_symmetry_space_group_name_H-M "P N N N"
_symmetry_group_IT_number 48
_space_group.IT_coordinate_system_code '2'
_symmetry_cell_setting 'orthorhombic'
loop_
_space_group_symop_operation_xyz
x,y,z
1/2-x,1/2-y,z
x,1/2-y,1/2-z
1/2-x,y,1/2-z
-x,-y,-z
1/2+x,1/2+y,-z
-x,1/2+y,1/2+z
1/2+x,-y,1/2+z
loop_
_atom_site_type_symbol
_atom_site_label
_atom_site_fract_x
_atom_site_fract_y
_atom_site_fract_z
Si Si1 0.463397 0.772600 0.577785
Si Si2 0.234805 0.486042 0.565197
Si Si3 0.250000 0.250000 0.250000
Si Si4 0.384114 0.371500 0.105010
Si Si5 0.415860 0.011859 0.111736
Si Si6 0.193596 0.651772 0.480490
Si Si7 0.118431 0.839829 0.357782
O O1 0.496830 0.750000 0.750000
O O2 0.532419 0.833976 0.522979
O O3 0.369504 0.811656 0.607475
O O4 0.454846 0.704593 0.454729
O O5 0.250000 0.494352 0.750000
O O6 0.167838 0.422760 0.516664
O O7 0.328173 0.469673 0.485824
O O8 0.196403 0.563309 0.498549
O O9 0.315793 0.307144 0.159664
O O10 0.417318 0.425888 0.249200
O O11 0.400659 0.926906 0.165661
O O12 0.500000 0.000000 0.000000
O O13 0.295063 0.670854 0.465771
O O14 0.147291 0.680188 0.319651
#
# Coordination Sequence:
#
# PCOD9391172 Si02
#       7
#     8   8   2   8   8   8   8
#     4  12  26  39  65 110 141 181 240 296 359 426
#     4  11  25  45  72 108 138 186 242 304 368 431
#     4  12  24  48  78  88 134 190 246 288 356 444
#     4  12  25  48  73 101 141 195 241 297 369 439
#     4  11  23  42  72 100 140 186 245 291 356 443
#     4  10  23  43  71  97 148 186 225 290 366 437
#     4  10  22  44  67 100 141 195 229 278 366 439
#
# _framework density 21.484445999999998
#
# number of rings (size 3 to 8) (size 9 to 14) (size 15 to 20)
#    0.000    0.960    4.000    1.920    6.720    3.840 
#    0.000    3.600    0.000    0.000    0.000    0.000 
#    0.000    0.000    0.000    0.000    0.000    0.000 
#
# Total GULP energy -279093.931336 kJ/mol
# GULP energy per Si atom -5581.878627 kJ/mol
# Density = 2.143555 g / cm^3
# Si number density = 21.484446 Si / 1000 Ang^3
#
#
#
# Elastic Constant Matrix: (Units=GPa)
#
#
# Indices 1 2 3 4 5 6 
#
# 1 70.1214 51.3604 37.9732 0.0000 0.0000 0.0000
# 2 51.3604 123.1464 44.0259 0.0000 0.0000 0.0000
# 3 37.9732 44.0259 76.4346 0.0000 0.0000 0.0000
# 4 0.0000 0.0000 0.0000 31.1716 0.0000 0.0000
# 5 0.0000 0.0000 0.0000 0.0000 27.0617 0.0000
# 6 0.0000 0.0000 0.0000 0.0000 0.0000 46.5624
#
#
#
# Elastic Compliance Matrix: (Units=1/GPa)
#
#
# Indices 1 2 3 4 5 6 
#
# 1 0.023605 -0.007118 -0.007627 0.000000 0.000000 0.000000
# 2 -0.007118 0.012373 -0.003590 0.000000 0.000000 0.000000
# 3 -0.007627 -0.003590 0.018940 0.000000 0.000000 0.000000
# 4 0.000000 0.000000 0.000000 0.032080 0.000000 0.000000
# 5 0.000000 0.000000 0.000000 0.000000 0.036953 0.000000
# 6 0.000000 0.000000 0.000000 0.000000 0.000000 0.021477
#
#
# Mechanical properties :
#
#
# Convention : Reuss Voigt Hill
#
# Bulk Modulus (GPa) = 54.80375 59.60237 57.20306
# Shear Modulus (GPa) = 26.57017 30.04868 28.30942
#
# Velocity S-wave (km/s) = 3.52051 3.74388 3.63391
# Velocity P-wave (km/s) = 6.48763 6.81844 6.65509
#
# Compressibility (1/GPa) = 0.01824693
#
# Stress axis : x y z
#
# Youngs Moduli (GPa) = 42.36389 80.82300 52.79753
#
# Poissons Ratio (x) = 0.57531 0.40269
# Poissons Ratio (y) = 0.30155 0.18956
# Poissons Ratio (z) = 0.32312 0.29018
#
# Static dielectric constant tensor:
#      x y z
#    x 1.776350 0.000000 0.000000 
#    y 0.000000 1.850940 0.000000 
#    z 0.000000 0.000000 1.801280 
# 
# From -- ./inp_files/12825.got.cif
#   From: 2010.05.17/outbox.cif.g08.bks.cpg/sg48_7_cif.got.tgz:12825.got - 2010.06.03 20:39:00.
