data_PCOD9391825
_publ_section_title
;
Structure prediction by ZEFSAII (Michael W. Deem and Ramdas Pophale) SiO2 
 PCOD9391825
Probable space group: P N N N
;
_chemical_formula_sum "Si O2"
_cell_formula_units_Z 32
_cell_length_a 12.494798
_cell_length_b 5.129793
_cell_length_c 21.182575
_cell_angle_alpha 90.000000
_cell_angle_beta 90.000000
_cell_angle_gamma 90.000000
_cell_volume 1357.712551
_symmetry_space_group_name_H-M "P N N N"
_symmetry_group_IT_number 48
_space_group.IT_coordinate_system_code '2'
_symmetry_cell_setting 'orthorhombic'
loop_
_space_group_symop_operation_xyz
x,y,z
1/2-x,1/2-y,z
x,1/2-y,1/2-z
1/2-x,y,1/2-z
-x,-y,-z
1/2+x,1/2+y,-z
-x,1/2+y,1/2+z
1/2+x,-y,1/2+z
loop_
_atom_site_type_symbol
_atom_site_label
_atom_site_fract_x
_atom_site_fract_y
_atom_site_fract_z
Si Si1 0.750000 0.750000 0.156148
Si Si2 0.371885 0.721539 0.148488
Si Si3 0.657928 0.082582 0.045063
Si Si4 0.074150 0.234553 0.431960
Si Si5 0.553072 0.750000 0.250000
O O1 0.794127 0.527313 0.109778
O O2 0.648220 0.675662 0.198539
O O3 0.250000 0.750000 0.171174
O O4 0.377571 0.493360 0.096855
O O5 0.458318 0.648859 0.201495
O O6 0.407049 0.993681 0.116196
O O7 0.750000 0.250000 0.013344
O O8 0.552997 0.252689 0.058253
O O9 0.623086 0.851314 0.998712
#
# Coordination Sequence:
#
# PCOD9391825 Si02
#       5
#     4   8   8   8   4
#     4  11  24  48  76 112 156 203 260 328 390 471
#     4  12  26  49  77 113 152 207 259 323 387 463
#     4  11  25  44  77 116 157 203 258 327 407 465
#     4  11  27  47  77 116 157 196 262 321 398 472
#     4  11  25  50  74 110 157 209 266 310 390 473
#
# _framework density 23.569054000000001
#
# number of rings (size 3 to 8) (size 9 to 14) (size 15 to 20)
#    0.000    0.750    2.500    3.375    7.000    3.000 
#    4.500    3.750    0.000    0.000    0.000    0.000 
#    0.000    0.000    0.000    0.000    0.000    0.000 
#
# Total GULP energy -178339.143760 kJ/mol
# GULP energy per Si atom -5573.098243 kJ/mol
# Density = 2.351541 g / cm^3
# Si number density = 23.569054 Si / 1000 Ang^3
#
#
#
# Elastic Constant Matrix: (Units=GPa)
#
#
# Indices 1 2 3 4 5 6 
#
# 1 268.3750 25.6044 57.3624 0.0000 0.0000 0.0000
# 2 25.6044 73.2152 0.8033 0.0000 0.0000 0.0000
# 3 57.3624 0.8033 95.0229 0.0000 0.0000 0.0000
# 4 0.0000 0.0000 0.0000 -19.7236 0.0000 0.0000
# 5 0.0000 0.0000 0.0000 0.0000 508.7223 0.0000
# 6 0.0000 0.0000 0.0000 0.0000 0.0000 23.9594
#
#
#
# Elastic Compliance Matrix: (Units=1/GPa)
#
#
# Indices 1 2 3 4 5 6 
#
# 1 0.004442 -0.001524 -0.002669 0.000000 0.000000 0.000000
# 2 -0.001524 0.014183 0.000800 0.000000 0.000000 0.000000
# 3 -0.002669 0.000800 0.012128 0.000000 0.000000 0.000000
# 4 0.000000 0.000000 0.000000 -0.050701 0.000000 0.000000
# 5 0.000000 0.000000 0.000000 0.000000 0.001966 0.000000
# 6 0.000000 0.000000 0.000000 0.000000 0.000000 0.041737
#
#
# Mechanical properties :
#
#
# Convention : Reuss Voigt Hill
#
# Bulk Modulus (GPa) = 41.72330 67.12813 54.42571
# Shear Modulus (GPa) = 129.77210 126.11448 127.94329
#
# Velocity S-wave (km/s) = 7.42832 7.32289 7.37579
# Velocity P-wave (km/s) = 9.55585 10.00214 9.78154
#
# Compressibility (1/GPa) = 0.02396743
#
# Stress axis : x y z
#
# Youngs Moduli (GPa) = 225.12805 70.50896 82.45420
#
# Poissons Ratio (x) = 0.10746 0.22003
# Poissons Ratio (y) = 0.34312 -0.06598
# Poissons Ratio (z) = 0.60077 -0.05642
#
# Static dielectric constant tensor:
#      x y z
#    x 1.813490 0.000000 0.000000 
#    y 0.000000 1.891980 0.000000 
#    z 0.000000 0.000000 1.898720 
# 
# From -- ./inp_files/22556.got.cif
#   From: 2010.05.17/outbox.cif.g08.bks.cpg/sg48_12_cif.got.tgz:22556.got - 2010.06.03 20:39:00.
