data_PCOD9391110
_publ_section_title
;
Structure prediction by ZEFSAII (Michael W. Deem and Ramdas Pophale) SiO2 
 PCOD9391110
Probable space group: P N N N
;
_chemical_formula_sum "Si O2"
_cell_formula_units_Z 40
_cell_length_a 13.770883
_cell_length_b 5.711666
_cell_length_c 20.022856
_cell_angle_alpha 90.000000
_cell_angle_beta 90.000000
_cell_angle_gamma 90.000000
_cell_volume 1574.891416
_symmetry_space_group_name_H-M "P N N N"
_symmetry_group_IT_number 48
_space_group.IT_coordinate_system_code '2'
_symmetry_cell_setting 'orthorhombic'
loop_
_space_group_symop_operation_xyz
x,y,z
1/2-x,1/2-y,z
x,1/2-y,1/2-z
1/2-x,y,1/2-z
-x,-y,-z
1/2+x,1/2+y,-z
-x,1/2+y,1/2+z
1/2+x,-y,1/2+z
loop_
_atom_site_type_symbol
_atom_site_label
_atom_site_fract_x
_atom_site_fract_y
_atom_site_fract_z
Si Si1 0.620679 0.997281 0.666533
Si Si2 0.398097 0.605154 0.978351
Si Si3 0.448191 0.498025 0.314740
Si Si4 0.750000 0.750000 0.435674
Si Si5 0.349138 0.868643 0.845325
Si Si6 0.750000 0.250000 0.575419
O O1 0.780403 0.453000 0.627366
O O2 0.561345 0.243103 0.653178
O O3 0.583101 0.739391 0.647250
O O4 0.615425 0.997975 0.747052
O O5 0.321587 0.396230 0.980688
O O6 0.391670 0.697978 0.902915
O O7 0.500000 0.500000 0.000000
O O8 0.343638 0.788061 0.027469
O O9 0.562472 0.450967 0.298875
O O10 0.686433 0.590500 0.387106
O O11 0.250000 0.750000 0.819447
#
# Coordination Sequence:
#
# PCOD9391110 Si02
#       6
#     8   8   8   4   8   4
#     4  10  25  45  72 104 142 195 252 322 377 462
#     4  11  24  42  67 109 154 199 255 317 399 473
#     4  10  23  47  73 101 146 194 263 309 395 451
#     4  10  22  42  66 105 144 191 260 308 390 458
#     4  10  22  41  67 102 143 191 249 320 380 468
#     4  12  24  45  70 116 156 201 266 316 400 486
#
# _framework density 25.398574
#
# number of rings (size 3 to 8) (size 9 to 14) (size 15 to 20)
#    0.000    1.600    3.000    1.200    8.400    6.400 
#    0.000    6.000    0.000    0.000    0.000    0.000 
#    0.000    0.000    0.000    0.000    0.000    0.000 
#
# Total GULP energy -223196.353068 kJ/mol
# GULP energy per Si atom -5579.908827 kJ/mol
# Density = 2.534077 g / cm^3
# Si number density = 25.398574 Si / 1000 Ang^3
#
#
#
# Elastic Constant Matrix: (Units=GPa)
#
#
# Indices 1 2 3 4 5 6 
#
# 1 137.3561 59.2393 45.2746 0.0000 0.0000 0.0000
# 2 59.2393 178.0634 2.2385 0.0000 0.0000 0.0000
# 3 45.2746 2.2385 105.0596 0.0000 0.0000 0.0000
# 4 0.0000 0.0000 0.0000 3.7894 0.0000 0.0000
# 5 0.0000 0.0000 0.0000 0.0000 -1.4668 0.0000
# 6 0.0000 0.0000 0.0000 0.0000 0.0000 24.0776
#
#
#
# Elastic Compliance Matrix: (Units=1/GPa)
#
#
# Indices 1 2 3 4 5 6 
#
# 1 0.010125 -0.003314 -0.004293 0.000000 0.000000 0.000000
# 2 -0.003314 0.006702 0.001285 0.000000 0.000000 0.000000
# 3 -0.004293 0.001285 0.011341 0.000000 0.000000 0.000000
# 4 0.000000 0.000000 0.000000 0.263896 0.000000 0.000000
# 5 0.000000 0.000000 0.000000 0.000000 -0.681769 0.000000
# 6 0.000000 0.000000 0.000000 0.000000 0.000000 0.041532
#
#
# Mechanical properties :
#
#
# Convention : Reuss Voigt Hill
#
# Bulk Modulus (GPa) = 64.41157 70.44266 67.42711
# Shear Modulus (GPa) = -15.13524 26.19516 5.52996
#
# Velocity S-wave (km/s) = -2.44377 3.21497 1.47716
# Velocity P-wave (km/s) = 4.17764 6.44798 5.43273
#
# Compressibility (1/GPa) = 0.01552516
#
# Stress axis : x y z
#
# Youngs Moduli (GPa) = 98.76884 149.19891 88.17686
#
# Poissons Ratio (x) = 0.49450 0.37850
# Poissons Ratio (y) = 0.32736 -0.11335
# Poissons Ratio (z) = 0.42397 -0.19179
#
# Static dielectric constant tensor:
#      x y z
#    x 2.044160 0.000000 0.000000 
#    y 0.000000 2.061920 0.000000 
#    z 0.000000 0.000000 2.047310 
# 
# From -- ./inp_files/36472.got.cif
#   From: 2010.05.17/outbox.cif.g08.bks.cpg/sg48_19_cif.got.tgz:36472.got - 2010.06.03 20:39:00.
