data_PCOD9391415
_publ_section_title
;
Structure prediction by ZEFSAII (Michael W. Deem and Ramdas Pophale) SiO2 
 PCOD9391415
Probable space group: P N N N
;
_chemical_formula_sum "Si O2"
_cell_formula_units_Z 42
_cell_length_a 14.931947
_cell_length_b 12.612206
_cell_length_c 8.851354
_cell_angle_alpha 90.000000
_cell_angle_beta 90.000000
_cell_angle_gamma 90.000000
_cell_volume 1666.929397
_symmetry_space_group_name_H-M "P N N N"
_symmetry_group_IT_number 48
_space_group.IT_coordinate_system_code '2'
_symmetry_cell_setting 'orthorhombic'
loop_
_space_group_symop_operation_xyz
x,y,z
1/2-x,1/2-y,z
x,1/2-y,1/2-z
1/2-x,y,1/2-z
-x,-y,-z
1/2+x,1/2+y,-z
-x,1/2+y,1/2+z
1/2+x,-y,1/2+z
loop_
_atom_site_type_symbol
_atom_site_label
_atom_site_fract_x
_atom_site_fract_y
_atom_site_fract_z
Si Si1 0.910365 0.858212 0.087693
Si Si2 0.750000 0.250000 0.750000
Si Si3 0.406075 0.581385 0.984201
Si Si4 0.531298 0.140928 0.174719
Si Si5 0.796918 0.101591 0.504289
Si Si6 0.625014 0.624728 0.444830
O O1 0.882634 0.876678 0.262115
O O2 0.862038 0.751222 0.031154
O O3 0.019886 0.853337 0.077847
O O4 0.889090 0.957856 0.979835
O O5 0.810762 0.165638 0.659059
O O6 0.452704 0.569509 0.820360
O O7 0.306836 0.626616 0.970611
O O8 0.500076 0.250000 0.250000
O O9 0.630234 0.149352 0.107412
O O10 0.464942 0.105779 0.043453
O O11 0.813331 0.974300 0.495296
#
# Coordination Sequence:
#
# PCOD9391415 Si02
#       6
#     8   2   8   8   8   8
#     4  10  24  45  76 111 149 200 246 315 384 477
#     4  12  32  48  70 114 156 196 264 336 404 446
#     4  11  24  45  74 108 154 193 257 312 389 457
#     4  12  24  45  71 108 148 196 254 311 376 459
#     4  12  28  47  74 110 149 200 257 326 384 464
#     4  11  25  46  76 109 152 197 255 306 392 464
#
# _framework density 25.19603
#
# number of rings (size 3 to 8) (size 9 to 14) (size 15 to 20)
#    0.000    0.762    3.810    2.286    2.667    3.048 
#    0.000    1.905    0.000    0.000    0.000    0.000 
#    0.000    0.000    0.000    0.000    0.000    0.000 
#
# Total GULP energy -234191.186221 kJ/mol
# GULP energy per Si atom -5575.980624 kJ/mol
# Density = 2.513868 g / cm^3
# Si number density = 25.196030 Si / 1000 Ang^3
#
#
#
# Elastic Constant Matrix: (Units=GPa)
#
#
# Indices 1 2 3 4 5 6 
#
# 1 137.1202 10.9793 22.0230 0.0000 0.0000 0.0000
# 2 10.9793 175.7092 23.2823 0.0000 0.0000 0.0000
# 3 22.0230 23.2823 56.4254 0.0000 0.0000 0.0000
# 4 0.0000 0.0000 0.0000 29.0727 0.0000 0.0000
# 5 0.0000 0.0000 0.0000 0.0000 -10.1433 0.0000
# 6 0.0000 0.0000 0.0000 0.0000 0.0000 23.5634
#
#
#
# Elastic Compliance Matrix: (Units=1/GPa)
#
#
# Indices 1 2 3 4 5 6 
#
# 1 0.007782 -0.000089 -0.003001 0.000000 0.000000 0.000000
# 2 -0.000089 0.006021 -0.002450 0.000000 0.000000 0.000000
# 3 -0.003001 -0.002450 0.019905 0.000000 0.000000 0.000000
# 4 0.000000 0.000000 0.000000 0.034397 0.000000 0.000000
# 5 0.000000 0.000000 0.000000 0.000000 -0.098587 0.000000
# 6 0.000000 0.000000 0.000000 0.000000 0.000000 0.042439
#
#
# Mechanical properties :
#
#
# Convention : Reuss Voigt Hill
#
# Bulk Modulus (GPa) = 44.19058 53.53601 48.86329
# Shear Modulus (GPa) = 163.51682 29.36324 96.44003
#
# Velocity S-wave (km/s) = 8.06466 3.41749 6.19346
# Velocity P-wave (km/s) = 10.21250 6.07176 8.40123
#
# Compressibility (1/GPa) = 0.02262926
#
# Stress axis : x y z
#
# Youngs Moduli (GPa) = 128.50306 166.07463 50.23968
#
# Poissons Ratio (x) = 0.01472 0.15076
# Poissons Ratio (y) = 0.01139 0.12308
# Poissons Ratio (z) = 0.38560 0.40687
#
# Static dielectric constant tensor:
#      x y z
#    x 2.011890 0.000000 0.000000 
#    y 0.000000 2.182570 0.000000 
#    z 0.000000 0.000000 2.040350 
# 
# From -- ./inp_files/22093.got.cif
#   From: 2010.05.17/outbox.cif.g08.bks.cpg/sg48_12_cif.got.tgz:22093.got - 2010.06.03 20:39:00.
