data_PCOD9391255
_publ_section_title
;
Structure prediction by ZEFSAII (Michael W. Deem and Ramdas Pophale) SiO2 
 PCOD9391255
Probable space group: P N N N
;
_chemical_formula_sum "Si O2"
_cell_formula_units_Z 64
_cell_length_a 5.720554
_cell_length_b 28.098145
_cell_length_c 17.953907
_cell_angle_alpha 90.000000
_cell_angle_beta 90.000000
_cell_angle_gamma 90.000000
_cell_volume 2885.856355
_symmetry_space_group_name_H-M "P N N N"
_symmetry_group_IT_number 48
_space_group.IT_coordinate_system_code '2'
_symmetry_cell_setting 'orthorhombic'
loop_
_space_group_symop_operation_xyz
x,y,z
1/2-x,1/2-y,z
x,1/2-y,1/2-z
1/2-x,y,1/2-z
-x,-y,-z
1/2+x,1/2+y,-z
-x,1/2+y,1/2+z
1/2+x,-y,1/2+z
loop_
_atom_site_type_symbol
_atom_site_label
_atom_site_fract_x
_atom_site_fract_y
_atom_site_fract_z
Si Si1 0.645037 0.047198 0.478975
Si Si2 0.492215 0.362436 0.291491
Si Si3 0.066835 0.211827 0.551950
Si Si4 0.027010 0.938517 0.381322
Si Si5 0.745969 0.340052 0.835725
Si Si6 0.859780 0.620866 0.440346
Si Si7 0.004982 0.728292 0.884155
Si Si8 0.402624 0.534458 0.676456
O O1 0.851821 0.052447 0.539290
O O2 0.502772 0.096137 0.493438
O O3 0.741772 0.041599 0.396381
O O4 0.500000 0.000000 0.500000
O O5 0.750000 0.360542 0.250000
O O6 0.510806 0.326233 0.359476
O O7 0.456515 0.416916 0.315458
O O8 0.250000 0.348488 0.250000
O O9 0.250000 0.250000 0.583149
O O10 0.181833 0.160663 0.531955
O O11 0.986998 0.232962 0.473382
O O12 0.876453 0.198035 0.612707
O O13 0.129209 0.891831 0.342077
O O14 0.762828 0.923391 0.399197
O O15 0.048594 0.986698 0.335904
O O16 0.750000 0.325737 0.750000
O O17 0.505300 0.351354 0.877502
O O18 0.750000 0.750000 0.860943
O O19 0.250000 0.750000 0.853697
O O20 0.250000 0.528217 0.750000
#
# Coordination Sequence:
#
# PCOD9391255 Si02
#       8
#     8   8   8   8   8   8   8   8
#     4  11  23  41  68  97 132 187 248 286 353 422
#     4  11  27  48  69 109 149 188 236 297 375 435
#     4  10  25  43  68 100 135 173 231 294 360 429
#     4  10  23  41  65  99 132 185 238 291 338 426
#     4  10  24  42  69 100 132 182 232 289 359 428
#     4  10  23  42  68  96 131 182 230 303 340 434
#     4  11  26  46  79 106 136 191 241 300 355 437
#     4  11  26  41  64 103 145 184 229 299 360 423
#
# _framework density 22.177126999999999
#
# number of rings (size 3 to 8) (size 9 to 14) (size 15 to 20)
#    0.000    1.500    1.250    1.125   10.500    7.500 
#    0.000    1.875    0.000    0.000    0.000    0.000 
#    0.000    0.000    0.000    0.000    0.000    0.000 
#
# Total GULP energy -357454.923765 kJ/mol
# GULP energy per Si atom -5585.233184 kJ/mol
# Density = 2.212665 g / cm^3
# Si number density = 22.177127 Si / 1000 Ang^3
#
#
#
# Elastic Constant Matrix: (Units=GPa)
#
#
# Indices 1 2 3 4 5 6 
#
# 1 94.0981 26.6295 25.4897 0.0000 0.0000 0.0000
# 2 26.6295 96.4563 10.7686 0.0000 0.0000 0.0000
# 3 25.4897 10.7686 74.8643 0.0000 0.0000 0.0000
# 4 0.0000 0.0000 0.0000 35.6203 0.0000 0.0000
# 5 0.0000 0.0000 0.0000 0.0000 4.2986 0.0000
# 6 0.0000 0.0000 0.0000 0.0000 0.0000 67.9244
#
#
#
# Elastic Compliance Matrix: (Units=1/GPa)
#
#
# Indices 1 2 3 4 5 6 
#
# 1 0.012521 -0.003030 -0.003827 0.000000 0.000000 0.000000
# 2 -0.003030 0.011270 -0.000590 0.000000 0.000000 0.000000
# 3 -0.003827 -0.000590 0.014745 0.000000 0.000000 0.000000
# 4 0.000000 0.000000 0.000000 0.028074 0.000000 0.000000
# 5 0.000000 0.000000 0.000000 0.000000 0.232632 0.000000
# 6 0.000000 0.000000 0.000000 0.000000 0.000000 0.014722
#
#
# Mechanical properties :
#
#
# Convention : Reuss Voigt Hill
#
# Bulk Modulus (GPa) = 42.29529 43.46601 42.88065
# Shear Modulus (GPa) = 14.84832 35.07073 24.95952
#
# Velocity S-wave (km/s) = 2.59034 3.98099 3.35843
# Velocity P-wave (km/s) = 5.29712 6.38538 5.86654
#
# Compressibility (1/GPa) = 0.02364330
#
# Stress axis : x y z
#
# Youngs Moduli (GPa) = 79.86351 88.73424 67.81741
#
# Poissons Ratio (x) = 0.26883 0.25957
# Poissons Ratio (y) = 0.24195 0.03998
# Poissons Ratio (z) = 0.30568 0.05231
#
# Static dielectric constant tensor:
#      x y z
#    x 1.921870 0.000000 0.000000 
#    y 0.000000 1.792260 0.000000 
#    z 0.000000 0.000000 1.763490 
# 
# From -- ./inp_files/29677.got.cif
#   From: 2010.05.17/outbox.cif.g08.bks.cpg/sg48_15_cif.got.tgz:29677.got - 2010.06.03 20:39:00.
