data_PCOD9391343
_publ_section_title
;
Structure prediction by ZEFSAII (Michael W. Deem and Ramdas Pophale) SiO2 
 PCOD9391343
Probable space group: P N N N
;
_chemical_formula_sum "Si O2"
_cell_formula_units_Z 30
_cell_length_a 11.047440
_cell_length_b 15.157773
_cell_length_c 7.254793
_cell_angle_alpha 90.000000
_cell_angle_beta 90.000000
_cell_angle_gamma 90.000000
_cell_volume 1214.848371
_symmetry_space_group_name_H-M "P N N N"
_symmetry_group_IT_number 48
_space_group.IT_coordinate_system_code '2'
_symmetry_cell_setting 'orthorhombic'
loop_
_space_group_symop_operation_xyz
x,y,z
1/2-x,1/2-y,z
x,1/2-y,1/2-z
1/2-x,y,1/2-z
-x,-y,-z
1/2+x,1/2+y,-z
-x,1/2+y,1/2+z
1/2+x,-y,1/2+z
loop_
_atom_site_type_symbol
_atom_site_label
_atom_site_fract_x
_atom_site_fract_y
_atom_site_fract_z
Si Si1 0.524336 0.656906 0.743639
Si Si2 0.493784 0.150741 0.673209
Si Si3 0.357768 0.996869 0.881959
Si Si4 0.250000 0.250000 0.250000
Si Si5 0.750000 0.064570 0.750000
O O1 0.451331 0.750000 0.750000
O O2 0.458424 0.579563 0.638994
O O3 0.652076 0.687004 0.653783
O O4 0.543839 0.636399 0.959443
O O5 0.480229 0.250000 0.750000
O O6 0.634871 0.122535 0.687511
O O7 0.412723 0.084469 0.792899
O O8 0.250000 0.966959 0.750000
O O9 0.301080 0.993932 0.083931
#
# Coordination Sequence:
#
# PCOD9391343 Si02
#       5
#     8   8   8   2   4
#     4  10  23  49  81 116 162 208 269 334 399 478
#     4  12  27  50  77 120 161 214 272 332 405 482
#     4  12  27  51  81 118 165 213 270 333 402 483
#     4   8  24  46  82 116 158 198 272 316 408 464
#     4  12  27  51  83 113 164 214 271 331 407 479
#
# _framework density 24.694441000000001
#
# number of rings (size 3 to 8) (size 9 to 14) (size 15 to 20)
#    0.800    0.000    2.667    3.600    0.000    4.267 
#    0.000    0.000    0.000    0.000    0.000    0.000 
#    0.000    0.000    0.000    0.000    0.000    0.000 
#
# Total GULP energy -167875.016539 kJ/mol
# GULP energy per Si atom -5595.833885 kJ/mol
# Density = 2.463824 g / cm^3
# Si number density = 24.694441 Si / 1000 Ang^3
#
#
#
# Elastic Constant Matrix: (Units=GPa)
#
#
# Indices 1 2 3 4 5 6 
#
# 1 117.8617 25.5723 47.8152 0.0000 0.0000 0.0000
# 2 25.5723 155.4157 57.3882 0.0000 0.0000 0.0000
# 3 47.8152 57.3882 202.4667 0.0000 0.0000 0.0000
# 4 0.0000 0.0000 0.0000 31.3600 0.0000 0.0000
# 5 0.0000 0.0000 0.0000 0.0000 18.1009 0.0000
# 6 0.0000 0.0000 0.0000 0.0000 0.0000 4.5284
#
#
#
# Elastic Compliance Matrix: (Units=1/GPa)
#
#
# Indices 1 2 3 4 5 6 
#
# 1 0.009476 -0.000818 -0.002006 0.000000 0.000000 0.000000
# 2 -0.000818 0.007257 -0.001864 0.000000 0.000000 0.000000
# 3 -0.002006 -0.001864 0.005941 0.000000 0.000000 0.000000
# 4 0.000000 0.000000 0.000000 0.031888 0.000000 0.000000
# 5 0.000000 0.000000 0.000000 0.000000 0.055246 0.000000
# 6 0.000000 0.000000 0.000000 0.000000 0.000000 0.220831
#
#
# Mechanical properties :
#
#
# Convention : Reuss Voigt Hill
#
# Bulk Modulus (GPa) = 75.19934 81.92174 78.56054
# Shear Modulus (GPa) = 14.51601 33.79575 24.15588
#
# Velocity S-wave (km/s) = 2.42714 3.70341 3.13100
# Velocity P-wave (km/s) = 6.19457 7.17866 6.70470
#
# Compressibility (1/GPa) = 0.01329799
#
# Stress axis : x y z
#
# Youngs Moduli (GPa) = 105.53129 137.79374 168.32026
#
# Poissons Ratio (x) = 0.11278 0.33763
# Poissons Ratio (y) = 0.08638 0.31370
# Poissons Ratio (z) = 0.21168 0.25681
#
# Static dielectric constant tensor:
#      x y z
#    x 1.963930 0.000000 0.000000 
#    y 0.000000 1.995030 0.000000 
#    z 0.000000 0.000000 2.010520 
# 
# From -- ./inp_files/10199.got.cif
#   From: 2010.05.17/outbox.cif.g08.bks.cpg/sg48_6_cif.got.tgz:10199.got - 2010.06.03 20:39:00.
