data_PCOD9391289
_publ_section_title
;
Structure prediction by ZEFSAII (Michael W. Deem and Ramdas Pophale) SiO2 
 PCOD9391289
Probable space group: P N N N
;
_chemical_formula_sum "Si O2"
_cell_formula_units_Z 24
_cell_length_a 5.157115
_cell_length_b 25.535310
_cell_length_c 7.525972
_cell_angle_alpha 90.000000
_cell_angle_beta 90.000000
_cell_angle_gamma 90.000000
_cell_volume 991.084191
_symmetry_space_group_name_H-M "P N N N"
_symmetry_group_IT_number 48
_space_group.IT_coordinate_system_code '2'
_symmetry_cell_setting 'orthorhombic'
loop_
_space_group_symop_operation_xyz
x,y,z
1/2-x,1/2-y,z
x,1/2-y,1/2-z
1/2-x,y,1/2-z
-x,-y,-z
1/2+x,1/2+y,-z
-x,1/2+y,1/2+z
1/2+x,-y,1/2+z
loop_
_atom_site_type_symbol
_atom_site_label
_atom_site_fract_x
_atom_site_fract_y
_atom_site_fract_z
Si Si1 0.361251 0.553882 0.053752
Si Si2 0.137656 0.387446 0.052981
Si Si3 0.500441 0.773853 0.049146
O O1 0.250000 0.548736 0.250000
O O2 0.500000 0.500000 0.000000
O O3 0.602767 0.594010 0.048167
O O4 0.104987 0.571810 0.943079
O O5 0.250000 0.377669 0.250000
O O6 0.020010 0.335851 0.961518
O O7 0.750000 0.750000 0.959430
O O8 0.499846 0.750000 0.250000
O O9 0.250000 0.750000 0.961145
#
# Coordination Sequence:
#
# PCOD9391289 Si02
#       3
#     8   8   8
#     4  12  28  50  80 113 155 204 267 327 395 476
#     4  12  27  48  78 116 160 205 260 326 402 464
#     4  10  23  42  74 107 153 194 264 305 379 461
#
# _framework density 24.215904999999999
#
# number of rings (size 3 to 8) (size 9 to 14) (size 15 to 20)
#    0.000    0.667    0.000    6.000   14.000    3.333 
#    0.000    1.667    0.000    0.000    0.000    0.000 
#    0.000    0.000    0.000    0.000    0.000    0.000 
#
# Total GULP energy -134264.800101 kJ/mol
# GULP energy per Si atom -5594.366671 kJ/mol
# Density = 2.416079 g / cm^3
# Si number density = 24.215905 Si / 1000 Ang^3
#
#
#
# Elastic Constant Matrix: (Units=GPa)
#
#
# Indices 1 2 3 4 5 6 
#
# 1 260.7995 79.9120 50.6379 0.0000 0.0000 0.0000
# 2 79.9120 142.9756 61.1739 0.0000 0.0000 0.0000
# 3 50.6379 61.1739 140.6129 0.0000 0.0000 0.0000
# 4 0.0000 0.0000 0.0000 13.5098 0.0000 0.0000
# 5 0.0000 0.0000 0.0000 0.0000 23.3617 0.0000
# 6 0.0000 0.0000 0.0000 0.0000 0.0000 59.4637
#
#
#
# Elastic Compliance Matrix: (Units=1/GPa)
#
#
# Indices 1 2 3 4 5 6 
#
# 1 0.004678 -0.002327 -0.000672 0.000000 0.000000 0.000000
# 2 -0.002327 0.009751 -0.003404 0.000000 0.000000 0.000000
# 3 -0.000672 -0.003404 0.008835 0.000000 0.000000 0.000000
# 4 0.000000 0.000000 0.000000 0.074021 0.000000 0.000000
# 5 0.000000 0.000000 0.000000 0.000000 0.042805 0.000000
# 6 0.000000 0.000000 0.000000 0.000000 0.000000 0.016817
#
#
# Mechanical properties :
#
#
# Convention : Reuss Voigt Hill
#
# Bulk Modulus (GPa) = 95.62965 103.09285 99.36125
# Shear Modulus (GPa) = 28.86842 42.77799 35.82320
#
# Velocity S-wave (km/s) = 3.45646 4.20756 3.85037
# Velocity P-wave (km/s) = 7.45021 8.14061 7.80305
#
# Compressibility (1/GPa) = 0.01045701
#
# Stress axis : x y z
#
# Youngs Moduli (GPa) = 213.77144 102.54971 113.18737
#
# Poissons Ratio (x) = 0.23863 0.07609
# Poissons Ratio (y) = 0.49743 0.38533
# Poissons Ratio (z) = 0.14372 0.34912
#
# Static dielectric constant tensor:
#      x y z
#    x 1.944390 0.000000 0.000000 
#    y 0.000000 2.008680 0.000000 
#    z 0.000000 0.000000 1.924450 
# 
# From -- ./inp_files/7390.got.cif
#   From: 2010.05.17/outbox.cif.g08.bks.cpg/sg48_4_cif.got.tgz:7390.got - 2010.06.03 20:39:00.
