data_PCOD9391475
_publ_section_title
;
Structure prediction by ZEFSAII (Michael W. Deem and Ramdas Pophale) SiO2 
 PCOD9391475
Probable space group: P N N N
;
_chemical_formula_sum "Si O2"
_cell_formula_units_Z 30
_cell_length_a 14.284142
_cell_length_b 18.969974
_cell_length_c 5.126979
_cell_angle_alpha 90.000000
_cell_angle_beta 90.000000
_cell_angle_gamma 90.000000
_cell_volume 1389.256486
_symmetry_space_group_name_H-M "P N N N"
_symmetry_group_IT_number 48
_space_group.IT_coordinate_system_code '2'
_symmetry_cell_setting 'orthorhombic'
loop_
_space_group_symop_operation_xyz
x,y,z
1/2-x,1/2-y,z
x,1/2-y,1/2-z
1/2-x,y,1/2-z
-x,-y,-z
1/2+x,1/2+y,-z
-x,1/2+y,1/2+z
1/2+x,-y,1/2+z
loop_
_atom_site_type_symbol
_atom_site_label
_atom_site_fract_x
_atom_site_fract_y
_atom_site_fract_z
Si Si1 0.512935 0.049573 0.256492
Si Si2 0.750000 0.750000 0.250000
Si Si3 0.411886 0.181819 0.070845
Si Si4 0.062849 0.750000 0.250000
Si Si5 0.814016 0.138409 0.011817
O O1 0.433741 0.110556 0.223890
O O2 0.611813 0.085339 0.343750
O O3 0.500000 0.000000 0.500000
O O4 0.500000 0.000000 0.000000
O O5 0.685059 0.698448 0.423843
O O6 0.424065 0.250000 0.250000
O O7 0.495656 0.189821 0.865205
O O8 0.128011 0.792610 0.059606
O O9 0.750000 0.118059 0.750000
O O10 0.750000 0.157128 0.250000
#
# Coordination Sequence:
#
# PCOD9391475 Si02
#       5
#     8   2   8   4   8
#     4  12  27  50  74 104 154 207 245 306 394 459
#     4  10  26  44  74 122 134 200 278 336 358 446
#     4  11  23  47  77 105 149 196 260 315 383 450
#     4  11  23  41  77 106 146 184 237 305 389 437
#     4  12  26  45  71 113 146 187 247 309 367 454
#
# _framework density 21.594284999999999
#
# number of rings (size 3 to 8) (size 9 to 14) (size 15 to 20)
#    0.000    0.533    2.667    5.600    3.733    3.200 
#    7.200    0.000    0.000    0.000    0.000    0.000 
#    0.000    0.000    0.000    0.000    0.000    0.000 
#
# Total GULP energy -167280.479828 kJ/mol
# GULP energy per Si atom -5576.015994 kJ/mol
# Density = 2.154514 g / cm^3
# Si number density = 21.594285 Si / 1000 Ang^3
#
#
#
# Elastic Constant Matrix: (Units=GPa)
#
#
# Indices 1 2 3 4 5 6 
#
# 1 157.0095 63.8411 79.9027 0.0000 0.0000 0.0000
# 2 63.8411 142.1351 72.9762 0.0000 0.0000 0.0000
# 3 79.9027 72.9762 173.0041 0.0000 0.0000 0.0000
# 4 0.0000 0.0000 0.0000 45.3676 0.0000 0.0000
# 5 0.0000 0.0000 0.0000 0.0000 28.0849 0.0000
# 6 0.0000 0.0000 0.0000 0.0000 0.0000 5.2134
#
#
#
# Elastic Compliance Matrix: (Units=1/GPa)
#
#
# Indices 1 2 3 4 5 6 
#
# 1 0.008933 -0.002418 -0.003106 0.000000 0.000000 0.000000
# 2 -0.002418 0.009635 -0.002948 0.000000 0.000000 0.000000
# 3 -0.003106 -0.002948 0.008458 0.000000 0.000000 0.000000
# 4 0.000000 0.000000 0.000000 0.022042 0.000000 0.000000
# 5 0.000000 0.000000 0.000000 0.000000 0.035606 0.000000
# 6 0.000000 0.000000 0.000000 0.000000 0.000000 0.191812
#
#
# Mechanical properties :
#
#
# Convention : Reuss Voigt Hill
#
# Bulk Modulus (GPa) = 99.17159 100.62095 99.89627
# Shear Modulus (GPa) = 16.84701 32.76178 24.80440
#
# Velocity S-wave (km/s) = 2.79617 3.89929 3.39286
# Velocity P-wave (km/s) = 7.51328 8.18351 7.85555
#
# Compressibility (1/GPa) = 0.01008353
#
# Stress axis : x y z
#
# Youngs Moduli (GPa) = 111.94980 103.79063 118.23170
#
# Poissons Ratio (x) = 0.25092 0.36720
# Poissons Ratio (y) = 0.27064 0.34850
# Poissons Ratio (z) = 0.34769 0.30593
#
# Static dielectric constant tensor:
#      x y z
#    x 2.490380 0.000000 0.000000 
#    y 0.000000 1.879630 0.000000 
#    z 0.000000 0.000000 1.859630 
# 
# From -- ./inp_files/2989.got.cif
#   From: 2010.05.17/outbox.cif.g08.bks.cpg/sg48_2_cif.got.tgz:2989.got - 2010.06.03 20:39:00.
