data_PCOD9391873
_publ_section_title
;
Structure prediction by ZEFSAII (Michael W. Deem and Ramdas Pophale) SiO2 
 PCOD9391873
Probable space group: P N N N
;
_chemical_formula_sum "Si O2"
_cell_formula_units_Z 34
_cell_length_a 14.463232
_cell_length_b 13.153873
_cell_length_c 7.330290
_cell_angle_alpha 90.000000
_cell_angle_beta 90.000000
_cell_angle_gamma 90.000000
_cell_volume 1394.569471
_symmetry_space_group_name_H-M "P N N N"
_symmetry_group_IT_number 48
_space_group.IT_coordinate_system_code '2'
_symmetry_cell_setting 'orthorhombic'
loop_
_space_group_symop_operation_xyz
x,y,z
1/2-x,1/2-y,z
x,1/2-y,1/2-z
1/2-x,y,1/2-z
-x,-y,-z
1/2+x,1/2+y,-z
-x,1/2+y,1/2+z
1/2+x,-y,1/2+z
loop_
_atom_site_type_symbol
_atom_site_label
_atom_site_fract_x
_atom_site_fract_y
_atom_site_fract_z
Si Si1 0.083562 0.046729 0.616362
Si Si2 0.780193 0.571754 0.558787
Si Si3 0.750000 0.250000 0.250000
Si Si4 0.429706 0.229676 0.472549
Si Si5 0.109433 0.601158 0.545624
O O1 0.190212 0.035510 0.549125
O O2 0.069508 0.166740 0.584853
O O3 0.080564 0.980634 0.800133
O O4 0.000000 0.000000 0.500000
O O5 0.750000 0.616470 0.750000
O O6 0.842016 0.660512 0.473689
O O7 0.842961 0.472805 0.600118
O O8 0.815894 0.321389 0.371282
O O9 0.430146 0.250000 0.250000
O O10 0.521463 0.165100 0.511822
#
# Coordination Sequence:
#
# PCOD9391873 Si02
#       5
#     8   8   2   8   8
#     4  12  23  43  74 106 138 194 246 301 370 458
#     4  12  25  44  70 105 147 188 243 309 377 443
#     4  12  20  44  74  94 138 192 238 304 380 434
#     4  12  24  43  75 101 147 193 241 310 387 436
#     4  12  25  46  73 105 143 193 253 305 373 461
#
# _framework density 24.380284
#
# number of rings (size 3 to 8) (size 9 to 14) (size 15 to 20)
#    0.000    0.000    8.235    1.412    0.000    0.941 
#    0.000    2.941    0.000    0.000    0.000    0.000 
#    0.000    0.000    0.000    0.000    0.000    0.000 
#
# Total GULP energy -190427.100233 kJ/mol
# GULP energy per Si atom -5600.797066 kJ/mol
# Density = 2.432479 g / cm^3
# Si number density = 24.380284 Si / 1000 Ang^3
#
#
#
# Elastic Constant Matrix: (Units=GPa)
#
#
# Indices 1 2 3 4 5 6 
#
# 1 169.4161 71.5808 18.8724 0.0000 0.0000 0.0000
# 2 71.5808 179.4704 27.7854 0.0000 0.0000 0.0000
# 3 18.8724 27.7854 55.6506 0.0000 0.0000 0.0000
# 4 0.0000 0.0000 0.0000 38.8030 0.0000 0.0000
# 5 0.0000 0.0000 0.0000 0.0000 26.9036 0.0000
# 6 0.0000 0.0000 0.0000 0.0000 0.0000 28.8418
#
#
#
# Elastic Compliance Matrix: (Units=1/GPa)
#
#
# Indices 1 2 3 4 5 6 
#
# 1 0.007159 -0.002687 -0.001086 0.000000 0.000000 0.000000
# 2 -0.002687 0.007047 -0.002607 0.000000 0.000000 0.000000
# 3 -0.001086 -0.002607 0.019639 0.000000 0.000000 0.000000
# 4 0.000000 0.000000 0.000000 0.025771 0.000000 0.000000
# 5 0.000000 0.000000 0.000000 0.000000 0.037170 0.000000
# 6 0.000000 0.000000 0.000000 0.000000 0.000000 0.034672
#
#
# Mechanical properties :
#
#
# Convention : Reuss Voigt Hill
#
# Bulk Modulus (GPa) = 47.42828 71.22379 59.32604
# Shear Modulus (GPa) = 33.05828 37.99625 35.52726
#
# Velocity S-wave (km/s) = 3.68631 3.95205 3.82149
# Velocity P-wave (km/s) = 6.13305 7.07828 6.62255
#
# Compressibility (1/GPa) = 0.02108447
#
# Stress axis : x y z
#
# Youngs Moduli (GPa) = 139.68461 141.89678 50.91811
#
# Poissons Ratio (x) = 0.38130 0.05530
# Poissons Ratio (y) = 0.37536 0.13276
# Poissons Ratio (z) = 0.15171 0.36997
#
# Static dielectric constant tensor:
#      x y z
#    x 2.070690 0.000000 0.000000 
#    y 0.000000 1.895600 0.000000 
#    z 0.000000 0.000000 2.016510 
# 
# From -- ./inp_files/10291.got.cif
#   From: 2010.05.17/outbox.cif.g08.bks.cpg/sg48_6_cif.got.tgz:10291.got - 2010.06.03 20:39:00.
