data_PCOD9391324
_publ_section_title
;
Structure prediction by ZEFSAII (Michael W. Deem and Ramdas Pophale) SiO2 
 PCOD9391324
Probable space group: P N N N
;
_chemical_formula_sum "Si O2"
_cell_formula_units_Z 56
_cell_length_a 8.659327
_cell_length_b 15.480666
_cell_length_c 20.417995
_cell_angle_alpha 90.000000
_cell_angle_beta 90.000000
_cell_angle_gamma 90.000000
_cell_volume 2737.076109
_symmetry_space_group_name_H-M "P N N N"
_symmetry_group_IT_number 48
_space_group.IT_coordinate_system_code '2'
_symmetry_cell_setting 'orthorhombic'
loop_
_space_group_symop_operation_xyz
x,y,z
1/2-x,1/2-y,z
x,1/2-y,1/2-z
1/2-x,y,1/2-z
-x,-y,-z
1/2+x,1/2+y,-z
-x,1/2+y,1/2+z
1/2+x,-y,1/2+z
loop_
_atom_site_type_symbol
_atom_site_label
_atom_site_fract_x
_atom_site_fract_y
_atom_site_fract_z
Si Si1 0.077808 0.900055 0.779094
Si Si2 0.418310 0.226503 0.371517
Si Si3 0.165344 0.515531 0.966932
Si Si4 0.341839 0.161789 0.509550
Si Si5 0.970253 0.909370 0.636568
Si Si6 0.312981 0.523236 0.176284
Si Si7 0.821632 0.155129 0.937457
O O1 0.250000 0.914359 0.750000
O O2 0.045206 0.817776 0.825536
O O3 0.987746 0.883155 0.711790
O O4 0.981098 0.977401 0.814754
O O5 0.250000 0.250000 0.340153
O O6 0.384771 0.164971 0.432680
O O7 0.468953 0.318608 0.401073
O O8 0.255689 0.426262 0.972765
O O9 0.116256 0.539820 0.892796
O O10 0.249804 0.591856 0.006678
O O11 0.000000 0.500000 0.000000
O O12 0.250000 0.250000 0.522935
O O13 0.499249 0.163700 0.548288
O O14 0.811438 0.962482 0.638119
O O15 0.250000 0.536506 0.250000
O O16 0.309363 0.608721 0.132829
O O17 0.750000 0.250000 0.939459
#
# Coordination Sequence:
#
# PCOD9391324 Si02
#       7
#     8   8   8   8   8   8   8
#     4  11  25  40  65 101 138 180 233 287 345 416
#     4  11  21  41  65  94 139 184 229 276 349 426
#     4  12  23  43  68  99 141 182 229 283 355 419
#     4  11  26  43  70 105 139 184 235 294 362 429
#     4  11  23  39  67  93 136 181 228 275 343 433
#     4  10  23  45  68  95 130 184 228 279 356 427
#     4  12  25  43  71 101 138 179 239 301 352 421
#
# _framework density 20.459790999999999
#
# number of rings (size 3 to 8) (size 9 to 14) (size 15 to 20)
#    0.000    0.857    2.857    5.143    4.000    2.000 
#    0.000    0.000    0.000    0.000    0.000    0.000 
#    0.000    0.000    0.000    0.000    0.000    0.000 
#
# Total GULP energy -312652.920607 kJ/mol
# GULP energy per Si atom -5583.087868 kJ/mol
# Density = 2.041322 g / cm^3
# Si number density = 20.459791 Si / 1000 Ang^3
#
#
#
# Elastic Constant Matrix: (Units=GPa)
#
#
# Indices 1 2 3 4 5 6 
#
# 1 138.1052 86.2284 34.1322 0.0000 0.0000 0.0000
# 2 86.2284 177.9127 63.6923 0.0000 0.0000 0.0000
# 3 34.1322 63.6923 88.3517 0.0000 0.0000 0.0000
# 4 0.0000 0.0000 0.0000 12.1985 0.0000 0.0000
# 5 0.0000 0.0000 0.0000 0.0000 37.7349 0.0000
# 6 0.0000 0.0000 0.0000 0.0000 0.0000 38.2447
#
#
#
# Elastic Compliance Matrix: (Units=1/GPa)
#
#
# Indices 1 2 3 4 5 6 
#
# 1 0.010400 -0.004855 -0.000518 0.000000 0.000000 0.000000
# 2 -0.004855 0.009843 -0.005220 0.000000 0.000000 0.000000
# 3 -0.000518 -0.005220 0.015281 0.000000 0.000000 0.000000
# 4 0.000000 0.000000 0.000000 0.081977 0.000000 0.000000
# 5 0.000000 0.000000 0.000000 0.000000 0.026501 0.000000
# 6 0.000000 0.000000 0.000000 0.000000 0.000000 0.026147
#
#
# Mechanical properties :
#
#
# Convention : Reuss Voigt Hill
#
# Bulk Modulus (GPa) = 69.74156 85.83059 77.78608
# Shear Modulus (GPa) = 25.49528 32.32340 28.90934
#
# Velocity S-wave (km/s) = 3.53387 3.97904 3.76304
# Velocity P-wave (km/s) = 7.12826 7.94684 7.54866
#
# Compressibility (1/GPa) = 0.01433865
#
# Stress axis : x y z
#
# Youngs Moduli (GPa) = 96.15075 101.59875 65.43944
#
# Poissons Ratio (x) = 0.49330 0.03388
# Poissons Ratio (y) = 0.46685 0.34158
# Poissons Ratio (z) = 0.04977 0.53032
#
# Static dielectric constant tensor:
#      x y z
#    x 1.767520 0.000000 0.000000 
#    y 0.000000 1.718180 0.000000 
#    z 0.000000 0.000000 1.787460 
# 
# From -- ./inp_files/33602.got.cif
#   From: 2010.05.17/outbox.cif.g08.bks.cpg/sg48_17_cif.got.tgz:33602.got - 2010.06.03 20:39:00.
