data_PCOD9391903
_publ_section_title
;
Structure prediction by ZEFSAII (Michael W. Deem and Ramdas Pophale) SiO2 
 PCOD9391903
Probable space group: P N N N
;
_chemical_formula_sum "Si O2"
_cell_formula_units_Z 30
_cell_length_a 7.989709
_cell_length_b 4.861000
_cell_length_c 32.217825
_cell_angle_alpha 90.000000
_cell_angle_beta 90.000000
_cell_angle_gamma 90.000000
_cell_volume 1251.275096
_symmetry_space_group_name_H-M "P N N N"
_symmetry_group_IT_number 48
_space_group.IT_coordinate_system_code '2'
_symmetry_cell_setting 'orthorhombic'
loop_
_space_group_symop_operation_xyz
x,y,z
1/2-x,1/2-y,z
x,1/2-y,1/2-z
1/2-x,y,1/2-z
-x,-y,-z
1/2+x,1/2+y,-z
-x,1/2+y,1/2+z
1/2+x,-y,1/2+z
loop_
_atom_site_type_symbol
_atom_site_label
_atom_site_fract_x
_atom_site_fract_y
_atom_site_fract_z
Si Si1 0.396698 0.471431 0.328064
Si Si2 0.060744 0.646551 0.957921
Si Si3 0.250000 0.750000 0.651488
Si Si4 0.750000 0.250000 0.750000
Si Si5 0.515015 0.632730 0.100472
O O1 0.250000 0.250000 0.340138
O O2 0.355147 0.571489 0.282133
O O3 0.584239 0.350551 0.325572
O O4 0.415049 0.721583 0.361322
O O5 0.250000 0.750000 0.965055
O O6 0.039036 0.104100 0.066231
O O7 0.055984 0.394102 0.926755
O O8 0.000000 0.500000 0.000000
O O9 0.167529 0.518282 0.622873
#
# Coordination Sequence:
#
# PCOD9391903 Si02
#       5
#     8   8   4   2   8
#     4  12  27  53  84 120 169 225 280 349 424 503
#     4  12  25  48  78 118 165 214 275 351 417 498
#     4  12  24  52  89 109 160 222 271 338 412 499
#     4  12  30  52  78 128 180 204 278 370 402 514
#     4  12  25  50  87 115 163 222 286 336 417 511
#
# _framework density 23.975543999999999
#
# number of rings (size 3 to 8) (size 9 to 14) (size 15 to 20)
#    0.000    0.000    4.000    6.000    0.000    0.000 
#    7.200   18.667    0.000    0.000    0.000    0.000 
#    0.000    0.000    0.000    0.000    0.000    0.000 
#
# Total GULP energy -167424.192100 kJ/mol
# GULP energy per Si atom -5580.806403 kJ/mol
# Density = 2.392097 g / cm^3
# Si number density = 23.975544 Si / 1000 Ang^3
#
#
#
# Elastic Constant Matrix: (Units=GPa)
#
#
# Indices 1 2 3 4 5 6 
#
# 1 161.8968 80.1373 89.8566 0.0000 0.0000 0.0000
# 2 80.1373 213.7055 102.0484 0.0000 0.0000 0.0000
# 3 89.8566 102.0484 224.0322 0.0000 0.0000 0.0000
# 4 0.0000 0.0000 0.0000 69.4705 0.0000 0.0000
# 5 0.0000 0.0000 0.0000 0.0000 27.5928 0.0000
# 6 0.0000 0.0000 0.0000 0.0000 0.0000 40.0216
#
#
#
# Elastic Compliance Matrix: (Units=1/GPa)
#
#
# Indices 1 2 3 4 5 6 
#
# 1 0.008572 -0.002010 -0.002523 0.000000 0.000000 0.000000
# 2 -0.002010 0.006451 -0.002133 0.000000 0.000000 0.000000
# 3 -0.002523 -0.002133 0.006447 0.000000 0.000000 0.000000
# 4 0.000000 0.000000 0.000000 0.014395 0.000000 0.000000
# 5 0.000000 0.000000 0.000000 0.000000 0.036241 0.000000
# 6 0.000000 0.000000 0.000000 0.000000 0.000000 0.024987
#
#
# Mechanical properties :
#
#
# Convention : Reuss Voigt Hill
#
# Bulk Modulus (GPa) = 122.84816 127.07990 124.96403
# Shear Modulus (GPa) = 44.19491 49.25644 46.72568
#
# Velocity S-wave (km/s) = 4.29806 4.53752 4.41941
# Velocity P-wave (km/s) = 8.71673 8.97614 8.84738
#
# Compressibility (1/GPa) = 0.00814013
#
# Stress axis : x y z
#
# Youngs Moduli (GPa) = 116.66389 155.00788 155.11585
#
# Poissons Ratio (x) = 0.31152 0.39129
# Poissons Ratio (y) = 0.23446 0.33079
# Poissons Ratio (z) = 0.29429 0.33056
#
# Static dielectric constant tensor:
#      x y z
#    x 2.018990 0.000000 0.000000 
#    y 0.000000 2.175580 0.000000 
#    z 0.000000 0.000000 1.929550 
# 
# From -- ./inp_files/38514.got.cif
#   From: 2010.05.17/outbox.cif.g08.bks.cpg/sg48_20_cif.got.tgz:38514.got - 2010.06.03 20:39:00.
