data_PCOD9391173
_publ_section_title
;
Structure prediction by ZEFSAII (Michael W. Deem and Ramdas Pophale) SiO2 
 PCOD9391173
Probable space group: P N N N
;
_chemical_formula_sum "Si O2"
_cell_formula_units_Z 54
_cell_length_a 28.373248
_cell_length_b 5.304803
_cell_length_c 15.462103
_cell_angle_alpha 90.000000
_cell_angle_beta 90.000000
_cell_angle_gamma 90.000000
_cell_volume 2327.270565
_symmetry_space_group_name_H-M "P N N N"
_symmetry_group_IT_number 48
_space_group.IT_coordinate_system_code '2'
_symmetry_cell_setting 'orthorhombic'
loop_
_space_group_symop_operation_xyz
x,y,z
1/2-x,1/2-y,z
x,1/2-y,1/2-z
1/2-x,y,1/2-z
-x,-y,-z
1/2+x,1/2+y,-z
-x,1/2+y,1/2+z
1/2+x,-y,1/2+z
loop_
_atom_site_type_symbol
_atom_site_label
_atom_site_fract_x
_atom_site_fract_y
_atom_site_fract_z
Si Si1 0.709367 0.042100 0.908331
Si Si2 0.104326 0.002684 0.396844
Si Si3 0.946598 0.278636 0.047788
Si Si4 0.353936 0.750549 0.647427
Si Si5 0.802734 0.749189 0.418572
Si Si6 0.250000 0.250000 0.250000
Si Si7 0.961326 0.891480 0.890664
Si Si8 0.957397 0.250000 0.750000
O O1 0.750000 0.250000 0.929483
O O2 0.655058 0.124830 0.903424
O O3 0.720940 0.924691 0.815272
O O4 0.704066 0.822125 0.980402
O O5 0.091351 0.289150 0.370640
O O6 0.079580 0.989845 0.490912
O O7 0.075418 0.863952 0.323510
O O8 0.908140 0.214610 0.119669
O O9 0.998211 0.316522 0.087928
O O10 0.954290 0.063559 0.975186
O O11 0.348541 0.750000 0.750000
O O12 0.333063 0.482104 0.617118
O O13 0.325921 0.980709 0.601734
O O14 0.750000 0.750000 0.380220
O O15 0.982522 0.038616 0.807660
#
# Coordination Sequence:
#
# PCOD9391173 Si02
#       8
#     8   8   8   8   8   2   8   4
#     4  12  27  46  71 111 156 199 261 321 394 477
#     4  11  23  42  71  95 144 193 243 304 376 472
#     4  10  23  43  71 102 145 190 252 313 379 468
#     4  12  27  48  75 117 147 200 257 335 396 467
#     4  12  26  50  79 105 151 203 254 315 404 472
#     4  12  30  40  72 114 146 204 254 332 382 476
#     4  10  22  44  68 106 141 199 255 302 390 463
#     4  10  24  38  65 102 138 188 237 308 368 460
#
# _framework density 23.203146
#
# number of rings (size 3 to 8) (size 9 to 14) (size 15 to 20)
#    0.000    0.889    2.222    3.778    4.148    4.148 
#    2.667    0.000    0.000    0.000    0.000    0.000 
#    0.000    0.000    0.000    0.000    0.000    0.000 
#
# Total GULP energy -301174.252417 kJ/mol
# GULP energy per Si atom -5577.300971 kJ/mol
# Density = 2.315033 g / cm^3
# Si number density = 23.203146 Si / 1000 Ang^3
#
#
#
# Elastic Constant Matrix: (Units=GPa)
#
#
# Indices 1 2 3 4 5 6 
#
# 1 138.1871 21.9588 18.9110 0.0000 0.0000 0.0000
# 2 21.9588 70.7647 11.0877 0.0000 0.0000 0.0000
# 3 18.9110 11.0877 117.3723 0.0000 0.0000 0.0000
# 4 0.0000 0.0000 0.0000 33.8084 0.0000 0.0000
# 5 0.0000 0.0000 0.0000 0.0000 42.3278 0.0000
# 6 0.0000 0.0000 0.0000 0.0000 0.0000 1.3469
#
#
#
# Elastic Compliance Matrix: (Units=1/GPa)
#
#
# Indices 1 2 3 4 5 6 
#
# 1 0.007734 -0.002238 -0.001035 0.000000 0.000000 0.000000
# 2 -0.002238 0.014991 -0.001056 0.000000 0.000000 0.000000
# 3 -0.001035 -0.001056 0.008786 0.000000 0.000000 0.000000
# 4 0.000000 0.000000 0.000000 0.029578 0.000000 0.000000
# 5 0.000000 0.000000 0.000000 0.000000 0.023625 0.000000
# 6 0.000000 0.000000 0.000000 0.000000 0.000000 0.742457
#
#
# Mechanical properties :
#
#
# Convention : Reuss Voigt Hill
#
# Bulk Modulus (GPa) = 43.75376 47.80435 45.77906
# Shear Modulus (GPa) = 5.92806 33.78773 19.85790
#
# Velocity S-wave (km/s) = 1.60012 3.82012 2.92863
# Velocity P-wave (km/s) = 4.72352 6.33285 5.58644
#
# Compressibility (1/GPa) = 0.02285518
#
# Stress axis : x y z
#
# Youngs Moduli (GPa) = 129.30332 66.70613 113.81329
#
# Poissons Ratio (x) = 0.14927 0.11776
# Poissons Ratio (y) = 0.28935 0.12014
# Poissons Ratio (z) = 0.13379 0.07042
#
# Static dielectric constant tensor:
#      x y z
#    x 1.941680 0.000000 0.000000 
#    y 0.000000 3.650510 0.000000 
#    z 0.000000 0.000000 1.898650 
# 
# From -- ./inp_files/28932.got.cif
#   From: 2010.05.17/outbox.cif.g08.bks.cpg/sg48_15_cif.got.tgz:28932.got - 2010.06.03 20:39:00.
