data_PCOD9391799
_publ_section_title
;
Structure prediction by ZEFSAII (Michael W. Deem and Ramdas Pophale) SiO2 
 PCOD9391799
Probable space group: P N N N
;
_chemical_formula_sum "Si O2"
_cell_formula_units_Z 48
_cell_length_a 12.824463
_cell_length_b 5.193939
_cell_length_c 28.709398
_cell_angle_alpha 90.000000
_cell_angle_beta 90.000000
_cell_angle_gamma 90.000000
_cell_volume 1912.318030
_symmetry_space_group_name_H-M "P N N N"
_symmetry_group_IT_number 48
_space_group.IT_coordinate_system_code '2'
_symmetry_cell_setting 'orthorhombic'
loop_
_space_group_symop_operation_xyz
x,y,z
1/2-x,1/2-y,z
x,1/2-y,1/2-z
1/2-x,y,1/2-z
-x,-y,-z
1/2+x,1/2+y,-z
-x,1/2+y,1/2+z
1/2+x,-y,1/2+z
loop_
_atom_site_type_symbol
_atom_site_label
_atom_site_fract_x
_atom_site_fract_y
_atom_site_fract_z
Si Si1 0.920226 0.445777 0.789868
Si Si2 0.137313 0.613975 0.809170
Si Si3 0.250000 0.750000 0.934725
Si Si4 0.124648 0.096308 0.870135
Si Si5 0.103433 0.840847 0.110294
Si Si6 0.250000 0.250000 0.337838
Si Si7 0.570214 0.254519 0.508443
O O1 0.884936 0.250000 0.750000
O O2 0.912529 0.318835 0.841694
O O3 0.841231 0.672111 0.801713
O O4 0.039282 0.527663 0.777497
O O5 0.250000 0.750000 0.796086
O O6 0.352415 0.152715 0.838414
O O7 0.093470 0.850692 0.838443
O O8 0.282740 0.514413 0.901808
O O9 0.346499 0.786403 0.967665
O O10 0.020109 0.117019 0.899885
O O11 0.128680 0.738888 0.058719
O O12 0.189455 0.049349 0.127587
O O13 0.500000 0.500000 0.500000
O O14 0.500000 0.000000 0.500000
#
# Coordination Sequence:
#
# PCOD9391799 Si02
#       7
#     8   8   4   8   8   4   8
#     4  11  28  52  84 124 168 219 286 359 434 522
#     4  11  24  46  83 120 162 219 273 344 421 504
#     4  12  28  48  78 118 164 224 282 334 426 502
#     4  11  24  44  79 117 159 215 280 335 416 500
#     4  11  27  50  78 120 166 223 275 360 421 504
#     4  12  26  51  90 118 172 226 292 354 447 506
#     4  12  31  50  78 118 171 219 284 348 416 506
#
# _framework density 25.100425000000001
#
# number of rings (size 3 to 8) (size 9 to 14) (size 15 to 20)
#    0.000    0.667    4.167    1.000    9.333    4.667 
#    0.000    0.000    7.333    9.000    0.000    0.000 
#    0.000    0.000    0.000    0.000    0.000    0.000 
#
# Total GULP energy -267433.130509 kJ/mol
# GULP energy per Si atom -5571.523552 kJ/mol
# Density = 2.504330 g / cm^3
# Si number density = 25.100425 Si / 1000 Ang^3
#
#
#
# Elastic Constant Matrix: (Units=GPa)
#
#
# Indices 1 2 3 4 5 6 
#
# 1 157.9395 56.0235 19.1271 0.0000 0.0000 0.0000
# 2 56.0235 158.0113 59.9241 0.0000 0.0000 0.0000
# 3 19.1271 59.9241 160.5412 0.0000 0.0000 0.0000
# 4 0.0000 0.0000 0.0000 124.0143 0.0000 0.0000
# 5 0.0000 0.0000 0.0000 0.0000 -78.7556 0.0000
# 6 0.0000 0.0000 0.0000 0.0000 0.0000 23.1948
#
#
#
# Elastic Compliance Matrix: (Units=1/GPa)
#
#
# Indices 1 2 3 4 5 6 
#
# 1 0.007244 -0.002611 0.000111 0.000000 0.000000 0.000000
# 2 -0.002611 0.008313 -0.002792 0.000000 0.000000 0.000000
# 3 0.000111 -0.002792 0.007258 0.000000 0.000000 0.000000
# 4 0.000000 0.000000 0.000000 0.008064 0.000000 0.000000
# 5 0.000000 0.000000 0.000000 0.000000 -0.012698 0.000000
# 6 0.000000 0.000000 0.000000 0.000000 0.000000 0.043113
#
#
# Mechanical properties :
#
#
# Convention : Reuss Voigt Hill
#
# Bulk Modulus (GPa) = 81.74906 82.96019 82.35462
# Shear Modulus (GPa) = 65.82927 36.45184 51.14056
#
# Velocity S-wave (km/s) = 5.12672 3.81496 4.51870
# Velocity P-wave (km/s) = 8.22702 7.24764 7.75281
#
# Compressibility (1/GPa) = 0.01223256
#
# Stress axis : x y z
#
# Youngs Moduli (GPa) = 138.04355 120.29218 137.78307
#
# Poissons Ratio (x) = 0.31404 -0.01535
# Poissons Ratio (y) = 0.36039 0.38468
# Poissons Ratio (z) = -0.01538 0.33585
#
# Static dielectric constant tensor:
#      x y z
#    x 2.132420 0.000000 0.000000 
#    y 0.000000 2.036610 0.000000 
#    z 0.000000 0.000000 2.065870 
# 
# From -- ./inp_files/39049.got.cif
#   From: 2010.05.17/outbox.cif.g08.bks.cpg/sg48_20_cif.got.tgz:39049.got - 2010.06.03 20:39:00.
