data_PCOD9391108
_publ_section_title
;
Structure prediction by ZEFSAII (Michael W. Deem and Ramdas Pophale) SiO2 
 PCOD9391108
Probable space group: P N N N
;
_chemical_formula_sum "Si O2"
_cell_formula_units_Z 40
_cell_length_a 8.891866
_cell_length_b 17.015080
_cell_length_c 11.452056
_cell_angle_alpha 90.000000
_cell_angle_beta 90.000000
_cell_angle_gamma 90.000000
_cell_volume 1732.648104
_symmetry_space_group_name_H-M "P N N N"
_symmetry_group_IT_number 48
_space_group.IT_coordinate_system_code '2'
_symmetry_cell_setting 'orthorhombic'
loop_
_space_group_symop_operation_xyz
x,y,z
1/2-x,1/2-y,z
x,1/2-y,1/2-z
1/2-x,y,1/2-z
-x,-y,-z
1/2+x,1/2+y,-z
-x,1/2+y,1/2+z
1/2+x,-y,1/2+z
loop_
_atom_site_type_symbol
_atom_site_label
_atom_site_fract_x
_atom_site_fract_y
_atom_site_fract_z
Si Si1 0.926868 0.347013 0.040421
Si Si2 0.438100 0.060013 0.597402
Si Si3 0.917827 0.164509 0.059918
Si Si4 0.187867 0.333714 0.882406
Si Si5 0.428542 0.440920 0.255688
O O1 0.926653 0.256517 0.082603
O O2 0.752164 0.367998 0.055239
O O3 0.020882 0.404536 0.122465
O O4 0.013429 0.341856 0.916494
O O5 0.522108 0.141333 0.568344
O O6 0.268833 0.086407 0.574381
O O7 0.500000 0.000000 0.500000
O O8 0.480867 0.019309 0.718118
O O9 0.016592 0.122554 0.158894
O O10 0.250000 0.250000 0.934817
O O11 0.250000 0.331884 0.750000
O O12 0.250000 0.453627 0.250000
#
# Coordination Sequence:
#
# PCOD9391108 Si02
#       5
#     8   8   8   8   8
#     4  11  22  41  70 100 136 186 244 302 362 433
#     4  10  22  42  63  95 143 177 224 295 361 433
#     4  10  22  41  66 101 143 185 238 298 364 446
#     4  11  24  44  71  98 132 191 253 299 355 445
#     4  11  24  39  65 104 144 189 230 296 372 439
#
# _framework density 23.086048999999999
#
# number of rings (size 3 to 8) (size 9 to 14) (size 15 to 20)
#    0.000    1.400    2.000    3.600    0.000    7.200 
#    0.000    6.000    0.000    0.000    0.000    0.000 
#    0.000    0.000    0.000    0.000    0.000    0.000 
#
# Total GULP energy -223020.571144 kJ/mol
# GULP energy per Si atom -5575.514279 kJ/mol
# Density = 2.303350 g / cm^3
# Si number density = 23.086049 Si / 1000 Ang^3
#
#
#
# Elastic Constant Matrix: (Units=GPa)
#
#
# Indices 1 2 3 4 5 6 
#
# 1 127.6195 21.1535 21.9846 0.0000 0.0000 0.0000
# 2 21.1535 85.5392 20.6604 0.0000 0.0000 0.0000
# 3 21.9846 20.6604 76.0929 0.0000 0.0000 0.0000
# 4 0.0000 0.0000 0.0000 40.7815 0.0000 0.0000
# 5 0.0000 0.0000 0.0000 0.0000 28.5965 0.0000
# 6 0.0000 0.0000 0.0000 0.0000 0.0000 37.3189
#
#
#
# Elastic Compliance Matrix: (Units=1/GPa)
#
#
# Indices 1 2 3 4 5 6 
#
# 1 0.008447 -0.001605 -0.002005 0.000000 0.000000 0.000000
# 2 -0.001605 0.012816 -0.003016 0.000000 0.000000 0.000000
# 3 -0.002005 -0.003016 0.014540 0.000000 0.000000 0.000000
# 4 0.000000 0.000000 0.000000 0.024521 0.000000 0.000000
# 5 0.000000 0.000000 0.000000 0.000000 0.034969 0.000000
# 6 0.000000 0.000000 0.000000 0.000000 0.000000 0.026796
#
#
# Mechanical properties :
#
#
# Convention : Reuss Voigt Hill
#
# Bulk Modulus (GPa) = 44.34247 46.31651 45.32949
# Shear Modulus (GPa) = 34.99984 36.36958 35.68471
#
# Velocity S-wave (km/s) = 3.89789 3.97343 3.93584
# Velocity P-wave (km/s) = 6.28547 6.41537 6.35075
#
# Compressibility (1/GPa) = 0.02255174
#
# Stress axis : x y z
#
# Youngs Moduli (GPa) = 118.38314 78.02826 68.77591
#
# Poissons Ratio (x) = 0.12521 0.13788
# Poissons Ratio (y) = 0.18997 0.20743
# Poissons Ratio (z) = 0.23734 0.23534
#
# Static dielectric constant tensor:
#      x y z
#    x 1.923100 0.000000 0.000000 
#    y 0.000000 1.940630 0.000000 
#    z 0.000000 0.000000 1.969760 
# 
# From -- ./inp_files/10675.got.cif
#   From: 2010.05.17/outbox.cif.g08.bks.cpg/sg48_6_cif.got.tgz:10675.got - 2010.06.03 20:39:00.
