data_PCOD9391262
_publ_section_title
;
Structure prediction by ZEFSAII (Michael W. Deem and Ramdas Pophale) SiO2 
 PCOD9391262
Probable space group: P N N N
;
_chemical_formula_sum "Si O2"
_cell_formula_units_Z 48
_cell_length_a 9.433881
_cell_length_b 26.907416
_cell_length_c 8.344316
_cell_angle_alpha 90.000000
_cell_angle_beta 90.000000
_cell_angle_gamma 90.000000
_cell_volume 2118.132526
_symmetry_space_group_name_H-M "P N N N"
_symmetry_group_IT_number 48
_space_group.IT_coordinate_system_code '2'
_symmetry_cell_setting 'orthorhombic'
loop_
_space_group_symop_operation_xyz
x,y,z
1/2-x,1/2-y,z
x,1/2-y,1/2-z
1/2-x,y,1/2-z
-x,-y,-z
1/2+x,1/2+y,-z
-x,1/2+y,1/2+z
1/2+x,-y,1/2+z
loop_
_atom_site_type_symbol
_atom_site_label
_atom_site_fract_x
_atom_site_fract_y
_atom_site_fract_z
Si Si1 0.223237 0.526415 0.065114
Si Si2 0.750000 0.250000 0.508678
Si Si3 0.541308 0.086335 0.378183
Si Si4 0.220010 0.144044 0.061287
Si Si5 0.750000 0.169976 0.250000
Si Si6 0.750000 0.750000 0.051518
Si Si7 0.944182 0.569420 0.978301
Si Si8 0.992124 0.250000 0.750000
O O1 0.250000 0.515153 0.250000
O O2 0.155858 0.477593 0.983097
O O3 0.358204 0.548314 0.972269
O O4 0.096071 0.566448 0.060728
O O5 0.802191 0.205967 0.392507
O O6 0.879197 0.269595 0.619150
O O7 0.412120 0.108681 0.479551
O O8 0.631681 0.133886 0.320833
O O9 0.480460 0.064634 0.211926
O O10 0.250000 0.138971 0.250000
O O11 0.358577 0.119139 0.985257
O O12 0.188136 0.201826 0.034370
O O13 0.615591 0.775571 0.143082
#
# Coordination Sequence:
#
# PCOD9391262 Si02
#       8
#     8   4   8   8   4   4   8   4
#     4  11  23  43  69  98 133 179 217 284 342 402
#     4  10  24  44  70  94 126 186 232 268 344 392
#     4  11  22  44  65 100 134 171 231 282 330 404
#     4  10  23  41  68  98 128 181 231 275 321 409
#     4  11  22  42  72  94 126 180 236 279 316 414
#     4  11  23  44  64  97 144 173 208 279 350 391
#     4  10  23  44  67  96 137 173 228 280 335 401
#     4  10  24  44  62  96 136 172 216 292 332 404
#
# _framework density 22.661472
#
# number of rings (size 3 to 8) (size 9 to 14) (size 15 to 20)
#    0.000    1.500    1.667    2.750    4.667    2.667 
#   15.000    1.667    0.000    0.000    0.000    0.000 
#    0.000    0.000    0.000    0.000    0.000    0.000 
#
# Total GULP energy -267540.955895 kJ/mol
# GULP energy per Si atom -5573.769914 kJ/mol
# Density = 2.260989 g / cm^3
# Si number density = 22.661472 Si / 1000 Ang^3
#
#
#
# Elastic Constant Matrix: (Units=GPa)
#
#
# Indices 1 2 3 4 5 6 
#
# 1 119.4769 30.3891 17.0945 0.0000 0.0000 0.0000
# 2 30.3891 82.2796 1.4378 0.0000 0.0000 0.0000
# 3 17.0945 1.4378 27.1462 0.0000 0.0000 0.0000
# 4 0.0000 0.0000 0.0000 113.3732 0.0000 0.0000
# 5 0.0000 0.0000 0.0000 0.0000 13.3684 0.0000
# 6 0.0000 0.0000 0.0000 0.0000 0.0000 32.9749
#
#
#
# Elastic Compliance Matrix: (Units=1/GPa)
#
#
# Indices 1 2 3 4 5 6 
#
# 1 0.010190 -0.003655 -0.006223 0.000000 0.000000 0.000000
# 2 -0.003655 0.013476 0.001588 0.000000 0.000000 0.000000
# 3 -0.006223 0.001588 0.040672 0.000000 0.000000 0.000000
# 4 0.000000 0.000000 0.000000 0.008820 0.000000 0.000000
# 5 0.000000 0.000000 0.000000 0.000000 0.074803 0.000000
# 6 0.000000 0.000000 0.000000 0.000000 0.000000 0.030326
#
#
# Mechanical properties :
#
#
# Convention : Reuss Voigt Hill
#
# Bulk Modulus (GPa) = 20.93907 36.30505 28.62206
# Shear Modulus (GPa) = 23.72061 43.94206 33.83133
#
# Velocity S-wave (km/s) = 3.23884 4.40826 3.86800
# Velocity P-wave (km/s) = 4.82149 6.47809 5.71019
#
# Compressibility (1/GPa) = 0.04775762
#
# Stress axis : x y z
#
# Youngs Moduli (GPa) = 98.13730 74.20725 24.58669
#
# Poissons Ratio (x) = 0.27121 0.15301
# Poissons Ratio (y) = 0.35867 -0.03904
# Poissons Ratio (z) = 0.61073 -0.11782
#
# Static dielectric constant tensor:
#      x y z
#    x 1.894700 0.000000 0.000000 
#    y 0.000000 1.852740 0.000000 
#    z 0.000000 0.000000 1.908950 
# 
# From -- ./inp_files/9543.got.cif
#   From: 2010.05.17/outbox.cif.g08.bks.cpg/sg48_5_cif.got.tgz:9543.got - 2010.06.03 20:39:00.
