data_PCOD9391520
_publ_section_title
;
Structure prediction by ZEFSAII (Michael W. Deem and Ramdas Pophale) SiO2 
 PCOD9391520
Probable space group: P N N N
;
_chemical_formula_sum "Si O2"
_cell_formula_units_Z 40
_cell_length_a 19.435361
_cell_length_b 8.756872
_cell_length_c 11.940661
_cell_angle_alpha 90.000000
_cell_angle_beta 90.000000
_cell_angle_gamma 90.000000
_cell_volume 2032.216542
_symmetry_space_group_name_H-M "P N N N"
_symmetry_group_IT_number 48
_space_group.IT_coordinate_system_code '2'
_symmetry_cell_setting 'orthorhombic'
loop_
_space_group_symop_operation_xyz
x,y,z
1/2-x,1/2-y,z
x,1/2-y,1/2-z
1/2-x,y,1/2-z
-x,-y,-z
1/2+x,1/2+y,-z
-x,1/2+y,1/2+z
1/2+x,-y,1/2+z
loop_
_atom_site_type_symbol
_atom_site_label
_atom_site_fract_x
_atom_site_fract_y
_atom_site_fract_z
Si Si1 0.827174 0.796296 0.105109
Si Si2 0.551254 0.364168 0.844903
Si Si3 0.980073 0.340913 0.060274
Si Si4 0.093048 0.031447 0.733502
Si Si5 0.379750 0.183826 0.362667
O O1 0.750000 0.750000 0.132826
O O2 0.850861 0.952530 0.167167
O O3 0.879542 0.665099 0.150267
O O4 0.835466 0.800258 0.973327
O O5 0.577627 0.250000 0.750000
O O6 0.478206 0.424516 0.795492
O O7 0.599981 0.508060 0.853522
O O8 0.541902 0.277720 0.963263
O O9 0.924180 0.386599 0.155329
O O10 0.048471 0.274752 0.117464
O O11 0.000000 0.500000 0.000000
O O12 0.347863 0.250000 0.250000
#
# Coordination Sequence:
#
# PCOD9391520 Si02
#       5
#     8   8   8   8   8
#     4  11  23  41  61  89 128 172 219 254 298 404
#     4  12  21  35  59  98 133 159 200 274 337 380
#     4  12  19  34  58  96 130 156 201 272 328 384
#     4  11  19  37  62  92 122 159 211 255 332 350
#     4  12  23  36  62  98 126 165 211 262 336 378
#
# _framework density 19.682941
#
# number of rings (size 3 to 8) (size 9 to 14) (size 15 to 20)
#    0.000    0.400   10.000    1.800    0.000    0.400 
#    0.000    0.000    0.000    1.200    5.200    0.000 
#    0.000    0.000    0.000    0.000    0.000    0.000 
#
# Total GULP energy -223333.670006 kJ/mol
# GULP energy per Si atom -5583.341750 kJ/mol
# Density = 1.963814 g / cm^3
# Si number density = 19.682941 Si / 1000 Ang^3
#
#
#
# Elastic Constant Matrix: (Units=GPa)
#
#
# Indices 1 2 3 4 5 6 
#
# 1 64.7416 21.8190 45.5405 0.0000 0.0000 0.0000
# 2 21.8190 65.6685 45.9722 0.0000 0.0000 0.0000
# 3 45.5405 45.9722 187.0947 0.0000 0.0000 0.0000
# 4 0.0000 0.0000 0.0000 44.0951 0.0000 0.0000
# 5 0.0000 0.0000 0.0000 0.0000 -2.8035 0.0000
# 6 0.0000 0.0000 0.0000 0.0000 0.0000 11.7877
#
#
#
# Elastic Compliance Matrix: (Units=1/GPa)
#
#
# Indices 1 2 3 4 5 6 
#
# 1 0.019388 -0.003790 -0.003788 0.000000 0.000000 0.000000
# 2 -0.003790 0.019133 -0.003779 0.000000 0.000000 0.000000
# 3 -0.003788 -0.003779 0.007195 0.000000 0.000000 0.000000
# 4 0.000000 0.000000 0.000000 0.022678 0.000000 0.000000
# 5 0.000000 0.000000 0.000000 0.000000 -0.356696 0.000000
# 6 0.000000 0.000000 0.000000 0.000000 0.000000 0.084834
#
#
# Mechanical properties :
#
#
# Convention : Reuss Voigt Hill
#
# Bulk Modulus (GPa) = 43.47334 60.46315 51.96824
# Shear Modulus (GPa) = -28.88727 24.22740 -2.32993
#
# Velocity S-wave (km/s) = -3.83512 3.51220 -1.08918
# Velocity P-wave (km/s) = 1.58867 6.87260 4.98781
#
# Compressibility (1/GPa) = 0.02300260
#
# Stress axis : x y z
#
# Youngs Moduli (GPa) = 51.57879 52.26684 138.97826
#
# Poissons Ratio (x) = 0.19809 0.52643
# Poissons Ratio (y) = 0.19549 0.52515
# Poissons Ratio (z) = 0.19537 0.19750
#
# Static dielectric constant tensor:
#      x y z
#    x 1.654610 0.000000 0.000000 
#    y 0.000000 1.711570 0.000000 
#    z 0.000000 0.000000 1.766380 
# 
# From -- ./inp_files/10984.got.cif
#   From: 2010.05.17/outbox.cif.g08.bks.cpg/sg48_6_cif.got.tgz:10984.got - 2010.06.03 20:39:00.
