data_PCOD9391230
_publ_section_title
;
Structure prediction by ZEFSAII (Michael W. Deem and Ramdas Pophale) SiO2 
 PCOD9391230
Probable space group: P N N N
;
_chemical_formula_sum "Si O2"
_cell_formula_units_Z 42
_cell_length_a 14.797389
_cell_length_b 8.856802
_cell_length_c 14.285020
_cell_angle_alpha 90.000000
_cell_angle_beta 90.000000
_cell_angle_gamma 90.000000
_cell_volume 1872.159644
_symmetry_space_group_name_H-M "P N N N"
_symmetry_group_IT_number 48
_space_group.IT_coordinate_system_code '2'
_symmetry_cell_setting 'orthorhombic'
loop_
_space_group_symop_operation_xyz
x,y,z
1/2-x,1/2-y,z
x,1/2-y,1/2-z
1/2-x,y,1/2-z
-x,-y,-z
1/2+x,1/2+y,-z
-x,1/2+y,1/2+z
1/2+x,-y,1/2+z
loop_
_atom_site_type_symbol
_atom_site_label
_atom_site_fract_x
_atom_site_fract_y
_atom_site_fract_z
Si Si1 0.750000 0.750000 0.506926
Si Si2 0.441542 0.859994 0.961442
Si Si3 0.528194 0.098269 0.593320
Si Si4 0.750000 0.250000 0.250000
Si Si5 0.103982 0.250000 0.750000
Si Si6 0.595905 0.706054 0.852610
Si Si7 0.272670 0.491535 0.635648
O O1 0.664255 0.725557 0.571687
O O2 0.775551 0.612025 0.439720
O O3 0.499450 0.777008 0.880527
O O4 0.349529 0.916854 0.917929
O O5 0.427676 0.744628 0.046524
O O6 0.500000 0.000000 0.000000
O O7 0.456277 0.165680 0.669699
O O8 0.500000 0.000000 0.500000
O O9 0.590367 0.975015 0.643311
O O10 0.790652 0.379000 0.318075
O O11 0.168717 0.124895 0.700666
O O12 0.624001 0.750000 0.750000
#
# Coordination Sequence:
#
# PCOD9391230 Si02
#       7
#     4   8   8   2   4   8   8
#     4  12  25  47  66  90 140 186 214 277 349 408
#     4  11  21  43  67  99 128 174 224 277 330 400
#     4  10  23  38  67 100 130 168 221 281 333 390
#     4  12  32  38  64 104 134 172 216 288 344 406
#     4  12  22  43  70  98 129 174 224 278 334 407
#     4  11  24  42  68  99 132 177 231 275 334 407
#     4  12  26  43  67  94 137 173 225 271 345 406
#
# _framework density 22.433986000000001
#
# number of rings (size 3 to 8) (size 9 to 14) (size 15 to 20)
#    0.000    0.762    3.810    3.714    9.333    0.000 
#    0.000    0.000    0.000    0.000    0.000    0.000 
#    0.000    0.000    0.000    0.000    0.000    0.000 
#
# Total GULP energy -234372.132806 kJ/mol
# GULP energy per Si atom -5580.288876 kJ/mol
# Density = 2.238292 g / cm^3
# Si number density = 22.433986 Si / 1000 Ang^3
#
#
#
# Elastic Constant Matrix: (Units=GPa)
#
#
# Indices 1 2 3 4 5 6 
#
# 1 46.0899 10.3124 29.4762 0.0000 0.0000 0.0000
# 2 10.3124 154.6332 66.1309 0.0000 0.0000 0.0000
# 3 29.4762 66.1309 145.0974 0.0000 0.0000 0.0000
# 4 0.0000 0.0000 0.0000 55.5156 0.0000 0.0000
# 5 0.0000 0.0000 0.0000 0.0000 17.1161 0.0000
# 6 0.0000 0.0000 0.0000 0.0000 0.0000 33.0593
#
#
#
# Elastic Compliance Matrix: (Units=1/GPa)
#
#
# Indices 1 2 3 4 5 6 
#
# 1 0.024985 0.000627 -0.005361 0.000000 0.000000 0.000000
# 2 0.000627 0.008048 -0.003795 0.000000 0.000000 0.000000
# 3 -0.005361 -0.003795 0.009711 0.000000 0.000000 0.000000
# 4 0.000000 0.000000 0.000000 0.018013 0.000000 0.000000
# 5 0.000000 0.000000 0.000000 0.000000 0.058425 0.000000
# 6 0.000000 0.000000 0.000000 0.000000 0.000000 0.030249
#
#
# Mechanical properties :
#
#
# Convention : Reuss Voigt Hill
#
# Bulk Modulus (GPa) = 38.93448 61.96216 50.44832
# Shear Modulus (GPa) = 28.56288 37.13160 32.84724
#
# Velocity S-wave (km/s) = 3.57206 4.07277 3.83060
# Velocity P-wave (km/s) = 5.86563 7.05665 6.48853
#
# Compressibility (1/GPa) = 0.02568417
#
# Stress axis : x y z
#
# Youngs Moduli (GPa) = 40.02355 124.24970 102.97703
#
# Poissons Ratio (x) = -0.07785 0.55209
# Poissons Ratio (y) = -0.02508 0.39084
# Poissons Ratio (z) = 0.21458 0.47158
#
# Static dielectric constant tensor:
#      x y z
#    x 1.838730 0.000000 0.000000 
#    y 0.000000 1.811020 0.000000 
#    z 0.000000 0.000000 1.928610 
# 
# From -- ./inp_files/27093.got.cif
#   From: 2010.05.17/outbox.cif.g08.bks.cpg/sg48_14_cif.got.tgz:27093.got - 2010.06.03 20:39:00.
