data_PCOD9391270
_publ_section_title
;
Structure prediction by ZEFSAII (Michael W. Deem and Ramdas Pophale) SiO2 
 PCOD9391270
Probable space group: P N N N
;
_chemical_formula_sum "Si O2"
_cell_formula_units_Z 42
_cell_length_a 17.996908
_cell_length_b 12.434316
_cell_length_c 9.221263
_cell_angle_alpha 90.000000
_cell_angle_beta 90.000000
_cell_angle_gamma 90.000000
_cell_volume 2063.527236
_symmetry_space_group_name_H-M "P N N N"
_symmetry_group_IT_number 48
_space_group.IT_coordinate_system_code '2'
_symmetry_cell_setting 'orthorhombic'
loop_
_space_group_symop_operation_xyz
x,y,z
1/2-x,1/2-y,z
x,1/2-y,1/2-z
1/2-x,y,1/2-z
-x,-y,-z
1/2+x,1/2+y,-z
-x,1/2+y,1/2+z
1/2+x,-y,1/2+z
loop_
_atom_site_type_symbol
_atom_site_label
_atom_site_fract_x
_atom_site_fract_y
_atom_site_fract_z
Si Si1 0.750000 0.250000 0.750000
Si Si2 0.012740 0.296437 0.899578
Si Si3 0.529010 0.098441 0.408490
Si Si4 0.334925 0.879294 0.772447
Si Si5 0.636211 0.415466 0.605362
Si Si6 0.601232 0.857653 0.821272
O O1 0.695469 0.327642 0.659436
O O2 0.044634 0.250000 0.750000
O O3 0.948515 0.381012 0.859021
O O4 0.970534 0.202005 0.987693
O O5 0.072885 0.338375 0.014327
O O6 0.609206 0.073029 0.344511
O O7 0.472445 0.123306 0.277137
O O8 0.500000 0.000000 0.500000
O O9 0.341283 0.750000 0.750000
O O10 0.250000 0.909620 0.750000
O O11 0.359037 0.914247 0.931855
O O12 0.648052 0.532825 0.674581
O O13 0.635797 0.750000 0.750000
#
# Coordination Sequence:
#
# PCOD9391270 Si02
#       6
#     2   8   8   8   8   8
#     4  12  28  40  64 108 128 172 224 274 344 428
#     4  11  21  36  61  96 132 165 222 278 329 394
#     4  11  22  36  60  94 134 175 225 276 335 402
#     4  11  22  38  60  90 135 178 216 270 345 416
#     4  12  23  40  66  92 139 173 221 275 338 401
#     4  10  23  42  63  96 128 173 223 275 338 391
#
# _framework density 20.353497999999998
#
# number of rings (size 3 to 8) (size 9 to 14) (size 15 to 20)
#    0.000    0.952    4.762    3.429    2.667    0.000 
#    0.000    0.476    0.000    0.000    0.000    2.667 
#    0.000    0.000    0.000    0.000    0.000    0.000 
#
# Total GULP energy -234808.542377 kJ/mol
# GULP energy per Si atom -5590.679580 kJ/mol
# Density = 2.030717 g / cm^3
# Si number density = 20.353498 Si / 1000 Ang^3
#
#
#
# Elastic Constant Matrix: (Units=GPa)
#
#
# Indices 1 2 3 4 5 6 
#
# 1 56.3283 34.2095 27.8592 0.0000 0.0000 0.0000
# 2 34.2095 133.1733 36.8559 0.0000 0.0000 0.0000
# 3 27.8592 36.8559 113.5375 0.0000 0.0000 0.0000
# 4 0.0000 0.0000 0.0000 32.8085 0.0000 0.0000
# 5 0.0000 0.0000 0.0000 0.0000 11.8613 0.0000
# 6 0.0000 0.0000 0.0000 0.0000 0.0000 20.1525
#
#
#
# Elastic Compliance Matrix: (Units=1/GPa)
#
#
# Indices 1 2 3 4 5 6 
#
# 1 0.022590 -0.004690 -0.004020 0.000000 0.000000 0.000000
# 2 -0.004690 0.009224 -0.001843 0.000000 0.000000 0.000000
# 3 -0.004020 -0.001843 0.010393 0.000000 0.000000 0.000000
# 4 0.000000 0.000000 0.000000 0.030480 0.000000 0.000000
# 5 0.000000 0.000000 0.000000 0.000000 0.084308 0.000000
# 6 0.000000 0.000000 0.000000 0.000000 0.000000 0.049622
#
#
# Mechanical properties :
#
#
# Convention : Reuss Voigt Hill
#
# Bulk Modulus (GPa) = 47.39699 55.65425 51.52562
# Shear Modulus (GPa) = 21.29861 26.57208 23.93534
#
# Velocity S-wave (km/s) = 3.23837 3.61713 3.43298
# Velocity P-wave (km/s) = 6.10903 6.69687 6.40969
#
# Compressibility (1/GPa) = 0.02109839
#
# Stress axis : x y z
#
# Youngs Moduli (GPa) = 44.26730 108.41282 96.22257
#
# Poissons Ratio (x) = 0.50848 0.38686
# Poissons Ratio (y) = 0.20762 0.17737
# Poissons Ratio (z) = 0.17798 0.19985
#
# Static dielectric constant tensor:
#      x y z
#    x 1.718750 0.000000 0.000000 
#    y 0.000000 1.788210 0.000000 
#    z 0.000000 0.000000 1.725240 
# 
# From -- ./inp_files/11040.got.cif
#   From: 2010.05.17/outbox.cif.g08.bks.cpg/sg48_6_cif.got.tgz:11040.got - 2010.06.03 20:39:00.
