data_PCOD9391821
_publ_section_title
;
Structure prediction by ZEFSAII (Michael W. Deem and Ramdas Pophale) SiO2 
 PCOD9391821
Probable space group: P N N N
;
_chemical_formula_sum "Si O2"
_cell_formula_units_Z 38
_cell_length_a 18.048517
_cell_length_b 11.049058
_cell_length_c 8.557588
_cell_angle_alpha 90.000000
_cell_angle_beta 90.000000
_cell_angle_gamma 90.000000
_cell_volume 1706.546593
_symmetry_space_group_name_H-M "P N N N"
_symmetry_group_IT_number 48
_space_group.IT_coordinate_system_code '2'
_symmetry_cell_setting 'orthorhombic'
loop_
_space_group_symop_operation_xyz
x,y,z
1/2-x,1/2-y,z
x,1/2-y,1/2-z
1/2-x,y,1/2-z
-x,-y,-z
1/2+x,1/2+y,-z
-x,1/2+y,1/2+z
1/2+x,-y,1/2+z
loop_
_atom_site_type_symbol
_atom_site_label
_atom_site_fract_x
_atom_site_fract_y
_atom_site_fract_z
Si Si1 0.422221 0.750000 0.250000
Si Si2 0.250000 0.750000 0.750000
Si Si3 0.541607 0.878107 0.468381
Si Si4 0.621383 0.750000 0.750000
Si Si5 0.750000 0.948903 0.750000
Si Si6 0.673104 0.413541 0.508334
Si Si7 0.836302 0.895869 0.266529
O O1 0.480415 0.809668 0.367552
O O2 0.373493 0.657176 0.357436
O O3 0.301741 0.672936 0.632668
O O4 0.570366 0.790524 0.605688
O O5 0.613307 0.928295 0.377482
O O6 0.500000 0.000000 0.500000
O O7 0.678363 0.862947 0.764874
O O8 0.755176 0.033832 0.599073
O O9 0.637220 0.531033 0.420208
O O10 0.841500 0.750000 0.250000
O O11 0.750000 0.924669 0.250000
#
# Coordination Sequence:
#
# PCOD9391821 Si02
#       7
#     4   2   8   4   4   8   8
#     4  12  30  47  73 110 166 212 256 320 412 498
#     4  12  28  44  78 114 152 206 254 326 404 484
#     4  12  28  48  73 113 160 208 257 316 396 481
#     4  11  26  47  80 111 151 202 264 324 395 465
#     4  11  24  49  78 114 148 193 263 344 390 456
#     4  12  26  47  77 111 157 201 262 323 409 475
#     4  11  24  47  80 113 146 199 271 331 388 461
#
# _framework density 22.267192999999999
#
# number of rings (size 3 to 8) (size 9 to 14) (size 15 to 20)
#    0.000    0.421    2.105    5.053    5.895    4.211 
#    0.000    0.000    0.000    0.000    0.000    0.000 
#    0.000    0.000    0.000    0.000    0.000    0.000 
#
# Total GULP energy -211961.823832 kJ/mol
# GULP energy per Si atom -5577.942732 kJ/mol
# Density = 2.221651 g / cm^3
# Si number density = 22.267193 Si / 1000 Ang^3
#
#
#
# Elastic Constant Matrix: (Units=GPa)
#
#
# Indices 1 2 3 4 5 6 
#
# 1 142.8765 75.5597 92.2613 0.0000 0.0000 0.0000
# 2 75.5597 138.3859 102.0513 0.0000 0.0000 0.0000
# 3 92.2613 102.0513 197.3521 0.0000 0.0000 0.0000
# 4 0.0000 0.0000 0.0000 58.3938 0.0000 0.0000
# 5 0.0000 0.0000 0.0000 0.0000 38.2747 0.0000
# 6 0.0000 0.0000 0.0000 0.0000 0.0000 51.4912
#
#
#
# Elastic Compliance Matrix: (Units=1/GPa)
#
#
# Indices 1 2 3 4 5 6 
#
# 1 0.011027 -0.003587 -0.003300 0.000000 0.000000 0.000000
# 2 -0.003587 0.012847 -0.004966 0.000000 0.000000 0.000000
# 3 -0.003300 -0.004966 0.009178 0.000000 0.000000 0.000000
# 4 0.000000 0.000000 0.000000 0.017125 0.000000 0.000000
# 5 0.000000 0.000000 0.000000 0.000000 0.026127 0.000000
# 6 0.000000 0.000000 0.000000 0.000000 0.000000 0.019421
#
#
# Mechanical properties :
#
#
# Convention : Reuss Voigt Hill
#
# Bulk Modulus (GPa) = 107.00995 113.15101 110.08048
# Shear Modulus (GPa) = 40.80046 43.54810 42.17428
#
# Velocity S-wave (km/s) = 4.28520 4.42713 4.35674
# Velocity P-wave (km/s) = 8.52323 8.77828 8.65169
#
# Compressibility (1/GPa) = 0.00934493
#
# Stress axis : x y z
#
# Youngs Moduli (GPa) = 90.68461 77.83817 108.95613
#
# Poissons Ratio (x) = 0.27922 0.35958
# Poissons Ratio (y) = 0.32531 0.54111
# Poissons Ratio (z) = 0.29928 0.38657
#
# Static dielectric constant tensor:
#      x y z
#    x 1.814740 0.000000 0.000000 
#    y 0.000000 1.869260 0.000000 
#    z 0.000000 0.000000 1.838750 
# 
# From -- ./inp_files/13869.got.cif
#   From: 2010.05.17/outbox.cif.g08.bks.cpg/sg48_7_cif.got.tgz:13869.got - 2010.06.03 20:39:00.
