data_PCOD9391907
_publ_section_title
;
Structure prediction by ZEFSAII (Michael W. Deem and Ramdas Pophale) SiO2 
 PCOD9391907
Probable space group: P N N N
;
_chemical_formula_sum "Si O2"
_cell_formula_units_Z 32
_cell_length_a 13.808616
_cell_length_b 18.248328
_cell_length_c 4.964211
_cell_angle_alpha 90.000000
_cell_angle_beta 90.000000
_cell_angle_gamma 90.000000
_cell_volume 1250.902509
_symmetry_space_group_name_H-M "P N N N"
_symmetry_group_IT_number 48
_space_group.IT_coordinate_system_code '2'
_symmetry_cell_setting 'orthorhombic'
loop_
_space_group_symop_operation_xyz
x,y,z
1/2-x,1/2-y,z
x,1/2-y,1/2-z
1/2-x,y,1/2-z
-x,-y,-z
1/2+x,1/2+y,-z
-x,1/2+y,1/2+z
1/2+x,-y,1/2+z
loop_
_atom_site_type_symbol
_atom_site_label
_atom_site_fract_x
_atom_site_fract_y
_atom_site_fract_z
Si Si1 0.750000 0.551442 0.250000
Si Si2 0.888101 0.678353 0.074376
Si Si3 0.103787 0.857654 0.542876
Si Si4 0.250000 0.250000 0.250000
Si Si5 0.398912 0.543794 0.048844
Si Si6 0.750000 0.250000 0.750000
O O1 0.839480 0.605144 0.181197
O O2 0.696691 0.500575 0.032828
O O3 0.857000 0.750000 0.250000
O O4 0.000811 0.677483 0.030763
O O5 0.833229 0.688764 0.796532
O O6 0.102895 0.884938 0.850500
O O7 0.185473 0.802193 0.441824
O O8 0.106829 0.929775 0.355112
O O9 0.500000 0.500000 0.000000
#
# Coordination Sequence:
#
# PCOD9391907 Si02
#       6
#     4   8   8   2   8   2
#     4  12  25  48  76 103 160 196 256 316 386 459
#     4  12  26  47  72 116 147 199 255 323 388 459
#     4  12  29  51  79 114 156 204 267 320 396 474
#     4  12  26  40  78 112 148 192 258 314 398 454
#     4  12  28  50  75 115 155 210 259 323 388 477
#     4  12  28  54  86 112 164 214 266 342 400 480
#
# _framework density 25.581527999999999
#
# number of rings (size 3 to 8) (size 9 to 14) (size 15 to 20)
#    0.000    0.000    6.250    2.250    7.000    2.000 
#    0.000    0.000    0.000    0.000    0.000    0.000 
#    0.000    0.000    0.000    0.000    0.000    0.000 
#
# Total GULP energy -178912.832436 kJ/mol
# GULP energy per Si atom -5591.026014 kJ/mol
# Density = 2.552330 g / cm^3
# Si number density = 25.581528 Si / 1000 Ang^3
#
#
#
# Elastic Constant Matrix: (Units=GPa)
#
#
# Indices 1 2 3 4 5 6 
#
# 1 218.6043 52.9411 10.0936 0.0000 0.0000 0.0000
# 2 52.9411 74.2595 -8.2331 0.0000 0.0000 0.0000
# 3 10.0936 -8.2331 38.8916 0.0000 0.0000 0.0000
# 4 0.0000 0.0000 0.0000 41.0971 0.0000 0.0000
# 5 0.0000 0.0000 0.0000 0.0000 49.1397 0.0000
# 6 0.0000 0.0000 0.0000 0.0000 0.0000 74.5119
#
#
#
# Elastic Compliance Matrix: (Units=1/GPa)
#
#
# Indices 1 2 3 4 5 6 
#
# 1 0.005742 -0.004361 -0.002414 0.000000 0.000000 0.000000
# 2 -0.004361 0.017102 0.004752 0.000000 0.000000 0.000000
# 3 -0.002414 0.004752 0.027345 0.000000 0.000000 0.000000
# 4 0.000000 0.000000 0.000000 0.024333 0.000000 0.000000
# 5 0.000000 0.000000 0.000000 0.000000 0.020350 0.000000
# 6 0.000000 0.000000 0.000000 0.000000 0.000000 0.013421
#
#
# Mechanical properties :
#
#
# Convention : Reuss Voigt Hill
#
# Bulk Modulus (GPa) = 21.67099 49.03985 35.35542
# Shear Modulus (GPa) = 39.14836 51.41332 45.28084
#
# Velocity S-wave (km/s) = 3.91620 4.48792 4.21177
# Velocity P-wave (km/s) = 5.37945 6.78726 6.12395
#
# Compressibility (1/GPa) = 0.04614465
#
# Stress axis : x y z
#
# Youngs Moduli (GPa) = 174.15196 58.47135 36.56982
#
# Poissons Ratio (x) = 0.25501 0.08826
# Poissons Ratio (y) = 0.75952 -0.17379
# Poissons Ratio (z) = 0.42032 -0.27788
#
# Static dielectric constant tensor:
#      x y z
#    x 1.920010 0.000000 0.000000 
#    y 0.000000 2.053700 0.000000 
#    z 0.000000 0.000000 2.277700 
# 
# From -- ./inp_files/3111.got.cif
#   From: 2010.05.17/outbox.cif.g08.bks.cpg/sg48_2_cif.got.tgz:3111.got - 2010.06.03 20:39:00.
