data_PCOD9391778
_publ_section_title
;
Structure prediction by ZEFSAII (Michael W. Deem and Ramdas Pophale) SiO2 
 PCOD9391778
Probable space group: P N N N
;
_chemical_formula_sum "Si O2"
_cell_formula_units_Z 48
_cell_length_a 6.933772
_cell_length_b 28.550740
_cell_length_c 6.933773
_cell_angle_alpha 90.000000
_cell_angle_beta 90.000000
_cell_angle_gamma 90.000000
_cell_volume 1372.639668
_symmetry_space_group_name_H-M "P N N N"
_symmetry_group_IT_number 48
_space_group.IT_coordinate_system_code '2'
_symmetry_cell_setting 'orthorhombic'
loop_
_space_group_symop_operation_xyz
x,y,z
1/2-x,1/2-y,z
x,1/2-y,1/2-z
1/2-x,y,1/2-z
-x,-y,-z
1/2+x,1/2+y,-z
-x,1/2+y,1/2+z
1/2+x,-y,1/2+z
loop_
_atom_site_type_symbol
_atom_site_label
_atom_site_fract_x
_atom_site_fract_y
_atom_site_fract_z
Si Si1 0.523170 0.052295 0.750000
Si Si2 0.500000 0.125000 0.500000
Si Si3 0.250000 0.802295 0.976830
Si Si4 0.250000 0.302295 0.523170
Si Si5 0.023170 0.447705 0.250000
Si Si6 0.500000 0.875000 1.000000
O O1 0.750000 0.048092 0.750000
O O2 0.500000 0.064456 0.500000
O O3 0.438524 0.000000 0.750000
O O4 0.500000 0.064456 0.000000
O O5 0.750000 0.137627 0.524480
O O6 0.500000 0.185544 0.500000
O O7 0.475520 0.112373 0.750000
O O8 0.250000 0.750000 0.061476
O O9 0.250000 0.798092 0.750000
O O10 0.500000 0.814456 0.000000
O O11 0.250000 0.250000 0.438524
O O12 0.250000 0.298092 0.750000
O O13 0.250000 0.362373 0.475520
O O14 0.250000 0.451908 0.250000
O O15 0.975520 0.387627 0.250000
#
# Coordination Sequence:
#
# PCOD9391778 Si02
#       6
#     8   8   8   8   8   8
#     4  11  24  41  64  93 127 163 205 255 308 367
#     4  12  22  44  64  94 124 164 206 252 312 362
#     4  11  24  41  64  93 127 163 205 255 308 367
#     4  11  24  41  64  93 127 163 205 255 308 367
#     4  11  24  41  64  93 127 163 205 255 308 367
#     4  12  22  44  64  94 124 164 206 252 312 362
#
# _framework density 34.969116999999997
#
# number of rings (size 3 to 8) (size 9 to 14) (size 15 to 20)
#    0.000    0.667    6.667    2.000    0.000    0.000 
#    0.000    3.333    0.000    0.000    0.000    0.000 
#    0.000    0.000    0.000    0.000    0.000    0.000 
#
# Total GULP energy -268722.032238 kJ/mol
# GULP energy per Si atom -5598.375672 kJ/mol
# Density = 3.488953 g / cm^3
# Si number density = 34.969117 Si / 1000 Ang^3
#
#
#
# Elastic Constant Matrix: (Units=GPa)
#
#
# Indices 1 2 3 4 5 6 
#
# 1 419.2167 157.0980 113.0413 0.0000 0.0000 0.0000
# 2 157.0980 526.0930 157.0980 0.0000 0.0000 0.0000
# 3 113.0413 157.0980 419.2165 0.0000 0.0000 0.0000
# 4 0.0000 0.0000 0.0000 -36.6743 0.0000 0.0000
# 5 0.0000 0.0000 0.0000 0.0000 118.7476 0.0000
# 6 0.0000 0.0000 0.0000 0.0000 0.0000 -36.6738
#
#
#
# Elastic Compliance Matrix: (Units=1/GPa)
#
#
# Indices 1 2 3 4 5 6 
#
# 1 0.002773 -0.000681 -0.000493 0.000000 0.000000 0.000000
# 2 -0.000681 0.002308 -0.000681 0.000000 0.000000 0.000000
# 3 -0.000493 -0.000681 0.002773 0.000000 0.000000 0.000000
# 4 0.000000 0.000000 0.000000 -0.027267 0.000000 0.000000
# 5 0.000000 0.000000 0.000000 0.000000 0.008421 0.000000
# 6 0.000000 0.000000 0.000000 0.000000 0.000000 -0.027267
#
#
# Mechanical properties :
#
#
# Convention : Reuss Voigt Hill
#
# Bulk Modulus (GPa) = 241.26051 246.55562 243.90807
# Shear Modulus (GPa) = -150.74990 71.56583 -39.59204
#
# Velocity S-wave (km/s) = -6.57290 4.52878 -3.36847
# Velocity P-wave (km/s) = 3.39679 9.89981 7.40082
#
# Compressibility (1/GPa) = 0.00414490
#
# Stress axis : x y z
#
# Youngs Moduli (GPa) = 360.55909 433.35685 360.55888
#
# Poissons Ratio (x) = 0.29515 0.17762
# Poissons Ratio (y) = 0.24557 0.24557
# Poissons Ratio (z) = 0.17762 0.29515
#
# Static dielectric constant tensor:
#      x y z
#    x 2.879550 0.000000 0.000000 
#    y 0.000000 2.521230 0.000000 
#    z 0.000000 0.000000 2.879560 
# 
# From -- ./inp_files/9471.got.cif
#   From: 2010.05.17/outbox.cif.g08.bks.cpg/sg48_5_cif.got.tgz:9471.got - 2010.06.03 20:39:00.
