data_PCOD9391574
_publ_section_title
;
Structure prediction by ZEFSAII (Michael W. Deem and Ramdas Pophale) SiO2 
 PCOD9391574
Probable space group: P N N N
;
_chemical_formula_sum "Si O2"
_cell_formula_units_Z 48
_cell_length_a 18.208677
_cell_length_b 8.982246
_cell_length_c 13.455143
_cell_angle_alpha 90.000000
_cell_angle_beta 90.000000
_cell_angle_gamma 90.000000
_cell_volume 2200.653440
_symmetry_space_group_name_H-M "P N N N"
_symmetry_group_IT_number 48
_space_group.IT_coordinate_system_code '2'
_symmetry_cell_setting 'orthorhombic'
loop_
_space_group_symop_operation_xyz
x,y,z
1/2-x,1/2-y,z
x,1/2-y,1/2-z
1/2-x,y,1/2-z
-x,-y,-z
1/2+x,1/2+y,-z
-x,1/2+y,1/2+z
1/2+x,-y,1/2+z
loop_
_atom_site_type_symbol
_atom_site_label
_atom_site_fract_x
_atom_site_fract_y
_atom_site_fract_z
Si Si1 0.577603 0.750000 0.750000
Si Si2 0.495555 0.238655 0.621219
Si Si3 0.629350 0.538703 0.200473
Si Si4 0.250000 0.750000 0.250000
Si Si5 0.109787 0.999060 0.577754
Si Si6 0.959920 0.315986 0.413602
Si Si7 0.866087 0.044571 0.643530
Si Si8 0.250000 0.250000 0.750000
O O1 0.525828 0.825352 0.665500
O O2 0.620827 0.612757 0.699004
O O3 0.434029 0.347464 0.576308
O O4 0.525753 0.143869 0.528098
O O5 0.561556 0.348137 0.654098
O O6 0.448317 0.128737 0.691714
O O7 0.646312 0.492895 0.313913
O O8 0.611413 0.400144 0.130247
O O9 0.695899 0.651472 0.180998
O O10 0.199038 0.858512 0.313282
O O11 0.149380 0.983527 0.473104
O O12 0.054708 0.860458 0.581874
#
# Coordination Sequence:
#
# PCOD9391574 Si02
#       8
#     4   8   8   2   8   8   8   2
#     4  12  20  39  78 101 132 168 236 310 348 399
#     4  11  21  43  74 109 137 176 241 303 349 410
#     4  12  24  43  67 101 143 191 231 289 353 421
#     4  12  32  52  64  96 150 196 232 272 364 436
#     4  11  20  44  71 104 139 171 232 302 356 405
#     4  11  21  38  72 111 130 171 241 305 355 397
#     4  11  26  46  71 102 140 189 232 294 357 424
#     4  12  28  42  58  92 156 200 226 280 360 442
#
# _framework density 21.811702
#
# number of rings (size 3 to 8) (size 9 to 14) (size 15 to 20)
#    0.000    0.667    6.667    1.500    4.667    0.333 
#    6.000    2.500    0.000    0.000    0.000    0.000 
#    0.000    0.000    0.000    0.000    0.000    0.000 
#
# Total GULP energy -267839.006282 kJ/mol
# GULP energy per Si atom -5579.979298 kJ/mol
# Density = 2.176206 g / cm^3
# Si number density = 21.811702 Si / 1000 Ang^3
#
#
#
# Elastic Constant Matrix: (Units=GPa)
#
#
# Indices 1 2 3 4 5 6 
#
# 1 85.7298 26.3252 46.2346 0.0000 0.0000 0.0000
# 2 26.3252 101.9570 40.6462 0.0000 0.0000 0.0000
# 3 46.2346 40.6462 144.3279 0.0000 0.0000 0.0000
# 4 0.0000 0.0000 0.0000 26.2696 0.0000 0.0000
# 5 0.0000 0.0000 0.0000 0.0000 6.5970 0.0000
# 6 0.0000 0.0000 0.0000 0.0000 0.0000 29.8398
#
#
#
# Elastic Compliance Matrix: (Units=1/GPa)
#
#
# Indices 1 2 3 4 5 6 
#
# 1 0.014500 -0.002131 -0.004045 0.000000 0.000000 0.000000
# 2 -0.002131 0.011362 -0.002517 0.000000 0.000000 0.000000
# 3 -0.004045 -0.002517 0.008933 0.000000 0.000000 0.000000
# 4 0.000000 0.000000 0.000000 0.038067 0.000000 0.000000
# 5 0.000000 0.000000 0.000000 0.000000 0.151585 0.000000
# 6 0.000000 0.000000 0.000000 0.000000 0.000000 0.033512
#
#
# Mechanical properties :
#
#
# Convention : Reuss Voigt Hill
#
# Bulk Modulus (GPa) = 57.44173 62.04741 59.74457
# Shear Modulus (GPa) = 17.78416 27.12852 22.45634
#
# Velocity S-wave (km/s) = 2.85853 3.53052 3.21215
# Velocity P-wave (km/s) = 6.10634 6.71774 6.41932
#
# Compressibility (1/GPa) = 0.01740895
#
# Stress axis : x y z
#
# Youngs Moduli (GPa) = 68.96315 88.01418 111.94124
#
# Poissons Ratio (x) = 0.18760 0.45279
# Poissons Ratio (y) = 0.14699 0.28175
# Poissons Ratio (z) = 0.27895 0.22153
#
# Static dielectric constant tensor:
#      x y z
#    x 1.778580 0.000000 0.000000 
#    y 0.000000 1.844710 0.000000 
#    z 0.000000 0.000000 1.955030 
# 
# From -- ./inp_files/27942.got.cif
#   From: 2010.05.17/outbox.cif.g08.bks.cpg/sg48_14_cif.got.tgz:27942.got - 2010.06.03 20:39:00.
