data_PCOD9391008
_publ_section_title
;
Structure prediction by ZEFSAII (Michael W. Deem and Ramdas Pophale) SiO2 
 PCOD9391008
Probable space group: P N N N
;
_chemical_formula_sum "Si O2"
_cell_formula_units_Z 34
_cell_length_a 17.210771
_cell_length_b 5.062387
_cell_length_c 18.731476
_cell_angle_alpha 90.000000
_cell_angle_beta 90.000000
_cell_angle_gamma 90.000000
_cell_volume 1632.028237
_symmetry_space_group_name_H-M "P N N N"
_symmetry_group_IT_number 48
_space_group.IT_coordinate_system_code '2'
_symmetry_cell_setting 'orthorhombic'
loop_
_space_group_symop_operation_xyz
x,y,z
1/2-x,1/2-y,z
x,1/2-y,1/2-z
1/2-x,y,1/2-z
-x,-y,-z
1/2+x,1/2+y,-z
-x,1/2+y,1/2+z
1/2+x,-y,1/2+z
loop_
_atom_site_type_symbol
_atom_site_label
_atom_site_fract_x
_atom_site_fract_y
_atom_site_fract_z
Si Si1 0.750000 0.250000 0.525764
Si Si2 0.750000 0.250000 0.250000
Si Si3 0.509983 0.266993 0.407663
Si Si4 0.750000 0.750000 0.423758
Si Si5 0.876427 0.601750 0.321481
Si Si6 0.081385 0.742833 0.436272
O O1 0.762598 0.498829 0.474060
O O2 0.827754 0.207320 0.571335
O O3 0.803134 0.431103 0.297401
O O4 0.473519 0.554029 0.392331
O O5 0.558853 0.292248 0.480827
O O6 0.562711 0.107813 0.352059
O O7 0.440355 0.060317 0.422249
O O8 0.831672 0.784902 0.379577
O O9 0.904195 0.750000 0.250000
#
# Coordination Sequence:
#
# PCOD9391008 Si02
#       6
#     4   2   8   4   8   8
#     4  12  23  38  65  86 119 164 207 258 312 374
#     4  12  24  40  56  90 120 172 210 238 294 390
#     4  10  23  38  56  84 123 161 199 255 303 371
#     4  12  23  36  56  92 122 166 203 248 302 370
#     4  12  25  37  57  86 129 170 210 251 305 383
#     4  10  22  38  58  85 116 161 207 249 313 361
#
# _framework density 20.832975000000001
#
# number of rings (size 3 to 8) (size 9 to 14) (size 15 to 20)
#    0.000    0.941    4.706    2.118    9.882    0.000 
#    0.000    0.000    0.000    0.000    0.000    0.824 
#    0.000    0.000    0.000    0.000    0.000    0.000 
#
# Total GULP energy -190053.711469 kJ/mol
# GULP energy per Si atom -5589.815043 kJ/mol
# Density = 2.078556 g / cm^3
# Si number density = 20.832975 Si / 1000 Ang^3
#
#
#
# Elastic Constant Matrix: (Units=GPa)
#
#
# Indices 1 2 3 4 5 6 
#
# 1 110.7726 6.4095 19.7324 0.0000 0.0000 0.0000
# 2 6.4095 90.1223 13.0356 0.0000 0.0000 0.0000
# 3 19.7324 13.0356 42.9851 0.0000 0.0000 0.0000
# 4 0.0000 0.0000 0.0000 48.9270 0.0000 0.0000
# 5 0.0000 0.0000 0.0000 0.0000 22.8113 0.0000
# 6 0.0000 0.0000 0.0000 0.0000 0.0000 65.2117
#
#
#
# Elastic Compliance Matrix: (Units=1/GPa)
#
#
# Indices 1 2 3 4 5 6 
#
# 1 0.009832 -0.000049 -0.004499 0.000000 0.000000 0.000000
# 2 -0.000049 0.011605 -0.003497 0.000000 0.000000 0.000000
# 3 -0.004499 -0.003497 0.026389 0.000000 0.000000 0.000000
# 4 0.000000 0.000000 0.000000 0.020439 0.000000 0.000000
# 5 0.000000 0.000000 0.000000 0.000000 0.043838 0.000000
# 6 0.000000 0.000000 0.000000 0.000000 0.000000 0.015335
#
#
# Mechanical properties :
#
#
# Convention : Reuss Voigt Hill
#
# Bulk Modulus (GPa) = 31.50791 35.80389 33.65590
# Shear Modulus (GPa) = 32.44531 41.03682 36.74107
#
# Velocity S-wave (km/s) = 3.95067 4.44306 4.20408
# Velocity P-wave (km/s) = 5.99728 6.59883 6.30523
#
# Compressibility (1/GPa) = 0.03173806
#
# Stress axis : x y z
#
# Youngs Moduli (GPa) = 101.71228 86.16735 37.89390
#
# Poissons Ratio (x) = 0.00418 0.17047
# Poissons Ratio (y) = 0.00494 0.13252
# Poissons Ratio (z) = 0.45756 0.30134
#
# Static dielectric constant tensor:
#      x y z
#    x 1.742290 0.000000 0.000000 
#    y 0.000000 1.851700 0.000000 
#    z 0.000000 0.000000 1.966540 
# 
# From -- ./inp_files/24177.got.cif
#   From: 2010.05.17/outbox.cif.g08.bks.cpg/sg48_13_cif.got.tgz:24177.got - 2010.06.03 20:39:00.
