data_PCOD9391998
_publ_section_title
;
Structure prediction by ZEFSAII (Michael W. Deem and Ramdas Pophale) SiO2 
 PCOD9391998
Probable space group: P C C M
;
_chemical_formula_sum "Si O2"
_cell_formula_units_Z 64
_cell_length_a 15.107995
_cell_length_b 30.732189
_cell_length_c 8.316334
_cell_angle_alpha 90.000000
_cell_angle_beta 90.000000
_cell_angle_gamma 90.000000
_cell_volume 3861.288494
_symmetry_space_group_name_H-M "P C C M"
_symmetry_group_IT_number 49
_symmetry_cell_setting 'orthorhombic'
loop_
_space_group_symop_operation_xyz
x,y,z
-x,-y,z
x,-y,1/2-z
-x,y,1/2-z
-x,-y,-z
x,y,-z
-x,y,1/2+z
x,-y,1/2+z
loop_
_atom_site_type_symbol
_atom_site_label
_atom_site_fract_x
_atom_site_fract_y
_atom_site_fract_z
Si Si1 0.902543 0.638992 0.805756
Si Si2 0.632297 0.546803 0.811598
Si Si3 0.601528 0.863662 0.191742
Si Si4 0.397882 0.954460 0.189832
Si Si5 0.407778 0.363750 0.684364
Si Si6 0.166877 0.453910 0.307553
Si Si7 0.737094 0.693237 0.186229
Si Si8 0.397610 0.233348 0.194914
O O1 0.882678 0.590634 0.737665
O O2 0.829150 0.674221 0.747354
O O3 0.000000 0.651907 0.750000
O O4 0.897176 0.636694 0.000000
O O5 0.602797 0.500000 0.750000
O O6 0.592019 0.584622 0.703359
O O7 0.738144 0.548436 0.780878
O O8 0.613604 0.553244 0.000000
O O9 0.500000 0.864148 0.250000
O O10 0.643179 0.908544 0.254911
O O11 0.632805 0.815593 0.241548
O O12 0.603025 0.865647 0.000000
O O13 0.500000 0.954252 0.250000
O O14 0.357612 0.000000 0.250000
O O15 0.400163 0.955296 0.000000
O O16 0.500000 0.345790 0.750000
O O17 0.393149 0.351312 0.500000
O O18 0.329360 0.347242 0.796414
O O19 0.125416 0.500000 0.250000
O O20 0.179906 0.455506 0.500000
O O21 0.675826 0.732197 0.255215
O O22 0.753200 0.704290 0.000000
O O23 0.500000 0.240038 0.250000
O O24 0.400159 0.236066 0.000000
#
# Coordination Sequence:
#
# PCOD9391998 Si02
#       8
#     8   8   8   8   8   8   8   8
#     4  11  23  39  59  80 104 128 157 192 233 280
#     4  11  21  36  55  76 100 127 156 186 223 266
#     4   9  15  24  37  55  81 111 149 193 235 278
#     4  10  16  22  32  48  73 107 149 193 239 280
#     4  12  24  37  54  76 100 128 160 193 229 273
#     4  11  21  36  58  82 105 128 155 182 224 273
#     4  10  21  38  56  74  98 126 156 195 239 282
#     4   9  18  31  48  70  94 124 159 197 241 284
#
# _framework density 16.574777000000001
#
# number of rings (size 3 to 8) (size 9 to 14) (size 15 to 20)
#    0.000    1.625    1.250    7.500    0.000    3.000 
#    0.000    2.500    0.000    0.000    0.000    0.000 
#    0.000    0.000    0.000    0.000    0.000    0.625 
#
# Total GULP energy -356864.058254 kJ/mol
# GULP energy per Si atom -5576.000910 kJ/mol
# Density = 1.653705 g / cm^3
# Si number density = 16.574777 Si / 1000 Ang^3
#
#
#
# Elastic Constant Matrix: (Units=GPa)
#
#
# Indices 1 2 3 4 5 6 
#
# 1 80.2286 36.5184 3.1996 0.0000 0.0000 0.0000
# 2 36.5184 138.9136 19.8624 0.0000 0.0000 0.0000
# 3 3.1996 19.8624 67.4091 0.0000 0.0000 0.0000
# 4 0.0000 0.0000 0.0000 -7.9959 0.0000 0.0000
# 5 0.0000 0.0000 0.0000 0.0000 14.1263 0.0000
# 6 0.0000 0.0000 0.0000 0.0000 0.0000 24.6821
#
#
#
# Elastic Compliance Matrix: (Units=1/GPa)
#
#
# Indices 1 2 3 4 5 6 
#
# 1 0.014171 -0.003789 0.000444 0.000000 0.000000 0.000000
# 2 -0.003789 0.008528 -0.002333 0.000000 0.000000 0.000000
# 3 0.000444 -0.002333 0.015501 0.000000 0.000000 0.000000
# 4 0.000000 0.000000 0.000000 -0.125064 0.000000 0.000000
# 5 0.000000 0.000000 0.000000 0.000000 0.070790 0.000000
# 6 0.000000 0.000000 0.000000 0.000000 0.000000 0.040515
#
#
# Mechanical properties :
#
#
# Convention : Reuss Voigt Hill
#
# Bulk Modulus (GPa) = 37.25165 45.07912 41.16538
# Shear Modulus (GPa) = 111.73994 21.29387 66.51690
#
# Velocity S-wave (km/s) = 8.21961 3.58818 6.34181
# Velocity P-wave (km/s) = 10.61161 6.66507 8.86086
#
# Compressibility (1/GPa) = 0.02684445
#
# Stress axis : x y z
#
# Youngs Moduli (GPa) = 70.56510 117.25590 64.51119
#
# Poissons Ratio (x) = 0.44427 -0.02863
# Poissons Ratio (y) = 0.26736 0.15051
# Poissons Ratio (z) = -0.03131 0.27357
#
# Static dielectric constant tensor:
#      x y z
#    x 1.558920 0.000000 0.000000 
#    y 0.000000 1.635380 0.000000 
#    z 0.000000 0.000000 1.565600 
# 
# From -- ./inp_files/4548.got.cif
#   From: 2010.05.17/outbox.cif.g08.bks.cpg/sg49_3_cif.got.tgz:4548.got - 2010.06.03 21:02:19.
