data_PCOD9391610
_publ_section_title
;
Structure prediction by ZEFSAII (Michael W. Deem and Ramdas Pophale) SiO2 
 PCOD9391610
Probable space group: P N N N
;
_chemical_formula_sum "Si O2"
_cell_formula_units_Z 58
_cell_length_a 17.312225
_cell_length_b 8.781396
_cell_length_c 17.425680
_cell_angle_alpha 90.000000
_cell_angle_beta 90.000000
_cell_angle_gamma 90.000000
_cell_volume 2649.147773
_symmetry_space_group_name_H-M "P N N N"
_symmetry_group_IT_number 48
_space_group.IT_coordinate_system_code '2'
_symmetry_cell_setting 'orthorhombic'
loop_
_space_group_symop_operation_xyz
x,y,z
1/2-x,1/2-y,z
x,1/2-y,1/2-z
1/2-x,y,1/2-z
-x,-y,-z
1/2+x,1/2+y,-z
-x,1/2+y,1/2+z
1/2+x,-y,1/2+z
loop_
_atom_site_type_symbol
_atom_site_label
_atom_site_fract_x
_atom_site_fract_y
_atom_site_fract_z
Si Si1 0.948020 0.073418 0.758612
Si Si2 0.563971 0.913011 0.894964
Si Si3 0.608094 0.416184 0.457217
Si Si4 0.590828 0.057771 0.481519
Si Si5 0.890974 0.929272 0.184116
Si Si6 0.141347 0.094379 0.124235
Si Si7 0.750000 0.750000 0.750000
Si Si8 0.179738 0.129483 0.660617
O O1 0.955366 0.250000 0.750000
O O2 0.032503 0.009459 0.775376
O O3 0.914345 0.996106 0.683503
O O4 0.900101 0.043933 0.834265
O O5 0.474214 0.937230 0.914234
O O6 0.584146 0.737533 0.883811
O O7 0.609640 0.980516 0.966877
O O8 0.604354 0.240115 0.484801
O O9 0.670207 0.491550 0.398912
O O10 0.500000 0.000000 0.500000
O O11 0.614392 0.017168 0.394870
O O12 0.649614 0.967231 0.537996
O O13 0.828608 0.933659 0.252424
O O14 0.892259 0.750487 0.158484
O O15 0.203261 0.148090 0.187750
O O16 0.250000 0.250000 0.646065
#
# Coordination Sequence:
#
# PCOD9391610 Si02
#       8
#     8   8   8   8   8   8   2   8
#     4  12  20  36  69 105 139 173 240 307 371 415
#     4  11  21  39  68 103 140 180 237 300 367 433
#     4  11  23  39  69 106 143 181 236 306 378 435
#     4  12  24  40  71 115 145 172 232 326 388 436
#     4  11  21  40  68 104 140 187 238 302 373 436
#     4  12  25  46  71 101 143 190 240 303 361 467
#     4  12  28  52  70  92 136 210 252 268 376 476
#     4  11  24  44  66  97 142 204 249 287 360 469
#
# _framework density 21.893833000000001
#
# number of rings (size 3 to 8) (size 9 to 14) (size 15 to 20)
#    0.000    0.552    6.897    2.483    1.931    0.552 
#    6.207    1.034    0.000    3.310    0.000    0.000 
#    0.000    0.000    0.000    0.000    0.000    0.000 
#
# Total GULP energy -323240.692789 kJ/mol
# GULP energy per Si atom -5573.115393 kJ/mol
# Density = 2.184400 g / cm^3
# Si number density = 21.893833 Si / 1000 Ang^3
#
#
#
# Elastic Constant Matrix: (Units=GPa)
#
#
# Indices 1 2 3 4 5 6 
#
# 1 57.6332 22.1096 29.6576 0.0000 0.0000 0.0000
# 2 22.1096 60.7300 43.1367 0.0000 0.0000 0.0000
# 3 29.6576 43.1367 148.2744 0.0000 0.0000 0.0000
# 4 0.0000 0.0000 0.0000 41.1716 0.0000 0.0000
# 5 0.0000 0.0000 0.0000 0.0000 5.3337 0.0000
# 6 0.0000 0.0000 0.0000 0.0000 0.0000 7.8226
#
#
#
# Elastic Compliance Matrix: (Units=1/GPa)
#
#
# Indices 1 2 3 4 5 6 
#
# 1 0.020864 -0.005838 -0.002475 0.000000 0.000000 0.000000
# 2 -0.005838 0.022389 -0.005346 0.000000 0.000000 0.000000
# 3 -0.002475 -0.005346 0.008794 0.000000 0.000000 0.000000
# 4 0.000000 0.000000 0.000000 0.024289 0.000000 0.000000
# 5 0.000000 0.000000 0.000000 0.000000 0.187486 0.000000
# 6 0.000000 0.000000 0.000000 0.000000 0.000000 0.127835
#
#
# Mechanical properties :
#
#
# Convention : Reuss Voigt Hill
#
# Bulk Modulus (GPa) = 40.43612 50.71615 45.57614
# Shear Modulus (GPa) = 11.70365 22.31450 17.00907
#
# Velocity S-wave (km/s) = 2.31457 3.19598 2.79030
# Velocity P-wave (km/s) = 5.06481 6.06909 5.58955
#
# Compressibility (1/GPa) = 0.02473036
#
# Stress axis : x y z
#
# Youngs Moduli (GPa) = 47.92888 44.66506 113.70780
#
# Poissons Ratio (x) = 0.26076 0.28140
# Poissons Ratio (y) = 0.27981 0.60785
# Poissons Ratio (z) = 0.11861 0.23877
#
# Static dielectric constant tensor:
#      x y z
#    x 1.906000 0.000000 0.000000 
#    y 0.000000 1.773900 0.000000 
#    z 0.000000 0.000000 1.766990 
# 
# From -- ./inp_files/32005.got.cif
#   From: 2010.05.17/outbox.cif.g08.bks.cpg/sg48_17_cif.got.tgz:32005.got - 2010.06.03 20:39:00.
