data_PCOD9391462
_publ_section_title
;
Structure prediction by ZEFSAII (Michael W. Deem and Ramdas Pophale) SiO2 
 PCOD9391462
Probable space group: P N N N
;
_chemical_formula_sum "Si O2"
_cell_formula_units_Z 40
_cell_length_a 8.535811
_cell_length_b 11.905639
_cell_length_c 17.337380
_cell_angle_alpha 90.000000
_cell_angle_beta 90.000000
_cell_angle_gamma 90.000000
_cell_volume 1761.898835
_symmetry_space_group_name_H-M "P N N N"
_symmetry_group_IT_number 48
_space_group.IT_coordinate_system_code '2'
_symmetry_cell_setting 'orthorhombic'
loop_
_space_group_symop_operation_xyz
x,y,z
1/2-x,1/2-y,z
x,1/2-y,1/2-z
1/2-x,y,1/2-z
-x,-y,-z
1/2+x,1/2+y,-z
-x,1/2+y,1/2+z
1/2+x,-y,1/2+z
loop_
_atom_site_type_symbol
_atom_site_label
_atom_site_fract_x
_atom_site_fract_y
_atom_site_fract_z
Si Si1 0.511845 0.086692 0.184889
Si Si2 0.250000 0.750000 0.250000
Si Si3 0.167351 0.898903 0.388918
Si Si4 0.550217 0.318079 0.970369
Si Si5 0.750000 0.750000 0.750000
Si Si6 0.750000 0.750000 0.112804
Si Si7 0.750000 0.250000 0.394779
Si Si8 0.250000 0.070483 0.750000
O O1 0.369157 0.165708 0.208433
O O2 0.649933 0.163552 0.153862
O O3 0.434578 0.008151 0.119394
O O4 0.594750 0.008373 0.249728
O O5 0.159435 0.832430 0.307397
O O6 0.348708 0.902521 0.415961
O O7 0.097819 0.810049 0.448116
O O8 0.372047 0.312117 0.944729
O O9 0.622518 0.322307 0.055226
O O10 0.720766 0.850692 0.175079
#
# Coordination Sequence:
#
# PCOD9391462 Si02
#       8
#     8   2   8   8   2   4   4   4
#     4  12  24  46  65  97 133 191 228 284 340 412
#     4   8  16  28  56  96 130 156 198 296 328 414
#     4   9  19  34  64  92 134 168 219 271 360 387
#     4   9  21  40  65 106 130 176 216 288 341 417
#     4  12  30  40  72  96 132 178 254 278 328 404
#     4  11  22  41  68 117 136 163 222 298 358 423
#     4  10  25  47  70  87 149 188 238 272 326 410
#     4  11  26  39  72 102 148 171 220 291 372 406
#
# _framework density 22.702781000000002
#
# number of rings (size 3 to 8) (size 9 to 14) (size 15 to 20)
#    0.000    2.200    2.000    1.800    8.400    4.000 
#    0.000    1.000    0.000    0.000    0.000    0.000 
#    0.000    0.000    0.000    0.000    0.000    0.000 
#
# Total GULP energy -222737.985054 kJ/mol
# GULP energy per Si atom -5568.449626 kJ/mol
# Density = 2.265111 g / cm^3
# Si number density = 22.702781 Si / 1000 Ang^3
#
#
#
# Elastic Constant Matrix: (Units=GPa)
#
#
# Indices 1 2 3 4 5 6 
#
# 1 122.0261 50.5036 33.2707 0.0000 0.0000 0.0000
# 2 50.5036 97.2928 19.2621 0.0000 0.0000 0.0000
# 3 33.2707 19.2621 47.9592 0.0000 0.0000 0.0000
# 4 0.0000 0.0000 0.0000 0.2726 0.0000 0.0000
# 5 0.0000 0.0000 0.0000 0.0000 27.0685 0.0000
# 6 0.0000 0.0000 0.0000 0.0000 0.0000 59.3228
#
#
#
# Elastic Compliance Matrix: (Units=1/GPa)
#
#
# Indices 1 2 3 4 5 6 
#
# 1 0.011970 -0.004964 -0.006310 0.000000 0.000000 0.000000
# 2 -0.004964 0.013225 -0.001868 0.000000 0.000000 0.000000
# 3 -0.006310 -0.001868 0.025979 0.000000 0.000000 0.000000
# 4 0.000000 0.000000 0.000000 3.668193 0.000000 0.000000
# 5 0.000000 0.000000 0.000000 0.000000 0.036943 0.000000
# 6 0.000000 0.000000 0.000000 0.000000 0.000000 0.016857
#
#
# Mechanical properties :
#
#
# Convention : Reuss Voigt Hill
#
# Bulk Modulus (GPa) = 40.17771 52.59454 46.38612
# Shear Modulus (GPa) = 1.31311 28.28223 14.79767
#
# Velocity S-wave (km/s) = 0.76135 3.53336 2.55581
# Velocity P-wave (km/s) = 4.30216 6.31372 5.40239
#
# Compressibility (1/GPa) = 0.02488943
#
# Stress axis : x y z
#
# Youngs Moduli (GPa) = 83.54212 75.61495 38.49294
#
# Poissons Ratio (x) = 0.37537 0.24290
# Poissons Ratio (y) = 0.41472 0.07190
# Poissons Ratio (z) = 0.52716 0.14123
#
# Static dielectric constant tensor:
#      x y z
#    x 2.888790 0.000000 0.000000 
#    y 0.000000 1.925830 0.000000 
#    z 0.000000 0.000000 2.040720 
# 
# From -- ./inp_files/30076.got.cif
#   From: 2010.05.17/outbox.cif.g08.bks.cpg/sg48_16_cif.got.tgz:30076.got - 2010.06.03 20:39:00.
