data_PCOD9391224
_publ_section_title
;
Structure prediction by ZEFSAII (Michael W. Deem and Ramdas Pophale) SiO2 
 PCOD9391224
Probable space group: P N N N
;
_chemical_formula_sum "Si O2"
_cell_formula_units_Z 54
_cell_length_a 20.631223
_cell_length_b 5.151215
_cell_length_c 25.701613
_cell_angle_alpha 90.000000
_cell_angle_beta 90.000000
_cell_angle_gamma 90.000000
_cell_volume 2731.461163
_symmetry_space_group_name_H-M "P N N N"
_symmetry_group_IT_number 48
_space_group.IT_coordinate_system_code '2'
_symmetry_cell_setting 'orthorhombic'
loop_
_space_group_symop_operation_xyz
x,y,z
1/2-x,1/2-y,z
x,1/2-y,1/2-z
1/2-x,y,1/2-z
-x,-y,-z
1/2+x,1/2+y,-z
-x,1/2+y,1/2+z
1/2+x,-y,1/2+z
loop_
_atom_site_type_symbol
_atom_site_label
_atom_site_fract_x
_atom_site_fract_y
_atom_site_fract_z
Si Si1 0.501129 0.236215 0.191122
Si Si2 0.750000 0.750000 0.523261
Si Si3 0.527818 0.768013 0.378674
Si Si4 0.250000 0.250000 0.250000
Si Si5 0.114088 0.217944 0.971073
Si Si6 0.920178 0.193228 0.532454
Si Si7 0.685025 0.334118 0.897432
Si Si8 0.627437 0.470735 0.793414
O O1 0.528828 0.250000 0.250000
O O2 0.524725 0.471187 0.154956
O O3 0.424771 0.299727 0.199733
O O4 0.514270 0.970555 0.160531
O O5 0.811419 0.789278 0.484255
O O6 0.785279 0.550501 0.563723
O O7 0.594779 0.757948 0.410872
O O8 0.474316 0.763108 0.425105
O O9 0.301201 0.422769 0.218980
O O10 0.070501 0.428992 0.001624
O O11 0.094246 0.935720 0.994202
O O12 0.853265 0.144808 0.564425
O O13 0.750000 0.250000 0.869295
O O14 0.633801 0.375132 0.852179
O O15 0.610300 0.250000 0.750000
#
# Coordination Sequence:
#
# PCOD9391224 Si02
#       8
#     8   4   8   2   8   8   8   8
#     4  12  26  44  66  90 124 166 216 272 321 368
#     4  10  23  38  60  93 127 166 198 267 318 400
#     4  12  24  42  66  93 121 168 211 268 324 379
#     4  12  24  36  60  78 112 176 222 276 314 352
#     4  11  23  41  63  95 128 161 210 258 323 392
#     4  11  22  37  61  89 124 166 210 261 308 372
#     4  11  21  36  57  80 124 172 219 252 317 362
#     4  12  25  40  56  85 124 174 232 281 307 364
#
# _framework density 19.769639999999999
#
# number of rings (size 3 to 8) (size 9 to 14) (size 15 to 20)
#    0.000    0.593    3.704    5.556    2.074    1.185 
#    0.000    0.000    0.000    0.000    0.000    3.111 
#    0.000    0.000    0.000    0.000    0.000    0.000 
#
# Total GULP energy -300945.064071 kJ/mol
# GULP energy per Si atom -5573.056742 kJ/mol
# Density = 1.972464 g / cm^3
# Si number density = 19.769640 Si / 1000 Ang^3
#
#
#
# Elastic Constant Matrix: (Units=GPa)
#
#
# Indices 1 2 3 4 5 6 
#
# 1 67.0187 5.8776 43.2800 0.0000 0.0000 0.0000
# 2 5.8776 67.2333 27.0807 0.0000 0.0000 0.0000
# 3 43.2800 27.0807 116.3434 0.0000 0.0000 0.0000
# 4 0.0000 0.0000 0.0000 -4.4668 0.0000 0.0000
# 5 0.0000 0.0000 0.0000 0.0000 31.8244 0.0000
# 6 0.0000 0.0000 0.0000 0.0000 0.0000 18.3036
#
#
#
# Elastic Compliance Matrix: (Units=1/GPa)
#
#
# Indices 1 2 3 4 5 6 
#
# 1 0.019751 0.001360 -0.007664 0.000000 0.000000 0.000000
# 2 0.001360 0.016506 -0.004348 0.000000 0.000000 0.000000
# 3 -0.007664 -0.004348 0.012458 0.000000 0.000000 0.000000
# 4 0.000000 0.000000 0.000000 -0.223873 0.000000 0.000000
# 5 0.000000 0.000000 0.000000 0.000000 0.031422 0.000000
# 6 0.000000 0.000000 0.000000 0.000000 0.000000 0.054634
#
#
# Mechanical properties :
#
#
# Convention : Reuss Voigt Hill
#
# Bulk Modulus (GPa) = 36.48044 44.78577 40.63311
# Shear Modulus (GPa) = -85.23725 20.75605 -32.24060
#
# Velocity S-wave (km/s) = -6.57334 3.24372 -4.04271
# Velocity P-wave (km/s) = 6.25451 6.06069 1.09247
#
# Compressibility (1/GPa) = 0.02741195
#
# Stress axis : x y z
#
# Youngs Moduli (GPa) = 50.62942 60.58401 80.26697
#
# Poissons Ratio (x) = -0.08242 0.61518
# Poissons Ratio (y) = -0.06887 0.34901
# Poissons Ratio (z) = 0.38803 0.26342
#
# Static dielectric constant tensor:
#      x y z
#    x 3.066490 0.000000 0.000000 
#    y 0.000000 1.764010 0.000000 
#    z 0.000000 0.000000 1.801100 
# 
# From -- ./inp_files/36755.got.cif
#   From: 2010.05.17/outbox.cif.g08.bks.cpg/sg48_19_cif.got.tgz:36755.got - 2010.06.03 20:39:00.
