data_PCOD9391570
_publ_section_title
;
Structure prediction by ZEFSAII (Michael W. Deem and Ramdas Pophale) SiO2 
 PCOD9391570
Probable space group: P N N N
;
_chemical_formula_sum "Si O2"
_cell_formula_units_Z 40
_cell_length_a 15.668371
_cell_length_b 14.506155
_cell_length_c 7.971317
_cell_angle_alpha 90.000000
_cell_angle_beta 90.000000
_cell_angle_gamma 90.000000
_cell_volume 1811.783250
_symmetry_space_group_name_H-M "P N N N"
_symmetry_group_IT_number 48
_space_group.IT_coordinate_system_code '2'
_symmetry_cell_setting 'orthorhombic'
loop_
_space_group_symop_operation_xyz
x,y,z
1/2-x,1/2-y,z
x,1/2-y,1/2-z
1/2-x,y,1/2-z
-x,-y,-z
1/2+x,1/2+y,-z
-x,1/2+y,1/2+z
1/2+x,-y,1/2+z
loop_
_atom_site_type_symbol
_atom_site_label
_atom_site_fract_x
_atom_site_fract_y
_atom_site_fract_z
Si Si1 0.251871 0.982752 0.552613
Si Si2 0.133562 0.844990 0.148713
Si Si3 0.697424 0.829396 0.569607
Si Si4 0.076439 0.010980 0.374822
Si Si5 0.510504 0.826603 0.632702
O O1 0.250000 0.961445 0.750000
O O2 0.286785 0.895273 0.446488
O O3 0.162436 0.023642 0.483833
O O4 0.311479 0.071137 0.515408
O O5 0.149546 0.750000 0.250000
O O6 0.098364 0.917714 0.280781
O O7 0.057139 0.840303 0.013119
O O8 0.750000 0.750000 0.477236
O O9 0.750000 0.842195 0.750000
O O10 0.602478 0.788232 0.577313
O O11 0.043151 0.086165 0.241161
O O12 0.000000 0.000000 0.500000
O O13 0.468723 0.750000 0.750000
#
# Coordination Sequence:
#
# PCOD9391570 Si02
#       5
#     8   8   8   8   8
#     4  12  26  46  73 110 152 199 256 316 388 464
#     4  12  28  49  73 106 152 210 263 314 375 460
#     4  11  20  42  71 107 147 195 236 321 399 457
#     4  12  25  45  73 106 145 195 248 315 382 445
#     4  12  23  44  75 107 150 194 252 317 391 454
#
# _framework density 22.077694999999999
#
# number of rings (size 3 to 8) (size 9 to 14) (size 15 to 20)
#    0.000    0.200    6.000    3.600    2.800    2.000 
#    0.000    1.000    0.000    0.000    0.000    0.000 
#    0.000    0.000    0.000    0.000    0.000    0.000 
#
# Total GULP energy -223236.232253 kJ/mol
# GULP energy per Si atom -5580.905806 kJ/mol
# Density = 2.202745 g / cm^3
# Si number density = 22.077695 Si / 1000 Ang^3
#
#
#
# Elastic Constant Matrix: (Units=GPa)
#
#
# Indices 1 2 3 4 5 6 
#
# 1 115.1239 5.7893 46.6029 0.0000 0.0000 0.0000
# 2 5.7893 134.7264 57.5200 0.0000 0.0000 0.0000
# 3 46.6029 57.5200 122.3941 0.0000 0.0000 0.0000
# 4 0.0000 0.0000 0.0000 8.4905 0.0000 0.0000
# 5 0.0000 0.0000 0.0000 0.0000 42.0621 0.0000
# 6 0.0000 0.0000 0.0000 0.0000 0.0000 -530.2400
#
#
#
# Elastic Compliance Matrix: (Units=1/GPa)
#
#
# Indices 1 2 3 4 5 6 
#
# 1 0.010530 0.001575 -0.004750 0.000000 0.000000 0.000000
# 2 0.001575 0.009521 -0.005074 0.000000 0.000000 0.000000
# 3 -0.004750 -0.005074 0.012364 0.000000 0.000000 0.000000
# 4 0.000000 0.000000 0.000000 0.117779 0.000000 0.000000
# 5 0.000000 0.000000 0.000000 0.000000 0.023774 0.000000
# 6 0.000000 0.000000 0.000000 0.000000 0.000000 -0.001886
#
#
# Mechanical properties :
#
#
# Convention : Reuss Voigt Hill
#
# Bulk Modulus (GPa) = 62.82547 65.78544 64.30545
# Shear Modulus (GPa) = 25.78845 -78.44868 -26.33011
#
# Velocity S-wave (km/s) = 3.42142 -5.96742 -3.45717
# Velocity P-wave (km/s) = 6.64278 4.19741 3.64062
#
# Compressibility (1/GPa) = 0.01591711
#
# Stress axis : x y z
#
# Youngs Moduli (GPa) = 94.96883 105.02858 80.88280
#
# Poissons Ratio (x) = -0.16546 0.38417
# Poissons Ratio (y) = -0.14961 0.41043
# Poissons Ratio (z) = 0.45107 0.53296
#
# Static dielectric constant tensor:
#      x y z
#    x 1.838030 0.000000 0.000000 
#    y 0.000000 1.818720 0.000000 
#    z 0.000000 0.000000 2.101920 
# 
# From -- ./inp_files/12310.got.cif
#   From: 2010.05.17/outbox.cif.g08.bks.cpg/sg48_7_cif.got.tgz:12310.got - 2010.06.03 20:39:00.
