data_PCOD9391504
_publ_section_title
;
Structure prediction by ZEFSAII (Michael W. Deem and Ramdas Pophale) SiO2 
 PCOD9391504
Probable space group: P N N N
;
_chemical_formula_sum "Si O2"
_cell_formula_units_Z 40
_cell_length_a 27.261470
_cell_length_b 4.935051
_cell_length_c 20.652865
_cell_angle_alpha 90.000000
_cell_angle_beta 90.000000
_cell_angle_gamma 90.000000
_cell_volume 2778.569228
_symmetry_space_group_name_H-M "P N N N"
_symmetry_group_IT_number 48
_space_group.IT_coordinate_system_code '2'
_symmetry_cell_setting 'orthorhombic'
loop_
_space_group_symop_operation_xyz
x,y,z
1/2-x,1/2-y,z
x,1/2-y,1/2-z
1/2-x,y,1/2-z
-x,-y,-z
1/2+x,1/2+y,-z
-x,1/2+y,1/2+z
1/2+x,-y,1/2+z
loop_
_atom_site_type_symbol
_atom_site_label
_atom_site_fract_x
_atom_site_fract_y
_atom_site_fract_z
Si Si1 0.040161 0.005430 0.792900
Si Si2 0.636606 0.669530 0.128570
Si Si3 0.307110 0.681868 0.674918
Si Si4 0.939449 0.723161 0.469020
Si Si5 0.004035 0.776652 0.583170
O O1 0.018249 0.250000 0.750000
O O2 0.087999 0.135017 0.827088
O O3 0.056842 0.750000 0.750000
O O4 0.005468 0.860506 0.846458
O O5 0.661671 0.378824 0.129543
O O6 0.614981 0.751352 0.058788
O O7 0.674771 0.881013 0.158771
O O8 0.250000 0.750000 0.665501
O O9 0.318062 0.750000 0.750000
O O10 0.958269 0.419024 0.455698
O O11 0.953416 0.779818 0.543263
O O12 0.972938 0.926010 0.425265
#
# Coordination Sequence:
#
# PCOD9391504 Si02
#       5
#     8   8   8   8   8
#     4  11  19  27  41  61  82 105 132 164 197 234
#     4  11  19  30  44  57  73 100 139 170 197 233
#     4  11  22  32  41  55  77 102 130 170 214 244
#     4   9  17  28  43  57  74 100 129 167 199 228
#     4   9  17  28  39  58  81  99 126 162 199 230
#
# _framework density 14.395899
#
# number of rings (size 3 to 8) (size 9 to 14) (size 15 to 20)
#    0.000    1.800    0.000    9.000    0.000    1.600 
#    0.000    0.000    0.000    0.000    0.000    0.000 
#    0.000    0.000    0.000    0.000    0.000   15.000 
#
# Total GULP energy -222781.256376 kJ/mol
# GULP energy per Si atom -5569.531409 kJ/mol
# Density = 1.436313 g / cm^3
# Si number density = 14.395899 Si / 1000 Ang^3
#
#
#
# Elastic Constant Matrix: (Units=GPa)
#
#
# Indices 1 2 3 4 5 6 
#
# 1 39.8291 1.6396 32.1167 0.0000 0.0000 0.0000
# 2 1.6396 64.5447 12.8257 0.0000 0.0000 0.0000
# 3 32.1167 12.8257 60.0588 0.0000 0.0000 0.0000
# 4 0.0000 0.0000 0.0000 24.1606 0.0000 0.0000
# 5 0.0000 0.0000 0.0000 0.0000 12.9905 0.0000
# 6 0.0000 0.0000 0.0000 0.0000 0.0000 14.0385
#
#
#
# Elastic Compliance Matrix: (Units=1/GPa)
#
#
# Indices 1 2 3 4 5 6 
#
# 1 0.045017 0.003801 -0.024885 0.000000 0.000000 0.000000
# 2 0.003801 0.016501 -0.005557 0.000000 0.000000 0.000000
# 3 -0.024885 -0.005557 0.031144 0.000000 0.000000 0.000000
# 4 0.000000 0.000000 0.000000 0.041390 0.000000 0.000000
# 5 0.000000 0.000000 0.000000 0.000000 0.076979 0.000000
# 6 0.000000 0.000000 0.000000 0.000000 0.000000 0.071233
#
#
# Mechanical properties :
#
#
# Convention : Reuss Voigt Hill
#
# Bulk Modulus (GPa) = 25.39239 28.62183 27.00711
# Shear Modulus (GPa) = 14.34017 18.09463 16.21740
#
# Velocity S-wave (km/s) = 3.15958 3.54917 3.36002
# Velocity P-wave (km/s) = 5.56664 6.05975 5.81842
#
# Compressibility (1/GPa) = 0.03938187
#
# Stress axis : x y z
#
# Youngs Moduli (GPa) = 22.21385 60.60344 32.10873
#
# Poissons Ratio (x) = -0.23037 0.79902
# Poissons Ratio (y) = -0.08444 0.17841
# Poissons Ratio (z) = 0.55279 0.33674
#
# Static dielectric constant tensor:
#      x y z
#    x 1.471860 0.000000 0.000000 
#    y 0.000000 1.497200 0.000000 
#    z 0.000000 0.000000 1.556740 
# 
# From -- ./inp_files/32376.got.cif
#   From: 2010.05.17/outbox.cif.g08.bks.cpg/sg48_17_cif.got.tgz:32376.got - 2010.06.03 20:39:00.
