data_PCOD9391640
_publ_section_title
;
Structure prediction by ZEFSAII (Michael W. Deem and Ramdas Pophale) SiO2 
 PCOD9391640
Probable space group: P N N N
;
_chemical_formula_sum "Si O2"
_cell_formula_units_Z 64
_cell_length_a 26.663192
_cell_length_b 12.707322
_cell_length_c 9.075040
_cell_angle_alpha 90.000000
_cell_angle_beta 90.000000
_cell_angle_gamma 90.000000
_cell_volume 3074.784782
_symmetry_space_group_name_H-M "P N N N"
_symmetry_group_IT_number 48
_space_group.IT_coordinate_system_code '2'
_symmetry_cell_setting 'orthorhombic'
loop_
_space_group_symop_operation_xyz
x,y,z
1/2-x,1/2-y,z
x,1/2-y,1/2-z
1/2-x,y,1/2-z
-x,-y,-z
1/2+x,1/2+y,-z
-x,1/2+y,1/2+z
1/2+x,-y,1/2+z
loop_
_atom_site_type_symbol
_atom_site_label
_atom_site_fract_x
_atom_site_fract_y
_atom_site_fract_z
Si Si1 0.968092 0.171240 0.123950
Si Si2 0.804714 0.360105 0.179777
Si Si3 0.069503 0.365365 0.032388
Si Si4 0.033185 0.680557 0.117502
Si Si5 0.195401 0.859719 0.323139
Si Si6 0.396542 0.992461 0.266458
Si Si7 0.897704 0.499983 0.224101
Si Si8 0.427089 0.125540 0.516163
O O1 0.988058 0.250000 0.250000
O O2 0.014476 0.122177 0.033223
O O3 0.935487 0.088151 0.213376
O O4 0.939581 0.242798 0.001065
O O5 0.823321 0.250000 0.250000
O O6 0.750000 0.377439 0.250000
O O7 0.842697 0.450992 0.228932
O O8 0.801999 0.351756 0.001264
O O9 0.094760 0.460077 0.941314
O O10 0.012138 0.367761 0.976342
O O11 0.081693 0.400554 0.196259
O O12 0.088115 0.246266 0.012585
O O13 0.011022 0.750000 0.250000
O O14 0.067323 0.597558 0.201630
O O15 0.176131 0.750000 0.250000
O O16 0.250000 0.875358 0.250000
O O17 0.158354 0.953460 0.276816
O O18 0.400816 0.025705 0.435924
O O19 0.913348 0.602111 0.316287
#
# Coordination Sequence:
#
# PCOD9391640 Si02
#       8
#     8   8   8   8   8   8   8   8
#     4  11  22  38  59  94 135 174 213 268 319 385
#     4  11  25  44  71 101 131 160 200 264 337 398
#     4  11  22  42  58  89 130 178 218 268 307 366
#     4  11  22  37  60  93 135 168 215 263 322 388
#     4  11  25  45  71  99 132 159 200 266 336 398
#     4  12  23  39  64  94 124 173 221 260 319 388
#     4  12  23  39  67  93 127 171 222 260 327 386
#     4  11  24  38  61  89 132 179 222 264 307 368
#
# _framework density 20.814464000000001
#
# number of rings (size 3 to 8) (size 9 to 14) (size 15 to 20)
#    0.000    0.750    1.250    9.000    5.250    0.000 
#    0.000    0.000    0.000    4.500    0.000    0.000 
#    0.000    0.000    0.000    0.000    0.000    0.000 
#
# Total GULP energy -357503.045544 kJ/mol
# GULP energy per Si atom -5585.985087 kJ/mol
# Density = 2.076709 g / cm^3
# Si number density = 20.814464 Si / 1000 Ang^3
#
#
#
# Elastic Constant Matrix: (Units=GPa)
#
#
# Indices 1 2 3 4 5 6 
#
# 1 65.7370 36.4624 15.9368 0.0000 0.0000 0.0000
# 2 36.4624 96.9998 14.7655 0.0000 0.0000 0.0000
# 3 15.9368 14.7655 87.1897 0.0000 0.0000 0.0000
# 4 0.0000 0.0000 0.0000 51.5490 0.0000 0.0000
# 5 0.0000 0.0000 0.0000 0.0000 14.9384 0.0000
# 6 0.0000 0.0000 0.0000 0.0000 0.0000 1.6060
#
#
#
# Elastic Compliance Matrix: (Units=1/GPa)
#
#
# Indices 1 2 3 4 5 6 
#
# 1 0.019700 -0.007039 -0.002409 0.000000 0.000000 0.000000
# 2 -0.007039 0.013097 -0.000931 0.000000 0.000000 0.000000
# 3 -0.002409 -0.000931 0.012067 0.000000 0.000000 0.000000
# 4 0.000000 0.000000 0.000000 0.019399 0.000000 0.000000
# 5 0.000000 0.000000 0.000000 0.000000 0.066942 0.000000
# 6 0.000000 0.000000 0.000000 0.000000 0.000000 0.622681
#
#
# Mechanical properties :
#
#
# Convention : Reuss Voigt Hill
#
# Bulk Modulus (GPa) = 41.48251 42.69511 42.08881
# Shear Modulus (GPa) = 6.38831 25.80279 16.09555
#
# Velocity S-wave (km/s) = 1.75381 3.52470 2.78382
# Velocity P-wave (km/s) = 4.90653 6.09273 5.53152
#
# Compressibility (1/GPa) = 0.02410654
#
# Stress axis : x y z
#
# Youngs Moduli (GPa) = 50.76075 76.35376 82.86870
#
# Poissons Ratio (x) = 0.53743 0.19962
# Poissons Ratio (y) = 0.35729 0.07718
# Poissons Ratio (z) = 0.12228 0.07112
#
# Static dielectric constant tensor:
#      x y z
#    x 1.719270 0.000000 0.000000 
#    y 0.000000 1.780860 0.000000 
#    z 0.000000 0.000000 1.765100 
# 
# From -- ./inp_files/16963.got.cif
#   From: 2010.05.17/outbox.cif.g08.bks.cpg/sg48_9_cif.got.tgz:16963.got - 2010.06.03 20:39:00.
