data_PCOD9391863
_publ_section_title
;
Structure prediction by ZEFSAII (Michael W. Deem and Ramdas Pophale) SiO2 
 PCOD9391863
Probable space group: P N N N
;
_chemical_formula_sum "Si O2"
_cell_formula_units_Z 32
_cell_length_a 9.745735
_cell_length_b 10.210581
_cell_length_c 15.068431
_cell_angle_alpha 90.000000
_cell_angle_beta 90.000000
_cell_angle_gamma 90.000000
_cell_volume 1499.453792
_symmetry_space_group_name_H-M "P N N N"
_symmetry_group_IT_number 48
_space_group.IT_coordinate_system_code '2'
_symmetry_cell_setting 'orthorhombic'
loop_
_space_group_symop_operation_xyz
x,y,z
1/2-x,1/2-y,z
x,1/2-y,1/2-z
1/2-x,y,1/2-z
-x,-y,-z
1/2+x,1/2+y,-z
-x,1/2+y,1/2+z
1/2+x,-y,1/2+z
loop_
_atom_site_type_symbol
_atom_site_label
_atom_site_fract_x
_atom_site_fract_y
_atom_site_fract_z
Si Si1 0.046354 0.166079 0.665067
Si Si2 0.417252 0.596085 0.752879
Si Si3 0.250000 0.750000 0.382836
Si Si4 0.395280 0.013403 0.421072
Si Si5 0.750000 0.750000 0.009044
O O1 0.101120 0.250000 0.750000
O O2 0.127118 0.209811 0.576707
O O3 0.886705 0.199704 0.663479
O O4 0.054352 0.009701 0.676111
O O5 0.455237 0.750000 0.750000
O O6 0.250000 0.594059 0.750000
O O7 0.508998 0.536300 0.834059
O O8 0.306506 0.881673 0.426722
O O9 0.500000 0.000000 0.500000
O O10 0.298593 0.134394 0.444938
#
# Coordination Sequence:
#
# PCOD9391863 Si02
#       5
#     8   8   4   8   4
#     4  12  23  47  76 107 143 202 251 300 370 455
#     4  11  26  47  74 106 145 196 248 306 369 452
#     4  12  27  44  74 104 149 186 252 308 369 438
#     4  12  26  49  70 114 150 192 251 313 376 447
#     4  12  27  46  79 112 150 202 244 312 381 448
#
# _framework density 21.341104999999999
#
# number of rings (size 3 to 8) (size 9 to 14) (size 15 to 20)
#    0.000    0.250    5.000    3.750    3.500    5.000 
#    0.000    0.000    0.000    0.000    0.000    0.000 
#    0.000    0.000    0.000    0.000    0.000    0.000 
#
# Total GULP energy -178329.917807 kJ/mol
# GULP energy per Si atom -5572.809931 kJ/mol
# Density = 2.129253 g / cm^3
# Si number density = 21.341105 Si / 1000 Ang^3
#
#
#
# Elastic Constant Matrix: (Units=GPa)
#
#
# Indices 1 2 3 4 5 6 
#
# 1 144.3112 61.3191 35.3760 0.0000 0.0000 0.0000
# 2 61.3191 204.8901 32.2451 0.0000 0.0000 0.0000
# 3 35.3760 32.2451 53.0071 0.0000 0.0000 0.0000
# 4 0.0000 0.0000 0.0000 44.5215 0.0000 0.0000
# 5 0.0000 0.0000 0.0000 0.0000 -255.9043 0.0000
# 6 0.0000 0.0000 0.0000 0.0000 0.0000 48.6689
#
#
#
# Elastic Compliance Matrix: (Units=1/GPa)
#
#
# Indices 1 2 3 4 5 6 
#
# 1 0.008916 -0.001915 -0.004786 0.000000 0.000000 0.000000
# 2 -0.001915 0.005809 -0.002255 0.000000 0.000000 0.000000
# 3 -0.004786 -0.002255 0.023431 0.000000 0.000000 0.000000
# 4 0.000000 0.000000 0.000000 0.022461 0.000000 0.000000
# 5 0.000000 0.000000 0.000000 0.000000 -0.003908 0.000000
# 6 0.000000 0.000000 0.000000 0.000000 0.000000 0.020547
#
#
# Mechanical properties :
#
#
# Convention : Reuss Voigt Hill
#
# Bulk Modulus (GPa) = 49.39744 73.34321 61.37033
# Shear Modulus (GPa) = 49.05941 -14.32493 17.36724
#
# Velocity S-wave (km/s) = 4.79981 -2.59363 2.85580
# Velocity P-wave (km/s) = 7.34264 5.04703 6.30027
#
# Compressibility (1/GPa) = 0.02024396
#
# Stress axis : x y z
#
# Youngs Moduli (GPa) = 112.15244 172.15176 42.67823
#
# Poissons Ratio (x) = 0.32973 0.20424
# Poissons Ratio (y) = 0.21481 0.09625
# Poissons Ratio (z) = 0.53671 0.38826
#
# Static dielectric constant tensor:
#      x y z
#    x 1.927780 0.000000 0.000000 
#    y 0.000000 1.782490 0.000000 
#    z 0.000000 0.000000 1.820920 
# 
# From -- ./inp_files/24829.got.cif
#   From: 2010.05.17/outbox.cif.g08.bks.cpg/sg48_13_cif.got.tgz:24829.got - 2010.06.03 20:39:00.
