data_PCOD9391768
_publ_section_title
;
Structure prediction by ZEFSAII (Michael W. Deem and Ramdas Pophale) SiO2 
 PCOD9391768
Probable space group: P N N N
;
_chemical_formula_sum "Si O2"
_cell_formula_units_Z 58
_cell_length_a 8.248344
_cell_length_b 16.585285
_cell_length_c 17.855825
_cell_angle_alpha 90.000000
_cell_angle_beta 90.000000
_cell_angle_gamma 90.000000
_cell_volume 2442.697145
_symmetry_space_group_name_H-M "P N N N"
_symmetry_group_IT_number 48
_space_group.IT_coordinate_system_code '2'
_symmetry_cell_setting 'orthorhombic'
loop_
_space_group_symop_operation_xyz
x,y,z
1/2-x,1/2-y,z
x,1/2-y,1/2-z
1/2-x,y,1/2-z
-x,-y,-z
1/2+x,1/2+y,-z
-x,1/2+y,1/2+z
1/2+x,-y,1/2+z
loop_
_atom_site_type_symbol
_atom_site_label
_atom_site_fract_x
_atom_site_fract_y
_atom_site_fract_z
Si Si1 0.649057 0.133399 0.828016
Si Si2 0.543646 0.091092 0.583314
Si Si3 0.070116 0.783386 0.950551
Si Si4 0.079338 0.270880 0.662722
Si Si5 0.906004 0.641452 0.875262
Si Si6 0.554153 0.575825 0.869487
Si Si7 0.750000 0.750000 0.750000
Si Si8 0.569403 0.487262 0.283476
O O1 0.750000 0.147239 0.750000
O O2 0.771288 0.094992 0.887884
O O3 0.571594 0.215314 0.860954
O O4 0.503320 0.071612 0.811794
O O5 0.523458 0.153937 0.515953
O O6 0.447555 0.135610 0.649697
O O7 0.490659 0.998914 0.580964
O O8 0.250000 0.750000 0.958904
O O9 0.958796 0.705075 0.938295
O O10 0.048188 0.842762 0.879122
O O11 0.250000 0.250000 0.626311
O O12 0.087271 0.250000 0.750000
O O13 0.737851 0.596383 0.892631
O O14 0.859389 0.695316 0.803290
O O15 0.042761 0.577963 0.849853
O O16 0.544447 0.543079 0.785053
O O17 0.750000 0.490452 0.250000
#
# Coordination Sequence:
#
# PCOD9391768 Si02
#       8
#     8   8   8   8   8   8   2   8
#     4  12  22  41  70 100 144 189 241 307 379 442
#     4  12  26  47  71 102 146 201 250 297 377 452
#     4  12  27  47  69 103 152 196 248 299 361 457
#     4  11  24  39  63 100 138 181 243 309 361 420
#     4  12  22  44  74 108 144 192 245 305 377 453
#     4  12  23  46  75 106 142 193 249 306 379 447
#     4  12  20  40  78 104 136 182 256 300 364 452
#     4  12  24  40  74 117 145 176 245 329 386 426
#
# _framework density 23.744247000000001
#
# number of rings (size 3 to 8) (size 9 to 14) (size 15 to 20)
#    0.000    0.138    6.897    2.483    3.862    1.103 
#    0.000    2.069    0.000    0.000    0.000    0.000 
#    0.000    0.000    0.000    0.000    0.000    0.000 
#
# Total GULP energy -324473.745945 kJ/mol
# GULP energy per Si atom -5594.374930 kJ/mol
# Density = 2.369020 g / cm^3
# Si number density = 23.744247 Si / 1000 Ang^3
#
#
#
# Elastic Constant Matrix: (Units=GPa)
#
#
# Indices 1 2 3 4 5 6 
#
# 1 112.0884 42.9721 -3.6320 0.0000 0.0000 0.0000
# 2 42.9721 160.0133 20.4784 0.0000 0.0000 0.0000
# 3 -3.6320 20.4784 49.2409 0.0000 0.0000 0.0000
# 4 0.0000 0.0000 0.0000 45.3293 0.0000 0.0000
# 5 0.0000 0.0000 0.0000 0.0000 17.7729 0.0000
# 6 0.0000 0.0000 0.0000 0.0000 0.0000 32.5154
#
#
#
# Elastic Compliance Matrix: (Units=1/GPa)
#
#
# Indices 1 2 3 4 5 6 
#
# 1 0.010126 -0.002973 0.001983 0.000000 0.000000 0.000000
# 2 -0.002973 0.007474 -0.003328 0.000000 0.000000 0.000000
# 3 0.001983 -0.003328 0.021838 0.000000 0.000000 0.000000
# 4 0.000000 0.000000 0.000000 0.022061 0.000000 0.000000
# 5 0.000000 0.000000 0.000000 0.000000 0.056265 0.000000
# 6 0.000000 0.000000 0.000000 0.000000 0.000000 0.030755
#
#
# Mechanical properties :
#
#
# Convention : Reuss Voigt Hill
#
# Bulk Modulus (GPa) = 32.46405 48.99772 40.73088
# Shear Modulus (GPa) = 29.86485 36.55848 33.21166
#
# Velocity S-wave (km/s) = 3.55036 3.92813 3.74401
# Velocity P-wave (km/s) = 5.52347 6.42293 5.99011
#
# Compressibility (1/GPa) = 0.03080331
#
# Stress axis : x y z
#
# Youngs Moduli (GPa) = 98.75948 133.80130 45.79076
#
# Poissons Ratio (x) = 0.39780 -0.09082
# Poissons Ratio (y) = 0.29362 0.15237
# Poissons Ratio (z) = -0.19587 0.44522
#
# Static dielectric constant tensor:
#      x y z
#    x 1.909170 0.000000 0.000000 
#    y 0.000000 1.900530 0.000000 
#    z 0.000000 0.000000 2.016300 
# 
# From -- ./inp_files/30488.got.cif
#   From: 2010.05.17/outbox.cif.g08.bks.cpg/sg48_16_cif.got.tgz:30488.got - 2010.06.03 20:39:00.
