data_PCOD9391560
_publ_section_title
;
Structure prediction by ZEFSAII (Michael W. Deem and Ramdas Pophale) SiO2 
 PCOD9391560
Probable space group: P N N N
;
_chemical_formula_sum "Si O2"
_cell_formula_units_Z 64
_cell_length_a 10.918084
_cell_length_b 8.337800
_cell_length_c 32.071677
_cell_angle_alpha 90.000000
_cell_angle_beta 90.000000
_cell_angle_gamma 90.000000
_cell_volume 2919.574583
_symmetry_space_group_name_H-M "P N N N"
_symmetry_group_IT_number 48
_space_group.IT_coordinate_system_code '2'
_symmetry_cell_setting 'orthorhombic'
loop_
_space_group_symop_operation_xyz
x,y,z
1/2-x,1/2-y,z
x,1/2-y,1/2-z
1/2-x,y,1/2-z
-x,-y,-z
1/2+x,1/2+y,-z
-x,1/2+y,1/2+z
1/2+x,-y,1/2+z
loop_
_atom_site_type_symbol
_atom_site_label
_atom_site_fract_x
_atom_site_fract_y
_atom_site_fract_z
Si Si1 0.127885 0.571824 0.230743
Si Si2 0.221740 0.423243 0.590507
Si Si3 0.377100 0.931058 0.734976
Si Si4 0.248891 0.058228 0.154003
Si Si5 0.560015 0.162356 0.076449
Si Si6 0.023047 0.922670 0.855347
Si Si7 0.365341 0.940809 0.511824
Si Si8 0.700771 0.567730 0.556931
O O1 0.128173 0.750000 0.250000
O O2 0.250000 0.488245 0.250000
O O3 0.157315 0.543079 0.182096
O O4 0.997995 0.503503 0.244138
O O5 0.250000 0.250000 0.607021
O O6 0.332991 0.549141 0.594318
O O7 0.096062 0.472128 0.611975
O O8 0.194819 0.426243 0.541624
O O9 0.374553 0.750000 0.750000
O O10 0.250000 0.010141 0.750000
O O11 0.392492 0.918470 0.685324
O O12 0.250000 0.250000 0.163716
O O13 0.272317 0.033892 0.105270
O O14 0.106843 0.011960 0.159952
O O15 0.507987 0.260639 0.116768
O O16 0.615711 0.284275 0.041527
O O17 0.446842 0.071993 0.054477
O O18 0.500000 0.000000 0.500000
O O19 0.275529 0.944867 0.472124
O O20 0.750000 0.750000 0.548897
#
# Coordination Sequence:
#
# PCOD9391560 Si02
#       8
#     8   8   8   8   8   8   8   8
#     4  11  25  46  69 102 149 189 227 292 367 430
#     4  11  27  47  68  99 139 196 235 286 358 426
#     4  11  26  42  72 108 134 183 246 294 348 431
#     4  11  21  41  77 108 138 188 238 293 354 429
#     4  11  24  44  74  99 141 191 231 299 363 423
#     4  11  21  45  70 101 139 174 237 295 355 423
#     4  11  21  41  72 101 144 179 227 297 359 418
#     4  11  20  38  69 113 140 176 239 297 354 431
#
# _framework density 21.921001
#
# number of rings (size 3 to 8) (size 9 to 14) (size 15 to 20)
#    0.000    1.000    5.000    3.375    3.500    0.750 
#    6.750    0.000    5.500    0.000    0.000    0.000 
#    0.000    0.000    0.000    0.000    0.000    0.000 
#
# Total GULP energy -357237.276842 kJ/mol
# GULP energy per Si atom -5581.832451 kJ/mol
# Density = 2.187111 g / cm^3
# Si number density = 21.921001 Si / 1000 Ang^3
#
#
#
# Elastic Constant Matrix: (Units=GPa)
#
#
# Indices 1 2 3 4 5 6 
#
# 1 154.8237 36.9663 28.1490 0.0000 0.0000 0.0000
# 2 36.9663 68.3300 26.9855 0.0000 0.0000 0.0000
# 3 28.1490 26.9855 130.1645 0.0000 0.0000 0.0000
# 4 0.0000 0.0000 0.0000 9.8389 0.0000 0.0000
# 5 0.0000 0.0000 0.0000 0.0000 40.4732 0.0000
# 6 0.0000 0.0000 0.0000 0.0000 0.0000 6.8289
#
#
#
# Elastic Compliance Matrix: (Units=1/GPa)
#
#
# Indices 1 2 3 4 5 6 
#
# 1 0.007503 -0.003723 -0.000851 0.000000 0.000000 0.000000
# 2 -0.003723 0.017787 -0.002883 0.000000 0.000000 0.000000
# 3 -0.000851 -0.002883 0.008464 0.000000 0.000000 0.000000
# 4 0.000000 0.000000 0.000000 0.101637 0.000000 0.000000
# 5 0.000000 0.000000 0.000000 0.000000 0.024708 0.000000
# 6 0.000000 0.000000 0.000000 0.000000 0.000000 0.146436
#
#
# Mechanical properties :
#
#
# Convention : Reuss Voigt Hill
#
# Bulk Modulus (GPa) = 53.07338 59.72443 56.39891
# Shear Modulus (GPa) = 15.25655 28.84270 22.04963
#
# Velocity S-wave (km/s) = 2.64100 3.63127 3.17498
# Velocity P-wave (km/s) = 5.79341 6.69970 6.26297
#
# Compressibility (1/GPa) = 0.01884184
#
# Stress axis : x y z
#
# Youngs Moduli (GPa) = 133.28875 56.21976 118.14536
#
# Poissons Ratio (x) = 0.20930 0.10050
# Poissons Ratio (y) = 0.49622 0.34056
# Poissons Ratio (z) = 0.11338 0.16206
#
# Static dielectric constant tensor:
#      x y z
#    x 2.007070 0.000000 0.000000 
#    y 0.000000 1.862830 0.000000 
#    z 0.000000 0.000000 1.773350 
# 
# From -- ./inp_files/38972.got.cif
#   From: 2010.05.17/outbox.cif.g08.bks.cpg/sg48_20_cif.got.tgz:38972.got - 2010.06.03 20:39:00.
