data_PCOD9391195
_publ_section_title
;
Structure prediction by ZEFSAII (Michael W. Deem and Ramdas Pophale) SiO2 
 PCOD9391195
Probable space group: P N N N
;
_chemical_formula_sum "Si O2"
_cell_formula_units_Z 52
_cell_length_a 20.006920
_cell_length_b 22.130856
_cell_length_c 5.523903
_cell_angle_alpha 90.000000
_cell_angle_beta 90.000000
_cell_angle_gamma 90.000000
_cell_volume 2445.819998
_symmetry_space_group_name_H-M "P N N N"
_symmetry_group_IT_number 48
_space_group.IT_coordinate_system_code '2'
_symmetry_cell_setting 'orthorhombic'
loop_
_space_group_symop_operation_xyz
x,y,z
1/2-x,1/2-y,z
x,1/2-y,1/2-z
1/2-x,y,1/2-z
-x,-y,-z
1/2+x,1/2+y,-z
-x,1/2+y,1/2+z
1/2+x,-y,1/2+z
loop_
_atom_site_type_symbol
_atom_site_label
_atom_site_fract_x
_atom_site_fract_y
_atom_site_fract_z
Si Si1 0.163706 0.187713 0.383011
Si Si2 0.969119 0.817615 0.314305
Si Si3 0.121045 0.403557 0.520712
Si Si4 0.910820 0.390739 0.018051
Si Si5 0.827044 0.224107 0.497929
Si Si6 0.750000 0.862451 0.250000
Si Si7 0.928230 0.466317 0.518663
O O1 0.163644 0.250000 0.250000
O O2 0.102098 0.193854 0.565592
O O3 0.232737 0.177525 0.520294
O O4 0.144467 0.131664 0.215652
O O5 0.993097 0.750000 0.250000
O O6 0.946178 0.868060 0.112780
O O7 0.023863 0.847978 0.487979
O O8 0.181876 0.397590 0.709605
O O9 0.116615 0.474082 0.476403
O O10 0.845236 0.347064 0.007999
O O11 0.915801 0.430905 0.771514
O O12 0.915630 0.427078 0.272857
O O13 0.750000 0.250000 0.495620
O O14 0.854458 0.250000 0.750000
O O15 0.857676 0.250000 0.250000
O O16 0.000000 0.500000 0.500000
#
# Coordination Sequence:
#
# PCOD9391195 Si02
#       7
#     8   8   8   8   8   4   8
#     4  11  23  42  66  97 136 181 231 297 355 428
#     4  11  23  40  66 103 137 173 236 299 364 432
#     4  11  24  44  65  93 139 184 233 294 356 422
#     4  12  26  44  75 111 140 195 242 294 378 439
#     4  10  22  45  75 105 147 187 237 311 372 438
#     4  10  26  41  64  94 130 182 239 280 354 420
#     4  12  26  46  72 103 147 193 240 300 362 453
#
# _framework density 21.260762
#
# number of rings (size 3 to 8) (size 9 to 14) (size 15 to 20)
#    0.000    0.923    3.077    3.231    4.308    2.462 
#    0.000    4.615    0.000    0.000    0.000    0.000 
#    0.000    0.000    0.000    0.000    0.000    0.000 
#
# Total GULP energy -289918.577568 kJ/mol
# GULP energy per Si atom -5575.357261 kJ/mol
# Density = 2.121237 g / cm^3
# Si number density = 21.260762 Si / 1000 Ang^3
#
#
#
# Elastic Constant Matrix: (Units=GPa)
#
#
# Indices 1 2 3 4 5 6 
#
# 1 80.3726 41.1754 13.7706 0.0000 0.0000 0.0000
# 2 41.1754 170.3310 75.8892 0.0000 0.0000 0.0000
# 3 13.7706 75.8892 149.6472 0.0000 0.0000 0.0000
# 4 0.0000 0.0000 0.0000 48.3139 0.0000 0.0000
# 5 0.0000 0.0000 0.0000 0.0000 11.1510 0.0000
# 6 0.0000 0.0000 0.0000 0.0000 0.0000 12.8493
#
#
#
# Elastic Compliance Matrix: (Units=1/GPa)
#
#
# Indices 1 2 3 4 5 6 
#
# 1 0.014237 -0.003692 0.000562 0.000000 0.000000 0.000000
# 2 -0.003692 0.008542 -0.003992 0.000000 0.000000 0.000000
# 3 0.000562 -0.003992 0.008655 0.000000 0.000000 0.000000
# 4 0.000000 0.000000 0.000000 0.020698 0.000000 0.000000
# 5 0.000000 0.000000 0.000000 0.000000 0.089678 0.000000
# 6 0.000000 0.000000 0.000000 0.000000 0.000000 0.077825
#
#
# Mechanical properties :
#
#
# Convention : Reuss Voigt Hill
#
# Bulk Modulus (GPa) = 58.17199 73.55790 65.86494
# Shear Modulus (GPa) = 20.86724 32.43054 26.64889
#
# Velocity S-wave (km/s) = 3.13627 3.90984 3.54422
# Velocity P-wave (km/s) = 6.36675 7.41994 6.91343
#
# Compressibility (1/GPa) = 0.01719041
#
# Stress axis : x y z
#
# Youngs Moduli (GPa) = 70.23827 117.06695 115.53832
#
# Poissons Ratio (x) = 0.43223 -0.06496
# Poissons Ratio (y) = 0.25933 0.46124
# Poissons Ratio (z) = -0.03949 0.46735
#
# Static dielectric constant tensor:
#      x y z
#    x 1.914990 0.000000 0.000000 
#    y 0.000000 1.839500 0.000000 
#    z 0.000000 0.000000 1.905870 
# 
# From -- ./inp_files/5257.got.cif
#   From: 2010.05.17/outbox.cif.g08.bks.cpg/sg48_3_cif.got.tgz:5257.got - 2010.06.03 20:39:00.
