data_PCOD9391390
_publ_section_title
;
Structure prediction by ZEFSAII (Michael W. Deem and Ramdas Pophale) SiO2 
 PCOD9391390
Probable space group: P N N N
;
_chemical_formula_sum "Si O2"
_cell_formula_units_Z 64
_cell_length_a 13.286514
_cell_length_b 12.004282
_cell_length_c 18.664888
_cell_angle_alpha 90.000000
_cell_angle_beta 90.000000
_cell_angle_gamma 90.000000
_cell_volume 2976.957447
_symmetry_space_group_name_H-M "P N N N"
_symmetry_group_IT_number 48
_space_group.IT_coordinate_system_code '2'
_symmetry_cell_setting 'orthorhombic'
loop_
_space_group_symop_operation_xyz
x,y,z
1/2-x,1/2-y,z
x,1/2-y,1/2-z
1/2-x,y,1/2-z
-x,-y,-z
1/2+x,1/2+y,-z
-x,1/2+y,1/2+z
1/2+x,-y,1/2+z
loop_
_atom_site_type_symbol
_atom_site_label
_atom_site_fract_x
_atom_site_fract_y
_atom_site_fract_z
Si Si1 0.307016 0.913117 0.422145
Si Si2 0.370297 0.486443 0.930291
Si Si3 0.972101 0.507692 0.804580
Si Si4 0.697943 0.934381 0.173759
Si Si5 0.434554 0.081512 0.355698
Si Si6 0.853351 0.691257 0.892266
Si Si7 0.615492 0.778417 0.051883
Si Si8 0.097707 0.686601 0.110032
O O1 0.192382 0.875865 0.424039
O O2 0.367383 0.813927 0.382622
O O3 0.346195 0.938605 0.501254
O O4 0.329462 0.024839 0.378652
O O5 0.282636 0.499172 0.871508
O O6 0.477296 0.520598 0.898813
O O7 0.375615 0.355102 0.949470
O O8 0.952127 0.556624 0.726780
O O9 0.905408 0.584603 0.856963
O O10 0.933043 0.381402 0.818869
O O11 0.092812 0.500983 0.816540
O O12 0.750000 0.905251 0.250000
O O13 0.666874 0.830850 0.122476
O O14 0.432767 0.209291 0.377762
O O15 0.750000 0.750000 0.864381
O O16 0.841963 0.673776 0.977669
O O17 0.499296 0.812734 0.059452
#
# Coordination Sequence:
#
# PCOD9391390 Si02
#       8
#     8   8   8   8   8   8   8   8
#     4  11  23  42  70 102 137 186 234 291 361 429
#     4  12  23  44  72 102 137 182 245 294 358 431
#     4  11  27  46  68 104 146 188 235 297 363 429
#     4  11  25  47  71 107 144 185 237 302 377 435
#     4  12  24  45  72  98 145 185 239 297 356 437
#     4  12  26  45  73 107 140 191 246 293 353 428
#     4  11  24  43  72 107 140 184 239 303 351 434
#     4  10  24  43  66 102 141 179 234 286 365 421
#
# _framework density 21.498459
#
# number of rings (size 3 to 8) (size 9 to 14) (size 15 to 20)
#    0.000    0.750    3.750    3.375    3.500    5.000 
#    0.000    1.250    0.000    0.000    0.000    0.000 
#    0.000    0.000    0.000    0.000    0.000    0.000 
#
# Total GULP energy -357735.936658 kJ/mol
# GULP energy per Si atom -5589.624010 kJ/mol
# Density = 2.144953 g / cm^3
# Si number density = 21.498459 Si / 1000 Ang^3
#
#
#
# Elastic Constant Matrix: (Units=GPa)
#
#
# Indices 1 2 3 4 5 6 
#
# 1 132.4464 18.7331 20.9151 0.0000 0.0000 0.0000
# 2 18.7331 85.9591 14.1154 0.0000 0.0000 0.0000
# 3 20.9151 14.1154 89.1211 0.0000 0.0000 0.0000
# 4 0.0000 0.0000 0.0000 -21.5486 0.0000 0.0000
# 5 0.0000 0.0000 0.0000 0.0000 28.6737 0.0000
# 6 0.0000 0.0000 0.0000 0.0000 0.0000 19.7551
#
#
#
# Elastic Compliance Matrix: (Units=1/GPa)
#
#
# Indices 1 2 3 4 5 6 
#
# 1 0.008019 -0.001477 -0.001648 0.000000 0.000000 0.000000
# 2 -0.001477 0.012216 -0.001588 0.000000 0.000000 0.000000
# 3 -0.001648 -0.001588 0.011859 0.000000 0.000000 0.000000
# 4 0.000000 0.000000 0.000000 -0.046407 0.000000 0.000000
# 5 0.000000 0.000000 0.000000 0.000000 0.034875 0.000000
# 6 0.000000 0.000000 0.000000 0.000000 0.000000 0.050620
#
#
# Mechanical properties :
#
#
# Convention : Reuss Voigt Hill
#
# Bulk Modulus (GPa) = 44.11523 46.11706 45.11615
# Shear Modulus (GPa) = 56.71160 22.29358 39.50259
#
# Velocity S-wave (km/s) = 5.14166 3.22372 4.29121
# Velocity P-wave (km/s) = 7.47085 5.94596 6.75159
#
# Compressibility (1/GPa) = 0.02266791
#
# Stress axis : x y z
#
# Youngs Moduli (GPa) = 124.69778 81.85901 84.32408
#
# Poissons Ratio (x) = 0.12091 0.13897
# Poissons Ratio (y) = 0.18418 0.13392
# Poissons Ratio (z) = 0.20551 0.13001
#
# Static dielectric constant tensor:
#      x y z
#    x 1.807780 0.000000 0.000000 
#    y 0.000000 1.785060 0.000000 
#    z 0.000000 0.000000 1.747070 
# 
# From -- ./inp_files/31697.got.cif
#   From: 2010.05.17/outbox.cif.g08.bks.cpg/sg48_16_cif.got.tgz:31697.got - 2010.06.03 20:39:00.
