data_PCOD9391853
_publ_section_title
;
Structure prediction by ZEFSAII (Michael W. Deem and Ramdas Pophale) SiO2 
 PCOD9391853
Probable space group: P N N N
;
_chemical_formula_sum "Si O2"
_cell_formula_units_Z 38
_cell_length_a 25.993268
_cell_length_b 5.274226
_cell_length_c 12.127577
_cell_angle_alpha 90.000000
_cell_angle_beta 90.000000
_cell_angle_gamma 90.000000
_cell_volume 1662.622527
_symmetry_space_group_name_H-M "P N N N"
_symmetry_group_IT_number 48
_space_group.IT_coordinate_system_code '2'
_symmetry_cell_setting 'orthorhombic'
loop_
_space_group_symop_operation_xyz
x,y,z
1/2-x,1/2-y,z
x,1/2-y,1/2-z
1/2-x,y,1/2-z
-x,-y,-z
1/2+x,1/2+y,-z
-x,1/2+y,1/2+z
1/2+x,-y,1/2+z
loop_
_atom_site_type_symbol
_atom_site_label
_atom_site_fract_x
_atom_site_fract_y
_atom_site_fract_z
Si Si1 0.375817 0.671899 0.128161
Si Si2 0.561164 0.813943 0.926021
Si Si3 0.618542 0.250000 0.250000
Si Si4 0.750000 0.750000 0.250000
Si Si5 0.967077 0.586377 0.163808
Si Si6 0.303428 0.890694 0.573231
O O1 0.357158 0.750000 0.250000
O O2 0.413115 0.427869 0.130069
O O3 0.405596 0.925598 0.085494
O O4 0.331283 0.576832 0.043862
O O5 0.504423 0.867321 0.879415
O O6 0.553166 0.769573 0.056221
O O7 0.580012 0.481904 0.265242
O O8 0.654566 0.259800 0.356079
O O9 0.786799 0.602890 0.336623
O O10 0.999285 0.750000 0.250000
O O11 0.250000 0.750000 0.553202
#
# Coordination Sequence:
#
# PCOD9391853 Si02
#       6
#     8   8   4   2   8   8
#     4  12  28  50  78 109 161 211 266 313 391 473
#     4  11  27  49  71 112 157 211 260 318 385 471
#     4  12  23  44  70 118 152 194 255 326 406 474
#     4  12  26  48  84 116 160 188 270 346 430 464
#     4  11  26  41  75 110 160 202 263 321 396 471
#     4  12  27  48  78 114 152 204 258 340 406 469
#
# _framework density 22.855460000000001
#
# number of rings (size 3 to 8) (size 9 to 14) (size 15 to 20)
#    0.000    0.421    4.211    2.526   13.263    2.105 
#    0.000    0.000    0.000    0.000    0.000    0.000 
#    0.000    0.000    0.000    0.000    0.000    0.000 
#
# Total GULP energy -212367.083601 kJ/mol
# GULP energy per Si atom -5588.607463 kJ/mol
# Density = 2.280344 g / cm^3
# Si number density = 22.855460 Si / 1000 Ang^3
#
#
#
# Elastic Constant Matrix: (Units=GPa)
#
#
# Indices 1 2 3 4 5 6 
#
# 1 107.5340 27.9118 45.0799 0.0000 0.0000 0.0000
# 2 27.9118 100.7685 30.5992 0.0000 0.0000 0.0000
# 3 45.0799 30.5992 157.4877 0.0000 0.0000 0.0000
# 4 0.0000 0.0000 0.0000 19.7983 0.0000 0.0000
# 5 0.0000 0.0000 0.0000 0.0000 15.6032 0.0000
# 6 0.0000 0.0000 0.0000 0.0000 0.0000 13.8379
#
#
#
# Elastic Compliance Matrix: (Units=1/GPa)
#
#
# Indices 1 2 3 4 5 6 
#
# 1 0.011018 -0.002225 -0.002721 0.000000 0.000000 0.000000
# 2 -0.002225 0.010995 -0.001499 0.000000 0.000000 0.000000
# 3 -0.002721 -0.001499 0.007420 0.000000 0.000000 0.000000
# 4 0.000000 0.000000 0.000000 0.050509 0.000000 0.000000
# 5 0.000000 0.000000 0.000000 0.000000 0.064089 0.000000
# 6 0.000000 0.000000 0.000000 0.000000 0.000000 0.072265
#
#
# Mechanical properties :
#
#
# Convention : Reuss Voigt Hill
#
# Bulk Modulus (GPa) = 60.45613 63.66357 62.05985
# Shear Modulus (GPa) = 21.30349 27.32784 24.31566
#
# Velocity S-wave (km/s) = 3.05634 3.46161 3.26527
# Velocity P-wave (km/s) = 6.24210 6.62513 6.43647
#
# Compressibility (1/GPa) = 0.01654092
#
# Stress axis : x y z
#
# Youngs Moduli (GPa) = 90.76150 90.94667 134.77080
#
# Poissons Ratio (x) = 0.20240 0.36677
# Poissons Ratio (y) = 0.20199 0.20207
# Poissons Ratio (z) = 0.24700 0.13636
#
# Static dielectric constant tensor:
#      x y z
#    x 1.856070 0.000000 0.000000 
#    y 0.000000 1.886500 0.000000 
#    z 0.000000 0.000000 1.841330 
# 
# From -- ./inp_files/23518.got.cif
#   From: 2010.05.17/outbox.cif.g08.bks.cpg/sg48_12_cif.got.tgz:23518.got - 2010.06.03 20:39:00.
