data_PCOD9391840
_publ_section_title
;
Structure prediction by ZEFSAII (Michael W. Deem and Ramdas Pophale) SiO2 
 PCOD9391840
Probable space group: P N N N
;
_chemical_formula_sum "Si O2"
_cell_formula_units_Z 40
_cell_length_a 8.393750
_cell_length_b 7.971321
_cell_length_c 23.900572
_cell_angle_alpha 90.000000
_cell_angle_beta 90.000000
_cell_angle_gamma 90.000000
_cell_volume 1599.169960
_symmetry_space_group_name_H-M "P N N N"
_symmetry_group_IT_number 48
_space_group.IT_coordinate_system_code '2'
_symmetry_cell_setting 'orthorhombic'
loop_
_space_group_symop_operation_xyz
x,y,z
1/2-x,1/2-y,z
x,1/2-y,1/2-z
1/2-x,y,1/2-z
-x,-y,-z
1/2+x,1/2+y,-z
-x,1/2+y,1/2+z
1/2+x,-y,1/2+z
loop_
_atom_site_type_symbol
_atom_site_label
_atom_site_fract_x
_atom_site_fract_y
_atom_site_fract_z
Si Si1 0.450936 0.060298 0.417765
Si Si2 0.059227 0.270530 0.977902
Si Si3 0.923090 0.174580 0.184470
Si Si4 0.419090 0.471241 0.389472
Si Si5 0.566825 0.421195 0.729115
O O1 0.478893 0.228639 0.456113
O O2 0.570657 0.039776 0.365762
O O3 0.475972 0.891093 0.451908
O O4 0.266093 0.055910 0.401990
O O5 0.250000 0.250000 0.973624
O O6 0.000371 0.432856 0.942830
O O7 0.750000 0.250000 0.190152
O O8 0.027246 0.311069 0.149679
O O9 0.984910 0.080391 0.239877
O O10 0.433478 0.599662 0.337416
O O11 0.489769 0.250000 0.750000
O O12 0.750000 0.432084 0.750000
#
# Coordination Sequence:
#
# PCOD9391840 Si02
#       5
#     8   8   8   8   8
#     4  11  25  45  73 105 150 209 262 319 398 480
#     4  11  25  45  70 108 153 201 270 331 391 468
#     4  12  26  46  75 116 154 197 255 328 400 464
#     4  12  25  44  75 105 151 204 261 325 398 478
#     4  11  25  46  78 110 147 202 265 323 391 482
#
# _framework density 25.012975999999998
#
# number of rings (size 3 to 8) (size 9 to 14) (size 15 to 20)
#    0.000    0.600    2.000    5.400    2.800    8.800 
#    0.000    1.000    0.000    0.000    0.000    0.000 
#    0.000    0.000    0.000    0.000    0.000    0.000 
#
# Total GULP energy -223155.482835 kJ/mol
# GULP energy per Si atom -5578.887071 kJ/mol
# Density = 2.495605 g / cm^3
# Si number density = 25.012976 Si / 1000 Ang^3
#
#
#
# Elastic Constant Matrix: (Units=GPa)
#
#
# Indices 1 2 3 4 5 6 
#
# 1 118.6313 41.5387 58.3513 0.0000 0.0000 0.0000
# 2 41.5387 145.1849 38.6084 0.0000 0.0000 0.0000
# 3 58.3513 38.6084 234.7555 0.0000 0.0000 0.0000
# 4 0.0000 0.0000 0.0000 8.8984 0.0000 0.0000
# 5 0.0000 0.0000 0.0000 0.0000 31.4808 0.0000
# 6 0.0000 0.0000 0.0000 0.0000 0.0000 30.3805
#
#
#
# Elastic Compliance Matrix: (Units=1/GPa)
#
#
# Indices 1 2 3 4 5 6 
#
# 1 0.010333 -0.002377 -0.002177 0.000000 0.000000 0.000000
# 2 -0.002377 0.007750 -0.000684 0.000000 0.000000 0.000000
# 3 -0.002177 -0.000684 0.004913 0.000000 0.000000 0.000000
# 4 0.000000 0.000000 0.000000 0.112379 0.000000 0.000000
# 5 0.000000 0.000000 0.000000 0.000000 0.031765 0.000000
# 6 0.000000 0.000000 0.000000 0.000000 0.000000 0.032916
#
#
# Mechanical properties :
#
#
# Convention : Reuss Voigt Hill
#
# Bulk Modulus (GPa) = 79.87621 86.17427 83.02524
# Shear Modulus (GPa) = 23.28762 38.15683 30.72223
#
# Velocity S-wave (km/s) = 3.05458 3.90998 3.50844
# Velocity P-wave (km/s) = 6.66662 7.41016 7.04820
#
# Compressibility (1/GPa) = 0.01251937
#
# Stress axis : x y z
#
# Youngs Moduli (GPa) = 96.77840 129.03672 203.52517
#
# Poissons Ratio (x) = 0.30676 0.44315
# Poissons Ratio (y) = 0.23007 0.13914
# Poissons Ratio (z) = 0.21072 0.08821
#
# Static dielectric constant tensor:
#      x y z
#    x 1.904580 0.000000 0.000000 
#    y 0.000000 2.275860 0.000000 
#    z 0.000000 0.000000 2.257490 
# 
# From -- ./inp_files/35693.got.cif
#   From: 2010.05.17/outbox.cif.g08.bks.cpg/sg48_18_cif.got.tgz:35693.got - 2010.06.03 20:39:00.
