data_PCOD9391219
_publ_section_title
;
Structure prediction by ZEFSAII (Michael W. Deem and Ramdas Pophale) SiO2 
 PCOD9391219
Probable space group: P N N N
;
_chemical_formula_sum "Si O2"
_cell_formula_units_Z 34
_cell_length_a 31.169163
_cell_length_b 9.275907
_cell_length_c 6.029193
_cell_angle_alpha 90.000000
_cell_angle_beta 90.000000
_cell_angle_gamma 90.000000
_cell_volume 1743.173890
_symmetry_space_group_name_H-M "P N N N"
_symmetry_group_IT_number 48
_space_group.IT_coordinate_system_code '2'
_symmetry_cell_setting 'orthorhombic'
loop_
_space_group_symop_operation_xyz
x,y,z
1/2-x,1/2-y,z
x,1/2-y,1/2-z
1/2-x,y,1/2-z
-x,-y,-z
1/2+x,1/2+y,-z
-x,1/2+y,1/2+z
1/2+x,-y,1/2+z
loop_
_atom_site_type_symbol
_atom_site_label
_atom_site_fract_x
_atom_site_fract_y
_atom_site_fract_z
Si Si1 0.881725 0.997097 0.430407
Si Si2 0.250000 0.750000 0.250000
Si Si3 0.593350 0.750000 0.750000
Si Si4 0.948937 0.499700 0.468747
Si Si5 0.906086 0.250000 0.750000
Si Si6 0.792970 0.093876 0.358521
O O1 0.882149 0.140097 0.585258
O O2 0.835660 0.004212 0.314204
O O3 0.882215 0.856987 0.585202
O O4 0.923382 0.998685 0.267725
O O5 0.220428 0.857337 0.394521
O O6 0.566292 0.857873 0.597477
O O7 0.933079 0.356592 0.594472
O O8 0.000000 0.500000 0.500000
O O9 0.800256 0.250000 0.250000
O O10 0.750000 0.029498 0.250000
#
# Coordination Sequence:
#
# PCOD9391219 Si02
#       6
#     8   2   4   8   4   8
#     4  11  22  42  62  95 128 163 212 256 316 372
#     4   8  16  32  56  96 128 152 198 254 308 372
#     4  10  26  40  62  89 122 170 199 258 310 372
#     4  11  25  40  65  86 125 159 211 260 313 370
#     4  10  23  36  64  95 118 164 203 258 310 373
#     4   9  18  32  60  93 126 158 198 255 310 364
#
# _framework density 19.504650000000002
#
# number of rings (size 3 to 8) (size 9 to 14) (size 15 to 20)
#    0.000    2.118    0.000    3.529    6.588    7.529 
#    0.000    0.000    0.000   10.588    0.000    1.647 
#    0.000    0.000    0.000    0.000    0.000    0.000 
#
# Total GULP energy -189387.258268 kJ/mol
# GULP energy per Si atom -5570.213478 kJ/mol
# Density = 1.946026 g / cm^3
# Si number density = 19.504650 Si / 1000 Ang^3
#
#
#
# Elastic Constant Matrix: (Units=GPa)
#
#
# Indices 1 2 3 4 5 6 
#
# 1 148.4104 37.7127 38.1565 0.0000 0.0000 0.0000
# 2 37.7127 115.0922 24.7978 0.0000 0.0000 0.0000
# 3 38.1565 24.7978 84.2592 0.0000 0.0000 0.0000
# 4 0.0000 0.0000 0.0000 10.0127 0.0000 0.0000
# 5 0.0000 0.0000 0.0000 0.0000 1.2702 0.0000
# 6 0.0000 0.0000 0.0000 0.0000 0.0000 0.2847
#
#
#
# Elastic Compliance Matrix: (Units=1/GPa)
#
#
# Indices 1 2 3 4 5 6 
#
# 1 0.008024 -0.001971 -0.003053 0.000000 0.000000 0.000000
# 2 -0.001971 0.009761 -0.001980 0.000000 0.000000 0.000000
# 3 -0.003053 -0.001980 0.013834 0.000000 0.000000 0.000000
# 4 0.000000 0.000000 0.000000 0.099873 0.000000 0.000000
# 5 0.000000 0.000000 0.000000 0.000000 0.787285 0.000000
# 6 0.000000 0.000000 0.000000 0.000000 0.000000 3.512209
#
#
# Mechanical properties :
#
#
# Convention : Reuss Voigt Hill
#
# Bulk Modulus (GPa) = 56.78861 61.01063 58.89962
# Shear Modulus (GPa) = 1.12338 18.78651 9.95494
#
# Velocity S-wave (km/s) = 0.75974 3.10688 2.26163
# Velocity P-wave (km/s) = 5.47250 6.64968 6.08960
#
# Compressibility (1/GPa) = 0.01760916
#
# Stress axis : x y z
#
# Youngs Moduli (GPa) = 124.62493 102.44561 72.28757
#
# Poissons Ratio (x) = 0.20196 0.22073
# Poissons Ratio (y) = 0.24568 0.14313
# Poissons Ratio (z) = 0.38054 0.20285
#
# Static dielectric constant tensor:
#      x y z
#    x 1.733940 0.000000 0.000000 
#    y 0.000000 1.643500 0.000000 
#    z 0.000000 0.000000 1.766280 
# 
# From -- ./inp_files/1200.got.cif
#   From: 2010.05.17/outbox.cif.g08.bks.cpg/sg48_1_cif.got.tgz:1200.got - 2010.06.03 20:39:00.
