data_PCOD9391311
_publ_section_title
;
Structure prediction by ZEFSAII (Michael W. Deem and Ramdas Pophale) SiO2 
 PCOD9391311
Probable space group: P N N N
;
_chemical_formula_sum "Si O2"
_cell_formula_units_Z 28
_cell_length_a 5.144061
_cell_length_b 9.715960
_cell_length_c 22.960440
_cell_angle_alpha 90.000000
_cell_angle_beta 90.000000
_cell_angle_gamma 90.000000
_cell_volume 1147.551102
_symmetry_space_group_name_H-M "P N N N"
_symmetry_group_IT_number 48
_space_group.IT_coordinate_system_code '2'
_symmetry_cell_setting 'orthorhombic'
loop_
_space_group_symop_operation_xyz
x,y,z
1/2-x,1/2-y,z
x,1/2-y,1/2-z
1/2-x,y,1/2-z
-x,-y,-z
1/2+x,1/2+y,-z
-x,1/2+y,1/2+z
1/2+x,-y,1/2+z
loop_
_atom_site_type_symbol
_atom_site_label
_atom_site_fract_x
_atom_site_fract_y
_atom_site_fract_z
Si Si1 0.250000 0.750000 0.874466
Si Si2 0.709754 0.962499 0.317961
Si Si3 0.683088 0.395039 0.612231
Si Si4 0.347389 0.382669 0.034175
O O1 0.203998 0.619504 0.832889
O O2 0.474251 0.692405 0.917293
O O3 0.750000 0.937469 0.250000
O O4 0.423222 0.935891 0.344801
O O5 0.924047 0.874848 0.351635
O O6 0.750000 0.250000 0.582692
O O7 0.641120 0.521041 0.567807
O O8 0.250000 0.250000 0.998664
O O9 0.500000 0.500000 0.000000
#
# Coordination Sequence:
#
# PCOD9391311 Si02
#       4
#     4   8   8   8
#     4  10  23  44  64 104 138 176 245 290 352 438
#     4  11  23  42  72 101 142 189 231 291 359 422
#     4  11  25  44  67 104 147 180 236 296 348 431
#     4  11  25  45  72  99 140 192 242 303 362 434
#
# _framework density 24.399782999999999
#
# number of rings (size 3 to 8) (size 9 to 14) (size 15 to 20)
#    0.000    1.143    2.857    2.143    2.000    9.143 
#    0.000    2.857    0.000    0.000    0.000    0.000 
#    0.000    0.000    0.000    0.000    0.000    0.000 
#
# Total GULP energy -156560.643733 kJ/mol
# GULP energy per Si atom -5591.451562 kJ/mol
# Density = 2.434425 g / cm^3
# Si number density = 24.399783 Si / 1000 Ang^3
#
#
#
# Elastic Constant Matrix: (Units=GPa)
#
#
# Indices 1 2 3 4 5 6 
#
# 1 107.1112 24.3722 29.2388 0.0000 0.0000 0.0000
# 2 24.3722 217.8858 34.4629 0.0000 0.0000 0.0000
# 3 29.2388 34.4629 71.8762 0.0000 0.0000 0.0000
# 4 0.0000 0.0000 0.0000 15.1138 0.0000 0.0000
# 5 0.0000 0.0000 0.0000 0.0000 28.2914 0.0000
# 6 0.0000 0.0000 0.0000 0.0000 0.0000 42.3531
#
#
#
# Elastic Compliance Matrix: (Units=1/GPa)
#
#
# Indices 1 2 3 4 5 6 
#
# 1 0.010561 -0.000543 -0.004036 0.000000 0.000000 0.000000
# 2 -0.000543 0.004994 -0.002174 0.000000 0.000000 0.000000
# 3 -0.004036 -0.002174 0.016597 0.000000 0.000000 0.000000
# 4 0.000000 0.000000 0.000000 0.066165 0.000000 0.000000
# 5 0.000000 0.000000 0.000000 0.000000 0.035346 0.000000
# 6 0.000000 0.000000 0.000000 0.000000 0.000000 0.023611
#
#
# Mechanical properties :
#
#
# Convention : Reuss Voigt Hill
#
# Bulk Modulus (GPa) = 53.62768 63.66899 58.64834
# Shear Modulus (GPa) = 28.24932 37.73829 32.99380
#
# Velocity S-wave (km/s) = 3.40629 3.93703 3.68124
# Velocity P-wave (km/s) = 6.12347 6.84235 6.49287
#
# Compressibility (1/GPa) = 0.01864709
#
# Stress axis : x y z
#
# Youngs Moduli (GPa) = 94.68480 200.23602 60.25249
#
# Poissons Ratio (x) = 0.10873 0.24317
# Poissons Ratio (y) = 0.05141 0.13097
# Poissons Ratio (z) = 0.38214 0.43525
#
# Static dielectric constant tensor:
#      x y z
#    x 2.291070 0.000000 0.000000 
#    y 0.000000 2.000650 0.000000 
#    z 0.000000 0.000000 1.952690 
# 
# From -- ./inp_files/905.got.cif
#   From: 2010.05.17/outbox.cif.g08.bks.cpg/sg48_1_cif.got.tgz:905.got - 2010.06.03 20:39:00.
