data_PCOD9391622
_publ_section_title
;
Structure prediction by ZEFSAII (Michael W. Deem and Ramdas Pophale) SiO2 
 PCOD9391622
Probable space group: P N N N
;
_chemical_formula_sum "Si O2"
_cell_formula_units_Z 48
_cell_length_a 21.340904
_cell_length_b 8.936658
_cell_length_c 10.815654
_cell_angle_alpha 90.000000
_cell_angle_beta 90.000000
_cell_angle_gamma 90.000000
_cell_volume 2062.722167
_symmetry_space_group_name_H-M "P N N N"
_symmetry_group_IT_number 48
_space_group.IT_coordinate_system_code '2'
_symmetry_cell_setting 'orthorhombic'
loop_
_space_group_symop_operation_xyz
x,y,z
1/2-x,1/2-y,z
x,1/2-y,1/2-z
1/2-x,y,1/2-z
-x,-y,-z
1/2+x,1/2+y,-z
-x,1/2+y,1/2+z
1/2+x,-y,1/2+z
loop_
_atom_site_type_symbol
_atom_site_label
_atom_site_fract_x
_atom_site_fract_y
_atom_site_fract_z
Si Si1 0.191410 0.576979 0.523488
Si Si2 0.166787 0.905932 0.448747
Si Si3 0.429768 0.133537 0.928721
Si Si4 0.857263 0.914125 0.794957
Si Si5 0.996612 0.822694 0.872952
Si Si6 0.092808 0.454122 0.664268
O O1 0.159775 0.728735 0.469122
O O2 0.266071 0.576167 0.516027
O O3 0.173205 0.452688 0.423993
O O4 0.159190 0.537865 0.654223
O O5 0.114978 0.012983 0.508718
O O6 0.163652 0.962497 0.306412
O O7 0.443183 0.067188 0.793733
O O8 0.397307 0.290024 0.891316
O O9 0.481382 0.194527 0.025462
O O10 0.837074 0.750000 0.750000
O O11 0.931723 0.895693 0.822368
O O12 0.026313 0.750000 0.750000
O O13 0.045832 0.945967 0.916615
#
# Coordination Sequence:
#
# PCOD9391622 Si02
#       6
#     8   8   8   8   8   8
#     4  11  25  42  68 101 141 186 231 301 359 432
#     4  11  24  44  67 101 140 181 243 295 360 428
#     4  11  24  46  68 101 139 184 242 289 355 436
#     4  11  21  42  69 104 136 181 234 294 362 422
#     4  11  23  44  70 104 138 181 239 301 362 436
#     4  11  26  43  69 101 140 188 234 289 361 436
#
# _framework density 23.270220999999999
#
# number of rings (size 3 to 8) (size 9 to 14) (size 15 to 20)
#    0.000    1.000    5.000    1.500    2.333    7.333 
#    3.000    3.333    0.000    0.000    0.000    0.000 
#    0.000    0.000    0.000    0.000    0.000    0.000 
#
# Total GULP energy -267846.508286 kJ/mol
# GULP energy per Si atom -5580.135589 kJ/mol
# Density = 2.321726 g / cm^3
# Si number density = 23.270221 Si / 1000 Ang^3
#
#
#
# Elastic Constant Matrix: (Units=GPa)
#
#
# Indices 1 2 3 4 5 6 
#
# 1 73.7475 37.9458 14.7040 0.0000 0.0000 0.0000
# 2 37.9458 121.1919 32.8548 0.0000 0.0000 0.0000
# 3 14.7040 32.8548 94.6354 0.0000 0.0000 0.0000
# 4 0.0000 0.0000 0.0000 25.3383 0.0000 0.0000
# 5 0.0000 0.0000 0.0000 0.0000 23.4891 0.0000
# 6 0.0000 0.0000 0.0000 0.0000 0.0000 174.1781
#
#
#
# Elastic Compliance Matrix: (Units=1/GPa)
#
#
# Indices 1 2 3 4 5 6 
#
# 1 0.016224 -0.004853 -0.000836 0.000000 0.000000 0.000000
# 2 -0.004853 0.010560 -0.002912 0.000000 0.000000 0.000000
# 3 -0.000836 -0.002912 0.011708 0.000000 0.000000 0.000000
# 4 0.000000 0.000000 0.000000 0.039466 0.000000 0.000000
# 5 0.000000 0.000000 0.000000 0.000000 0.042573 0.000000
# 6 0.000000 0.000000 0.000000 0.000000 0.000000 0.005741
#
#
# Mechanical properties :
#
#
# Convention : Reuss Voigt Hill
#
# Bulk Modulus (GPa) = 46.97183 51.17599 49.07391
# Shear Modulus (GPa) = 33.20699 58.20577 45.70638
#
# Velocity S-wave (km/s) = 3.78169 5.00672 4.43669
# Velocity P-wave (km/s) = 6.26876 7.44734 6.88332
#
# Compressibility (1/GPa) = 0.02128936
#
# Stress axis : x y z
#
# Youngs Moduli (GPa) = 61.63897 94.69342 85.41317
#
# Poissons Ratio (x) = 0.45955 0.07139
# Poissons Ratio (y) = 0.29914 0.24874
# Poissons Ratio (z) = 0.05152 0.27577
#
# Static dielectric constant tensor:
#      x y z
#    x 1.881070 0.000000 0.000000 
#    y 0.000000 1.941910 0.000000 
#    z 0.000000 0.000000 1.996480 
# 
# From -- ./inp_files/23278.got.cif
#   From: 2010.05.17/outbox.cif.g08.bks.cpg/sg48_12_cif.got.tgz:23278.got - 2010.06.03 20:39:00.
