data_PCOD9391606
_publ_section_title
;
Structure prediction by ZEFSAII (Michael W. Deem and Ramdas Pophale) SiO2 
 PCOD9391606
Probable space group: P N N N
;
_chemical_formula_sum "Si O2"
_cell_formula_units_Z 52
_cell_length_a 16.426342
_cell_length_b 9.369986
_cell_length_c 15.836708
_cell_angle_alpha 90.000000
_cell_angle_beta 90.000000
_cell_angle_gamma 90.000000
_cell_volume 2437.500491
_symmetry_space_group_name_H-M "P N N N"
_symmetry_group_IT_number 48
_space_group.IT_coordinate_system_code '2'
_symmetry_cell_setting 'orthorhombic'
loop_
_space_group_symop_operation_xyz
x,y,z
1/2-x,1/2-y,z
x,1/2-y,1/2-z
1/2-x,y,1/2-z
-x,-y,-z
1/2+x,1/2+y,-z
-x,1/2+y,1/2+z
1/2+x,-y,1/2+z
loop_
_atom_site_type_symbol
_atom_site_label
_atom_site_fract_x
_atom_site_fract_y
_atom_site_fract_z
Si Si1 0.037977 0.762043 0.452087
Si Si2 0.250000 0.985756 0.250000
Si Si3 0.284872 0.394994 0.429517
Si Si4 0.049696 0.999139 0.655936
Si Si5 0.573481 0.444254 0.797737
Si Si6 0.310528 0.624231 0.562245
Si Si7 0.947451 0.761037 0.889743
O O1 0.063459 0.662320 0.375362
O O2 0.117004 0.810707 0.504354
O O3 0.980642 0.685062 0.520470
O O4 0.988346 0.898747 0.416558
O O5 0.250516 0.071013 0.337572
O O6 0.159873 0.913788 0.249192
O O7 0.250000 0.250000 0.466081
O O8 0.267864 0.520061 0.494761
O O9 0.377531 0.353828 0.409915
O O10 0.144623 0.971917 0.633982
O O11 0.015268 0.838089 0.652412
O O12 0.007359 0.063601 0.739468
O O13 0.576383 0.606843 0.832065
O O14 0.250000 0.750000 0.591024
#
# Coordination Sequence:
#
# PCOD9391606 Si02
#       7
#     8   4   8   8   8   8   8
#     4  11  22  42  64  94 131 172 221 275 335 407
#     4  12  23  34  59 100 141 168 203 272 351 408
#     4  12  22  37  63  94 136 171 208 265 344 408
#     4  11  22  41  65  90 131 179 217 270 338 405
#     4  12  24  37  64 101 136 170 223 279 336 407
#     4  11  23  43  64  93 131 177 229 273 332 406
#     4  11  21  39  63  93 128 172 220 259 332 412
#
# _framework density 21.333328999999999
#
# number of rings (size 3 to 8) (size 9 to 14) (size 15 to 20)
#    0.000    0.615    6.154    3.462    0.000    0.000 
#    0.000    5.000    0.000    7.385    0.000    1.077 
#    0.000    0.000    0.000    0.000    0.000    0.000 
#
# Total GULP energy -290072.892374 kJ/mol
# GULP energy per Si atom -5578.324853 kJ/mol
# Density = 2.128477 g / cm^3
# Si number density = 21.333329 Si / 1000 Ang^3
#
#
#
# Elastic Constant Matrix: (Units=GPa)
#
#
# Indices 1 2 3 4 5 6 
#
# 1 65.8608 12.3285 26.2906 0.0000 0.0000 0.0000
# 2 12.3285 69.0560 7.5192 0.0000 0.0000 0.0000
# 3 26.2906 7.5192 73.3297 0.0000 0.0000 0.0000
# 4 0.0000 0.0000 0.0000 21.9486 0.0000 0.0000
# 5 0.0000 0.0000 0.0000 0.0000 28.3634 0.0000
# 6 0.0000 0.0000 0.0000 0.0000 0.0000 21.1340
#
#
#
# Elastic Compliance Matrix: (Units=1/GPa)
#
#
# Indices 1 2 3 4 5 6 
#
# 1 0.018157 -0.002561 -0.006247 0.000000 0.000000 0.000000
# 2 -0.002561 0.015006 -0.000620 0.000000 0.000000 0.000000
# 3 -0.006247 -0.000620 0.015940 0.000000 0.000000 0.000000
# 4 0.000000 0.000000 0.000000 0.045561 0.000000 0.000000
# 5 0.000000 0.000000 0.000000 0.000000 0.035257 0.000000
# 6 0.000000 0.000000 0.000000 0.000000 0.000000 0.047317
#
#
# Mechanical properties :
#
#
# Convention : Reuss Voigt Hill
#
# Bulk Modulus (GPa) = 33.06280 33.39146 33.22713
# Shear Modulus (GPa) = 24.25104 25.09644 24.67374
#
# Velocity S-wave (km/s) = 3.37526 3.43358 3.40455
# Velocity P-wave (km/s) = 5.54271 5.60407 5.57347
#
# Compressibility (1/GPa) = 0.03024547
#
# Stress axis : x y z
#
# Youngs Moduli (GPa) = 55.07612 66.64087 62.73376
#
# Poissons Ratio (x) = 0.17069 0.39190
# Poissons Ratio (y) = 0.14107 0.03892
# Poissons Ratio (z) = 0.34406 0.04134
#
# Static dielectric constant tensor:
#      x y z
#    x 2.060250 0.000000 0.000000 
#    y 0.000000 1.781730 0.000000 
#    z 0.000000 0.000000 1.802400 
# 
# From -- ./inp_files/31976.got.cif
#   From: 2010.05.17/outbox.cif.g08.bks.cpg/sg48_16_cif.got.tgz:31976.got - 2010.06.03 20:39:00.
