data_PCOD9391227
_publ_section_title
;
Structure prediction by ZEFSAII (Michael W. Deem and Ramdas Pophale) SiO2 
 PCOD9391227
Probable space group: P N N N
;
_chemical_formula_sum "Si O2"
_cell_formula_units_Z 28
_cell_length_a 23.267289
_cell_length_b 10.335598
_cell_length_c 5.290041
_cell_angle_alpha 90.000000
_cell_angle_beta 90.000000
_cell_angle_gamma 90.000000
_cell_volume 1272.156178
_symmetry_space_group_name_H-M "P N N N"
_symmetry_group_IT_number 48
_space_group.IT_coordinate_system_code '2'
_symmetry_cell_setting 'orthorhombic'
loop_
_space_group_symop_operation_xyz
x,y,z
1/2-x,1/2-y,z
x,1/2-y,1/2-z
1/2-x,y,1/2-z
-x,-y,-z
1/2+x,1/2+y,-z
-x,1/2+y,1/2+z
1/2+x,-y,1/2+z
loop_
_atom_site_type_symbol
_atom_site_label
_atom_site_fract_x
_atom_site_fract_y
_atom_site_fract_z
Si Si1 0.096244 0.981575 0.073869
Si Si2 0.452252 0.629256 0.598751
Si Si3 0.724799 0.101809 0.500242
Si Si4 0.064700 0.250000 0.250000
O O1 0.073342 0.911543 0.330748
O O2 0.100677 0.133935 0.133181
O O3 0.055018 0.971996 0.827968
O O4 0.156964 0.915673 0.010371
O O5 0.423717 0.750000 0.750000
O O6 0.517967 0.676970 0.569389
O O7 0.750000 0.250000 0.500296
O O8 0.750000 0.039945 0.250000
O O9 0.750000 0.039057 0.750000
#
# Coordination Sequence:
#
# PCOD9391227 Si02
#       4
#     8   8   8   4
#     4  12  23  44  63  98 136 177 220 280 334 395
#     4  10  25  37  67  98 135 172 229 264 332 399
#     4  10  23  38  63  95 121 159 223 282 333 378
#     4  10  26  40  67  94 143 184 222 258 342 412
#
# _framework density 22.009872999999999
#
# number of rings (size 3 to 8) (size 9 to 14) (size 15 to 20)
#    0.857    0.571    0.000    4.286   12.000    3.429 
#    0.000    0.714    0.000    1.714    0.000    0.000 
#    0.000    0.000    0.000    0.000    0.000    0.000 
#
# Total GULP energy -155981.595527 kJ/mol
# GULP energy per Si atom -5570.771269 kJ/mol
# Density = 2.195978 g / cm^3
# Si number density = 22.009873 Si / 1000 Ang^3
#
#
#
# Elastic Constant Matrix: (Units=GPa)
#
#
# Indices 1 2 3 4 5 6 
#
# 1 124.1770 46.3912 46.9484 0.0000 0.0000 0.0000
# 2 46.3912 109.4859 25.2083 0.0000 0.0000 0.0000
# 3 46.9484 25.2083 185.4086 0.0000 0.0000 0.0000
# 4 0.0000 0.0000 0.0000 17.3272 0.0000 0.0000
# 5 0.0000 0.0000 0.0000 0.0000 27.6325 0.0000
# 6 0.0000 0.0000 0.0000 0.0000 0.0000 -445.0098
#
#
#
# Elastic Compliance Matrix: (Units=1/GPa)
#
#
# Indices 1 2 3 4 5 6 
#
# 1 0.010288 -0.003881 -0.002078 0.000000 0.000000 0.000000
# 2 -0.003881 0.010893 -0.000498 0.000000 0.000000 0.000000
# 3 -0.002078 -0.000498 0.005987 0.000000 0.000000 0.000000
# 4 0.000000 0.000000 0.000000 0.057713 0.000000 0.000000
# 5 0.000000 0.000000 0.000000 0.000000 0.036189 0.000000
# 6 0.000000 0.000000 0.000000 0.000000 0.000000 -0.002247
#
#
# Mechanical properties :
#
#
# Convention : Reuss Voigt Hill
#
# Bulk Modulus (GPa) = 70.15155 72.90748 71.52952
# Shear Modulus (GPa) = 36.63309 -59.97513 -11.67102
#
# Velocity S-wave (km/s) = 4.08412 -5.22574 -2.30524
# Velocity P-wave (km/s) = 7.36085 1.79285 5.04815
#
# Compressibility (1/GPa) = 0.01425485
#
# Stress axis : x y z
#
# Youngs Moduli (GPa) = 97.19687 91.80382 167.02032
#
# Poissons Ratio (x) = 0.35630 0.34699
# Poissons Ratio (y) = 0.37723 0.08322
# Poissons Ratio (z) = 0.20193 0.04574
#
# Static dielectric constant tensor:
#      x y z
#    x 1.834590 0.000000 0.000000 
#    y 0.000000 1.900530 0.000000 
#    z 0.000000 0.000000 1.873170 
# 
# From -- ./inp_files/4820.got.cif
#   From: 2010.05.17/outbox.cif.g08.bks.cpg/sg48_3_cif.got.tgz:4820.got - 2010.06.03 20:39:00.
