data_PCOD9391569
_publ_section_title
;
Structure prediction by ZEFSAII (Michael W. Deem and Ramdas Pophale) SiO2 
 PCOD9391569
Probable space group: P N N N
;
_chemical_formula_sum "Si O2"
_cell_formula_units_Z 48
_cell_length_a 13.080381
_cell_length_b 14.240095
_cell_length_c 12.981160
_cell_angle_alpha 90.000000
_cell_angle_beta 90.000000
_cell_angle_gamma 90.000000
_cell_volume 2417.947036
_symmetry_space_group_name_H-M "P N N N"
_symmetry_group_IT_number 48
_space_group.IT_coordinate_system_code '2'
_symmetry_cell_setting 'orthorhombic'
loop_
_space_group_symop_operation_xyz
x,y,z
1/2-x,1/2-y,z
x,1/2-y,1/2-z
1/2-x,y,1/2-z
-x,-y,-z
1/2+x,1/2+y,-z
-x,1/2+y,1/2+z
1/2+x,-y,1/2+z
loop_
_atom_site_type_symbol
_atom_site_label
_atom_site_fract_x
_atom_site_fract_y
_atom_site_fract_z
Si Si1 0.250000 0.750000 0.750000
Si Si2 0.109397 0.601877 0.876589
Si Si3 0.260838 0.033782 0.019802
Si Si4 0.750000 0.750000 0.250000
Si Si5 0.895059 0.630151 0.398467
Si Si6 0.519059 0.426645 0.714985
Si Si7 0.436918 0.318387 0.517831
Si Si8 0.750000 0.483457 0.750000
O O1 0.178754 0.677164 0.815576
O O2 0.050624 0.519150 0.812013
O O3 0.174108 0.550635 0.968011
O O4 0.016973 0.653836 0.931993
O O5 0.230568 0.032507 0.139628
O O6 0.160784 0.043817 0.950419
O O7 0.332951 0.124342 0.000805
O O8 0.817662 0.682736 0.320533
O O9 0.989401 0.603568 0.328968
O O10 0.920321 0.708272 0.481747
O O11 0.482331 0.352539 0.628188
O O12 0.641510 0.436100 0.718285
#
# Coordination Sequence:
#
# PCOD9391569 Si02
#       8
#     2   8   8   2   8   8   8   4
#     4  12  28  42  68 100 122 160 232 272 346 380
#     4  11  23  45  66  88 131 177 205 270 337 415
#     4  11  22  42  67  94 127 175 220 260 337 399
#     4  12  16  34  64  92 128 154 204 276 334 352
#     4  12  22  36  68 103 128 158 229 282 310 389
#     4  11  22  42  67  94 127 175 220 260 337 399
#     4  11  20  42  65  94 132 171 200 275 340 391
#     4  12  24  40  66  88 128 184 218 260 316 422
#
# _framework density 19.851551000000001
#
# number of rings (size 3 to 8) (size 9 to 14) (size 15 to 20)
#    0.000    0.667    6.667    3.000    0.000    3.333 
#    0.000    1.667    0.000    0.000    0.000    0.000 
#    0.000    0.000    0.000    0.000    0.000    0.000 
#
# Total GULP energy -267668.328877 kJ/mol
# GULP energy per Si atom -5576.423518 kJ/mol
# Density = 1.980637 g / cm^3
# Si number density = 19.851551 Si / 1000 Ang^3
#
#
#
# Elastic Constant Matrix: (Units=GPa)
#
#
# Indices 1 2 3 4 5 6 
#
# 1 52.9842 9.6035 3.6631 0.0000 0.0000 0.0000
# 2 9.6035 34.3245 -0.9806 0.0000 0.0000 0.0000
# 3 3.6631 -0.9806 63.5552 0.0000 0.0000 0.0000
# 4 0.0000 0.0000 0.0000 -55.3390 0.0000 0.0000
# 5 0.0000 0.0000 0.0000 0.0000 39.0802 0.0000
# 6 0.0000 0.0000 0.0000 0.0000 0.0000 31.4228
#
#
#
# Elastic Compliance Matrix: (Units=1/GPa)
#
#
# Indices 1 2 3 4 5 6 
#
# 1 0.019979 -0.005625 -0.001238 0.000000 0.000000 0.000000
# 2 -0.005625 0.030730 0.000798 0.000000 0.000000 0.000000
# 3 -0.001238 0.000798 0.015818 0.000000 0.000000 0.000000
# 4 0.000000 0.000000 0.000000 -0.018070 0.000000 0.000000
# 5 0.000000 0.000000 0.000000 0.000000 0.025588 0.000000
# 6 0.000000 0.000000 0.000000 0.000000 0.000000 0.031824
#
#
# Mechanical properties :
#
#
# Convention : Reuss Voigt Hill
#
# Bulk Modulus (GPa) = 18.38340 19.49289 18.93815
# Shear Modulus (GPa) = 36.72918 12.27134 24.50026
#
# Velocity S-wave (km/s) = 4.30605 2.48897 3.51689
# Velocity P-wave (km/s) = 5.83124 4.25448 5.10411
#
# Compressibility (1/GPa) = 0.05439691
#
# Stress axis : x y z
#
# Youngs Moduli (GPa) = 50.05320 32.54114 63.21897
#
# Poissons Ratio (x) = 0.18305 0.07828
# Poissons Ratio (y) = 0.28156 -0.05047
# Poissons Ratio (z) = 0.06198 -0.02598
#
# Static dielectric constant tensor:
#      x y z
#    x 1.822480 0.000000 0.000000 
#    y 0.000000 1.722160 0.000000 
#    z 0.000000 0.000000 2.019200 
# 
# From -- ./inp_files/26510.got.cif
#   From: 2010.05.17/outbox.cif.g08.bks.cpg/sg48_14_cif.got.tgz:26510.got - 2010.06.03 20:39:00.
