data_PCOD9391089
_publ_section_title
;
Structure prediction by ZEFSAII (Michael W. Deem and Ramdas Pophale) SiO2 
 PCOD9391089
Probable space group: P N N N
;
_chemical_formula_sum "Si O2"
_cell_formula_units_Z 40
_cell_length_a 9.049688
_cell_length_b 22.078100
_cell_length_c 8.310925
_cell_angle_alpha 90.000000
_cell_angle_beta 90.000000
_cell_angle_gamma 90.000000
_cell_volume 1660.522122
_symmetry_space_group_name_H-M "P N N N"
_symmetry_group_IT_number 48
_space_group.IT_coordinate_system_code '2'
_symmetry_cell_setting 'orthorhombic'
loop_
_space_group_symop_operation_xyz
x,y,z
1/2-x,1/2-y,z
x,1/2-y,1/2-z
1/2-x,y,1/2-z
-x,-y,-z
1/2+x,1/2+y,-z
-x,1/2+y,1/2+z
1/2+x,-y,1/2+z
loop_
_atom_site_type_symbol
_atom_site_label
_atom_site_fract_x
_atom_site_fract_y
_atom_site_fract_z
Si Si1 0.792178 0.035220 0.928175
Si Si2 0.534380 0.095182 0.029374
Si Si3 0.601117 0.279081 0.570175
Si Si4 0.203104 0.168768 0.571043
Si Si5 0.941246 0.904357 0.896114
O O1 0.750000 0.054261 0.750000
O O2 0.853182 0.967485 0.911887
O O3 0.639253 0.037834 0.025645
O O4 0.912219 0.079872 0.004531
O O5 0.482780 0.106508 0.211060
O O6 0.633087 0.149940 0.957000
O O7 0.390277 0.105398 0.921179
O O8 0.750000 0.250000 0.494138
O O9 0.593825 0.250000 0.750000
O O10 0.425623 0.283479 0.515439
O O11 0.250000 0.184065 0.750000
O O12 0.342580 0.150541 0.463236
#
# Coordination Sequence:
#
# PCOD9391089 Si02
#       5
#     8   8   8   8   8
#     4  11  24  40  68 105 155 204 249 285 358 466
#     4  10  23  42  68 100 147 197 236 317 367 443
#     4   9  22  42  70 103 131 178 248 308 377 455
#     4  10  22  40  71 107 140 188 243 306 367 446
#     4  11  24  42  67 113 155 195 253 301 366 435
#
# _framework density 24.088809000000001
#
# number of rings (size 3 to 8) (size 9 to 14) (size 15 to 20)
#    1.200    0.600    0.000    3.600    2.800    6.800 
#    0.000    0.000    0.000    9.600   20.800    0.000 
#    0.000    0.000    0.000    0.000    0.000    0.000 
#
# Total GULP energy -222688.943799 kJ/mol
# GULP energy per Si atom -5567.223595 kJ/mol
# Density = 2.403398 g / cm^3
# Si number density = 24.088809 Si / 1000 Ang^3
#
#
#
# Elastic Constant Matrix: (Units=GPa)
#
#
# Indices 1 2 3 4 5 6 
#
# 1 167.2507 63.0961 64.5255 0.0000 0.0000 0.0000
# 2 63.0961 102.4052 38.8285 0.0000 0.0000 0.0000
# 3 64.5255 38.8285 88.8323 0.0000 0.0000 0.0000
# 4 0.0000 0.0000 0.0000 21.2874 0.0000 0.0000
# 5 0.0000 0.0000 0.0000 0.0000 33.8154 0.0000
# 6 0.0000 0.0000 0.0000 0.0000 0.0000 52.6112
#
#
#
# Elastic Compliance Matrix: (Units=1/GPa)
#
#
# Indices 1 2 3 4 5 6 
#
# 1 0.009422 -0.003848 -0.005162 0.000000 0.000000 0.000000
# 2 -0.003848 0.013277 -0.003008 0.000000 0.000000 0.000000
# 3 -0.005162 -0.003008 0.016322 0.000000 0.000000 0.000000
# 4 0.000000 0.000000 0.000000 0.046976 0.000000 0.000000
# 5 0.000000 0.000000 0.000000 0.000000 0.029572 0.000000
# 6 0.000000 0.000000 0.000000 0.000000 0.000000 0.019007
#
#
# Mechanical properties :
#
#
# Convention : Reuss Voigt Hill
#
# Bulk Modulus (GPa) = 66.73779 76.82095 71.77937
# Shear Modulus (GPa) = 30.56090 34.34534 32.45312
#
# Velocity S-wave (km/s) = 3.56571 3.78005 3.67444
# Velocity P-wave (km/s) = 6.68711 7.14224 6.91842
#
# Compressibility (1/GPa) = 0.01498401
#
# Stress axis : x y z
#
# Youngs Moduli (GPa) = 106.13060 75.31998 61.26854
#
# Poissons Ratio (x) = 0.28985 0.31628
# Poissons Ratio (y) = 0.40841 0.18430
# Poissons Ratio (z) = 0.54786 0.22656
#
# Static dielectric constant tensor:
#      x y z
#    x 2.058470 0.000000 0.000000 
#    y 0.000000 2.081420 0.000000 
#    z 0.000000 0.000000 1.904400 
# 
# From -- ./inp_files/9026.got.cif
#   From: 2010.05.17/outbox.cif.g08.bks.cpg/sg48_5_cif.got.tgz:9026.got - 2010.06.03 20:39:00.
