data_PCOD9391922
_publ_section_title
;
Structure prediction by ZEFSAII (Michael W. Deem and Ramdas Pophale) SiO2 
 PCOD9391922
Probable space group: P N N N
;
_chemical_formula_sum "Si O2"
_cell_formula_units_Z 22
_cell_length_a 31.833384
_cell_length_b 5.400580
_cell_length_c 5.061224
_cell_angle_alpha 90.000000
_cell_angle_beta 90.000000
_cell_angle_gamma 90.000000
_cell_volume 870.119238
_symmetry_space_group_name_H-M "P N N N"
_symmetry_group_IT_number 48
_space_group.IT_coordinate_system_code '2'
_symmetry_cell_setting 'orthorhombic'
loop_
_space_group_symop_operation_xyz
x,y,z
1/2-x,1/2-y,z
x,1/2-y,1/2-z
1/2-x,y,1/2-z
-x,-y,-z
1/2+x,1/2+y,-z
-x,1/2+y,1/2+z
1/2+x,-y,1/2+z
loop_
_atom_site_type_symbol
_atom_site_label
_atom_site_fract_x
_atom_site_fract_y
_atom_site_fract_z
Si Si1 0.548801 0.074656 0.003175
Si Si2 0.182218 0.905314 0.485484
Si Si3 0.889902 0.750000 0.750000
Si Si4 0.250000 0.250000 0.750000
O O1 0.557543 0.250000 0.750000
O O2 0.575887 0.824101 0.974245
O O3 0.558376 0.250000 0.250000
O O4 0.500000 0.000000 0.000000
O O5 0.201383 0.750000 0.250000
O O6 0.143427 0.037823 0.335866
O O7 0.217979 0.089405 0.580282
O O8 0.169483 0.750000 0.750000
#
# Coordination Sequence:
#
# PCOD9391922 Si02
#       4
#     8   8   4   2
#     4  12  27  48  76 111 154 210 271 328 394 466
#     4  12  29  52  78 117 156 202 260 322 400 485
#     4  12  28  49  80 112 164 206 266 329 402 458
#     4  12  30  54  88 116 160 206 262 326 408 480
#
# _framework density 25.28389
#
# number of rings (size 3 to 8) (size 9 to 14) (size 15 to 20)
#    0.000    0.000    1.818    6.000    0.000   16.727 
#    0.000    0.000    0.000    0.000    0.000    0.000 
#    0.000    0.000    0.000    0.000    0.000    0.000 
#
# Total GULP energy -122858.602304 kJ/mol
# GULP energy per Si atom -5584.481923 kJ/mol
# Density = 2.522634 g / cm^3
# Si number density = 25.283890 Si / 1000 Ang^3
#
#
#
# Elastic Constant Matrix: (Units=GPa)
#
#
# Indices 1 2 3 4 5 6 
#
# 1 191.5515 75.1715 46.9896 0.0000 0.0000 0.0000
# 2 75.1715 137.1224 113.4437 0.0000 0.0000 0.0000
# 3 46.9896 113.4437 246.0365 0.0000 0.0000 0.0000
# 4 0.0000 0.0000 0.0000 43.6720 0.0000 0.0000
# 5 0.0000 0.0000 0.0000 0.0000 -1.0617 0.0000
# 6 0.0000 0.0000 0.0000 0.0000 0.0000 -4.5518
#
#
#
# Elastic Compliance Matrix: (Units=1/GPa)
#
#
# Indices 1 2 3 4 5 6 
#
# 1 0.006719 -0.004239 0.000671 0.000000 0.000000 0.000000
# 2 -0.004239 0.014464 -0.005860 0.000000 0.000000 0.000000
# 3 0.000671 -0.005860 0.006638 0.000000 0.000000 0.000000
# 4 0.000000 0.000000 0.000000 0.022898 0.000000 0.000000
# 5 0.000000 0.000000 0.000000 0.000000 -0.941851 0.000000
# 6 0.000000 0.000000 0.000000 0.000000 0.000000 -0.219692
#
#
# Mechanical properties :
#
#
# Convention : Reuss Voigt Hill
#
# Bulk Modulus (GPa) = 111.52052 116.21334 113.86693
# Shear Modulus (GPa) = -4.59146 30.21873 12.81363
#
# Velocity S-wave (km/s) = -1.34904 3.46088 2.25364
# Velocity P-wave (km/s) = 6.46348 7.87613 7.20451
#
# Compressibility (1/GPa) = 0.00896696
#
# Stress axis : x y z
#
# Youngs Moduli (GPa) = 148.82365 69.13519 150.64558
#
# Poissons Ratio (x) = 0.29306 -0.10111
# Poissons Ratio (y) = 0.63085 0.88275
# Poissons Ratio (z) = -0.09989 0.40512
#
# Static dielectric constant tensor:
#      x y z
#    x 1.962800 0.000000 0.000000 
#    y 0.000000 -0.434130 0.000000 
#    z 0.000000 0.000000 1.561550 
# 
# From -- ./inp_files/6725.got.cif
#   From: 2010.05.17/outbox.cif.g08.bks.cpg/sg48_4_cif.got.tgz:6725.got - 2010.06.03 20:39:00.
