data_PCOD9391119
_publ_section_title
;
Structure prediction by ZEFSAII (Michael W. Deem and Ramdas Pophale) SiO2 
 PCOD9391119
Probable space group: P N N N
;
_chemical_formula_sum "Si O2"
_cell_formula_units_Z 34
_cell_length_a 8.724475
_cell_length_b 30.896750
_cell_length_c 5.595599
_cell_angle_alpha 90.000000
_cell_angle_beta 90.000000
_cell_angle_gamma 90.000000
_cell_volume 1508.338044
_symmetry_space_group_name_H-M "P N N N"
_symmetry_group_IT_number 48
_space_group.IT_coordinate_system_code '2'
_symmetry_cell_setting 'orthorhombic'
loop_
_space_group_symop_operation_xyz
x,y,z
1/2-x,1/2-y,z
x,1/2-y,1/2-z
1/2-x,y,1/2-z
-x,-y,-z
1/2+x,1/2+y,-z
-x,1/2+y,1/2+z
1/2+x,-y,1/2+z
loop_
_atom_site_type_symbol
_atom_site_label
_atom_site_fract_x
_atom_site_fract_y
_atom_site_fract_z
Si Si1 0.531849 0.320686 0.459381
Si Si2 0.750000 0.651940 0.250000
Si Si3 0.571356 0.983158 0.752478
Si Si4 0.750000 0.383703 0.750000
Si Si5 0.991696 0.892401 0.919628
Si Si6 0.750000 0.250000 0.250000
O O1 0.365025 0.319301 0.585471
O O2 0.630686 0.352575 0.621360
O O3 0.520936 0.347076 0.212593
O O4 0.633945 0.278618 0.410316
O O5 0.853269 0.619756 0.407033
O O6 0.750000 0.993870 0.750000
O O7 0.552309 0.931058 0.753931
O O8 0.500000 0.000000 0.500000
O O9 0.500000 0.000000 0.000000
O O10 0.854906 0.407420 0.557833
#
# Coordination Sequence:
#
# PCOD9391119 Si02
#       6
#     8   4   8   4   8   2
#     4  11  23  45  72 106 144 192 247 317 372 467
#     4  10  24  44  79 105 140 204 249 308 390 457
#     4  12  30  49  76 114 158 204 260 328 394 469
#     4  10  22  41  78 106 134 202 244 308 382 459
#     4  11  24  47  76 106 149 195 258 308 395 463
#     4  12  24  46  74 106 158 190 258 310 392 454
#
# _framework density 22.541364999999999
#
# number of rings (size 3 to 8) (size 9 to 14) (size 15 to 20)
#    0.000    0.941    2.353    2.824   11.529    2.353 
#    0.000    3.529    0.000    0.000    0.000    0.000 
#    0.000    0.000    0.000    0.000    0.000    0.000 
#
# Total GULP energy -190096.206707 kJ/mol
# GULP energy per Si atom -5591.064903 kJ/mol
# Density = 2.249006 g / cm^3
# Si number density = 22.541365 Si / 1000 Ang^3
#
#
#
# Elastic Constant Matrix: (Units=GPa)
#
#
# Indices 1 2 3 4 5 6 
#
# 1 192.1504 48.7543 78.5349 0.0000 0.0000 0.0000
# 2 48.7543 103.3146 36.0068 0.0000 0.0000 0.0000
# 3 78.5349 36.0068 119.7795 0.0000 0.0000 0.0000
# 4 0.0000 0.0000 0.0000 65.6415 0.0000 0.0000
# 5 0.0000 0.0000 0.0000 0.0000 56.7279 0.0000
# 6 0.0000 0.0000 0.0000 0.0000 0.0000 29.9922
#
#
#
# Elastic Compliance Matrix: (Units=1/GPa)
#
#
# Indices 1 2 3 4 5 6 
#
# 1 0.007473 -0.002032 -0.004289 0.000000 0.000000 0.000000
# 2 -0.002032 0.011364 -0.002084 0.000000 0.000000 0.000000
# 3 -0.004289 -0.002084 0.011787 0.000000 0.000000 0.000000
# 4 0.000000 0.000000 0.000000 0.015234 0.000000 0.000000
# 5 0.000000 0.000000 0.000000 0.000000 0.017628 0.000000
# 6 0.000000 0.000000 0.000000 0.000000 0.000000 0.033342
#
#
# Mechanical properties :
#
#
# Convention : Reuss Voigt Hill
#
# Bulk Modulus (GPa) = 72.38536 82.42627 77.40581
# Shear Modulus (GPa) = 42.28601 47.26891 44.77746
#
# Velocity S-wave (km/s) = 4.33590 4.58425 4.46180
# Velocity P-wave (km/s) = 7.56628 8.04155 7.80753
#
# Compressibility (1/GPa) = 0.01381495
#
# Stress axis : x y z
#
# Youngs Moduli (GPa) = 133.82147 87.99517 84.83789
#
# Poissons Ratio (x) = 0.17877 0.36385
# Poissons Ratio (y) = 0.27188 0.17681
# Poissons Ratio (z) = 0.57393 0.18339
#
# Static dielectric constant tensor:
#      x y z
#    x 1.800660 0.000000 0.000000 
#    y 0.000000 1.831230 0.000000 
#    z 0.000000 0.000000 1.862350 
# 
# From -- ./inp_files/1202.got.cif
#   From: 2010.05.17/outbox.cif.g08.bks.cpg/sg48_1_cif.got.tgz:1202.got - 2010.06.03 20:39:00.
