data_PCOD9391350
_publ_section_title
;
Structure prediction by ZEFSAII (Michael W. Deem and Ramdas Pophale) SiO2 
 PCOD9391350
Probable space group: P N N N
;
_chemical_formula_sum "Si O2"
_cell_formula_units_Z 56
_cell_length_a 5.085631
_cell_length_b 19.966870
_cell_length_c 22.359961
_cell_angle_alpha 90.000000
_cell_angle_beta 90.000000
_cell_angle_gamma 90.000000
_cell_volume 2270.522855
_symmetry_space_group_name_H-M "P N N N"
_symmetry_group_IT_number 48
_space_group.IT_coordinate_system_code '2'
_symmetry_cell_setting 'orthorhombic'
loop_
_space_group_symop_operation_xyz
x,y,z
1/2-x,1/2-y,z
x,1/2-y,1/2-z
1/2-x,y,1/2-z
-x,-y,-z
1/2+x,1/2+y,-z
-x,1/2+y,1/2+z
1/2+x,-y,1/2+z
loop_
_atom_site_type_symbol
_atom_site_label
_atom_site_fract_x
_atom_site_fract_y
_atom_site_fract_z
Si Si1 0.926542 0.315649 0.971389
Si Si2 0.840203 0.027643 0.057246
Si Si3 0.014154 0.895722 0.710545
Si Si4 0.546370 0.046349 0.804708
Si Si5 0.340976 0.387399 0.420889
Si Si6 0.594998 0.409112 0.902689
Si Si7 0.231760 0.322428 0.843835
O O1 0.750000 0.250000 0.980308
O O2 0.722900 0.377346 0.961119
O O3 0.084211 0.313906 0.908494
O O4 0.117144 0.332022 0.027022
O O5 0.045420 0.083101 0.083174
O O6 0.548134 0.055752 0.056969
O O7 0.840839 0.955592 0.090919
O O8 0.000000 0.000000 0.000000
O O9 0.250000 0.865477 0.750000
O O10 0.944385 0.866874 0.644976
O O11 0.750000 0.894848 0.750000
O O12 0.090740 0.974060 0.698864
O O13 0.750000 0.049162 0.750000
O O14 0.712510 0.045310 0.865352
O O15 0.391375 0.116216 0.807503
O O16 0.521880 0.346442 0.861670
O O17 0.250000 0.250000 0.815626
#
# Coordination Sequence:
#
# PCOD9391350 Si02
#       7
#     8   8   8   8   8   8   8
#     4  11  24  42  63  95 131 172 215 268 333 407
#     4  12  23  38  62 101 137 169 211 278 343 398
#     4  11  24  44  68  97 136 173 217 280 346 403
#     4  10  24  39  63  88 125 170 226 278 328 382
#     4  12  25  41  67 103 132 175 221 268 339 415
#     4  11  22  40  61  90 129 170 212 272 336 392
#     4  11  23  41  65  85 128 181 226 276 335 384
#
# _framework density 24.663924999999999
#
# number of rings (size 3 to 8) (size 9 to 14) (size 15 to 20)
#    0.000    0.857    4.286    3.000    8.000    0.000 
#    0.000    2.143    0.000    0.429    0.000    1.000 
#    0.000    0.000    0.000    0.000    0.000    0.000 
#
# Total GULP energy -313078.971464 kJ/mol
# GULP energy per Si atom -5590.695919 kJ/mol
# Density = 2.460779 g / cm^3
# Si number density = 24.663925 Si / 1000 Ang^3
#
#
#
# Elastic Constant Matrix: (Units=GPa)
#
#
# Indices 1 2 3 4 5 6 
#
# 1 78.8915 12.7564 14.6582 0.0000 0.0000 0.0000
# 2 12.7564 51.2456 22.5079 0.0000 0.0000 0.0000
# 3 14.6582 22.5079 124.8307 0.0000 0.0000 0.0000
# 4 0.0000 0.0000 0.0000 13.5427 0.0000 0.0000
# 5 0.0000 0.0000 0.0000 0.0000 37.1560 0.0000
# 6 0.0000 0.0000 0.0000 0.0000 0.0000 29.4512
#
#
#
# Elastic Compliance Matrix: (Units=1/GPa)
#
#
# Indices 1 2 3 4 5 6 
#
# 1 0.013333 -0.002858 -0.001050 0.000000 0.000000 0.000000
# 2 -0.002858 0.021805 -0.003596 0.000000 0.000000 0.000000
# 3 -0.001050 -0.003596 0.008783 0.000000 0.000000 0.000000
# 4 0.000000 0.000000 0.000000 0.073840 0.000000 0.000000
# 5 0.000000 0.000000 0.000000 0.000000 0.026914 0.000000
# 6 0.000000 0.000000 0.000000 0.000000 0.000000 0.033954
#
#
# Mechanical properties :
#
#
# Convention : Reuss Voigt Hill
#
# Bulk Modulus (GPa) = 34.58748 39.42364 37.00556
# Shear Modulus (GPa) = 24.59738 29.69967 27.14852
#
# Velocity S-wave (km/s) = 3.16143 3.47389 3.32134
# Velocity P-wave (km/s) = 5.23261 5.66653 5.45389
#
# Compressibility (1/GPa) = 0.02891220
#
# Stress axis : x y z
#
# Youngs Moduli (GPa) = 75.00268 45.86189 113.86187
#
# Poissons Ratio (x) = 0.13105 0.11960
# Poissons Ratio (y) = 0.21432 0.40945
# Poissons Ratio (z) = 0.07878 0.16492
#
# Static dielectric constant tensor:
#      x y z
#    x 2.003010 0.000000 0.000000 
#    y 0.000000 1.967630 0.000000 
#    z 0.000000 0.000000 2.098860 
# 
# From -- ./inp_files/5345.got.cif
#   From: 2010.05.17/outbox.cif.g08.bks.cpg/sg48_3_cif.got.tgz:5345.got - 2010.06.03 20:39:00.
