data_PCOD9391212
_publ_section_title
;
Structure prediction by ZEFSAII (Michael W. Deem and Ramdas Pophale) SiO2 
 PCOD9391212
Probable space group: P N N N
;
_chemical_formula_sum "Si O2"
_cell_formula_units_Z 32
_cell_length_a 15.585723
_cell_length_b 5.107067
_cell_length_c 15.484276
_cell_angle_alpha 90.000000
_cell_angle_beta 90.000000
_cell_angle_gamma 90.000000
_cell_volume 1232.507051
_symmetry_space_group_name_H-M "P N N N"
_symmetry_group_IT_number 48
_space_group.IT_coordinate_system_code '2'
_symmetry_cell_setting 'orthorhombic'
loop_
_space_group_symop_operation_xyz
x,y,z
1/2-x,1/2-y,z
x,1/2-y,1/2-z
1/2-x,y,1/2-z
-x,-y,-z
1/2+x,1/2+y,-z
-x,1/2+y,1/2+z
1/2+x,-y,1/2+z
loop_
_atom_site_type_symbol
_atom_site_label
_atom_site_fract_x
_atom_site_fract_y
_atom_site_fract_z
Si Si1 0.871978 0.499368 0.805046
Si Si2 0.306028 0.494326 0.870447
Si Si3 0.877636 0.807416 0.517283
Si Si4 0.463061 0.694028 0.622435
O O1 0.848900 0.250000 0.750000
O O2 0.838448 0.530113 0.902906
O O3 0.976206 0.519981 0.816404
O O4 0.846660 0.750000 0.750000
O O5 0.250000 0.250000 0.837487
O O6 0.324194 0.414594 0.969868
O O7 0.250000 0.750000 0.859252
O O8 0.399774 0.588234 0.839036
O O9 0.961317 0.682545 0.563463
O O10 0.909079 0.002689 0.441047
#
# Coordination Sequence:
#
# PCOD9391212 Si02
#       4
#     8   8   8   8
#     4  10  23  35  62  98 122 157 202 261 321 367
#     4  12  23  36  61  98 124 166 214 262 319 376
#     4   9  21  39  65  91 129 154 214 268 311 362
#     4   9  21  39  65  91 129 154 214 268 311 362
#
# _framework density 25.963342000000001
#
# number of rings (size 3 to 8) (size 9 to 14) (size 15 to 20)
#    1.500    0.500    2.500    0.750    7.000    0.000 
#    0.000    0.000    0.000    1.500   13.000    0.000 
#    0.000    0.000    0.000    0.000    0.000    0.000 
#
# Total GULP energy -178628.605705 kJ/mol
# GULP energy per Si atom -5582.143928 kJ/mol
# Density = 2.590425 g / cm^3
# Si number density = 25.963342 Si / 1000 Ang^3
#
#
#
# Elastic Constant Matrix: (Units=GPa)
#
#
# Indices 1 2 3 4 5 6 
#
# 1 97.8219 39.5370 38.6740 0.0000 0.0000 0.0000
# 2 39.5370 167.3861 52.8738 0.0000 0.0000 0.0000
# 3 38.6740 52.8738 112.9343 0.0000 0.0000 0.0000
# 4 0.0000 0.0000 0.0000 -0.0941 0.0000 0.0000
# 5 0.0000 0.0000 0.0000 0.0000 -2.6367 0.0000
# 6 0.0000 0.0000 0.0000 0.0000 0.0000 56.2123
#
#
#
# Elastic Compliance Matrix: (Units=1/GPa)
#
#
# Indices 1 2 3 4 5 6 
#
# 1 0.012291 -0.001847 -0.003344 0.000000 0.000000 0.000000
# 2 -0.001847 0.007289 -0.002780 0.000000 0.000000 0.000000
# 3 -0.003344 -0.002780 0.011302 0.000000 0.000000 0.000000
# 4 0.000000 0.000000 0.000000-10.628514 0.000000 0.000000
# 5 0.000000 0.000000 0.000000 0.000000 -0.379263 0.000000
# 6 0.000000 0.000000 0.000000 0.000000 0.000000 0.017790
#
#
# Mechanical properties :
#
#
# Convention : Reuss Voigt Hill
#
# Bulk Modulus (GPa) = 66.93902 71.14577 69.04240
# Shear Modulus (GPa) = -0.45711 27.16681 13.35485
#
# Velocity S-wave (km/s) = -0.42005 3.23825 2.27044
# Velocity P-wave (km/s) = 5.05993 6.43767 5.78992
#
# Compressibility (1/GPa) = 0.01493897
#
# Stress axis : x y z
#
# Youngs Moduli (GPa) = 81.35819 137.20142 88.48361
#
# Poissons Ratio (x) = 0.25338 0.29593
# Poissons Ratio (y) = 0.15025 0.24598
# Poissons Ratio (z) = 0.27210 0.38141
#
# Static dielectric constant tensor:
#      x y z
#    x 2.256940 0.000000 0.000000 
#    y 0.000000 2.002420 0.000000 
#    z 0.000000 0.000000 2.033870 
# 
# From -- ./inp_files/27616.got.cif
#   From: 2010.05.17/outbox.cif.g08.bks.cpg/sg48_14_cif.got.tgz:27616.got - 2010.06.03 20:39:00.
