data_PCOD9391766
_publ_section_title
;
Structure prediction by ZEFSAII (Michael W. Deem and Ramdas Pophale) SiO2 
 PCOD9391766
Probable space group: P N N N
;
_chemical_formula_sum "Si O2"
_cell_formula_units_Z 36
_cell_length_a 5.011023
_cell_length_b 22.864251
_cell_length_c 13.647600
_cell_angle_alpha 90.000000
_cell_angle_beta 90.000000
_cell_angle_gamma 90.000000
_cell_volume 1563.650400
_symmetry_space_group_name_H-M "P N N N"
_symmetry_group_IT_number 48
_space_group.IT_coordinate_system_code '2'
_symmetry_cell_setting 'orthorhombic'
loop_
_space_group_symop_operation_xyz
x,y,z
1/2-x,1/2-y,z
x,1/2-y,1/2-z
1/2-x,y,1/2-z
-x,-y,-z
1/2+x,1/2+y,-z
-x,1/2+y,1/2+z
1/2+x,-y,1/2+z
loop_
_atom_site_type_symbol
_atom_site_label
_atom_site_fract_x
_atom_site_fract_y
_atom_site_fract_z
Si Si1 0.750000 0.250000 0.998748
Si Si2 0.250000 0.250000 0.377150
Si Si3 0.621443 0.430235 0.141582
Si Si4 0.385985 0.432949 0.856585
Si Si5 0.383011 0.876987 0.050888
Si Si6 0.250000 0.148749 0.250000
O O1 0.495739 0.273810 0.059994
O O2 0.635407 0.193145 0.944165
O O3 0.102560 0.198541 0.315045
O O4 0.750000 0.426357 0.250000
O O5 0.581830 0.498353 0.120016
O O6 0.360614 0.393127 0.166111
O O7 0.784244 0.400865 0.054367
O O8 0.250000 0.428259 0.750000
O O9 0.672352 0.403569 0.871349
O O10 0.175636 0.401675 0.928007
#
# Coordination Sequence:
#
# PCOD9391766 Si02
#       6
#     4   4   8   8   8   4
#     4  12  24  45  69  98 140 180 240 292 352 426
#     4  11  24  42  64 102 151 190 223 284 340 452
#     4  11  25  41  71 105 148 184 228 281 358 445
#     4  11  27  47  72  98 139 181 246 305 354 404
#     4  12  25  47  71 104 136 189 236 295 359 424
#     4  11  24  38  68 104 150 191 230 266 366 445
#
# _framework density 23.023049
#
# number of rings (size 3 to 8) (size 9 to 14) (size 15 to 20)
#    0.000    0.667    2.222    4.667    9.333    0.889 
#    0.000    3.333    0.000    0.000    0.000    0.000 
#    0.000    0.000    0.000    0.000    0.000    0.000 
#
# Total GULP energy -201049.436706 kJ/mol
# GULP energy per Si atom -5584.706575 kJ/mol
# Density = 2.297065 g / cm^3
# Si number density = 23.023049 Si / 1000 Ang^3
#
#
#
# Elastic Constant Matrix: (Units=GPa)
#
#
# Indices 1 2 3 4 5 6 
#
# 1 76.6554 20.1143 5.2340 0.0000 0.0000 0.0000
# 2 20.1143 187.8444 31.2349 0.0000 0.0000 0.0000
# 3 5.2340 31.2349 72.9220 0.0000 0.0000 0.0000
# 4 0.0000 0.0000 0.0000 -22.8738 0.0000 0.0000
# 5 0.0000 0.0000 0.0000 0.0000 47.5119 0.0000
# 6 0.0000 0.0000 0.0000 0.0000 0.0000 30.9767
#
#
#
# Elastic Compliance Matrix: (Units=1/GPa)
#
#
# Indices 1 2 3 4 5 6 
#
# 1 0.013432 -0.001376 -0.000375 0.000000 0.000000 0.000000
# 2 -0.001376 0.005873 -0.002417 0.000000 0.000000 0.000000
# 3 -0.000375 -0.002417 0.014775 0.000000 0.000000 0.000000
# 4 0.000000 0.000000 0.000000 -0.043718 0.000000 0.000000
# 5 0.000000 0.000000 0.000000 0.000000 0.021047 0.000000
# 6 0.000000 0.000000 0.000000 0.000000 0.000000 0.032282
#
#
# Mechanical properties :
#
#
# Convention : Reuss Voigt Hill
#
# Bulk Modulus (GPa) = 38.84210 50.06537 44.45373
# Shear Modulus (GPa) = 82.49693 29.84553 56.17123
#
# Velocity S-wave (km/s) = 5.99250 3.60437 4.94477
# Velocity P-wave (km/s) = 8.04908 6.25419 7.20773
#
# Compressibility (1/GPa) = 0.02574526
#
# Stress axis : x y z
#
# Youngs Moduli (GPa) = 74.44890 170.27789 67.68026
#
# Poissons Ratio (x) = 0.23430 0.02536
# Poissons Ratio (y) = 0.10244 0.16357
# Poissons Ratio (z) = 0.02790 0.41152
#
# Static dielectric constant tensor:
#      x y z
#    x 2.175600 0.000000 0.000000 
#    y 0.000000 1.849500 0.000000 
#    z 0.000000 0.000000 1.971000 
# 
# From -- ./inp_files/24252.got.cif
#   From: 2010.05.17/outbox.cif.g08.bks.cpg/sg48_13_cif.got.tgz:24252.got - 2010.06.03 20:39:00.
