data_PCOD9391112
_publ_section_title
;
Structure prediction by ZEFSAII (Michael W. Deem and Ramdas Pophale) SiO2 
 PCOD9391112
Probable space group: P N N N
;
_chemical_formula_sum "Si O2"
_cell_formula_units_Z 56
_cell_length_a 4.927571
_cell_length_b 14.499267
_cell_length_c 33.584749
_cell_angle_alpha 90.000000
_cell_angle_beta 90.000000
_cell_angle_gamma 90.000000
_cell_volume 2399.501606
_symmetry_space_group_name_H-M "P N N N"
_symmetry_group_IT_number 48
_space_group.IT_coordinate_system_code '2'
_symmetry_cell_setting 'orthorhombic'
loop_
_space_group_symop_operation_xyz
x,y,z
1/2-x,1/2-y,z
x,1/2-y,1/2-z
1/2-x,y,1/2-z
-x,-y,-z
1/2+x,1/2+y,-z
-x,1/2+y,1/2+z
1/2+x,-y,1/2+z
loop_
_atom_site_type_symbol
_atom_site_label
_atom_site_fract_x
_atom_site_fract_y
_atom_site_fract_z
Si Si1 0.985683 0.609006 0.775961
Si Si2 0.229719 0.137652 0.402320
Si Si3 0.212542 0.917110 0.205309
Si Si4 0.259601 0.989543 0.470277
Si Si5 0.714652 0.856321 0.160715
Si Si6 0.260412 0.646509 0.857358
Si Si7 0.999226 0.816332 0.079207
O O1 0.250000 0.587683 0.750000
O O2 0.121000 0.653061 0.814671
O O3 0.750000 0.657211 0.750000
O O4 0.828881 0.518826 0.790005
O O5 0.250000 0.250000 0.409553
O O6 0.436831 0.116423 0.365840
O O7 0.944356 0.097252 0.386790
O O8 0.282817 0.076370 0.440474
O O9 0.250000 0.874806 0.250000
O O10 0.403149 0.875824 0.170841
O O11 0.904687 0.914309 0.190551
O O12 0.341101 0.894303 0.446679
O O13 0.500000 0.000000 0.500000
O O14 0.000000 0.000000 0.500000
O O15 0.750000 0.750000 0.171804
O O16 0.838882 0.863682 0.116404
O O17 0.250000 0.750000 0.872904
O O18 0.250000 0.750000 0.092388
O O19 0.750000 0.750000 0.061772
#
# Coordination Sequence:
#
# PCOD9391112 Si02
#       7
#     8   8   8   8   8   8   8
#     4  11  23  39  60  93 136 175 225 281 347 401
#     4  10  23  44  69 102 138 174 228 288 340 415
#     4  11  23  37  58  90 129 173 224 280 340 392
#     4  12  27  45  73 110 137 181 233 273 361 444
#     4  11  23  40  62  90 123 174 229 274 336 399
#     4  10  22  41  67  96 129 178 230 275 343 407
#     4  11  25  46  69 101 145 183 234 294 349 422
#
# _framework density 23.338180000000001
#
# number of rings (size 3 to 8) (size 9 to 14) (size 15 to 20)
#    0.000    1.143    0.000    6.857    4.000    3.714 
#    0.000    0.714    0.000    0.000    0.000    0.000 
#    0.000    0.000    0.000    0.000    0.000    0.000 
#
# Total GULP energy -312100.619326 kJ/mol
# GULP energy per Si atom -5573.225345 kJ/mol
# Density = 2.328506 g / cm^3
# Si number density = 23.338180 Si / 1000 Ang^3
#
#
#
# Elastic Constant Matrix: (Units=GPa)
#
#
# Indices 1 2 3 4 5 6 
#
# 1 133.1929 41.8798 50.5461 0.0000 0.0000 0.0000
# 2 41.8798 89.5787 41.6840 0.0000 0.0000 0.0000
# 3 50.5461 41.6840 123.4009 0.0000 0.0000 0.0000
# 4 0.0000 0.0000 0.0000 22.0323 0.0000 0.0000
# 5 0.0000 0.0000 0.0000 0.0000 54.2497 0.0000
# 6 0.0000 0.0000 0.0000 0.0000 0.0000 205.9900
#
#
#
# Elastic Compliance Matrix: (Units=1/GPa)
#
#
# Indices 1 2 3 4 5 6 
#
# 1 0.009584 -0.003149 -0.002862 0.000000 0.000000 0.000000
# 2 -0.003149 0.014280 -0.003534 0.000000 0.000000 0.000000
# 3 -0.002862 -0.003534 0.010470 0.000000 0.000000 0.000000
# 4 0.000000 0.000000 0.000000 0.045388 0.000000 0.000000
# 5 0.000000 0.000000 0.000000 0.000000 0.018433 0.000000
# 6 0.000000 0.000000 0.000000 0.000000 0.000000 0.004855
#
#
# Mechanical properties :
#
#
# Convention : Reuss Voigt Hill
#
# Bulk Modulus (GPa) = 65.59906 68.26581 66.93243
# Shear Modulus (GPa) = 39.31413 70.59191 54.95302
#
# Velocity S-wave (km/s) = 4.10877 5.50573 4.85773
# Velocity P-wave (km/s) = 7.11887 8.35055 7.75919
#
# Compressibility (1/GPa) = 0.01524412
#
# Stress axis : x y z
#
# Youngs Moduli (GPa) = 104.33861 70.02803 95.51371
#
# Poissons Ratio (x) = 0.22052 0.27337
# Poissons Ratio (y) = 0.32856 0.33753
# Poissons Ratio (z) = 0.29862 0.24747
#
# Static dielectric constant tensor:
#      x y z
#    x 1.952840 0.000000 0.000000 
#    y 0.000000 1.899120 0.000000 
#    z 0.000000 0.000000 1.900390 
# 
# From -- ./inp_files/38342.got.cif
#   From: 2010.05.17/outbox.cif.g08.bks.cpg/sg48_20_cif.got.tgz:38342.got - 2010.06.03 20:39:00.
