data_PCOD9391412
_publ_section_title
;
Structure prediction by ZEFSAII (Michael W. Deem and Ramdas Pophale) SiO2 
 PCOD9391412
Probable space group: P N N N
;
_chemical_formula_sum "Si O2"
_cell_formula_units_Z 38
_cell_length_a 10.527104
_cell_length_b 6.541574
_cell_length_c 24.838248
_cell_angle_alpha 90.000000
_cell_angle_beta 90.000000
_cell_angle_gamma 90.000000
_cell_volume 1710.456883
_symmetry_space_group_name_H-M "P N N N"
_symmetry_group_IT_number 48
_space_group.IT_coordinate_system_code '2'
_symmetry_cell_setting 'orthorhombic'
loop_
_space_group_symop_operation_xyz
x,y,z
1/2-x,1/2-y,z
x,1/2-y,1/2-z
1/2-x,y,1/2-z
-x,-y,-z
1/2+x,1/2+y,-z
-x,1/2+y,1/2+z
1/2+x,-y,1/2+z
loop_
_atom_site_type_symbol
_atom_site_label
_atom_site_fract_x
_atom_site_fract_y
_atom_site_fract_z
Si Si1 0.750000 0.250000 0.250000
Si Si2 0.122026 0.636921 0.936444
Si Si3 0.143834 0.417559 0.833592
Si Si4 0.612520 0.304143 0.811978
Si Si5 0.622976 0.615260 0.895511
Si Si6 0.750000 0.250000 0.538944
O O1 0.828307 0.395393 0.207959
O O2 0.250000 0.750000 0.916610
O O3 0.136597 0.444298 0.898362
O O4 0.994730 0.760918 0.921278
O O5 0.151277 0.626623 0.999834
O O6 0.250000 0.250000 0.820462
O O7 0.002562 0.339601 0.826021
O O8 0.750000 0.250000 0.835650
O O9 0.624203 0.250000 0.750000
O O10 0.584217 0.527229 0.836591
O O11 0.750000 0.750000 0.890753
O O12 0.664066 0.418254 0.931064
#
# Coordination Sequence:
#
# PCOD9391412 Si02
#       6
#     2   8   8   8   8   4
#     4  12  24  44  76 116 136 198 238 306 370 438
#     4  10  24  45  70 106 138 188 241 294 368 431
#     4  12  25  46  74 106 150 184 244 306 365 440
#     4  11  25  46  70 103 145 191 235 295 363 427
#     4  12  25  48  73 105 144 192 252 296 364 441
#     4  10  25  48  71 103 146 193 240 316 356 432
#
# _framework density 22.216287000000001
#
# number of rings (size 3 to 8) (size 9 to 14) (size 15 to 20)
#    0.632    0.211    2.105    4.737    2.947    1.684 
#    0.000    1.053    0.000    0.000    0.000    0.000 
#    0.000    0.000    0.000    0.000    0.000    0.000 
#
# Total GULP energy -211536.775087 kJ/mol
# GULP energy per Si atom -5566.757239 kJ/mol
# Density = 2.216572 g / cm^3
# Si number density = 22.216287 Si / 1000 Ang^3
#
#
#
# Elastic Constant Matrix: (Units=GPa)
#
#
# Indices 1 2 3 4 5 6 
#
# 1 127.4096 41.5225 16.2371 0.0000 0.0000 0.0000
# 2 41.5225 72.9287 36.8640 0.0000 0.0000 0.0000
# 3 16.2371 36.8640 97.9576 0.0000 0.0000 0.0000
# 4 0.0000 0.0000 0.0000 48.9428 0.0000 0.0000
# 5 0.0000 0.0000 0.0000 0.0000 -18.9958 0.0000
# 6 0.0000 0.0000 0.0000 0.0000 0.0000 60.2624
#
#
#
# Elastic Compliance Matrix: (Units=1/GPa)
#
#
# Indices 1 2 3 4 5 6 
#
# 1 0.009663 -0.005795 0.000579 0.000000 0.000000 0.000000
# 2 -0.005795 0.020408 -0.006719 0.000000 0.000000 0.000000
# 3 0.000579 -0.006719 0.012641 0.000000 0.000000 0.000000
# 4 0.000000 0.000000 0.000000 0.020432 0.000000 0.000000
# 5 0.000000 0.000000 0.000000 0.000000 -0.052643 0.000000
# 6 0.000000 0.000000 0.000000 0.000000 0.000000 0.016594
#
#
# Mechanical properties :
#
#
# Convention : Reuss Voigt Hill
#
# Bulk Modulus (GPa) = 53.07268 54.17147 53.62207
# Shear Modulus (GPa) = 87.34206 31.62005 59.48105
#
# Velocity S-wave (km/s) = 6.27692 3.77673 5.17994
# Velocity P-wave (km/s) = 8.74494 6.59203 7.74367
#
# Compressibility (1/GPa) = 0.01884209
#
# Stress axis : x y z
#
# Youngs Moduli (GPa) = 103.48376 49.00105 79.10603
#
# Poissons Ratio (x) = 0.28394 -0.04579
# Poissons Ratio (y) = 0.59964 0.53155
# Poissons Ratio (z) = -0.05990 0.32926
#
# Static dielectric constant tensor:
#      x y z
#    x 1.632910 0.000000 0.000000 
#    y 0.000000 1.818640 0.000000 
#    z 0.000000 0.000000 -0.628970 
# 
# From -- ./inp_files/37628.got.cif
#   From: 2010.05.17/outbox.cif.g08.bks.cpg/sg48_19_cif.got.tgz:37628.got - 2010.06.03 20:39:00.
