data_PCOD9391207
_publ_section_title
;
Structure prediction by ZEFSAII (Michael W. Deem and Ramdas Pophale) SiO2 
 PCOD9391207
Probable space group: P N N N
;
_chemical_formula_sum "Si O2"
_cell_formula_units_Z 38
_cell_length_a 22.808009
_cell_length_b 7.929159
_cell_length_c 9.506798
_cell_angle_alpha 90.000000
_cell_angle_beta 90.000000
_cell_angle_gamma 90.000000
_cell_volume 1719.288540
_symmetry_space_group_name_H-M "P N N N"
_symmetry_group_IT_number 48
_space_group.IT_coordinate_system_code '2'
_symmetry_cell_setting 'orthorhombic'
loop_
_space_group_symop_operation_xyz
x,y,z
1/2-x,1/2-y,z
x,1/2-y,1/2-z
1/2-x,y,1/2-z
-x,-y,-z
1/2+x,1/2+y,-z
-x,1/2+y,1/2+z
1/2+x,-y,1/2+z
loop_
_atom_site_type_symbol
_atom_site_label
_atom_site_fract_x
_atom_site_fract_y
_atom_site_fract_z
Si Si1 0.750000 0.250000 0.750000
Si Si2 0.943108 0.917908 0.675154
Si Si3 0.250000 0.250000 0.250000
Si Si4 0.250000 0.250000 0.750000
Si Si5 0.838945 0.002974 0.884816
Si Si6 0.661990 0.066788 0.301015
Si Si7 0.064101 0.099826 0.641751
O O1 0.706996 0.353021 0.847218
O O2 0.966043 0.750000 0.750000
O O3 0.891323 0.989232 0.772362
O O4 0.921458 0.863505 0.520447
O O5 0.996527 0.045111 0.654011
O O6 0.204379 0.155766 0.145408
O O7 0.203530 0.398231 0.700554
O O8 0.861070 0.052026 0.038969
O O9 0.686797 0.250000 0.250000
O O10 0.608670 0.041708 0.193276
O O11 0.073342 0.250000 0.750000
#
# Coordination Sequence:
#
# PCOD9391207 Si02
#       7
#     2   8   2   2   8   8   8
#     4  10  28  42  68 102 144 186 246 296 352 450
#     4  11  25  45  75 104 143 196 244 306 375 446
#     4  10  22  46  76 108 142 194 250 308 376 444
#     4  12  28  48  74 112 150 200 244 314 366 442
#     4  11  25  45  73 104 144 194 245 306 368 441
#     4  12  28  47  77 110 153 197 249 309 373 446
#     4  11  26  46  72 110 149 187 244 309 375 441
#
# _framework density 22.102164999999999
#
# number of rings (size 3 to 8) (size 9 to 14) (size 15 to 20)
#    0.000    0.842    2.105    2.842    7.368    6.737 
#    0.000    0.000    0.000    0.000    0.000    0.000 
#    0.000    0.000    0.000    0.000    0.000    0.000 
#
# Total GULP energy -211702.817906 kJ/mol
# GULP energy per Si atom -5571.126787 kJ/mol
# Density = 2.205186 g / cm^3
# Si number density = 22.102165 Si / 1000 Ang^3
#
#
#
# Elastic Constant Matrix: (Units=GPa)
#
#
# Indices 1 2 3 4 5 6 
#
# 1 89.2263 11.3729 33.7441 0.0000 0.0000 0.0000
# 2 11.3729 101.0464 40.9073 0.0000 0.0000 0.0000
# 3 33.7441 40.9073 172.3186 0.0000 0.0000 0.0000
# 4 0.0000 0.0000 0.0000 73.9348 0.0000 0.0000
# 5 0.0000 0.0000 0.0000 0.0000 41.7789 0.0000
# 6 0.0000 0.0000 0.0000 0.0000 0.0000 6.9319
#
#
#
# Elastic Compliance Matrix: (Units=1/GPa)
#
#
# Indices 1 2 3 4 5 6 
#
# 1 0.012122 -0.000446 -0.002268 0.000000 0.000000 0.000000
# 2 -0.000446 0.010965 -0.002516 0.000000 0.000000 0.000000
# 3 -0.002268 -0.002516 0.006845 0.000000 0.000000 0.000000
# 4 0.000000 0.000000 0.000000 0.013525 0.000000 0.000000
# 5 0.000000 0.000000 0.000000 0.000000 0.023936 0.000000
# 6 0.000000 0.000000 0.000000 0.000000 0.000000 0.144260
#
#
# Mechanical properties :
#
#
# Convention : Reuss Voigt Hill
#
# Bulk Modulus (GPa) = 51.35546 59.40442 55.37994
# Shear Modulus (GPa) = 21.87198 42.96693 32.41945
#
# Velocity S-wave (km/s) = 3.14918 4.41388 3.83404
# Velocity P-wave (km/s) = 6.04227 7.27406 6.68659
#
# Compressibility (1/GPa) = 0.01947213
#
# Stress axis : x y z
#
# Youngs Moduli (GPa) = 82.49461 91.19839 146.10264
#
# Poissons Ratio (x) = 0.04070 0.33134
# Poissons Ratio (y) = 0.03681 0.36754
# Poissons Ratio (z) = 0.18708 0.22942
#
# Static dielectric constant tensor:
#      x y z
#    x 1.776360 0.000000 0.000000 
#    y 0.000000 1.882860 0.000000 
#    z 0.000000 0.000000 1.769190 
# 
# From -- ./inp_files/15752.got.cif
#   From: 2010.05.17/outbox.cif.g08.bks.cpg/sg48_8_cif.got.tgz:15752.got - 2010.06.03 20:39:00.
