data_PCOD9391801
_publ_section_title
;
Structure prediction by ZEFSAII (Michael W. Deem and Ramdas Pophale) SiO2 
 PCOD9391801
Probable space group: P N N N
;
_chemical_formula_sum "Si O2"
_cell_formula_units_Z 56
_cell_length_a 16.296434
_cell_length_b 11.073785
_cell_length_c 14.609720
_cell_angle_alpha 90.000000
_cell_angle_beta 90.000000
_cell_angle_gamma 90.000000
_cell_volume 2636.516916
_symmetry_space_group_name_H-M "P N N N"
_symmetry_group_IT_number 48
_space_group.IT_coordinate_system_code '2'
_symmetry_cell_setting 'orthorhombic'
loop_
_space_group_symop_operation_xyz
x,y,z
1/2-x,1/2-y,z
x,1/2-y,1/2-z
1/2-x,y,1/2-z
-x,-y,-z
1/2+x,1/2+y,-z
-x,1/2+y,1/2+z
1/2+x,-y,1/2+z
loop_
_atom_site_type_symbol
_atom_site_label
_atom_site_fract_x
_atom_site_fract_y
_atom_site_fract_z
Si Si1 0.450280 0.710571 0.592487
Si Si2 0.585416 0.801686 0.067348
Si Si3 0.461042 0.936210 0.722097
Si Si4 0.804497 0.463972 0.036312
Si Si5 0.725019 0.390393 0.648899
Si Si6 0.054604 0.873348 0.292614
Si Si7 0.811327 0.907173 0.170827
O O1 0.520270 0.721966 0.514813
O O2 0.446695 0.839270 0.643253
O O3 0.473603 0.623750 0.678279
O O4 0.364927 0.651138 0.555373
O O5 0.526006 0.839306 0.150989
O O6 0.645420 0.694770 0.105662
O O7 0.638975 0.916172 0.036359
O O8 0.536597 0.028953 0.714472
O O9 0.383059 0.021652 0.721055
O O10 0.740033 0.493439 0.115297
O O11 0.748950 0.450651 0.945261
O O12 0.750000 0.250000 0.643841
O O13 0.750000 0.434621 0.750000
O O14 0.627385 0.414176 0.642848
O O15 0.086673 0.750000 0.250000
O O16 0.750000 0.864589 0.250000
#
# Coordination Sequence:
#
# PCOD9391801 Si02
#       7
#     8   8   8   8   8   8   8
#     4  11  24  45  66 103 141 183 242 287 370 435
#     4  12  25  44  73 101 135 192 247 291 358 442
#     4  11  25  42  70 104 139 190 231 302 361 441
#     4  12  25  43  71  99 148 186 234 301 372 436
#     4  11  25  44  67 101 132 185 244 293 360 427
#     4  12  21  42  71  94 132 175 236 293 342 420
#     4  12  26  44  69 107 148 187 239 302 372 436
#
# _framework density 21.240144000000001
#
# number of rings (size 3 to 8) (size 9 to 14) (size 15 to 20)
#    0.000    0.429    7.143    1.714    2.000    3.429 
#    0.000    0.000    0.000    0.857    0.000    0.000 
#    0.000    0.000    0.000    0.000    0.000    0.000 
#
# Total GULP energy -312320.193506 kJ/mol
# GULP energy per Si atom -5577.146313 kJ/mol
# Density = 2.119180 g / cm^3
# Si number density = 21.240144 Si / 1000 Ang^3
#
#
#
# Elastic Constant Matrix: (Units=GPa)
#
#
# Indices 1 2 3 4 5 6 
#
# 1 88.1587 34.5655 38.8248 0.0000 0.0000 0.0000
# 2 34.5655 95.9688 37.6180 0.0000 0.0000 0.0000
# 3 38.8248 37.6180 134.0340 0.0000 0.0000 0.0000
# 4 0.0000 0.0000 0.0000 31.6751 0.0000 0.0000
# 5 0.0000 0.0000 0.0000 0.0000 48.8475 0.0000
# 6 0.0000 0.0000 0.0000 0.0000 0.0000 -3.1723
#
#
#
# Elastic Compliance Matrix: (Units=1/GPa)
#
#
# Indices 1 2 3 4 5 6 
#
# 1 0.014214 -0.003939 -0.003012 0.000000 0.000000 0.000000
# 2 -0.003939 0.012800 -0.002451 0.000000 0.000000 0.000000
# 3 -0.003012 -0.002451 0.009021 0.000000 0.000000 0.000000
# 4 0.000000 0.000000 0.000000 0.031571 0.000000 0.000000
# 5 0.000000 0.000000 0.000000 0.000000 0.020472 0.000000
# 6 0.000000 0.000000 0.000000 0.000000 0.000000 -0.315229
#
#
# Mechanical properties :
#
#
# Convention : Reuss Voigt Hill
#
# Bulk Modulus (GPa) = 58.03620 60.01978 59.02799
# Shear Modulus (GPa) = -24.67869 29.28027 2.30079
#
# Velocity S-wave (km/s) = -3.41235 3.71689 1.04191
# Velocity P-wave (km/s) = 3.44350 6.83662 5.41281
#
# Compressibility (1/GPa) = 0.01723062
#
# Stress axis : x y z
#
# Youngs Moduli (GPa) = 70.35352 78.12708 110.84998
#
# Poissons Ratio (x) = 0.30774 0.33385
# Poissons Ratio (y) = 0.27712 0.27174
# Poissons Ratio (z) = 0.21189 0.19152
#
# Static dielectric constant tensor:
#      x y z
#    x 1.809760 0.000000 0.000000 
#    y 0.000000 1.801380 0.000000 
#    z 0.000000 0.000000 1.789490 
# 
# From -- ./inp_files/27317.got.cif
#   From: 2010.05.17/outbox.cif.g08.bks.cpg/sg48_14_cif.got.tgz:27317.got - 2010.06.03 20:39:00.
