data_PCOD9391752
_publ_section_title
;
Structure prediction by ZEFSAII (Michael W. Deem and Ramdas Pophale) SiO2 
 PCOD9391752
Probable space group: P N N N
;
_chemical_formula_sum "Si O2"
_cell_formula_units_Z 40
_cell_length_a 23.257477
_cell_length_b 8.117504
_cell_length_c 9.240158
_cell_angle_alpha 90.000000
_cell_angle_beta 90.000000
_cell_angle_gamma 90.000000
_cell_volume 1744.474031
_symmetry_space_group_name_H-M "P N N N"
_symmetry_group_IT_number 48
_space_group.IT_coordinate_system_code '2'
_symmetry_cell_setting 'orthorhombic'
loop_
_space_group_symop_operation_xyz
x,y,z
1/2-x,1/2-y,z
x,1/2-y,1/2-z
1/2-x,y,1/2-z
-x,-y,-z
1/2+x,1/2+y,-z
-x,1/2+y,1/2+z
1/2+x,-y,1/2+z
loop_
_atom_site_type_symbol
_atom_site_label
_atom_site_fract_x
_atom_site_fract_y
_atom_site_fract_z
Si Si1 0.879514 0.565358 0.204023
Si Si2 0.126677 0.061633 0.203868
Si Si3 0.499500 0.939714 0.674946
Si Si4 0.810553 0.441821 0.447507
Si Si5 0.185742 0.936338 0.460521
O O1 0.867290 0.750000 0.250000
O O2 0.943087 0.519531 0.255577
O O3 0.831200 0.455028 0.283904
O O4 0.867090 0.530024 0.037177
O O5 0.130215 0.250000 0.250000
O O6 0.061993 0.998665 0.226239
O O7 0.143121 0.045353 0.037049
O O8 0.174494 0.961977 0.292092
O O9 0.497408 0.750000 0.750000
O O10 0.500000 0.000000 0.500000
O O11 0.815522 0.254516 0.499099
O O12 0.746868 0.503271 0.484436
#
# Coordination Sequence:
#
# PCOD9391752 Si02
#       5
#     8   8   8   8   8
#     4  12  26  43  69 101 136 179 236 292 358 425
#     4  11  24  42  69 100 138 179 233 290 356 425
#     4  11  25  48  75 101 143 190 238 299 367 441
#     4  11  23  45  66  96 141 179 231 285 353 432
#     4  11  25  41  69 101 132 186 229 287 355 429
#
# _framework density 22.929546999999999
#
# number of rings (size 3 to 8) (size 9 to 14) (size 15 to 20)
#    0.000    0.800    2.000    4.800    2.800   10.400 
#    0.000    0.000    0.000    0.000    0.000    0.000 
#    0.000    0.000    0.000    0.000    0.000    0.000 
#
# Total GULP energy -223219.905429 kJ/mol
# GULP energy per Si atom -5580.497636 kJ/mol
# Density = 2.287736 g / cm^3
# Si number density = 22.929547 Si / 1000 Ang^3
#
#
#
# Elastic Constant Matrix: (Units=GPa)
#
#
# Indices 1 2 3 4 5 6 
#
# 1 134.3675 13.2717 16.6245 0.0000 0.0000 0.0000
# 2 13.2717 71.7615 13.2563 0.0000 0.0000 0.0000
# 3 16.6245 13.2563 76.6317 0.0000 0.0000 0.0000
# 4 0.0000 0.0000 0.0000 42.4152 0.0000 0.0000
# 5 0.0000 0.0000 0.0000 0.0000 6.6157 0.0000
# 6 0.0000 0.0000 0.0000 0.0000 0.0000 24.8335
#
#
#
# Elastic Compliance Matrix: (Units=1/GPa)
#
#
# Indices 1 2 3 4 5 6 
#
# 1 0.007740 -0.001158 -0.001479 0.000000 0.000000 0.000000
# 2 -0.001158 0.014568 -0.002269 0.000000 0.000000 0.000000
# 3 -0.001479 -0.002269 0.013763 0.000000 0.000000 0.000000
# 4 0.000000 0.000000 0.000000 0.023576 0.000000 0.000000
# 5 0.000000 0.000000 0.000000 0.000000 0.151156 0.000000
# 6 0.000000 0.000000 0.000000 0.000000 0.000000 0.040268
#
#
# Mechanical properties :
#
#
# Convention : Reuss Voigt Hill
#
# Bulk Modulus (GPa) = 38.08197 41.00730 39.54464
# Shear Modulus (GPa) = 18.54352 30.74675 24.64514
#
# Velocity S-wave (km/s) = 2.84688 3.66583 3.28200
# Velocity P-wave (km/s) = 5.23933 5.98671 5.62545
#
# Compressibility (1/GPa) = 0.02625914
#
# Stress axis : x y z
#
# Youngs Moduli (GPa) = 129.20528 68.64182 72.66013
#
# Poissons Ratio (x) = 0.07950 0.10744
# Poissons Ratio (y) = 0.14965 0.16486
# Poissons Ratio (z) = 0.19105 0.15574
#
# Static dielectric constant tensor:
#      x y z
#    x 1.814210 0.000000 0.000000 
#    y 0.000000 1.848740 0.000000 
#    z 0.000000 0.000000 1.814580 
# 
# From -- ./inp_files/8982.got.cif
#   From: 2010.05.17/outbox.cif.g08.bks.cpg/sg48_5_cif.got.tgz:8982.got - 2010.06.03 20:39:00.
