data_PCOD9391951
_publ_section_title
;
Structure prediction by ZEFSAII (Michael W. Deem and Ramdas Pophale) SiO2 
 PCOD9391951
Probable space group: P N N N
;
_chemical_formula_sum "Si O2"
_cell_formula_units_Z 48
_cell_length_a 18.000000
_cell_length_b 15.000000
_cell_length_c 9.000000
_cell_angle_alpha 90.000000
_cell_angle_beta 90.000000
_cell_angle_gamma 90.000000
_cell_volume 2430.000000
_symmetry_space_group_name_H-M "P N N N"
_symmetry_group_IT_number 48
_space_group.IT_coordinate_system_code '2'
_symmetry_cell_setting 'orthorhombic'
loop_
_space_group_symop_operation_xyz
x,y,z
1/2-x,1/2-y,z
x,1/2-y,1/2-z
1/2-x,y,1/2-z
-x,-y,-z
1/2+x,1/2+y,-z
-x,1/2+y,1/2+z
1/2+x,-y,1/2+z
loop_
_atom_site_type_symbol
_atom_site_label
_atom_site_fract_x
_atom_site_fract_y
_atom_site_fract_z
Si Si1 0.446749 0.588683 0.514561
Si Si2 0.316345 0.373868 0.631995
Si Si3 0.579029 0.563230 0.903709
Si Si4 0.418599 0.989440 0.696367
Si Si5 0.180251 0.492576 0.153642
Si Si6 0.444607 0.250998 0.573834
O O1 0.500000 0.500000 0.500000
O O2 0.412210 0.588087 0.681397
O O3 0.378231 0.567857 0.403284
O O4 0.498301 0.675233 0.492045
O O5 0.250000 0.360379 0.750000
O O6 0.381587 0.427563 0.718910
O O7 0.295643 0.435811 0.491511
O O8 0.359290 0.287022 0.572048
O O9 0.506251 0.513388 0.839643
O O10 0.634252 0.572001 0.765744
O O11 0.613668 0.498380 0.030543
O O12 0.555856 0.656270 0.985591
O O13 0.250000 0.525599 0.250000
O O14 0.463945 0.250000 0.750000
#
# Coordination Sequence:
#
# PCOD9391951 Si02
#       6
#     8   8   8   8   8   8
#     4  11  19  42  62  82 126 161 207 251 312 372
#     4  11  22  41  58  87 131 169 202 245 325 380
#     4  11  21  37  63  94 123 155 217 259 303 369
#     4  10  20  38  61  87 118 163 206 253 301 373
#     4  11  23  39  63  93 121 166 212 260 309 377
#     4  12  23  38  62  93 122 165 205 260 313 370
#
# _framework density 19.753086
#
# number of rings (size 3 to 8) (size 9 to 14) (size 15 to 20)
#    0.000    1.000    6.667    1.000    2.333    3.000 
#    0.000    0.833    0.000    0.500    0.000    1.167 
#    0.000    0.000    0.000    0.000    0.000    0.000 
#
# Total GULP energy -267532.820480 kJ/mol
# GULP energy per Si atom -5573.600427 kJ/mol
# Density = 1.970813 g / cm^3
# Si number density = 19.753086 Si / 1000 Ang^3
#
#
#
# Elastic Constant Matrix: (Units=GPa)
#
#
# Indices 1 2 3 4 5 6 
#
# 1 107.6509 43.2129 44.3343 0.0000 0.0000 0.0000
# 2 43.2129 72.0297 32.9370 0.0000 0.0000 0.0000
# 3 44.3343 32.9370 141.1887 0.0000 0.0000 0.0000
# 4 0.0000 0.0000 0.0000 23.0942 0.0000 0.0000
# 5 0.0000 0.0000 0.0000 0.0000 48.2031 0.0000
# 6 0.0000 0.0000 0.0000 0.0000 0.0000 24.2972
#
#
#
# Elastic Compliance Matrix: (Units=1/GPa)
#
#
# Indices 1 2 3 4 5 6 
#
# 1 0.012997 -0.006640 -0.002532 0.000000 0.000000 0.000000
# 2 -0.006640 0.018933 -0.002332 0.000000 0.000000 0.000000
# 3 -0.002532 -0.002332 0.008422 0.000000 0.000000 0.000000
# 4 0.000000 0.000000 0.000000 0.043301 0.000000 0.000000
# 5 0.000000 0.000000 0.000000 0.000000 0.020746 0.000000
# 6 0.000000 0.000000 0.000000 0.000000 0.000000 0.041157
#
#
# Mechanical properties :
#
#
# Convention : Reuss Voigt Hill
#
# Bulk Modulus (GPa) = 57.65526 62.42642 60.04084
# Shear Modulus (GPa) = 28.67880 32.47789 30.57834
#
# Velocity S-wave (km/s) = 3.81447 4.05926 3.93877
# Velocity P-wave (km/s) = 6.97507 7.32408 7.15170
#
# Compressibility (1/GPa) = 0.01734447
#
# Stress axis : x y z
#
# Youngs Moduli (GPa) = 76.93806 52.81852 118.73825
#
# Poissons Ratio (x) = 0.35069 0.30069
# Poissons Ratio (y) = 0.51084 0.27688
# Poissons Ratio (z) = 0.19484 0.12316
#
# Static dielectric constant tensor:
#      x y z
#    x 1.718420 0.000000 0.000000 
#    y 0.000000 1.705640 0.000000 
#    z 0.000000 0.000000 1.790610 
# 
# From -- ./inp_files/12780.got.cif
#   From: 2010.05.17/outbox.ucp.g08.bks.cvg/sg48_7_cif.got.tgz:12780.got - 2010.06.11 16:38:40.
