data_PCOD9391198
_publ_section_title
;
Structure prediction by ZEFSAII (Michael W. Deem and Ramdas Pophale) SiO2 
 PCOD9391198
Probable space group: P N N N
;
_chemical_formula_sum "Si O2"
_cell_formula_units_Z 40
_cell_length_a 12.046392
_cell_length_b 5.539972
_cell_length_c 28.503868
_cell_angle_alpha 90.000000
_cell_angle_beta 90.000000
_cell_angle_gamma 90.000000
_cell_volume 1902.253357
_symmetry_space_group_name_H-M "P N N N"
_symmetry_group_IT_number 48
_space_group.IT_coordinate_system_code '2'
_symmetry_cell_setting 'orthorhombic'
loop_
_space_group_symop_operation_xyz
x,y,z
1/2-x,1/2-y,z
x,1/2-y,1/2-z
1/2-x,y,1/2-z
-x,-y,-z
1/2+x,1/2+y,-z
-x,1/2+y,1/2+z
1/2+x,-y,1/2+z
loop_
_atom_site_type_symbol
_atom_site_label
_atom_site_fract_x
_atom_site_fract_y
_atom_site_fract_z
Si Si1 0.750000 0.750000 0.417788
Si Si2 0.931207 0.746168 0.000978
Si Si3 0.250000 0.750000 0.136460
Si Si4 0.250000 0.250000 0.250000
Si Si5 0.250000 0.250000 0.750000
Si Si6 0.572147 0.092366 0.703125
Si Si7 0.250000 0.250000 0.079307
Si Si8 0.844745 0.050830 0.168261
O O1 0.851684 0.789014 0.453592
O O2 0.804881 0.561826 0.380915
O O3 0.855669 0.748586 0.954864
O O4 0.000000 0.500000 0.000000
O O5 0.000000 0.000000 0.000000
O O6 0.362953 0.764519 0.167046
O O7 0.254679 0.500530 0.107676
O O8 0.168350 0.412164 0.280509
O O9 0.324792 0.392059 0.785849
O O10 0.542238 0.250000 0.750000
O O11 0.477884 0.937765 0.674810
O O12 0.750000 0.250000 0.175590
#
# Coordination Sequence:
#
# PCOD9391198 Si02
#       8
#     4   8   4   2   2   8   4   8
#     4  10  28  47  71 113 141 192 262 300 392 472
#     4  11  26  49  79 107 151 197 242 315 396 460
#     4  12  25  48  74 114 150 196 264 319 388 452
#     4  12  24  44  68 114 142 218 254 328 390 454
#     4  10  22  46  60 108 138 188 244 300 376 446
#     4  12  26  46  72 103 157 200 262 326 388 461
#     4  11  27  45  73 115 147 187 259 310 380 472
#     4  11  26  45  74 105 150 201 255 317 387 463
#
# _framework density 21.027694
#
# number of rings (size 3 to 8) (size 9 to 14) (size 15 to 20)
#    0.000    0.800    3.000    2.100   11.200    1.600 
#    0.000    0.000    0.000    0.000    0.000    0.000 
#    0.000    0.000    0.000    0.000    0.000    0.000 
#
# Total GULP energy -222702.203692 kJ/mol
# GULP energy per Si atom -5567.555092 kJ/mol
# Density = 2.097983 g / cm^3
# Si number density = 21.027694 Si / 1000 Ang^3
#
#
#
# Elastic Constant Matrix: (Units=GPa)
#
#
# Indices 1 2 3 4 5 6 
#
# 1 172.5508 83.3925 67.1081 0.0000 0.0000 0.0000
# 2 83.3925 138.1298 74.1032 0.0000 0.0000 0.0000
# 3 67.1081 74.1032 153.3610 0.0000 0.0000 0.0000
# 4 0.0000 0.0000 0.0000 -32.8702 0.0000 0.0000
# 5 0.0000 0.0000 0.0000 0.0000 160.5573 0.0000
# 6 0.0000 0.0000 0.0000 0.0000 0.0000 156.8766
#
#
#
# Elastic Compliance Matrix: (Units=1/GPa)
#
#
# Indices 1 2 3 4 5 6 
#
# 1 0.008489 -0.004228 -0.001672 0.000000 0.000000 0.000000
# 2 -0.004228 0.011879 -0.003890 0.000000 0.000000 0.000000
# 3 -0.001672 -0.003890 0.009131 0.000000 0.000000 0.000000
# 4 0.000000 0.000000 0.000000 -0.030423 0.000000 0.000000
# 5 0.000000 0.000000 0.000000 0.000000 0.006228 0.000000
# 6 0.000000 0.000000 0.000000 0.000000 0.000000 0.006374
#
#
# Mechanical properties :
#
#
# Convention : Reuss Voigt Hill
#
# Bulk Modulus (GPa) = 100.80147 101.47214 101.13680
# Shear Modulus (GPa) = 144.65396 72.87526 108.76461
#
# Velocity S-wave (km/s) = 8.30310 5.89339 7.19977
# Velocity P-wave (km/s) = 11.83062 9.72988 10.83130
#
# Compressibility (1/GPa) = 0.00992049
#
# Stress axis : x y z
#
# Youngs Moduli (GPa) = 117.79974 84.18228 109.51151
#
# Poissons Ratio (x) = 0.35595 0.18305
# Poissons Ratio (y) = 0.49809 0.42596
# Poissons Ratio (z) = 0.19691 0.32744
#
# Static dielectric constant tensor:
#      x y z
#    x 2.547530 0.000000 0.000000 
#    y 0.000000 1.841880 0.000000 
#    z 0.000000 0.000000 1.726970 
# 
# From -- ./inp_files/38911.got.cif
#   From: 2010.05.17/outbox.cif.g08.bks.cpg/sg48_20_cif.got.tgz:38911.got - 2010.06.03 20:39:00.
