data_PCOD9391704
_publ_section_title
;
Structure prediction by ZEFSAII (Michael W. Deem and Ramdas Pophale) SiO2 
 PCOD9391704
Probable space group: P N N N
;
_chemical_formula_sum "Si O2"
_cell_formula_units_Z 56
_cell_length_a 5.167774
_cell_length_b 17.194224
_cell_length_c 28.556860
_cell_angle_alpha 90.000000
_cell_angle_beta 90.000000
_cell_angle_gamma 90.000000
_cell_volume 2537.444461
_symmetry_space_group_name_H-M "P N N N"
_symmetry_group_IT_number 48
_space_group.IT_coordinate_system_code '2'
_symmetry_cell_setting 'orthorhombic'
loop_
_space_group_symop_operation_xyz
x,y,z
1/2-x,1/2-y,z
x,1/2-y,1/2-z
1/2-x,y,1/2-z
-x,-y,-z
1/2+x,1/2+y,-z
-x,1/2+y,1/2+z
1/2+x,-y,1/2+z
loop_
_atom_site_type_symbol
_atom_site_label
_atom_site_fract_x
_atom_site_fract_y
_atom_site_fract_z
Si Si1 0.228474 0.938489 0.127997
Si Si2 0.074726 0.175834 0.511269
Si Si3 0.794195 0.662459 0.120383
Si Si4 0.657873 0.539109 0.958291
Si Si5 0.132289 0.662964 0.831732
Si Si6 0.147326 0.079356 0.199680
Si Si7 0.750883 0.159359 0.067440
O O1 0.471277 0.885677 0.142610
O O2 0.970536 0.886150 0.122876
O O3 0.277363 0.976772 0.076734
O O4 0.186304 0.008499 0.163767
O O5 0.250000 0.250000 0.494277
O O6 0.114535 0.172148 0.566103
O O7 0.156325 0.097619 0.484622
O O8 0.789991 0.170764 0.489095
O O9 0.750000 0.750000 0.138510
O O10 0.478811 0.597975 0.929163
O O11 0.500000 0.500000 0.000000
O O12 0.250000 0.750000 0.827106
O O13 0.353593 0.609522 0.807328
O O14 0.088704 0.635269 0.886215
O O15 0.849529 0.649544 0.810636
O O16 0.250000 0.051334 0.250000
O O17 0.750000 0.250000 0.079356
#
# Coordination Sequence:
#
# PCOD9391704 Si02
#       7
#     8   8   8   8   8   8   8
#     4  12  25  45  68  99 134 170 223 283 339 410
#     4  11  23  37  60  90 132 184 230 270 320 391
#     4  11  26  45  69  95 134 177 222 275 341 407
#     4  12  23  37  59  91 128 173 219 273 316 377
#     4  11  25  43  68  99 141 186 230 275 332 398
#     4  12  26  46  72 101 135 175 223 287 349 403
#     4  11  23  38  60  88 134 184 227 273 325 391
#
# _framework density 22.069445999999999
#
# number of rings (size 3 to 8) (size 9 to 14) (size 15 to 20)
#    0.000    0.571    4.286    3.857    2.000    2.857 
#    0.000    0.000    0.000    2.571    0.000    0.000 
#    0.000    0.000    0.000    0.000    0.000    0.000 
#
# Total GULP energy -312021.326889 kJ/mol
# GULP energy per Si atom -5571.809409 kJ/mol
# Density = 2.201922 g / cm^3
# Si number density = 22.069446 Si / 1000 Ang^3
#
#
#
# Elastic Constant Matrix: (Units=GPa)
#
#
# Indices 1 2 3 4 5 6 
#
# 1 74.0994 32.7050 -9.7546 0.0000 0.0000 0.0000
# 2 32.7050 119.0338 4.4219 0.0000 0.0000 0.0000
# 3 -9.7546 4.4219 61.2302 0.0000 0.0000 0.0000
# 4 0.0000 0.0000 0.0000 15.8983 0.0000 0.0000
# 5 0.0000 0.0000 0.0000 0.0000 54.4084 0.0000
# 6 0.0000 0.0000 0.0000 0.0000 0.0000 33.3753
#
#
#
# Elastic Compliance Matrix: (Units=1/GPa)
#
#
# Indices 1 2 3 4 5 6 
#
# 1 0.015837 -0.004457 0.002845 0.000000 0.000000 0.000000
# 2 -0.004457 0.009678 -0.001409 0.000000 0.000000 0.000000
# 3 0.002845 -0.001409 0.016887 0.000000 0.000000 0.000000
# 4 0.000000 0.000000 0.000000 0.062900 0.000000 0.000000
# 5 0.000000 0.000000 0.000000 0.000000 0.018380 0.000000
# 6 0.000000 0.000000 0.000000 0.000000 0.000000 0.029962
#
#
# Mechanical properties :
#
#
# Convention : Reuss Voigt Hill
#
# Bulk Modulus (GPa) = 27.50303 34.34532 30.92418
# Shear Modulus (GPa) = 29.10273 35.86916 32.48595
#
# Velocity S-wave (km/s) = 3.63532 4.03586 3.84081
# Velocity P-wave (km/s) = 5.48724 6.10849 5.80618
#
# Compressibility (1/GPa) = 0.03635963
#
# Stress axis : x y z
#
# Youngs Moduli (GPa) = 63.14306 103.32833 59.21792
#
# Poissons Ratio (x) = 0.46053 -0.16847
# Poissons Ratio (y) = 0.28143 0.08344
# Poissons Ratio (z) = -0.17963 0.14558
#
# Static dielectric constant tensor:
#      x y z
#    x 1.651320 0.000000 0.000000 
#    y 0.000000 2.340890 0.000000 
#    z 0.000000 0.000000 1.834000 
# 
# From -- ./inp_files/38336.got.cif
#   From: 2010.05.17/outbox.cif.g08.bks.cpg/sg48_20_cif.got.tgz:38336.got - 2010.06.03 20:39:00.
