data_PCOD9391980
_publ_section_title
;
Structure prediction by ZEFSAII (Michael W. Deem and Ramdas Pophale) SiO2 
 PCOD9391980
Probable space group: P C C M
;
_chemical_formula_sum "Si O2"
_cell_formula_units_Z 48
_cell_length_a 34.015858
_cell_length_b 7.624414
_cell_length_c 8.414569
_cell_angle_alpha 90.000000
_cell_angle_beta 90.000000
_cell_angle_gamma 90.000000
_cell_volume 2182.326750
_symmetry_space_group_name_H-M "P C C M"
_symmetry_group_IT_number 49
_symmetry_cell_setting 'orthorhombic'
loop_
_space_group_symop_operation_xyz
x,y,z
-x,-y,z
x,-y,1/2-z
-x,y,1/2-z
-x,-y,-z
x,y,-z
-x,y,1/2+z
x,-y,1/2+z
loop_
_atom_site_type_symbol
_atom_site_label
_atom_site_fract_x
_atom_site_fract_y
_atom_site_fract_z
Si Si1 0.622731 0.297294 0.690690
Si Si2 0.122196 0.197340 0.809686
Si Si3 0.791309 0.302495 0.308205
Si Si4 0.459122 0.702147 0.188258
Si Si5 0.292565 0.297207 0.192390
Si Si6 0.040958 0.202644 0.688694
O O1 0.623197 0.500000 0.750000
O O2 0.620938 0.297011 0.500000
O O3 0.582201 0.217917 0.754922
O O4 0.665137 0.220884 0.743509
O O5 0.165524 0.249341 0.749345
O O6 0.082087 0.285136 0.747264
O O7 0.118930 0.000000 0.750000
O O8 0.121744 0.208271 0.000000
O O9 0.787665 0.500000 0.250000
O O10 0.792523 0.290603 0.500000
O O11 0.749587 0.217875 0.254834
O O12 0.458824 0.500000 0.250000
O O13 0.500000 0.781624 0.250000
O O14 0.459895 0.698682 0.000000
O O15 0.293052 0.500000 0.250000
O O16 0.292389 0.297813 0.000000
O O17 0.040774 0.199669 0.500000
O O18 0.000000 0.282327 0.750000
O O19 0.040529 0.000000 0.750000
#
# Coordination Sequence:
#
# PCOD9391980 Si02
#       6
#     8   8   8   8   8   8
#     4   9  14  20  30  43  60  82 112 150 192 234
#     4  10  19  31  47  69  95 121 150 183 219 259
#     4   9  18  31  47  66  89 117 149 184 221 262
#     4  10  16  21  27  36  53  77 109 147 190 235
#     4   8  14  24  37  53  72  96 127 164 203 243
#     4  10  17  27  44  66  91 117 146 180 218 257
#
# _framework density 21.994873999999999
#
# number of rings (size 3 to 8) (size 9 to 14) (size 15 to 20)
#    0.000    2.667    0.000    7.000    0.000    2.000 
#    0.000    0.000    0.000    0.500    0.000    3.500 
#    0.000    0.000    0.000    0.000    0.000    0.833 
#
# Total GULP energy -267282.749034 kJ/mol
# GULP energy per Si atom -5568.390605 kJ/mol
# Density = 2.194481 g / cm^3
# Si number density = 21.994874 Si / 1000 Ang^3
#
#
#
# Elastic Constant Matrix: (Units=GPa)
#
#
# Indices 1 2 3 4 5 6 
#
# 1 330.9625 22.0619 59.0296 0.0000 0.0000 0.0000
# 2 22.0619 35.5501 -3.4984 0.0000 0.0000 0.0000
# 3 59.0296 -3.4984 90.5822 0.0000 0.0000 0.0000
# 4 0.0000 0.0000 0.0000 -4.9923 0.0000 0.0000
# 5 0.0000 0.0000 0.0000 0.0000 18.3505 0.0000
# 6 0.0000 0.0000 0.0000 0.0000 0.0000 21.3978
#
#
#
# Elastic Compliance Matrix: (Units=1/GPa)
#
#
# Indices 1 2 3 4 5 6 
#
# 1 0.003626 -0.002492 -0.002459 0.000000 0.000000 0.000000
# 2 -0.002492 0.029950 0.002781 0.000000 0.000000 0.000000
# 3 -0.002459 0.002781 0.012750 0.000000 0.000000 0.000000
# 4 0.000000 0.000000 0.000000 -0.200309 0.000000 0.000000
# 5 0.000000 0.000000 0.000000 0.000000 0.054494 0.000000
# 6 0.000000 0.000000 0.000000 0.000000 0.000000 0.046734
#
#
# Mechanical properties :
#
#
# Convention : Reuss Voigt Hill
#
# Bulk Modulus (GPa) = 23.81854 68.03122 45.92488
# Shear Modulus (GPa) = -145.27241 32.25132 -56.51054
#
# Velocity S-wave (km/s) = -8.13583 3.83340 -5.07429
# Velocity P-wave (km/s) = 8.79789 7.11273 3.66142
#
# Compressibility (1/GPa) = 0.04198410
#
# Stress axis : x y z
#
# Youngs Moduli (GPa) = 275.76399 33.38921 78.43251
#
# Poissons Ratio (x) = 0.08322 0.19290
# Poissons Ratio (y) = 0.68733 -0.21812
# Poissons Ratio (z) = 0.67821 -0.09285
#
# Static dielectric constant tensor:
#      x y z
#    x 1.993100 0.000000 0.000000 
#    y 0.000000 1.876620 0.000000 
#    z 0.000000 0.000000 1.746390 
# 
# From -- ./inp_files/6939.got.cif
#   From: 2010.05.17/outbox.cif.g08.bks.cpg/sg49_4_cif.got.tgz:6939.got - 2010.06.03 21:02:19.
