data_PCOD9391471
_publ_section_title
;
Structure prediction by ZEFSAII (Michael W. Deem and Ramdas Pophale) SiO2 
 PCOD9391471
Probable space group: P N N N
;
_chemical_formula_sum "Si O2"
_cell_formula_units_Z 28
_cell_length_a 5.114582
_cell_length_b 9.031173
_cell_length_c 24.421762
_cell_angle_alpha 90.000000
_cell_angle_beta 90.000000
_cell_angle_gamma 90.000000
_cell_volume 1128.057668
_symmetry_space_group_name_H-M "P N N N"
_symmetry_group_IT_number 48
_space_group.IT_coordinate_system_code '2'
_symmetry_cell_setting 'orthorhombic'
loop_
_space_group_symop_operation_xyz
x,y,z
1/2-x,1/2-y,z
x,1/2-y,1/2-z
1/2-x,y,1/2-z
-x,-y,-z
1/2+x,1/2+y,-z
-x,1/2+y,1/2+z
1/2+x,-y,1/2+z
loop_
_atom_site_type_symbol
_atom_site_label
_atom_site_fract_x
_atom_site_fract_y
_atom_site_fract_z
Si Si1 0.179713 0.076181 0.585801
Si Si2 0.569832 0.001438 0.302692
Si Si3 0.750000 0.250000 0.750000
Si Si4 0.219100 0.927644 0.022099
Si Si5 0.250000 0.250000 0.250000
O O1 0.250000 0.250000 0.583697
O O2 0.273096 0.002840 0.641409
O O3 0.408391 0.017229 0.539885
O O4 0.863047 0.065893 0.583102
O O5 0.750000 0.005686 0.250000
O O6 0.411311 0.852531 0.291190
O O7 0.399559 0.144869 0.292276
O O8 0.250000 0.750000 0.006839
O O9 0.500000 0.000000 0.000000
#
# Coordination Sequence:
#
# PCOD9391471 Si02
#       5
#     8   8   2   8   2
#     4   8  16  30  60  89 128 161 221 268 342 400
#     4  11  23  42  65  99 133 191 229 302 347 431
#     4  10  26  42  60 100 140 182 250 282 372 406
#     4   7  14  30  52 100 115 168 203 281 328 411
#     4  10  26  42  60 100 140 182 250 282 372 406
#
# _framework density 24.821425000000001
#
# number of rings (size 3 to 8) (size 9 to 14) (size 15 to 20)
#    1.714    1.143    0.000    0.857    8.000    0.000 
#    0.000    0.000    0.000    0.000   59.429    0.000 
#    0.000   11.429    0.000    2.571    0.000    0.000 
#
# Total GULP energy -155904.786437 kJ/mol
# GULP energy per Si atom -5568.028087 kJ/mol
# Density = 2.476493 g / cm^3
# Si number density = 24.821425 Si / 1000 Ang^3
#
#
#
# Elastic Constant Matrix: (Units=GPa)
#
#
# Indices 1 2 3 4 5 6 
#
# 1 272.0350 98.1614 92.2970 0.0000 0.0000 0.0000
# 2 98.1614 180.6888 56.4039 0.0000 0.0000 0.0000
# 3 92.2970 56.4039 152.7305 0.0000 0.0000 0.0000
# 4 0.0000 0.0000 0.0000 -8.1127 0.0000 0.0000
# 5 0.0000 0.0000 0.0000 0.0000 40.1150 0.0000
# 6 0.0000 0.0000 0.0000 0.0000 0.0000 63.4064
#
#
#
# Elastic Compliance Matrix: (Units=1/GPa)
#
#
# Indices 1 2 3 4 5 6 
#
# 1 0.005247 -0.002103 -0.002394 0.000000 0.000000 0.000000
# 2 -0.002103 0.007099 -0.001351 0.000000 0.000000 0.000000
# 3 -0.002394 -0.001351 0.008493 0.000000 0.000000 0.000000
# 4 0.000000 0.000000 0.000000 -0.123264 0.000000 0.000000
# 5 0.000000 0.000000 0.000000 0.000000 0.024928 0.000000
# 6 0.000000 0.000000 0.000000 0.000000 0.000000 0.015771
#
#
# Mechanical properties :
#
#
# Convention : Reuss Voigt Hill
#
# Bulk Modulus (GPa) = 109.37423 122.13100 115.75262
# Shear Modulus (GPa) = -106.42392 42.98788 -31.71802
#
# Velocity S-wave (km/s) = -6.55507 4.16611 -3.57858
# Velocity P-wave (km/s) = 3.62378 8.51191 5.44614
#
# Compressibility (1/GPa) = 0.00914292
#
# Stress axis : x y z
#
# Youngs Moduli (GPa) = 190.57542 140.87344 117.74261
#
# Poissons Ratio (x) = 0.29629 0.28191
# Poissons Ratio (y) = 0.40083 0.15901
# Poissons Ratio (z) = 0.45629 0.19025
#
# Static dielectric constant tensor:
#      x y z
#    x 1.881970 0.000000 0.000000 
#    y 0.000000 1.885790 0.000000 
#    z 0.000000 0.000000 1.242460 
# 
# From -- ./inp_files/7514.got.cif
#   From: 2010.05.17/outbox.cif.g08.bks.cpg/sg48_4_cif.got.tgz:7514.got - 2010.06.03 20:39:00.
