data_PCOD9391626
_publ_section_title
;
Structure prediction by ZEFSAII (Michael W. Deem and Ramdas Pophale) SiO2 
 PCOD9391626
Probable space group: P N N N
;
_chemical_formula_sum "Si O2"
_cell_formula_units_Z 48
_cell_length_a 15.003620
_cell_length_b 9.470635
_cell_length_c 17.760886
_cell_angle_alpha 90.000000
_cell_angle_beta 90.000000
_cell_angle_gamma 90.000000
_cell_volume 2523.711938
_symmetry_space_group_name_H-M "P N N N"
_symmetry_group_IT_number 48
_space_group.IT_coordinate_system_code '2'
_symmetry_cell_setting 'orthorhombic'
loop_
_space_group_symop_operation_xyz
x,y,z
1/2-x,1/2-y,z
x,1/2-y,1/2-z
1/2-x,y,1/2-z
-x,-y,-z
1/2+x,1/2+y,-z
-x,1/2+y,1/2+z
1/2+x,-y,1/2+z
loop_
_atom_site_type_symbol
_atom_site_label
_atom_site_fract_x
_atom_site_fract_y
_atom_site_fract_z
Si Si1 0.241284 0.914974 0.977666
Si Si2 0.433625 0.991084 0.930069
Si Si3 0.009212 0.776491 0.828087
Si Si4 0.328308 0.517226 0.812191
Si Si5 0.034274 0.228168 0.834333
Si Si6 0.429766 0.992447 0.431846
O O1 0.250000 0.750000 0.995884
O O2 0.206678 0.932503 0.892635
O O3 0.338188 0.982015 0.970650
O O4 0.168423 0.979775 0.033817
O O5 0.442092 0.127482 0.876619
O O6 0.454006 0.854764 0.877149
O O7 0.500000 0.000000 0.000000
O O8 0.958439 0.750000 0.750000
O O9 0.091270 0.873796 0.798102
O O10 0.948285 0.869983 0.882444
O O11 0.250000 0.517494 0.750000
O O12 0.376471 0.366628 0.823460
O O13 0.999332 0.250000 0.750000
O O14 0.962470 0.141028 0.882796
O O15 0.500000 0.000000 0.500000
#
# Coordination Sequence:
#
# PCOD9391626 Si02
#       6
#     8   8   8   8   8   8
#     4  12  22  39  65  92 125 173 219 266 318 397
#     4  12  25  40  64  97 129 167 225 273 327 391
#     4  11  22  41  65  95 134 173 215 274 331 400
#     4  11  23  37  63  96 135 167 208 257 347 415
#     4  11  23  41  61  95 138 169 207 277 336 387
#     4  11  21  43  65  90 130 178 218 259 327 399
#
# _framework density 19.019604999999999
#
# number of rings (size 3 to 8) (size 9 to 14) (size 15 to 20)
#    0.000    0.667    5.000    6.000    0.000    2.333 
#    0.000    0.833    0.000   10.500    0.000    0.000 
#    0.000    0.000    0.000    0.000    0.000    0.000 
#
# Total GULP energy -268156.745513 kJ/mol
# GULP energy per Si atom -5586.598865 kJ/mol
# Density = 1.897632 g / cm^3
# Si number density = 19.019605 Si / 1000 Ang^3
#
#
#
# Elastic Constant Matrix: (Units=GPa)
#
#
# Indices 1 2 3 4 5 6 
#
# 1 89.7030 50.8537 70.0979 0.0000 0.0000 0.0000
# 2 50.8537 140.4295 63.3966 0.0000 0.0000 0.0000
# 3 70.0979 63.3966 149.6905 0.0000 0.0000 0.0000
# 4 0.0000 0.0000 0.0000 41.2825 0.0000 0.0000
# 5 0.0000 0.0000 0.0000 0.0000 45.4019 0.0000
# 6 0.0000 0.0000 0.0000 0.0000 0.0000 14.5561
#
#
#
# Elastic Compliance Matrix: (Units=1/GPa)
#
#
# Indices 1 2 3 4 5 6 
#
# 1 0.018892 -0.003521 -0.007356 0.000000 0.000000 0.000000
# 2 -0.003521 0.009460 -0.002358 0.000000 0.000000 0.000000
# 3 -0.007356 -0.002358 0.011124 0.000000 0.000000 0.000000
# 4 0.000000 0.000000 0.000000 0.024223 0.000000 0.000000
# 5 0.000000 0.000000 0.000000 0.000000 0.022026 0.000000
# 6 0.000000 0.000000 0.000000 0.000000 0.000000 0.068700
#
#
# Mechanical properties :
#
#
# Convention : Reuss Voigt Hill
#
# Bulk Modulus (GPa) = 76.87990 83.16882 80.02436
# Shear Modulus (GPa) = 26.99357 33.27973 30.13665
#
# Velocity S-wave (km/s) = 3.77138 4.18755 3.98490
# Velocity P-wave (km/s) = 7.71191 8.19778 7.95856
#
# Compressibility (1/GPa) = 0.01300730
#
# Stress axis : x y z
#
# Youngs Moduli (GPa) = 52.93282 105.70325 89.89795
#
# Poissons Ratio (x) = 0.37213 0.66127
# Poissons Ratio (y) = 0.18635 0.21198
# Poissons Ratio (z) = 0.38936 0.24925
#
# Static dielectric constant tensor:
#      x y z
#    x 1.679440 0.000000 0.000000 
#    y 0.000000 1.700540 0.000000 
#    z 0.000000 0.000000 1.637460 
# 
# From -- ./inp_files/12746.got.cif
#   From: 2010.05.17/outbox.cif.g08.bks.cpg/sg48_7_cif.got.tgz:12746.got - 2010.06.03 20:39:00.
