data_PCOD9391511
_publ_section_title
;
Structure prediction by ZEFSAII (Michael W. Deem and Ramdas Pophale) SiO2 
 PCOD9391511
Probable space group: P N N N
;
_chemical_formula_sum "Si O2"
_cell_formula_units_Z 44
_cell_length_a 13.561286
_cell_length_b 7.272232
_cell_length_c 19.028238
_cell_angle_alpha 90.000000
_cell_angle_beta 90.000000
_cell_angle_gamma 90.000000
_cell_volume 1876.580397
_symmetry_space_group_name_H-M "P N N N"
_symmetry_group_IT_number 48
_space_group.IT_coordinate_system_code '2'
_symmetry_cell_setting 'orthorhombic'
loop_
_space_group_symop_operation_xyz
x,y,z
1/2-x,1/2-y,z
x,1/2-y,1/2-z
1/2-x,y,1/2-z
-x,-y,-z
1/2+x,1/2+y,-z
-x,1/2+y,1/2+z
1/2+x,-y,1/2+z
loop_
_atom_site_type_symbol
_atom_site_label
_atom_site_fract_x
_atom_site_fract_y
_atom_site_fract_z
Si Si1 0.567040 0.784077 0.075756
Si Si2 0.043795 0.893443 0.189687
Si Si3 0.250000 0.750000 0.931168
Si Si4 0.454064 0.750000 0.750000
Si Si5 0.700714 0.988388 0.176679
Si Si6 0.250000 0.750000 0.141866
Si Si7 0.128219 0.980981 0.462040
O O1 0.506063 0.621793 0.112036
O O2 0.478819 0.935427 0.069667
O O3 0.646176 0.830255 0.135166
O O4 0.621355 0.821311 0.001206
O O5 0.003831 0.750000 0.250000
O O6 0.156858 0.835142 0.181096
O O7 0.021689 0.095498 0.215909
O O8 0.225950 0.918577 0.879489
O O9 0.161194 0.668764 0.977933
O O10 0.381857 0.859311 0.803007
O O11 0.750000 0.944592 0.250000
O O12 0.206851 0.577678 0.096523
#
# Coordination Sequence:
#
# PCOD9391511 Si02
#       7
#     8   8   4   4   8   4   8
#     4   9  18  35  61  94 126 166 222 265 329 392
#     4  11  22  39  63  94 129 175 217 274 333 396
#     4   9  15  28  58  90 119 165 216 260 324 387
#     4  12  23  38  59  94 130 168 210 261 341 384
#     4  11  19  34  59  92 127 167 213 273 330 387
#     4   9  19  38  64  94 125 171 232 268 334 399
#     4   8  16  32  63  91 120 173 217 266 329 383
#
# _framework density 23.446902999999999
#
# number of rings (size 3 to 8) (size 9 to 14) (size 15 to 20)
#    0.000    2.182    3.636    0.273    0.000    0.000 
#    0.000    4.545    0.000   41.455    0.000    0.000 
#    0.000    0.000    0.000    0.000    0.000    0.000 
#
# Total GULP energy -245182.022564 kJ/mol
# GULP energy per Si atom -5572.318695 kJ/mol
# Density = 2.339354 g / cm^3
# Si number density = 23.446903 Si / 1000 Ang^3
#
#
#
# Elastic Constant Matrix: (Units=GPa)
#
#
# Indices 1 2 3 4 5 6 
#
# 1 116.2046 40.2653 47.1538 0.0000 0.0000 0.0000
# 2 40.2653 107.7031 36.9561 0.0000 0.0000 0.0000
# 3 47.1538 36.9561 90.8567 0.0000 0.0000 0.0000
# 4 0.0000 0.0000 0.0000 27.4217 0.0000 0.0000
# 5 0.0000 0.0000 0.0000 0.0000 32.9299 0.0000
# 6 0.0000 0.0000 0.0000 0.0000 0.0000 22.8977
#
#
#
# Elastic Compliance Matrix: (Units=1/GPa)
#
#
# Indices 1 2 3 4 5 6 
#
# 1 0.011503 -0.002617 -0.004905 0.000000 0.000000 0.000000
# 2 -0.002617 0.011386 -0.003273 0.000000 0.000000 0.000000
# 3 -0.004905 -0.003273 0.014883 0.000000 0.000000 0.000000
# 4 0.000000 0.000000 0.000000 0.036467 0.000000 0.000000
# 5 0.000000 0.000000 0.000000 0.000000 0.030368 0.000000
# 6 0.000000 0.000000 0.000000 0.000000 0.000000 0.043673
#
#
# Mechanical properties :
#
#
# Convention : Reuss Voigt Hill
#
# Bulk Modulus (GPa) = 61.79927 62.61273 62.20600
# Shear Modulus (GPa) = 28.52817 29.34248 28.93532
#
# Velocity S-wave (km/s) = 3.49193 3.54141 3.51676
# Velocity P-wave (km/s) = 6.53241 6.59425 6.56340
#
# Compressibility (1/GPa) = 0.01618142
#
# Stress axis : x y z
#
# Youngs Moduli (GPa) = 86.93464 87.82447 67.18854
#
# Poissons Ratio (x) = 0.22986 0.32958
# Poissons Ratio (y) = 0.22753 0.21991
# Poissons Ratio (z) = 0.42644 0.28746
#
# Static dielectric constant tensor:
#      x y z
#    x 1.886960 0.000000 0.000000 
#    y 0.000000 1.929980 0.000000 
#    z 0.000000 0.000000 1.972990 
# 
# From -- ./inp_files/31535.got.cif
#   From: 2010.05.17/outbox.cif.g08.bks.cpg/sg48_16_cif.got.tgz:31535.got - 2010.06.03 20:39:00.
