data_PCOD9391632
_publ_section_title
;
Structure prediction by ZEFSAII (Michael W. Deem and Ramdas Pophale) SiO2 
 PCOD9391632
Probable space group: P N N N
;
_chemical_formula_sum "Si O2"
_cell_formula_units_Z 48
_cell_length_a 25.928260
_cell_length_b 5.634758
_cell_length_c 14.176820
_cell_angle_alpha 90.000000
_cell_angle_beta 90.000000
_cell_angle_gamma 90.000000
_cell_volume 2071.225895
_symmetry_space_group_name_H-M "P N N N"
_symmetry_group_IT_number 48
_space_group.IT_coordinate_system_code '2'
_symmetry_cell_setting 'orthorhombic'
loop_
_space_group_symop_operation_xyz
x,y,z
1/2-x,1/2-y,z
x,1/2-y,1/2-z
1/2-x,y,1/2-z
-x,-y,-z
1/2+x,1/2+y,-z
-x,1/2+y,1/2+z
1/2+x,-y,1/2+z
loop_
_atom_site_type_symbol
_atom_site_label
_atom_site_fract_x
_atom_site_fract_y
_atom_site_fract_z
Si Si1 0.934248 0.856847 0.655632
Si Si2 0.156997 0.822499 0.355045
Si Si3 0.805401 0.864917 0.473170
Si Si4 0.111947 0.486899 0.494774
Si Si5 0.637096 0.997050 0.192268
Si Si6 0.038523 0.607851 0.918271
O O1 0.910676 0.750000 0.750000
O O2 0.920804 0.695860 0.566859
O O3 0.995062 0.857016 0.659974
O O4 0.903522 0.100764 0.648190
O O5 0.175194 0.750000 0.250000
O O6 0.152788 0.598871 0.421426
O O7 0.184063 0.019773 0.422524
O O8 0.750000 0.750000 0.470194
O O9 0.847882 0.665801 0.446854
O O10 0.818756 0.044000 0.387910
O O11 0.071835 0.668947 0.542321
O O12 0.632453 0.250000 0.250000
O O13 0.582996 0.963604 0.134836
O O14 0.646532 0.750000 0.250000
O O15 0.000000 0.500000 0.000000
#
# Coordination Sequence:
#
# PCOD9391632 Si02
#       6
#     8   8   8   8   8   8
#     4  11  22  35  64 100 142 198 249 294 377 474
#     4  11  22  44  74 107 150 195 254 325 391 479
#     4  11  27  51  78 110 149 204 266 338 418 484
#     4  11  22  44  69 102 151 193 252 328 389 466
#     4  12  28  52  78 116 161 205 268 339 397 471
#     4  12  23  42  69 108 150 204 253 313 390 468
#
# _framework density 23.174681
#
# number of rings (size 3 to 8) (size 9 to 14) (size 15 to 20)
#    0.000    0.667    5.000    3.000    0.000    4.333 
#    0.000    5.000    0.000    0.000    0.000    0.000 
#    0.000    0.000    0.000    0.000    0.000    0.000 
#
# Total GULP energy -267226.659430 kJ/mol
# GULP energy per Si atom -5567.222071 kJ/mol
# Density = 2.312193 g / cm^3
# Si number density = 23.174681 Si / 1000 Ang^3
#
#
#
# Elastic Constant Matrix: (Units=GPa)
#
#
# Indices 1 2 3 4 5 6 
#
# 1 146.0275 34.9630 46.3932 0.0000 0.0000 0.0000
# 2 34.9630 79.9755 44.9155 0.0000 0.0000 0.0000
# 3 46.3932 44.9155 147.5845 0.0000 0.0000 0.0000
# 4 0.0000 0.0000 0.0000 45.6938 0.0000 0.0000
# 5 0.0000 0.0000 0.0000 0.0000 7.8735 0.0000
# 6 0.0000 0.0000 0.0000 0.0000 0.0000 11.2741
#
#
#
# Elastic Compliance Matrix: (Units=1/GPa)
#
#
# Indices 1 2 3 4 5 6 
#
# 1 0.008007 -0.002517 -0.001751 0.000000 0.000000 0.000000
# 2 -0.002517 0.015873 -0.004039 0.000000 0.000000 0.000000
# 3 -0.001751 -0.004039 0.008556 0.000000 0.000000 0.000000
# 4 0.000000 0.000000 0.000000 0.021885 0.000000 0.000000
# 5 0.000000 0.000000 0.000000 0.000000 0.127009 0.000000
# 6 0.000000 0.000000 0.000000 0.000000 0.000000 0.088699
#
#
# Mechanical properties :
#
#
# Convention : Reuss Voigt Hill
#
# Bulk Modulus (GPa) = 63.20948 69.57011 66.38979
# Shear Modulus (GPa) = 17.12821 29.45600 23.29211
#
# Velocity S-wave (km/s) = 2.72157 3.56904 3.17372
# Velocity P-wave (km/s) = 6.10003 6.86069 6.49151
#
# Compressibility (1/GPa) = 0.01582041
#
# Stress axis : x y z
#
# Youngs Moduli (GPa) = 124.89131 63.00066 116.88314
#
# Poissons Ratio (x) = 0.15858 0.20466
# Poissons Ratio (y) = 0.31436 0.47215
# Poissons Ratio (z) = 0.21868 0.25449
#
# Static dielectric constant tensor:
#      x y z
#    x 1.876680 0.000000 0.000000 
#    y 0.000000 1.966770 0.000000 
#    z 0.000000 0.000000 1.846870 
# 
# From -- ./inp_files/28759.got.cif
#   From: 2010.05.17/outbox.cif.g08.bks.cpg/sg48_15_cif.got.tgz:28759.got - 2010.06.03 20:39:00.
