data_PCOD9391070
_publ_section_title
;
Structure prediction by ZEFSAII (Michael W. Deem and Ramdas Pophale) SiO2 
 PCOD9391070
Probable space group: P N N N
;
_chemical_formula_sum "Si O2"
_cell_formula_units_Z 48
_cell_length_a 12.787612
_cell_length_b 16.836543
_cell_length_c 10.191560
_cell_angle_alpha 90.000000
_cell_angle_beta 90.000000
_cell_angle_gamma 90.000000
_cell_volume 2194.234504
_symmetry_space_group_name_H-M "P N N N"
_symmetry_group_IT_number 48
_space_group.IT_coordinate_system_code '2'
_symmetry_cell_setting 'orthorhombic'
loop_
_space_group_symop_operation_xyz
x,y,z
1/2-x,1/2-y,z
x,1/2-y,1/2-z
1/2-x,y,1/2-z
-x,-y,-z
1/2+x,1/2+y,-z
-x,1/2+y,1/2+z
1/2+x,-y,1/2+z
loop_
_atom_site_type_symbol
_atom_site_label
_atom_site_fract_x
_atom_site_fract_y
_atom_site_fract_z
Si Si1 0.439525 0.838156 0.736405
Si Si2 0.868914 0.730477 0.581487
Si Si3 0.632043 0.066132 0.001771
Si Si4 0.365550 0.932691 0.487232
Si Si5 0.412884 0.403014 0.874061
Si Si6 0.920592 0.610686 0.076894
O O1 0.394540 0.750000 0.750000
O O2 0.404062 0.893777 0.858143
O O3 0.392823 0.876959 0.608586
O O4 0.561297 0.681934 0.808704
O O5 0.750000 0.750000 0.616548
O O6 0.876645 0.671608 0.458290
O O7 0.909187 0.813999 0.519167
O O8 0.746946 0.085560 0.951087
O O9 0.620848 0.970903 0.013114
O O10 0.544174 0.098342 0.906269
O O11 0.461628 0.919361 0.388132
O O12 0.367082 0.020454 0.551067
O O13 0.378366 0.388252 0.724874
#
# Coordination Sequence:
#
# PCOD9391070 Si02
#       6
#     8   8   8   8   8   8
#     4  11  22  42  63  95 126 164 214 271 310 387
#     4  11  24  41  66  95 128 170 213 267 337 387
#     4  11  23  40  64  92 129 172 214 263 330 388
#     4  10  22  40  65  93 124 171 216 261 325 388
#     4  10  22  41  64  93 131 163 217 272 318 393
#     4  11  23  41  61  94 132 164 215 272 321 398
#
# _framework density 21.875510999999999
#
# number of rings (size 3 to 8) (size 9 to 14) (size 15 to 20)
#    0.000    1.333    3.333    2.000    0.000    5.000 
#    0.000    0.000    0.000    2.000    0.000    0.000 
#    0.000    0.000    0.000    0.000    0.000    0.000 
#
# Total GULP energy -267525.395972 kJ/mol
# GULP energy per Si atom -5573.445749 kJ/mol
# Density = 2.182572 g / cm^3
# Si number density = 21.875511 Si / 1000 Ang^3
#
#
#
# Elastic Constant Matrix: (Units=GPa)
#
#
# Indices 1 2 3 4 5 6 
#
# 1 151.9954 18.8302 -7.0395 0.0000 0.0000 0.0000
# 2 18.8302 145.8661 21.7009 0.0000 0.0000 0.0000
# 3 -7.0395 21.7009 79.6164 0.0000 0.0000 0.0000
# 4 0.0000 0.0000 0.0000 -671.0499 0.0000 0.0000
# 5 0.0000 0.0000 0.0000 0.0000 14.8078 0.0000
# 6 0.0000 0.0000 0.0000 0.0000 0.0000 18.3056
#
#
#
# Elastic Compliance Matrix: (Units=1/GPa)
#
#
# Indices 1 2 3 4 5 6 
#
# 1 0.006743 -0.001000 0.000869 0.000000 0.000000 0.000000
# 2 -0.001000 0.007294 -0.002076 0.000000 0.000000 0.000000
# 3 0.000869 -0.002076 0.013203 0.000000 0.000000 0.000000
# 4 0.000000 0.000000 0.000000 -0.001490 0.000000 0.000000
# 5 0.000000 0.000000 0.000000 0.000000 0.067532 0.000000
# 6 0.000000 0.000000 0.000000 0.000000 0.000000 0.054628
#
#
# Mechanical properties :
#
#
# Convention : Reuss Voigt Hill
#
# Bulk Modulus (GPa) = 43.81167 49.38457 46.59812
# Shear Modulus (GPa) = 31.26318 -104.65486 -36.69584
#
# Velocity S-wave (km/s) = 3.78450 -6.92423 -4.10015
# Velocity P-wave (km/s) = 6.25842 6.42669 1.03309
#
# Compressibility (1/GPa) = 0.02282497
#
# Stress axis : x y z
#
# Youngs Moduli (GPa) = 148.29681 137.10699 75.74040
#
# Poissons Ratio (x) = 0.13707 -0.06580
# Poissons Ratio (y) = 0.14826 0.15727
# Poissons Ratio (z) = -0.12883 0.28469
#
# Static dielectric constant tensor:
#      x y z
#    x 1.876370 0.000000 0.000000 
#    y 0.000000 2.181780 0.000000 
#    z 0.000000 0.000000 1.780900 
# 
# From -- ./inp_files/20047.got.cif
#   From: 2010.05.17/outbox.cif.g08.bks.cpg/sg48_11_cif.got.tgz:20047.got - 2010.06.03 20:39:00.
