data_PCOD9391638
_publ_section_title
;
Structure prediction by ZEFSAII (Michael W. Deem and Ramdas Pophale) SiO2 
 PCOD9391638
Probable space group: P N N N
;
_chemical_formula_sum "Si O2"
_cell_formula_units_Z 56
_cell_length_a 14.598985
_cell_length_b 11.249074
_cell_length_c 15.122816
_cell_angle_alpha 90.000000
_cell_angle_beta 90.000000
_cell_angle_gamma 90.000000
_cell_volume 2483.545404
_symmetry_space_group_name_H-M "P N N N"
_symmetry_group_IT_number 48
_space_group.IT_coordinate_system_code '2'
_symmetry_cell_setting 'orthorhombic'
loop_
_space_group_symop_operation_xyz
x,y,z
1/2-x,1/2-y,z
x,1/2-y,1/2-z
1/2-x,y,1/2-z
-x,-y,-z
1/2+x,1/2+y,-z
-x,1/2+y,1/2+z
1/2+x,-y,1/2+z
loop_
_atom_site_type_symbol
_atom_site_label
_atom_site_fract_x
_atom_site_fract_y
_atom_site_fract_z
Si Si1 0.091137 0.577750 0.981542
Si Si2 0.323772 0.068374 0.121276
Si Si3 0.373646 0.312561 0.153989
Si Si4 0.856507 0.378800 0.733980
Si Si5 0.856753 0.384027 0.222803
Si Si6 0.578348 0.155637 0.544655
Si Si7 0.049365 0.976339 0.882048
O O1 0.117539 0.593454 0.878848
O O2 0.172029 0.513833 0.035956
O O3 0.078827 0.706108 0.026378
O O4 0.000000 0.500000 0.000000
O O5 0.373748 0.192228 0.096489
O O6 0.222496 0.115994 0.147539
O O7 0.374911 0.990403 0.199594
O O8 0.378708 0.250000 0.250000
O O9 0.458785 0.394491 0.130541
O O10 0.904104 0.250000 0.750000
O O11 0.750000 0.366135 0.750000
O O12 0.864324 0.385084 0.628817
O O13 0.888308 0.250000 0.250000
O O14 0.750000 0.388717 0.250000
O O15 0.906049 0.478686 0.286641
O O16 0.609092 0.092564 0.454298
O O17 0.480467 0.099446 0.573409
#
# Coordination Sequence:
#
# PCOD9391638 Si02
#       7
#     8   8   8   8   8   8   8
#     4  12  27  47  73 106 146 199 250 314 374 443
#     4  11  23  42  67 104 150 188 243 300 370 448
#     4  11  23  42  73 105 146 196 239 292 376 451
#     4  11  22  37  58  96 144 182 216 289 368 422
#     4  11  26  49  75 103 145 201 256 302 374 458
#     4  11  24  42  66 105 137 187 242 297 370 441
#     4  11  24  44  74 101 141 189 247 308 360 453
#
# _framework density 22.548410000000001
#
# number of rings (size 3 to 8) (size 9 to 14) (size 15 to 20)
#    0.000    0.857    2.857    4.714    4.000    3.429 
#    0.000    0.000    0.000    0.857    0.000    0.000 
#    0.000    0.000    0.000    0.000    0.000    0.000 
#
# Total GULP energy -312647.441054 kJ/mol
# GULP energy per Si atom -5582.990019 kJ/mol
# Density = 2.249709 g / cm^3
# Si number density = 22.548410 Si / 1000 Ang^3
#
#
#
# Elastic Constant Matrix: (Units=GPa)
#
#
# Indices 1 2 3 4 5 6 
#
# 1 65.0764 31.0703 42.7314 0.0000 0.0000 0.0000
# 2 31.0703 164.6923 69.9058 0.0000 0.0000 0.0000
# 3 42.7314 69.9058 200.5400 0.0000 0.0000 0.0000
# 4 0.0000 0.0000 0.0000 33.1749 0.0000 0.0000
# 5 0.0000 0.0000 0.0000 0.0000 37.1449 0.0000
# 6 0.0000 0.0000 0.0000 0.0000 0.0000 15.6059
#
#
#
# Elastic Compliance Matrix: (Units=1/GPa)
#
#
# Indices 1 2 3 4 5 6 
#
# 1 0.018482 -0.002130 -0.003196 0.000000 0.000000 0.000000
# 2 -0.002130 0.007372 -0.002116 0.000000 0.000000 0.000000
# 3 -0.003196 -0.002116 0.006405 0.000000 0.000000 0.000000
# 4 0.000000 0.000000 0.000000 0.030143 0.000000 0.000000
# 5 0.000000 0.000000 0.000000 0.000000 0.026922 0.000000
# 6 0.000000 0.000000 0.000000 0.000000 0.000000 0.064078
#
#
# Mechanical properties :
#
#
# Convention : Reuss Voigt Hill
#
# Bulk Modulus (GPa) = 57.55247 79.74708 68.64978
# Shear Modulus (GPa) = 28.72289 36.29191 32.50740
#
# Velocity S-wave (km/s) = 3.57295 4.01622 3.80105
# Velocity P-wave (km/s) = 6.52692 7.54656 7.05518
#
# Compressibility (1/GPa) = 0.01737545
#
# Stress axis : x y z
#
# Youngs Moduli (GPa) = 54.10672 135.64986 156.12802
#
# Poissons Ratio (x) = 0.28898 0.49892
# Poissons Ratio (y) = 0.11527 0.33034
# Poissons Ratio (z) = 0.17290 0.28701
#
# Static dielectric constant tensor:
#      x y z
#    x 1.824220 0.000000 0.000000 
#    y 0.000000 1.952360 0.000000 
#    z 0.000000 0.000000 1.806220 
# 
# From -- ./inp_files/27316.got.cif
#   From: 2010.05.17/outbox.cif.g08.bks.cpg/sg48_14_cif.got.tgz:27316.got - 2010.06.03 20:39:00.
