data_PCOD9391602
_publ_section_title
;
Structure prediction by ZEFSAII (Michael W. Deem and Ramdas Pophale) SiO2 
 PCOD9391602
Probable space group: P N N N
;
_chemical_formula_sum "Si O2"
_cell_formula_units_Z 40
_cell_length_a 21.896164
_cell_length_b 5.129506
_cell_length_c 17.592374
_cell_angle_alpha 90.000000
_cell_angle_beta 90.000000
_cell_angle_gamma 90.000000
_cell_volume 1975.913956
_symmetry_space_group_name_H-M "P N N N"
_symmetry_group_IT_number 48
_space_group.IT_coordinate_system_code '2'
_symmetry_cell_setting 'orthorhombic'
loop_
_space_group_symop_operation_xyz
x,y,z
1/2-x,1/2-y,z
x,1/2-y,1/2-z
1/2-x,y,1/2-z
-x,-y,-z
1/2+x,1/2+y,-z
-x,1/2+y,1/2+z
1/2+x,-y,1/2+z
loop_
_atom_site_type_symbol
_atom_site_label
_atom_site_fract_x
_atom_site_fract_y
_atom_site_fract_z
Si Si1 0.936862 0.957495 0.059061
Si Si2 0.631060 0.642880 0.331425
Si Si3 0.708398 0.003374 0.033707
Si Si4 0.917980 0.035892 0.538792
Si Si5 0.999846 0.339787 0.166944
O O1 0.985300 0.084670 0.116150
O O2 0.880857 0.890494 0.114006
O O3 0.924026 0.177609 0.997116
O O4 0.948758 0.682839 0.017113
O O5 0.650811 0.750000 0.250000
O O6 0.676812 0.474571 0.382511
O O7 0.564930 0.496696 0.324303
O O8 0.750000 0.250000 0.017652
O O9 0.750000 0.750000 0.033458
O O10 0.653633 0.975642 0.972481
O O11 0.949170 0.998430 0.620174
O O12 0.019412 0.250000 0.250000
#
# Coordination Sequence:
#
# PCOD9391602 Si02
#       5
#     8   8   8   8   8
#     4  11  21  39  60  92 126 167 201 252 319 390
#     4  11  24  40  63  96 136 169 208 267 326 391
#     4  11  24  43  63  87 121 172 228 259 301 363
#     4  11  25  40  66  90 128 166 215 266 322 376
#     4  12  24  38  65  99 133 162 203 262 342 398
#
# _framework density 20.243794999999999
#
# number of rings (size 3 to 8) (size 9 to 14) (size 15 to 20)
#    0.000    0.800    6.000    3.600    2.800    0.400 
#    0.000    3.000    0.000    0.600    0.000    1.400 
#    0.000    0.000    0.000    0.000    0.000    0.000 
#
# Total GULP energy -223438.274120 kJ/mol
# GULP energy per Si atom -5585.956853 kJ/mol
# Density = 2.019772 g / cm^3
# Si number density = 20.243795 Si / 1000 Ang^3
#
#
#
# Elastic Constant Matrix: (Units=GPa)
#
#
# Indices 1 2 3 4 5 6 
#
# 1 99.3838 27.5917 40.3882 0.0000 0.0000 0.0000
# 2 27.5917 126.9355 33.8911 0.0000 0.0000 0.0000
# 3 40.3882 33.8911 107.1418 0.0000 0.0000 0.0000
# 4 0.0000 0.0000 0.0000 26.8467 0.0000 0.0000
# 5 0.0000 0.0000 0.0000 0.0000 22.8663 0.0000
# 6 0.0000 0.0000 0.0000 0.0000 0.0000 30.9482
#
#
#
# Elastic Compliance Matrix: (Units=1/GPa)
#
#
# Indices 1 2 3 4 5 6 
#
# 1 0.012155 -0.001550 -0.004092 0.000000 0.000000 0.000000
# 2 -0.001550 0.008802 -0.002200 0.000000 0.000000 0.000000
# 3 -0.004092 -0.002200 0.011572 0.000000 0.000000 0.000000
# 4 0.000000 0.000000 0.000000 0.037248 0.000000 0.000000
# 5 0.000000 0.000000 0.000000 0.000000 0.043733 0.000000
# 6 0.000000 0.000000 0.000000 0.000000 0.000000 0.032312
#
#
# Mechanical properties :
#
#
# Convention : Reuss Voigt Hill
#
# Bulk Modulus (GPa) = 59.36144 59.68924 59.52534
# Shear Modulus (GPa) = 29.91846 31.57157 30.74501
#
# Velocity S-wave (km/s) = 3.84853 3.95342 3.90133
# Velocity P-wave (km/s) = 7.00965 7.09849 7.05421
#
# Compressibility (1/GPa) = 0.01684595
#
# Stress axis : x y z
#
# Youngs Moduli (GPa) = 82.27012 113.60673 86.41663
#
# Poissons Ratio (x) = 0.17605 0.35360
# Poissons Ratio (y) = 0.12749 0.19013
# Poissons Ratio (z) = 0.33663 0.24996
#
# Static dielectric constant tensor:
#      x y z
#    x 1.787890 0.000000 0.000000 
#    y 0.000000 1.782560 0.000000 
#    z 0.000000 0.000000 1.721340 
# 
# From -- ./inp_files/32125.got.cif
#   From: 2010.05.17/outbox.cif.g08.bks.cpg/sg48_17_cif.got.tgz:32125.got - 2010.06.03 20:39:00.
