data_PCOD9391424
_publ_section_title
;
Structure prediction by ZEFSAII (Michael W. Deem and Ramdas Pophale) SiO2 
 PCOD9391424
Probable space group: P N N N
;
_chemical_formula_sum "Si O2"
_cell_formula_units_Z 34
_cell_length_a 18.691448
_cell_length_b 9.297254
_cell_length_c 8.895791
_cell_angle_alpha 90.000000
_cell_angle_beta 90.000000
_cell_angle_gamma 90.000000
_cell_volume 1545.902907
_symmetry_space_group_name_H-M "P N N N"
_symmetry_group_IT_number 48
_space_group.IT_coordinate_system_code '2'
_symmetry_cell_setting 'orthorhombic'
loop_
_space_group_symop_operation_xyz
x,y,z
1/2-x,1/2-y,z
x,1/2-y,1/2-z
1/2-x,y,1/2-z
-x,-y,-z
1/2+x,1/2+y,-z
-x,1/2+y,1/2+z
1/2+x,-y,1/2+z
loop_
_atom_site_type_symbol
_atom_site_label
_atom_site_fract_x
_atom_site_fract_y
_atom_site_fract_z
Si Si1 0.356299 0.960979 0.396957
Si Si2 0.971007 0.250000 0.750000
Si Si3 0.164039 0.922485 0.760663
Si Si4 0.250000 0.750000 0.250000
Si Si5 0.640304 0.750000 0.750000
Si Si6 0.066697 0.101458 0.530050
O O1 0.421638 0.885946 0.302242
O O2 0.366478 0.967243 0.575786
O O3 0.295092 0.847566 0.360887
O O4 0.327525 0.114890 0.339313
O O5 0.026418 0.227627 0.616238
O O6 0.151678 0.750000 0.750000
O O7 0.250000 0.946953 0.750000
O O8 0.124009 0.013402 0.630544
O O9 0.597774 0.666019 0.621071
O O10 0.000000 0.000000 0.500000
#
# Coordination Sequence:
#
# PCOD9391424 Si02
#       6
#     8   4   8   2   4   8
#     4  11  25  45  75 106 149 188 250 302 373 445
#     4  11  24  45  73 104 143 190 242 306 367 444
#     4  11  26  47  75 105 146 199 253 307 372 452
#     4  10  24  46  74 108 138 210 248 296 374 458
#     4  12  28  45  68 116 147 190 238 322 366 446
#     4  12  26  44  72 108 147 190 248 308 382 440
#
# _framework density 21.993618999999999
#
# number of rings (size 3 to 8) (size 9 to 14) (size 15 to 20)
#    0.000    0.706    2.353    4.235   11.529    2.353 
#    0.000    4.118    0.000    0.000    0.000    0.000 
#    0.000    0.000    0.000    0.000    0.000    0.000 
#
# Total GULP energy -189707.278366 kJ/mol
# GULP energy per Si atom -5579.625834 kJ/mol
# Density = 2.194356 g / cm^3
# Si number density = 21.993619 Si / 1000 Ang^3
#
#
#
# Elastic Constant Matrix: (Units=GPa)
#
#
# Indices 1 2 3 4 5 6 
#
# 1 95.4860 50.3744 35.7654 0.0000 0.0000 0.0000
# 2 50.3744 141.9364 45.6922 0.0000 0.0000 0.0000
# 3 35.7654 45.6922 139.3002 0.0000 0.0000 0.0000
# 4 0.0000 0.0000 0.0000 46.2009 0.0000 0.0000
# 5 0.0000 0.0000 0.0000 0.0000 85.0460 0.0000
# 6 0.0000 0.0000 0.0000 0.0000 0.0000 114.8127
#
#
#
# Elastic Compliance Matrix: (Units=1/GPa)
#
#
# Indices 1 2 3 4 5 6 
#
# 1 0.013416 -0.004084 -0.002105 0.000000 0.000000 0.000000
# 2 -0.004084 0.009120 -0.001943 0.000000 0.000000 0.000000
# 3 -0.002105 -0.001943 0.008357 0.000000 0.000000 0.000000
# 4 0.000000 0.000000 0.000000 0.021645 0.000000 0.000000
# 5 0.000000 0.000000 0.000000 0.000000 0.011758 0.000000
# 6 0.000000 0.000000 0.000000 0.000000 0.000000 0.008710
#
#
# Mechanical properties :
#
#
# Convention : Reuss Voigt Hill
#
# Bulk Modulus (GPa) = 68.35760 71.15408 69.75584
# Shear Modulus (GPa) = 53.10967 65.53797 59.32382
#
# Velocity S-wave (km/s) = 4.91937 5.46473 5.19921
# Velocity P-wave (km/s) = 7.96336 8.49942 8.23575
#
# Compressibility (1/GPa) = 0.01462895
#
# Stress axis : x y z
#
# Youngs Moduli (GPa) = 74.54045 109.64616 119.66668
#
# Poissons Ratio (x) = 0.44776 0.25189
# Poissons Ratio (y) = 0.30440 0.23252
# Poissons Ratio (z) = 0.15690 0.21305
#
# Static dielectric constant tensor:
#      x y z
#    x 1.597220 0.000000 0.000000 
#    y 0.000000 28.028720 0.000000 
#    z 0.000000 0.000000 1.719720 
# 
# From -- ./inp_files/8782.got.cif
#   From: 2010.05.17/outbox.cif.g08.bks.cpg/sg48_5_cif.got.tgz:8782.got - 2010.06.03 20:39:00.
