data_PCOD9391827
_publ_section_title
;
Structure prediction by ZEFSAII (Michael W. Deem and Ramdas Pophale) SiO2 
 PCOD9391827
Probable space group: P N N N
;
_chemical_formula_sum "Si O2"
_cell_formula_units_Z 54
_cell_length_a 11.585186
_cell_length_b 13.992468
_cell_length_c 13.273724
_cell_angle_alpha 90.000000
_cell_angle_beta 90.000000
_cell_angle_gamma 90.000000
_cell_volume 2151.741600
_symmetry_space_group_name_H-M "P N N N"
_symmetry_group_IT_number 48
_space_group.IT_coordinate_system_code '2'
_symmetry_cell_setting 'orthorhombic'
loop_
_space_group_symop_operation_xyz
x,y,z
1/2-x,1/2-y,z
x,1/2-y,1/2-z
1/2-x,y,1/2-z
-x,-y,-z
1/2+x,1/2+y,-z
-x,1/2+y,1/2+z
1/2+x,-y,1/2+z
loop_
_atom_site_type_symbol
_atom_site_label
_atom_site_fract_x
_atom_site_fract_y
_atom_site_fract_z
Si Si1 0.545456 0.819765 0.633773
Si Si2 0.250000 0.405138 0.250000
Si Si3 0.418810 0.972056 0.141188
Si Si4 0.158569 0.944636 0.928124
Si Si5 0.162292 0.332849 0.578487
Si Si6 0.250000 0.750000 0.250000
Si Si7 0.908638 0.131693 0.438165
Si Si8 0.425625 0.618831 0.145740
O O1 0.637049 0.844179 0.721418
O O2 0.446760 0.901164 0.635593
O O3 0.631786 0.823128 0.538876
O O4 0.468656 0.725003 0.610051
O O5 0.203115 0.471702 0.158072
O O6 0.445824 0.940318 0.253568
O O7 0.516203 0.044037 0.103715
O O8 0.413373 0.886538 0.059673
O O9 0.273676 0.882053 0.914102
O O10 0.190731 0.054853 0.905136
O O11 0.106134 0.933928 0.041670
O O12 0.250000 0.250000 0.608170
O O13 0.039449 0.319235 0.630103
O O14 0.321914 0.684938 0.176315
#
# Coordination Sequence:
#
# PCOD9391827 Si02
#       8
#     8   4   8   8   8   2   8   8
#     4  11  26  45  79 115 153 203 265 332 392 477
#     4  12  25  51  77 115 148 212 279 329 382 478
#     4  11  25  45  74 109 160 211 260 327 387 475
#     4  11  24  49  77 108 155 210 255 327 399 473
#     4  11  26  46  77 111 153 200 260 323 401 467
#     4  12  26  40  68 116 146 204 252 322 362 480
#     4  11  26  43  75 113 159 205 259 321 410 469
#     4  11  25  45  77 110 157 199 268 319 389 466
#
# _framework density 25.095952
#
# number of rings (size 3 to 8) (size 9 to 14) (size 15 to 20)
#    0.000    0.889    0.000    7.111   14.519    1.185 
#    2.667    4.815    6.519    3.556    0.000    0.000 
#    0.000    0.000    0.000    0.000    0.000    0.000 
#
# Total GULP energy -302207.888167 kJ/mol
# GULP energy per Si atom -5596.442373 kJ/mol
# Density = 2.503883 g / cm^3
# Si number density = 25.095952 Si / 1000 Ang^3
#
#
#
# Elastic Constant Matrix: (Units=GPa)
#
#
# Indices 1 2 3 4 5 6 
#
# 1 187.1975 96.0512 63.4531 0.0000 0.0000 0.0000
# 2 96.0512 179.4716 51.3677 0.0000 0.0000 0.0000
# 3 63.4531 51.3677 80.3063 0.0000 0.0000 0.0000
# 4 0.0000 0.0000 0.0000 24.1952 0.0000 0.0000
# 5 0.0000 0.0000 0.0000 0.0000 66.4597 0.0000
# 6 0.0000 0.0000 0.0000 0.0000 0.0000 67.2105
#
#
#
# Elastic Compliance Matrix: (Units=1/GPa)
#
#
# Indices 1 2 3 4 5 6 
#
# 1 0.008615 -0.003259 -0.004722 0.000000 0.000000 0.000000
# 2 -0.003259 0.008053 -0.002576 0.000000 0.000000 0.000000
# 3 -0.004722 -0.002576 0.017832 0.000000 0.000000 0.000000
# 4 0.000000 0.000000 0.000000 0.041331 0.000000 0.000000
# 5 0.000000 0.000000 0.000000 0.000000 0.015047 0.000000
# 6 0.000000 0.000000 0.000000 0.000000 0.000000 0.014879
#
#
# Mechanical properties :
#
#
# Convention : Reuss Voigt Hill
#
# Bulk Modulus (GPa) = 74.71272 96.52438 85.61855
# Shear Modulus (GPa) = 38.07130 47.31328 42.69229
#
# Velocity S-wave (km/s) = 3.89913 4.34671 4.12899
# Velocity P-wave (km/s) = 7.07859 7.98358 7.54466
#
# Compressibility (1/GPa) = 0.01338460
#
# Stress axis : x y z
#
# Youngs Moduli (GPa) = 116.07910 124.17018 56.08030
#
# Poissons Ratio (x) = 0.40466 0.26483
# Poissons Ratio (y) = 0.37830 0.14448
# Poissons Ratio (z) = 0.54816 0.31991
#
# Static dielectric constant tensor:
#      x y z
#    x 1.602190 0.000000 0.000000 
#    y 0.000000 2.085830 0.000000 
#    z 0.000000 0.000000 2.082130 
# 
# From -- ./inp_files/26576.got.cif
#   From: 2010.05.17/outbox.cif.g08.bks.cpg/sg48_14_cif.got.tgz:26576.got - 2010.06.03 20:39:00.
