data_PCOD9391386
_publ_section_title
;
Structure prediction by ZEFSAII (Michael W. Deem and Ramdas Pophale) SiO2 
 PCOD9391386
Probable space group: P N N N
;
_chemical_formula_sum "Si O2"
_cell_formula_units_Z 28
_cell_length_a 6.621866
_cell_length_b 10.326668
_cell_length_c 16.215030
_cell_angle_alpha 90.000000
_cell_angle_beta 90.000000
_cell_angle_gamma 90.000000
_cell_volume 1108.813129
_symmetry_space_group_name_H-M "P N N N"
_symmetry_group_IT_number 48
_space_group.IT_coordinate_system_code '2'
_symmetry_cell_setting 'orthorhombic'
loop_
_space_group_symop_operation_xyz
x,y,z
1/2-x,1/2-y,z
x,1/2-y,1/2-z
1/2-x,y,1/2-z
-x,-y,-z
1/2+x,1/2+y,-z
-x,1/2+y,1/2+z
1/2+x,-y,1/2+z
loop_
_atom_site_type_symbol
_atom_site_label
_atom_site_fract_x
_atom_site_fract_y
_atom_site_fract_z
Si Si1 0.750000 0.571886 0.250000
Si Si2 0.250000 0.750000 0.904497
Si Si3 0.153978 0.623203 0.439165
Si Si4 0.907026 0.893707 0.823186
Si Si5 0.250000 0.250000 0.605675
O O1 0.578446 0.485066 0.213160
O O2 0.658346 0.651415 0.326544
O O3 0.458681 0.728550 0.855268
O O4 0.250411 0.869557 0.969445
O O5 0.250000 0.750000 0.394657
O O6 0.180874 0.486293 0.395490
O O7 0.919725 0.671027 0.443550
O O8 0.750000 0.875543 0.750000
#
# Coordination Sequence:
#
# PCOD9391386 Si02
#       5
#     4   4   8   8   4
#     4   9  20  35  62  98 134 171 250 285 342 436
#     4  10  24  43  63 106 146 182 248 290 359 452
#     4   9  20  38  67 103 140 180 238 295 363 429
#     4  11  22  43  68  97 141 197 232 295 359 427
#     4   9  16  36  62  98 133 178 224 306 349 408
#
# _framework density 25.252229
#
# number of rings (size 3 to 8) (size 9 to 14) (size 15 to 20)
#    0.857    1.429    0.000    2.571    0.000    3.429 
#    5.143    4.286    0.000    0.000    0.000    2.000 
#    0.000    0.000    0.000    0.000    0.000    0.000 
#
# Total GULP energy -156117.433458 kJ/mol
# GULP energy per Si atom -5575.622623 kJ/mol
# Density = 2.519475 g / cm^3
# Si number density = 25.252229 Si / 1000 Ang^3
#
#
#
# Elastic Constant Matrix: (Units=GPa)
#
#
# Indices 1 2 3 4 5 6 
#
# 1 95.0435 51.0941 79.5825 0.0000 0.0000 0.0000
# 2 51.0941 107.7022 68.8140 0.0000 0.0000 0.0000
# 3 79.5825 68.8140 148.9131 0.0000 0.0000 0.0000
# 4 0.0000 0.0000 0.0000 24.9419 0.0000 0.0000
# 5 0.0000 0.0000 0.0000 0.0000 27.8026 0.0000
# 6 0.0000 0.0000 0.0000 0.0000 0.0000 47.4229
#
#
#
# Elastic Compliance Matrix: (Units=1/GPa)
#
#
# Indices 1 2 3 4 5 6 
#
# 1 0.020076 -0.003787 -0.008979 0.000000 0.000000 0.000000
# 2 -0.003787 0.013889 -0.004394 0.000000 0.000000 0.000000
# 3 -0.008979 -0.004394 0.013544 0.000000 0.000000 0.000000
# 4 0.000000 0.000000 0.000000 0.040093 0.000000 0.000000
# 5 0.000000 0.000000 0.000000 0.000000 0.035968 0.000000
# 6 0.000000 0.000000 0.000000 0.000000 0.000000 0.021087
#
#
# Mechanical properties :
#
#
# Convention : Reuss Voigt Hill
#
# Bulk Modulus (GPa) = 75.82263 83.40446 79.61354
# Shear Modulus (GPa) = 27.26669 30.17802 28.72235
#
# Velocity S-wave (km/s) = 3.28956 3.46072 3.37622
# Velocity P-wave (km/s) = 6.67230 7.00493 6.84063
#
# Compressibility (1/GPa) = 0.01318867
#
# Stress axis : x y z
#
# Youngs Moduli (GPa) = 49.81181 71.99856 73.83081
#
# Poissons Ratio (x) = 0.27266 0.66291
# Poissons Ratio (y) = 0.18864 0.32444
# Poissons Ratio (z) = 0.44725 0.31639
#
# Static dielectric constant tensor:
#      x y z
#    x 2.000380 0.000000 0.000000 
#    y 0.000000 2.080650 0.000000 
#    z 0.000000 0.000000 1.868820 
# 
# From -- ./inp_files/32624.got.cif
#   From: 2010.05.17/outbox.cif.g08.bks.cpg/sg48_17_cif.got.tgz:32624.got - 2010.06.03 20:39:00.
