data_PCOD9391770
_publ_section_title
;
Structure prediction by ZEFSAII (Michael W. Deem and Ramdas Pophale) SiO2 
 PCOD9391770
Probable space group: P N N N
;
_chemical_formula_sum "Si O2"
_cell_formula_units_Z 48
_cell_length_a 9.131961
_cell_length_b 12.533650
_cell_length_c 21.807359
_cell_angle_alpha 90.000000
_cell_angle_beta 90.000000
_cell_angle_gamma 90.000000
_cell_volume 2496.000593
_symmetry_space_group_name_H-M "P N N N"
_symmetry_group_IT_number 48
_space_group.IT_coordinate_system_code '2'
_symmetry_cell_setting 'orthorhombic'
loop_
_space_group_symop_operation_xyz
x,y,z
1/2-x,1/2-y,z
x,1/2-y,1/2-z
1/2-x,y,1/2-z
-x,-y,-z
1/2+x,1/2+y,-z
-x,1/2+y,1/2+z
1/2+x,-y,1/2+z
loop_
_atom_site_type_symbol
_atom_site_label
_atom_site_fract_x
_atom_site_fract_y
_atom_site_fract_z
Si Si1 0.398353 0.613034 0.897839
Si Si2 0.090401 0.529498 0.174770
Si Si3 0.930500 0.050392 0.814019
Si Si4 0.940475 0.352253 0.100730
Si Si5 0.576303 0.755083 0.143589
Si Si6 0.079632 0.730977 0.482863
O O1 0.486284 0.522740 0.863177
O O2 0.223551 0.602262 0.890584
O O3 0.440048 0.731497 0.872661
O O4 0.427133 0.630082 0.970685
O O5 0.260108 0.561110 0.169091
O O6 0.061343 0.501994 0.245905
O O7 0.053886 0.430172 0.131643
O O8 0.988681 0.628869 0.157132
O O9 0.003798 0.166340 0.813137
O O10 0.962506 0.329012 0.028321
O O11 0.750000 0.750000 0.148758
O O12 0.522474 0.724427 0.075245
O O13 0.250000 0.750000 0.465515
#
# Coordination Sequence:
#
# PCOD9391770 Si02
#       6
#     8   8   8   8   8   8
#     4   8  18  38  62  89 117 149 190 234 285 339
#     4  11  24  40  59  84 117 156 194 236 287 342
#     4  11  24  40  59  84 117 156 194 236 287 342
#     4   8  18  38  62  89 117 149 190 234 285 339
#     4  12  25  39  60  86 113 152 197 241 289 340
#     4   8  18  39  62  87 118 150 187 234 287 342
#
# _framework density 19.230764000000001
#
# number of rings (size 3 to 8) (size 9 to 14) (size 15 to 20)
#    1.000    1.333    0.000    3.000    0.000    8.667 
#    0.000    3.333    0.000    0.000    0.000    0.000 
#    0.000    0.000    0.000    0.000    0.000    0.000 
#
# Total GULP energy -267627.868156 kJ/mol
# GULP energy per Si atom -5575.580587 kJ/mol
# Density = 1.918699 g / cm^3
# Si number density = 19.230764 Si / 1000 Ang^3
#
#
#
# Elastic Constant Matrix: (Units=GPa)
#
#
# Indices 1 2 3 4 5 6 
#
# 1 75.7288 18.5471 19.3274 0.0000 0.0000 0.0000
# 2 18.5471 35.2303 6.9417 0.0000 0.0000 0.0000
# 3 19.3274 6.9417 42.8127 0.0000 0.0000 0.0000
# 4 0.0000 0.0000 0.0000 27.3385 0.0000 0.0000
# 5 0.0000 0.0000 0.0000 0.0000 20.9922 0.0000
# 6 0.0000 0.0000 0.0000 0.0000 0.0000 31.5239
#
#
#
# Elastic Compliance Matrix: (Units=1/GPa)
#
#
# Indices 1 2 3 4 5 6 
#
# 1 0.016656 -0.007528 -0.006299 0.000000 0.000000 0.000000
# 2 -0.007528 0.032723 -0.001908 0.000000 0.000000 0.000000
# 3 -0.006299 -0.001908 0.026510 0.000000 0.000000 0.000000
# 4 0.000000 0.000000 0.000000 0.036579 0.000000 0.000000
# 5 0.000000 0.000000 0.000000 0.000000 0.047637 0.000000
# 6 0.000000 0.000000 0.000000 0.000000 0.000000 0.031722
#
#
# Mechanical properties :
#
#
# Convention : Reuss Voigt Hill
#
# Bulk Modulus (GPa) = 22.51127 27.04491 24.77809
# Shear Modulus (GPa) = 20.99937 23.23462 22.11700
#
# Velocity S-wave (km/s) = 3.30808 3.47969 3.39497
# Velocity P-wave (km/s) = 5.13054 5.49893 5.31792
#
# Compressibility (1/GPa) = 0.04442219
#
# Stress axis : x y z
#
# Youngs Moduli (GPa) = 60.03767 30.55914 37.72112
#
# Poissons Ratio (x) = 0.23004 0.23760
# Poissons Ratio (y) = 0.45194 0.07195
# Poissons Ratio (z) = 0.37816 0.05829
#
# Static dielectric constant tensor:
#      x y z
#    x 1.637060 0.000000 0.000000 
#    y 0.000000 1.656450 0.000000 
#    z 0.000000 0.000000 1.680300 
# 
# From -- ./inp_files/35849.got.cif
#   From: 2010.05.17/outbox.cif.g08.bks.cpg/sg48_18_cif.got.tgz:35849.got - 2010.06.03 20:39:00.
