data_PCOD9391548
_publ_section_title
;
Structure prediction by ZEFSAII (Michael W. Deem and Ramdas Pophale) SiO2 
 PCOD9391548
Probable space group: P N N N
;
_chemical_formula_sum "Si O2"
_cell_formula_units_Z 64
_cell_length_a 16.209056
_cell_length_b 21.452093
_cell_length_c 9.289344
_cell_angle_alpha 90.000000
_cell_angle_beta 90.000000
_cell_angle_gamma 90.000000
_cell_volume 3230.073759
_symmetry_space_group_name_H-M "P N N N"
_symmetry_group_IT_number 48
_space_group.IT_coordinate_system_code '2'
_symmetry_cell_setting 'orthorhombic'
loop_
_space_group_symop_operation_xyz
x,y,z
1/2-x,1/2-y,z
x,1/2-y,1/2-z
1/2-x,y,1/2-z
-x,-y,-z
1/2+x,1/2+y,-z
-x,1/2+y,1/2+z
1/2+x,-y,1/2+z
loop_
_atom_site_type_symbol
_atom_site_label
_atom_site_fract_x
_atom_site_fract_y
_atom_site_fract_z
Si Si1 0.407828 0.534128 0.701868
Si Si2 0.015221 0.184511 0.689725
Si Si3 0.944975 0.053763 0.748517
Si Si4 0.328290 0.141857 0.643624
Si Si5 0.178915 0.013532 0.446518
Si Si6 0.169759 0.182018 0.177287
Si Si7 0.136446 0.490063 0.507334
Si Si8 0.049880 0.124715 0.387942
O O1 0.473194 0.477272 0.683424
O O2 0.331589 0.514140 0.605489
O O3 0.463556 0.590726 0.645500
O O4 0.375308 0.538789 0.863315
O O5 0.982127 0.250000 0.750000
O O6 0.104112 0.176523 0.763033
O O7 0.031775 0.172906 0.518599
O O8 0.960153 0.127024 0.748466
O O9 0.866838 0.036326 0.652598
O O10 0.929476 0.013478 0.891843
O O11 0.250000 0.131778 0.750000
O O12 0.315257 0.179203 0.493551
O O13 0.367485 0.076768 0.586771
O O14 0.276214 0.017171 0.425574
O O15 0.122931 0.076022 0.434484
O O16 0.166145 0.250000 0.250000
O O17 0.250000 0.150664 0.250000
O O18 0.087033 0.150331 0.237687
#
# Coordination Sequence:
#
# PCOD9391548 Si02
#       8
#     8   8   8   8   8   8   8   8
#     4  11  20  36  61  86 126 156 195 262 331 382
#     4  12  24  40  62  87 125 177 223 258 307 379
#     4  11  22  39  58  91 129 162 210 263 320 384
#     4  12  24  40  64  95 134 164 207 263 320 391
#     4  11  20  38  61  88 121 164 195 256 330 396
#     4  11  24  40  57  85 127 173 216 249 293 369
#     4  12  23  35  62  96 127 155 205 268 339 386
#     4  11  21  40  61  88 125 167 207 257 322 381
#
# _framework density 19.813789
#
# number of rings (size 3 to 8) (size 9 to 14) (size 15 to 20)
#    0.000    0.625    3.750    7.125    1.750    1.250 
#    0.000    0.000    0.000    1.500    0.000    0.000 
#    0.000    0.000    0.000    0.000    0.000    0.000 
#
# Total GULP energy -357006.824553 kJ/mol
# GULP energy per Si atom -5578.231634 kJ/mol
# Density = 1.976869 g / cm^3
# Si number density = 19.813789 Si / 1000 Ang^3
#
#
#
# Elastic Constant Matrix: (Units=GPa)
#
#
# Indices 1 2 3 4 5 6 
#
# 1 35.6179 16.1512 11.0052 0.0000 0.0000 0.0000
# 2 16.1512 92.1099 32.4434 0.0000 0.0000 0.0000
# 3 11.0052 32.4434 109.3255 0.0000 0.0000 0.0000
# 4 0.0000 0.0000 0.0000 21.7633 0.0000 0.0000
# 5 0.0000 0.0000 0.0000 0.0000 40.8883 0.0000
# 6 0.0000 0.0000 0.0000 0.0000 0.0000 18.3643
#
#
#
# Elastic Compliance Matrix: (Units=1/GPa)
#
#
# Indices 1 2 3 4 5 6 
#
# 1 0.030772 -0.004807 -0.001671 0.000000 0.000000 0.000000
# 2 -0.004807 0.012875 -0.003337 0.000000 0.000000 0.000000
# 3 -0.001671 -0.003337 0.010305 0.000000 0.000000 0.000000
# 4 0.000000 0.000000 0.000000 0.045949 0.000000 0.000000
# 5 0.000000 0.000000 0.000000 0.000000 0.024457 0.000000
# 6 0.000000 0.000000 0.000000 0.000000 0.000000 0.054454
#
#
# Mechanical properties :
#
#
# Convention : Reuss Voigt Hill
#
# Bulk Modulus (GPa) = 29.13577 39.58367 34.35972
# Shear Modulus (GPa) = 23.82286 28.03340 25.92813
#
# Velocity S-wave (km/s) = 3.47124 3.76552 3.62137
# Velocity P-wave (km/s) = 5.55002 6.23913 5.90463
#
# Compressibility (1/GPa) = 0.03432207
#
# Stress axis : x y z
#
# Youngs Moduli (GPa) = 32.49717 77.67092 97.03606
#
# Poissons Ratio (x) = 0.37338 0.16215
# Poissons Ratio (y) = 0.15622 0.32379
# Poissons Ratio (z) = 0.05430 0.25917
#
# Static dielectric constant tensor:
#      x y z
#    x 1.689850 0.000000 0.000000 
#    y 0.000000 1.767940 0.000000 
#    z 0.000000 0.000000 1.779060 
# 
# From -- ./inp_files/14589.got.cif
#   From: 2010.05.17/outbox.cif.g08.bks.cpg/sg48_8_cif.got.tgz:14589.got - 2010.06.03 20:39:00.
