data_PCOD9391960
_publ_section_title
;
Structure prediction by ZEFSAII (Michael W. Deem and Ramdas Pophale) SiO2 
 PCOD9391960
Probable space group: P N N N
;
_chemical_formula_sum "Si O2"
_cell_formula_units_Z 58
_cell_length_a 18.000000
_cell_length_b 9.000000
_cell_length_c 18.000000
_cell_angle_alpha 90.000000
_cell_angle_beta 90.000000
_cell_angle_gamma 90.000000
_cell_volume 2916.000000
_symmetry_space_group_name_H-M "P N N N"
_symmetry_group_IT_number 48
_space_group.IT_coordinate_system_code '2'
_symmetry_cell_setting 'orthorhombic'
loop_
_space_group_symop_operation_xyz
x,y,z
1/2-x,1/2-y,z
x,1/2-y,1/2-z
1/2-x,y,1/2-z
-x,-y,-z
1/2+x,1/2+y,-z
-x,1/2+y,1/2+z
1/2+x,-y,1/2+z
loop_
_atom_site_type_symbol
_atom_site_label
_atom_site_fract_x
_atom_site_fract_y
_atom_site_fract_z
Si Si1 0.206034 0.093082 0.987198
Si Si2 0.002208 0.500658 0.306398
Si Si3 0.750000 0.250000 0.250000
Si Si4 0.398389 0.262355 0.864591
Si Si5 0.822165 0.468533 0.131618
Si Si6 0.033456 0.724251 0.910321
Si Si7 0.901045 0.347109 0.563143
Si Si8 0.956950 0.061377 0.632220
O O1 0.250000 0.250000 0.013740
O O2 0.166099 0.963610 0.038969
O O3 0.140273 0.157799 0.934637
O O4 0.263573 0.003151 0.934239
O O5 0.057119 0.565606 0.370085
O O6 0.036392 0.521219 0.222219
O O7 0.929957 0.608654 0.311164
O O8 0.980053 0.338792 0.340901
O O9 0.793290 0.361346 0.195809
O O10 0.470619 0.163045 0.883944
O O11 0.342262 0.133547 0.838523
O O12 0.893564 0.377771 0.101730
O O13 0.967560 0.598445 0.909040
O O14 0.051158 0.815138 0.986749
O O15 0.893554 0.176917 0.600102
#
# Coordination Sequence:
#
# PCOD9391960 Si02
#       8
#     8   8   2   8   8   8   8   8
#     4  10  21  40  59  84 120 168 223 269 304 375
#     4  11  22  38  63  92 128 162 203 262 335 393
#     4  12  24  32  50  80 116 172 224 244 314 380
#     4   9  19  36  57  78 116 164 203 249 306 378
#     4  10  24  37  54  82 123 165 215 253 304 375
#     4  11  22  38  62  87 132 164 205 258 329 390
#     4  11  21  39  62  89 125 165 212 267 316 385
#     4  10  23  36  58  98 131 159 204 263 341 390
#
# _framework density 19.890260999999999
#
# number of rings (size 3 to 8) (size 9 to 14) (size 15 to 20)
#    0.000    1.655    1.379    3.724    5.793    1.103 
#    2.483    2.414    0.000    0.000    0.000    7.724 
#    8.276    0.000    0.000    0.000    0.000    0.000 
#
# Total GULP energy -323011.679369 kJ/mol
# GULP energy per Si atom -5569.166886 kJ/mol
# Density = 1.984499 g / cm^3
# Si number density = 19.890261 Si / 1000 Ang^3
#
#
#
# Elastic Constant Matrix: (Units=GPa)
#
#
# Indices 1 2 3 4 5 6 
#
# 1 57.4067 34.7739 29.7830 0.0000 0.0000 0.0000
# 2 34.7739 159.4503 40.2956 0.0000 0.0000 0.0000
# 3 29.7830 40.2956 110.0972 0.0000 0.0000 0.0000
# 4 0.0000 0.0000 0.0000 40.8544 0.0000 0.0000
# 5 0.0000 0.0000 0.0000 0.0000 21.6531 0.0000
# 6 0.0000 0.0000 0.0000 0.0000 0.0000 39.6738
#
#
#
# Elastic Compliance Matrix: (Units=1/GPa)
#
#
# Indices 1 2 3 4 5 6 
#
# 1 0.022021 -0.003633 -0.004627 0.000000 0.000000 0.000000
# 2 -0.003633 0.007510 -0.001766 0.000000 0.000000 0.000000
# 3 -0.004627 -0.001766 0.010981 0.000000 0.000000 0.000000
# 4 0.000000 0.000000 0.000000 0.024477 0.000000 0.000000
# 5 0.000000 0.000000 0.000000 0.000000 0.046183 0.000000
# 6 0.000000 0.000000 0.000000 0.000000 0.000000 0.025206
#
#
# Mechanical properties :
#
#
# Convention : Reuss Voigt Hill
#
# Bulk Modulus (GPa) = 48.87708 59.62881 54.25294
# Shear Modulus (GPa) = 30.62787 35.24304 32.93545
#
# Velocity S-wave (km/s) = 3.92834 4.21393 4.07364
# Velocity P-wave (km/s) = 6.72328 7.32941 7.03288
#
# Compressibility (1/GPa) = 0.02045949
#
# Stress axis : x y z
#
# Youngs Moduli (GPa) = 45.41122 133.15325 91.06663
#
# Poissons Ratio (x) = 0.48376 0.42139
# Poissons Ratio (y) = 0.16498 0.16082
# Poissons Ratio (z) = 0.21013 0.23514
#
# Static dielectric constant tensor:
#      x y z
#    x 1.773020 0.000000 0.000000 
#    y 0.000000 1.769720 0.000000 
#    z 0.000000 0.000000 1.734120 
# 
# From -- ./inp_files/32009.got.cif
#   From: 2010.05.17/outbox.ucp.g08.bks.cvg/sg48_17_cif.got.tgz:32009.got - 2010.06.11 16:38:40.
