data_PCOD9392356
_publ_section_title
;
Structure prediction by ZEFSAII (Michael W. Deem and Ramdas Pophale) SiO2 
 PCOD9392356
Probable space group: P C C M
;
_chemical_formula_sum "Si O2"
_cell_formula_units_Z 48
_cell_length_a 8.979803
_cell_length_b 17.956517
_cell_length_c 15.882695
_cell_angle_alpha 90.000000
_cell_angle_beta 90.000000
_cell_angle_gamma 90.000000
_cell_volume 2561.020803
_symmetry_space_group_name_H-M "P C C M"
_symmetry_group_IT_number 49
_symmetry_cell_setting 'orthorhombic'
loop_
_space_group_symop_operation_xyz
x,y,z
-x,-y,z
x,-y,1/2-z
-x,y,1/2-z
-x,-y,-z
x,y,-z
-x,y,1/2+z
x,-y,1/2+z
loop_
_atom_site_type_symbol
_atom_site_label
_atom_site_fract_x
_atom_site_fract_y
_atom_site_fract_z
Si Si1 0.189288 0.688948 0.594874
Si Si2 0.169090 0.011867 0.897330
Si Si3 0.109832 0.724597 0.830522
Si Si4 0.180309 0.416632 0.756405
Si Si5 0.341142 0.158742 0.897311
Si Si6 0.685100 0.144534 0.897797
O O1 0.237553 0.675702 0.500000
O O2 0.219370 0.619318 0.654301
O O3 0.269965 0.763088 0.628583
O O4 0.012514 0.705498 0.598826
O O5 0.245660 0.087953 0.867212
O O6 0.262213 0.938562 0.875793
O O7 0.165580 0.016057 0.000000
O O8 0.000000 0.000000 0.868490
O O9 0.209839 0.794107 0.855299
O O10 0.000000 0.738605 0.750000
O O11 0.207596 0.650724 0.809682
O O12 0.241819 0.500000 0.750000
O O13 0.000000 0.422976 0.750000
O O14 0.513210 0.153860 0.873206
O O15 0.335492 0.157070 0.000000
O O16 0.696618 0.152289 0.000000
#
# Coordination Sequence:
#
# PCOD9392356 Si02
#       6
#     8   8   8   8   8   8
#     4   9  16  29  51  74  95 124 165 205 243 289
#     4   9  16  26  44  71 101 130 163 204 245 284
#     4   9  18  31  48  70  97 129 162 204 250 296
#     4   8  16  32  50  71 100 126 153 198 251 297
#     4   9  17  28  45  73 103 128 162 210 251 285
#     4  10  18  29  47  71 101 134 168 204 246 295
#
# _framework density 18.742528
#
# number of rings (size 3 to 8) (size 9 to 14) (size 15 to 20)
#    0.000    3.333    0.000    2.000    0.000    4.667 
#    0.000   10.833    0.000   14.500    0.000   17.500 
#    0.000    0.000    0.000    0.000    0.000    0.000 
#
# Total GULP energy -267415.875397 kJ/mol
# GULP energy per Si atom -5571.164071 kJ/mol
# Density = 1.869987 g / cm^3
# Si number density = 18.742528 Si / 1000 Ang^3
#
#
#
# Elastic Constant Matrix: (Units=GPa)
#
#
# Indices 1 2 3 4 5 6 
#
# 1 81.1368 67.6653 22.7074 0.0000 0.0000 0.0000
# 2 67.6653 196.6662 50.7769 0.0000 0.0000 0.0000
# 3 22.7074 50.7769 38.0527 0.0000 0.0000 0.0000
# 4 0.0000 0.0000 0.0000 16.4305 0.0000 0.0000
# 5 0.0000 0.0000 0.0000 0.0000 11.2552 0.0000
# 6 0.0000 0.0000 0.0000 0.0000 0.0000 1.6402
#
#
#
# Elastic Compliance Matrix: (Units=1/GPa)
#
#
# Indices 1 2 3 4 5 6 
#
# 1 0.017619 -0.005107 -0.003699 0.000000 0.000000 0.000000
# 2 -0.005107 0.009238 -0.009279 0.000000 0.000000 0.000000
# 3 -0.003699 -0.009279 0.040869 0.000000 0.000000 0.000000
# 4 0.000000 0.000000 0.000000 0.060863 0.000000 0.000000
# 5 0.000000 0.000000 0.000000 0.000000 0.088848 0.000000
# 6 0.000000 0.000000 0.000000 0.000000 0.000000 0.609685
#
#
# Mechanical properties :
#
#
# Convention : Reuss Voigt Hill
#
# Bulk Modulus (GPa) = 31.69093 66.46166 49.07630
# Shear Modulus (GPa) = 5.72207 17.51224 11.61715
#
# Velocity S-wave (km/s) = 1.74918 3.06004 2.49234
# Velocity P-wave (km/s) = 4.58528 6.92983 5.87568
#
# Compressibility (1/GPa) = 0.03155477
#
# Stress axis : x y z
#
# Youngs Moduli (GPa) = 56.75623 108.25343 24.46864
#
# Poissons Ratio (x) = 0.55284 0.09052
# Poissons Ratio (y) = 0.28985 0.22704
# Poissons Ratio (z) = 0.20996 1.00448
#
# Static dielectric constant tensor:
#      x y z
#    x 1.636600 0.000000 0.000000 
#    y 0.000000 1.648490 0.000000 
#    z 0.000000 0.000000 1.700860 
# 
# From -- ./inp_files/19947.got.cif
#   From: 2010.05.17/outbox.cif.g08.bks.cpg/sg49_10_cif.got.tgz:19947.got - 2010.06.03 21:02:19.
