data_PCOD9392192
_publ_section_title
;
Structure prediction by ZEFSAII (Michael W. Deem and Ramdas Pophale) SiO2 
 PCOD9392192
Probable space group: P C C M
;
_chemical_formula_sum "Si O2"
_cell_formula_units_Z 64
_cell_length_a 31.825641
_cell_length_b 14.565259
_cell_length_c 8.612400
_cell_angle_alpha 90.000000
_cell_angle_beta 90.000000
_cell_angle_gamma 90.000000
_cell_volume 3992.266858
_symmetry_space_group_name_H-M "P C C M"
_symmetry_group_IT_number 49
_symmetry_cell_setting 'orthorhombic'
loop_
_space_group_symop_operation_xyz
x,y,z
-x,-y,z
x,-y,1/2-z
-x,y,1/2-z
-x,-y,-z
x,y,-z
-x,y,1/2+z
x,-y,1/2+z
loop_
_atom_site_type_symbol
_atom_site_label
_atom_site_fract_x
_atom_site_fract_y
_atom_site_fract_z
Si Si1 0.708878 0.103138 0.813571
Si Si2 0.243189 0.400173 0.685678
Si Si3 0.662616 0.402304 0.315396
Si Si4 0.868564 0.896078 0.685668
Si Si5 0.043305 0.895447 0.314313
Si Si6 0.210895 0.786888 0.685482
Si Si7 0.454429 0.102156 0.313663
Si Si8 0.374079 0.221022 0.313228
O O1 0.747945 0.157402 0.740741
O O2 0.665673 0.155980 0.775559
O O3 0.707717 0.000000 0.750000
O O4 0.713587 0.102019 0.000000
O O5 0.230563 0.500000 0.750000
O O6 0.241615 0.399268 0.500000
O O7 0.291522 0.385669 0.739450
O O8 0.216505 0.316875 0.754814
O O9 0.647460 0.500000 0.250000
O O10 0.667785 0.407798 0.500000
O O11 0.633289 0.318124 0.267898
O O12 0.870575 0.900359 0.500000
O O13 0.912633 0.857255 0.751939
O O14 0.829645 0.835642 0.741762
O O15 0.863189 0.000000 0.750000
O O16 0.042690 0.897004 0.500000
O O17 0.000000 0.852989 0.250000
O O18 0.043609 0.000000 0.250000
O O19 0.208365 0.788960 0.500000
O O20 0.500000 0.130373 0.250000
O O21 0.456082 0.097584 0.500000
O O22 0.416986 0.170260 0.268141
O O23 0.445764 0.000000 0.250000
O O24 0.374126 0.234056 0.500000
#
# Coordination Sequence:
#
# PCOD9392192 Si02
#       8
#     8   8   8   8   8   8   8   8
#     4  11  22  35  50  70 100 136 171 210 248 295
#     4  11  21  36  55  76 101 131 168 211 256 301
#     4  11  21  34  55  79 104 133 166 207 253 300
#     4  11  21  34  49  69  98 137 177 216 259 308
#     4  10  17  28  45  67  93 126 168 216 261 306
#     4  12  23  36  51  72 100 135 174 211 254 304
#     4  10  20  35  55  79 106 138 170 209 251 298
#     4  10  21  36  54  76 104 134 170 210 253 299
#
# _framework density 16.030992999999999
#
# number of rings (size 3 to 8) (size 9 to 14) (size 15 to 20)
#    0.000    1.250    1.250    9.375    0.000    1.500 
#    0.000    0.000    0.000    0.375    0.000    2.625 
#    0.000    0.500    0.000    5.000    0.000    3.000 
#
# Total GULP energy -357567.629875 kJ/mol
# GULP energy per Si atom -5586.994217 kJ/mol
# Density = 1.599451 g / cm^3
# Si number density = 16.030993 Si / 1000 Ang^3
#
#
#
# Elastic Constant Matrix: (Units=GPa)
#
#
# Indices 1 2 3 4 5 6 
#
# 1 130.4865 69.7922 61.4821 0.0000 0.0000 0.0000
# 2 69.7922 107.7667 50.0721 0.0000 0.0000 0.0000
# 3 61.4821 50.0721 137.8250 0.0000 0.0000 0.0000
# 4 0.0000 0.0000 0.0000 27.0811 0.0000 0.0000
# 5 0.0000 0.0000 0.0000 0.0000 25.6584 0.0000
# 6 0.0000 0.0000 0.0000 0.0000 0.0000 4.2654
#
#
#
# Elastic Compliance Matrix: (Units=1/GPa)
#
#
# Indices 1 2 3 4 5 6 
#
# 1 0.012834 -0.006799 -0.003255 0.000000 0.000000 0.000000
# 2 -0.006799 0.014766 -0.002331 0.000000 0.000000 0.000000
# 3 -0.003255 -0.002331 0.009555 0.000000 0.000000 0.000000
# 4 0.000000 0.000000 0.000000 0.036926 0.000000 0.000000
# 5 0.000000 0.000000 0.000000 0.000000 0.038974 0.000000
# 6 0.000000 0.000000 0.000000 0.000000 0.000000 0.234447
#
#
# Mechanical properties :
#
#
# Convention : Reuss Voigt Hill
#
# Bulk Modulus (GPa) = 80.75389 82.08566 81.41978
# Shear Modulus (GPa) = 13.28375 24.38307 18.83341
#
# Velocity S-wave (km/s) = 2.88171 3.90423 3.43127
# Velocity P-wave (km/s) = 7.84572 8.46401 8.16072
#
# Compressibility (1/GPa) = 0.01238330
#
# Stress axis : x y z
#
# Youngs Moduli (GPa) = 77.91873 67.72364 104.66205
#
# Poissons Ratio (x) = 0.46047 0.34066
# Poissons Ratio (y) = 0.52978 0.24401
# Poissons Ratio (z) = 0.25362 0.15789
#
# Static dielectric constant tensor:
#      x y z
#    x 1.544790 0.000000 0.000000 
#    y 0.000000 1.520600 0.000000 
#    z 0.000000 0.000000 1.536190 
# 
# From -- ./inp_files/7037.got.cif
#   From: 2010.05.17/outbox.cif.g08.bks.cpg/sg49_4_cif.got.tgz:7037.got - 2010.06.03 21:02:19.
