data_PCOD9392484
_publ_section_title
;
Structure prediction by ZEFSAII (Michael W. Deem and Ramdas Pophale) SiO2 
 PCOD9392484
Probable space group: P C C M
;
_chemical_formula_sum "Si O2"
_cell_formula_units_Z 40
_cell_length_a 12.909547
_cell_length_b 15.440953
_cell_length_c 10.203793
_cell_angle_alpha 90.000000
_cell_angle_beta 90.000000
_cell_angle_gamma 90.000000
_cell_volume 2033.980307
_symmetry_space_group_name_H-M "P C C M"
_symmetry_group_IT_number 49
_symmetry_cell_setting 'orthorhombic'
loop_
_space_group_symop_operation_xyz
x,y,z
-x,-y,z
x,-y,1/2-z
-x,y,1/2-z
-x,-y,-z
x,y,-z
-x,y,1/2+z
x,-y,1/2+z
loop_
_atom_site_type_symbol
_atom_site_label
_atom_site_fract_x
_atom_site_fract_y
_atom_site_fract_z
Si Si1 0.136478 0.744575 0.500000
Si Si2 0.109237 0.949173 0.500000
Si Si3 0.245569 0.000000 0.250000
Si Si4 0.252455 0.698456 0.230360
Si Si5 0.599036 0.150198 0.156824
Si Si6 0.896724 0.298229 0.000000
Si Si7 0.240755 0.500000 0.750000
Si Si8 0.120287 0.496381 0.500000
O O1 0.104149 0.845275 0.500000
O O2 0.205621 0.720083 0.373532
O O3 0.021210 0.701623 0.500000
O O4 0.173558 0.973643 0.371030
O O5 0.000000 0.000000 0.500000
O O6 0.318094 0.077583 0.300878
O O7 0.349476 0.757614 0.192107
O O8 0.159861 0.732086 0.132275
O O9 0.286794 0.595773 0.216425
O O10 0.500000 0.137635 0.250000
O O11 0.577413 0.144710 0.000000
O O12 0.857637 0.395896 0.000000
O O13 0.169142 0.530586 0.630781
O O14 0.000000 0.500000 0.500000
#
# Coordination Sequence:
#
# PCOD9392484 Si02
#       8
#     4   4   4   8   8   4   4   4
#     4  12  24  38  66 101 134 183 229 270 321 404
#     4  12  28  42  69 105 148 187 219 259 333 406
#     4  12  26  50  72 102 138 178 224 276 326 400
#     4  11  23  42  64  98 137 177 224 280 332 397
#     4  12  28  48  76 100 130 170 225 288 349 401
#     4  10  22  36  58  91 133 182 217 258 325 383
#     4  10  21  36  61  88 132 178 216 270 336 390
#     4  10  18  32  52  84 124 172 224 267 302 369
#
# _framework density 19.665875
#
# number of rings (size 3 to 8) (size 9 to 14) (size 15 to 20)
#    0.000    0.800    4.000    3.300    5.600    5.600 
#    0.000    0.500    0.000    1.200    0.000    0.000 
#    0.000    0.000    0.000    0.000    0.000    0.000 
#
# Total GULP energy -222842.506088 kJ/mol
# GULP energy per Si atom -5571.062652 kJ/mol
# Density = 1.962111 g / cm^3
# Si number density = 19.665875 Si / 1000 Ang^3
#
#
#
# Elastic Constant Matrix: (Units=GPa)
#
#
# Indices 1 2 3 4 5 6 
#
# 1 75.6131 31.6437 48.3884 0.0000 0.0000 0.0000
# 2 31.6437 140.8927 24.2266 0.0000 0.0000 0.0000
# 3 48.3884 24.2266 178.7174 0.0000 0.0000 0.0000
# 4 0.0000 0.0000 0.0000 19.3510 0.0000 0.0000
# 5 0.0000 0.0000 0.0000 0.0000 32.2052 0.0000
# 6 0.0000 0.0000 0.0000 0.0000 0.0000 15.6109
#
#
#
# Elastic Compliance Matrix: (Units=1/GPa)
#
#
# Indices 1 2 3 4 5 6 
#
# 1 0.017259 -0.003146 -0.004247 0.000000 0.000000 0.000000
# 2 -0.003146 0.007840 -0.000211 0.000000 0.000000 0.000000
# 3 -0.004247 -0.000211 0.006774 0.000000 0.000000 0.000000
# 4 0.000000 0.000000 0.000000 0.051677 0.000000 0.000000
# 5 0.000000 0.000000 0.000000 0.000000 0.031051 0.000000
# 6 0.000000 0.000000 0.000000 0.000000 0.000000 0.064058
#
#
# Mechanical properties :
#
#
# Convention : Reuss Voigt Hill
#
# Bulk Modulus (GPa) = 60.00148 67.08229 63.54188
# Shear Modulus (GPa) = 25.07244 32.83106 28.95175
#
# Velocity S-wave (km/s) = 3.57448 4.09031 3.84107
# Velocity P-wave (km/s) = 6.90018 7.51616 7.21475
#
# Compressibility (1/GPa) = 0.01666626
#
# Stress axis : x y z
#
# Youngs Moduli (GPa) = 57.93921 127.54299 147.62748
#
# Poissons Ratio (x) = 0.40127 0.62691
# Poissons Ratio (y) = 0.18229 0.03115
# Poissons Ratio (z) = 0.24604 0.02691
#
# Static dielectric constant tensor:
#      x y z
#    x 1.676020 0.000000 0.000000 
#    y 0.000000 1.801020 0.000000 
#    z 0.000000 0.000000 1.840730 
# 
# From -- ./inp_files/3492.got.cif
#   From: 2010.05.17/outbox.cif.g08.bks.cpg/sg49_2_cif.got.tgz:3492.got - 2010.06.03 21:02:19.
