data_PCOD9392204
_publ_section_title
;
Structure prediction by ZEFSAII (Michael W. Deem and Ramdas Pophale) SiO2 
 PCOD9392204
Probable space group: P C C M
;
_chemical_formula_sum "Si O2"
_cell_formula_units_Z 48
_cell_length_a 31.635772
_cell_length_b 9.773332
_cell_length_c 8.602285
_cell_angle_alpha 90.000000
_cell_angle_beta 90.000000
_cell_angle_gamma 90.000000
_cell_volume 2659.713856
_symmetry_space_group_name_H-M "P C C M"
_symmetry_group_IT_number 49
_symmetry_cell_setting 'orthorhombic'
loop_
_space_group_symop_operation_xyz
x,y,z
-x,-y,z
x,-y,1/2-z
-x,y,1/2-z
-x,-y,-z
x,y,-z
-x,y,1/2+z
x,-y,1/2+z
loop_
_atom_site_type_symbol
_atom_site_label
_atom_site_fract_x
_atom_site_fract_y
_atom_site_fract_z
Si Si1 0.295491 0.152298 0.312968
Si Si2 0.456446 0.343950 0.685705
Si Si3 0.123082 0.346865 0.687758
Si Si4 0.801485 0.151217 0.187244
Si Si5 0.953439 0.150801 0.813236
Si Si6 0.631830 0.345697 0.685490
O O1 0.298720 0.154099 0.500000
O O2 0.246846 0.185745 0.268906
O O3 0.328763 0.256435 0.240703
O O4 0.303908 0.000000 0.250000
O O5 0.456038 0.500000 0.750000
O O6 0.500000 0.280713 0.750000
O O7 0.457207 0.346583 0.500000
O O8 0.412179 0.285468 0.746922
O O9 0.122596 0.500000 0.750000
O O10 0.123693 0.351186 0.500000
O O11 0.164378 0.262160 0.740342
O O12 0.081634 0.260822 0.734682
O O13 0.811449 0.000000 0.250000
O O14 0.803120 0.145025 0.000000
O O15 0.000000 0.184921 0.750000
O O16 0.942318 0.000000 0.750000
O O17 0.954908 0.144516 0.000000
O O18 0.636415 0.500000 0.750000
O O19 0.629032 0.350846 0.500000
#
# Coordination Sequence:
#
# PCOD9392204 Si02
#       6
#     8   8   8   8   8   8
#     4  10  20  36  56  79 106 138 175 217 263 317
#     4  10  17  28  46  71 102 136 174 217 263 313
#     4  10  22  37  53  78 109 141 174 214 262 314
#     4   9  19  36  57  79 103 133 174 216 258 309
#     4  10  20  35  56  80 106 137 178 219 260 308
#     4  11  21  34  52  77 107 140 177 220 267 315
#
# _framework density 18.047052999999998
#
# number of rings (size 3 to 8) (size 9 to 14) (size 15 to 20)
#    0.000    2.000    0.000    6.500    0.000    3.667 
#    0.000    3.333    0.000    0.500    0.000    3.500 
#    0.000    0.000    0.000    0.000    0.000    0.000 
#
# Total GULP energy -267941.082393 kJ/mol
# GULP energy per Si atom -5582.105883 kJ/mol
# Density = 1.800598 g / cm^3
# Si number density = 18.047053 Si / 1000 Ang^3
#
#
#
# Elastic Constant Matrix: (Units=GPa)
#
#
# Indices 1 2 3 4 5 6 
#
# 1 169.6868 116.8562 56.9765 0.0000 0.0000 0.0000
# 2 116.8562 109.6275 41.0005 0.0000 0.0000 0.0000
# 3 56.9765 41.0005 98.0808 0.0000 0.0000 0.0000
# 4 0.0000 0.0000 0.0000 30.8202 0.0000 0.0000
# 5 0.0000 0.0000 0.0000 0.0000 26.4218 0.0000
# 6 0.0000 0.0000 0.0000 0.0000 0.0000 31.5133
#
#
#
# Elastic Compliance Matrix: (Units=1/GPa)
#
#
# Indices 1 2 3 4 5 6 
#
# 1 0.023258 -0.023396 -0.003731 0.000000 0.000000 0.000000
# 2 -0.023396 0.034348 -0.000767 0.000000 0.000000 0.000000
# 3 -0.003731 -0.000767 0.012683 0.000000 0.000000 0.000000
# 4 0.000000 0.000000 0.000000 0.032446 0.000000 0.000000
# 5 0.000000 0.000000 0.000000 0.000000 0.037848 0.000000
# 6 0.000000 0.000000 0.000000 0.000000 0.000000 0.031733
#
#
# Mechanical properties :
#
#
# Convention : Reuss Voigt Hill
#
# Bulk Modulus (GPa) = 68.95955 89.67349 79.31652
# Shear Modulus (GPa) = 21.46509 28.58852 25.02680
#
# Velocity S-wave (km/s) = 3.45250 3.98441 3.72795
# Velocity P-wave (km/s) = 7.36118 8.42401 7.91046
#
# Compressibility (1/GPa) = 0.01450125
#
# Stress axis : x y z
#
# Youngs Moduli (GPa) = 42.99641 29.11417 78.84297
#
# Poissons Ratio (x) = 0.68116 0.29412
# Poissons Ratio (y) = 1.00595 0.06048
# Poissons Ratio (z) = 0.16040 0.02233
#
# Static dielectric constant tensor:
#      x y z
#    x 1.649930 0.000000 0.000000 
#    y 0.000000 1.586060 0.000000 
#    z 0.000000 0.000000 1.608650 
# 
# From -- ./inp_files/6881.got.cif
#   From: 2010.05.17/outbox.cif.g08.bks.cpg/sg49_4_cif.got.tgz:6881.got - 2010.06.03 21:02:19.
