data_PCOD9392796
_publ_section_title
;
Structure prediction by ZEFSAII (Michael W. Deem and Ramdas Pophale) SiO2 
 PCOD9392796
Probable space group: P C C M
;
_chemical_formula_sum "Si O2"
_cell_formula_units_Z 36
_cell_length_a 11.435207
_cell_length_b 18.718884
_cell_length_c 9.479095
_cell_angle_alpha 90.000000
_cell_angle_beta 90.000000
_cell_angle_gamma 90.000000
_cell_volume 2029.041171
_symmetry_space_group_name_H-M "P C C M"
_symmetry_group_IT_number 49
_symmetry_cell_setting 'orthorhombic'
loop_
_space_group_symop_operation_xyz
x,y,z
-x,-y,z
x,-y,1/2-z
-x,y,1/2-z
-x,-y,-z
x,y,-z
-x,y,1/2+z
x,-y,1/2+z
loop_
_atom_site_type_symbol
_atom_site_label
_atom_site_fract_x
_atom_site_fract_y
_atom_site_fract_z
Si Si1 0.500000 0.685422 0.750000
Si Si2 0.121872 0.671172 0.830463
Si Si3 0.327056 0.567110 0.157460
Si Si4 0.376256 0.069144 0.830652
Si Si5 0.720016 0.224703 0.339934
O O1 0.421539 0.630798 0.840183
O O2 0.405657 0.735446 0.673110
O O3 0.206020 0.603957 0.795574
O O4 0.192741 0.739303 0.770695
O O5 0.000000 0.665540 0.750000
O O6 0.109196 0.674696 0.000000
O O7 0.361082 0.500000 0.250000
O O8 0.312365 0.540399 0.000000
O O9 0.500000 0.080851 0.750000
O O10 0.301844 0.141104 0.814893
O O11 0.325217 0.000000 0.750000
O O12 0.392265 0.057185 0.000000
O O13 0.763339 0.235486 0.500000
#
# Coordination Sequence:
#
# PCOD9392796 Si02
#       5
#     4   8   8   8   8
#     4  10  19  34  53  78 110 140 180 216 261 318
#     4  10  22  39  58  79 103 135 178 224 271 319
#     4  10  22  36  53  77 105 139 174 216 266 318
#     4  10  19  31  49  77 112 149 181 215 258 308
#     4  10  20  34  55  80 109 144 180 220 265 314
#
# _framework density 17.742370000000001
#
# number of rings (size 3 to 8) (size 9 to 14) (size 15 to 20)
#    0.000    2.000    1.111    3.000    0.000    9.333 
#    0.000    2.222    0.000    0.667    0.000    4.667 
#    0.000    0.000    0.000    0.000    0.000    0.000 
#
# Total GULP energy -200710.849535 kJ/mol
# GULP energy per Si atom -5575.301376 kJ/mol
# Density = 1.770199 g / cm^3
# Si number density = 17.742370 Si / 1000 Ang^3
#
#
#
# Elastic Constant Matrix: (Units=GPa)
#
#
# Indices 1 2 3 4 5 6 
#
# 1 90.1980 27.2260 31.7524 0.0000 0.0000 0.0000
# 2 27.2260 112.8998 49.1471 0.0000 0.0000 0.0000
# 3 31.7524 49.1471 86.5192 0.0000 0.0000 0.0000
# 4 0.0000 0.0000 0.0000 15.3861 0.0000 0.0000
# 5 0.0000 0.0000 0.0000 0.0000 11.5876 0.0000
# 6 0.0000 0.0000 0.0000 0.0000 0.0000 8.7699
#
#
#
# Elastic Compliance Matrix: (Units=1/GPa)
#
#
# Indices 1 2 3 4 5 6 
#
# 1 0.012895 -0.001394 -0.003940 0.000000 0.000000 0.000000
# 2 -0.001394 0.011918 -0.006258 0.000000 0.000000 0.000000
# 3 -0.003940 -0.006258 0.016559 0.000000 0.000000 0.000000
# 4 0.000000 0.000000 0.000000 0.064994 0.000000 0.000000
# 5 0.000000 0.000000 0.000000 0.000000 0.086299 0.000000
# 6 0.000000 0.000000 0.000000 0.000000 0.000000 0.114026
#
#
# Mechanical properties :
#
#
# Convention : Reuss Voigt Hill
#
# Bulk Modulus (GPa) = 54.98698 56.20755 55.59727
# Shear Modulus (GPa) = 14.88366 19.24814 17.06590
#
# Velocity S-wave (km/s) = 2.89948 3.29731 3.10477
# Velocity P-wave (km/s) = 6.50142 6.80036 6.65257
#
# Compressibility (1/GPa) = 0.01818612
#
# Stress axis : x y z
#
# Youngs Moduli (GPa) = 77.55124 83.90679 60.38924
#
# Poissons Ratio (x) = 0.11699 0.23795
# Poissons Ratio (y) = 0.10813 0.37793
# Poissons Ratio (z) = 0.30558 0.52511
#
# Static dielectric constant tensor:
#      x y z
#    x 1.603180 0.000000 0.000000 
#    y 0.000000 1.609310 0.000000 
#    z 0.000000 0.000000 1.610620 
# 
# From -- ./inp_files/2789.got.cif
#   From: 2010.05.17/outbox.cif.g08.bks.cpg/sg49_2_cif.got.tgz:2789.got - 2010.06.03 21:02:19.
