data_PCOD9392927
_publ_section_title
;
Structure prediction by ZEFSAII (Michael W. Deem and Ramdas Pophale) SiO2 
 PCOD9392927
Probable space group: P C C M
;
_chemical_formula_sum "Si O2"
_cell_formula_units_Z 58
_cell_length_a 11.629643
_cell_length_b 16.850734
_cell_length_c 15.715456
_cell_angle_alpha 90.000000
_cell_angle_beta 90.000000
_cell_angle_gamma 90.000000
_cell_volume 3079.726807
_symmetry_space_group_name_H-M "P C C M"
_symmetry_group_IT_number 49
_symmetry_cell_setting 'orthorhombic'
loop_
_space_group_symop_operation_xyz
x,y,z
-x,-y,z
x,-y,1/2-z
-x,y,1/2-z
-x,-y,-z
x,y,-z
-x,y,1/2+z
x,-y,1/2+z
loop_
_atom_site_type_symbol
_atom_site_label
_atom_site_fract_x
_atom_site_fract_y
_atom_site_fract_z
Si Si1 0.837788 0.850776 0.826754
Si Si2 0.089898 0.853392 0.131453
Si Si3 0.500000 0.500000 0.750000
Si Si4 0.740079 0.002546 0.095017
Si Si5 0.364703 0.761837 0.598207
Si Si6 0.291150 0.760513 0.906139
Si Si7 0.452197 0.114918 0.342096
Si Si8 0.452838 0.378915 0.600856
O O1 0.882880 0.849595 0.731373
O O2 0.750539 0.780140 0.849412
O O3 0.954280 0.853883 0.883130
O O4 0.771399 0.933199 0.840831
O O5 0.159895 0.930348 0.098877
O O6 0.156983 0.777168 0.096150
O O7 0.444616 0.440936 0.678488
O O8 0.618672 0.043703 0.116151
O O9 0.736798 0.969372 0.000000
O O10 0.332794 0.754085 0.500000
O O11 0.446391 0.839306 0.609109
O O12 0.443248 0.684580 0.619381
O O13 0.354671 0.815889 0.837703
O O14 0.336606 0.672711 0.897099
O O15 0.333143 0.788782 0.000000
O O16 0.500000 0.094633 0.250000
O O17 0.467180 0.405022 0.500000
#
# Coordination Sequence:
#
# PCOD9392927 Si02
#       8
#     8   8   2   8   8   8   8   8
#     4  11  23  35  51  76 105 142 189 239 283 324
#     4  10  21  36  54  76 104 139 189 241 281 327
#     4  12  22  32  68  90 122 162 170 204 276 340
#     4  11  22  36  52  72 103 142 190 241 289 333
#     4  10  20  35  53  75 111 146 182 230 271 325
#     4   9  18  35  58  80 108 141 180 228 269 321
#     4  10  19  32  52  73 101 141 188 231 280 331
#     4   9  21  37  56  92 124 147 183 220 260 329
#
# _framework density 18.832840000000001
#
# number of rings (size 3 to 8) (size 9 to 14) (size 15 to 20)
#    0.000    1.931    0.000    6.414    5.793    4.414 
#    0.000    4.828    0.000    0.000    0.000    1.931 
#    0.000    4.414    0.000    0.000    0.000    0.000 
#
# Total GULP energy -323404.974846 kJ/mol
# GULP energy per Si atom -5575.947842 kJ/mol
# Density = 1.878998 g / cm^3
# Si number density = 18.832840 Si / 1000 Ang^3
#
#
#
# Elastic Constant Matrix: (Units=GPa)
#
#
# Indices 1 2 3 4 5 6 
#
# 1 85.3262 23.9363 11.1476 0.0000 0.0000 0.0000
# 2 23.9363 67.7585 26.2435 0.0000 0.0000 0.0000
# 3 11.1476 26.2435 83.9851 0.0000 0.0000 0.0000
# 4 0.0000 0.0000 0.0000 29.1505 0.0000 0.0000
# 5 0.0000 0.0000 0.0000 0.0000 19.5138 0.0000
# 6 0.0000 0.0000 0.0000 0.0000 0.0000 7.2857
#
#
#
# Elastic Compliance Matrix: (Units=1/GPa)
#
#
# Indices 1 2 3 4 5 6 
#
# 1 0.013017 -0.004470 -0.000331 0.000000 0.000000 0.000000
# 2 -0.004470 0.018325 -0.005133 0.000000 0.000000 0.000000
# 3 -0.000331 -0.005133 0.013555 0.000000 0.000000 0.000000
# 4 0.000000 0.000000 0.000000 0.034305 0.000000 0.000000
# 5 0.000000 0.000000 0.000000 0.000000 0.051246 0.000000
# 6 0.000000 0.000000 0.000000 0.000000 0.000000 0.137256
#
#
# Mechanical properties :
#
#
# Convention : Reuss Voigt Hill
#
# Bulk Modulus (GPa) = 39.95366 39.96939 39.96152
# Shear Modulus (GPa) = 16.89676 22.90617 19.90146
#
# Velocity S-wave (km/s) = 2.99857 3.49132 3.25428
# Velocity P-wave (km/s) = 5.76624 6.12550 5.94858
#
# Compressibility (1/GPa) = 0.02502900
#
# Stress axis : x y z
#
# Youngs Moduli (GPa) = 76.82273 54.56883 73.77496
#
# Poissons Ratio (x) = 0.24393 0.02442
# Poissons Ratio (y) = 0.34341 0.37868
# Poissons Ratio (z) = 0.02542 0.28010
#
# Static dielectric constant tensor:
#      x y z
#    x 1.706600 0.000000 0.000000 
#    y 0.000000 1.660540 0.000000 
#    z 0.000000 0.000000 1.715070 
# 
# From -- ./inp_files/13051.got.cif
#   From: 2010.05.17/outbox.cif.g08.bks.cpg/sg49_7_cif.got.tgz:13051.got - 2010.06.03 21:02:19.
