data_PCOD9392902
_publ_section_title
;
Structure prediction by ZEFSAII (Michael W. Deem and Ramdas Pophale) SiO2 
 PCOD9392902
Probable space group: P C C M
;
_chemical_formula_sum "Si O2"
_cell_formula_units_Z 64
_cell_length_a 12.241697
_cell_length_b 18.429366
_cell_length_c 15.182562
_cell_angle_alpha 90.000000
_cell_angle_beta 90.000000
_cell_angle_gamma 90.000000
_cell_volume 3425.287930
_symmetry_space_group_name_H-M "P C C M"
_symmetry_group_IT_number 49
_symmetry_cell_setting 'orthorhombic'
loop_
_space_group_symop_operation_xyz
x,y,z
-x,-y,z
x,-y,1/2-z
-x,y,1/2-z
-x,-y,-z
x,y,-z
-x,y,1/2+z
x,-y,1/2+z
loop_
_atom_site_type_symbol
_atom_site_label
_atom_site_fract_x
_atom_site_fract_y
_atom_site_fract_z
Si Si1 0.781127 0.091414 0.101891
Si Si2 0.162000 0.710917 0.396839
Si Si3 0.629974 0.802552 0.153303
Si Si4 0.130591 0.585106 0.259038
Si Si5 0.615346 0.780300 0.362740
Si Si6 0.212090 0.329046 0.405036
Si Si7 0.040125 0.803419 0.102577
Si Si8 0.620562 0.030435 0.607342
O O1 0.686893 0.152963 0.101636
O O2 0.890826 0.128631 0.141221
O O3 0.718233 0.022011 0.139348
O O4 0.807831 0.074720 0.000000
O O5 0.137170 0.697130 0.500000
O O6 0.275023 0.754222 0.388030
O O7 0.161723 0.635586 0.342732
O O8 0.069192 0.766833 0.359394
O O9 0.627341 0.784868 0.257138
O O10 0.510864 0.785847 0.114420
O O11 0.642721 0.888638 0.140393
O O12 0.156599 0.500000 0.250000
O O13 0.187991 0.620700 0.175765
O O14 0.000000 0.591909 0.250000
O O15 0.670142 0.707385 0.396880
O O16 0.196807 0.364530 0.500000
O O17 0.127227 0.262117 0.398832
O O18 0.014606 0.821805 0.000000
O O19 0.620900 0.030767 0.500000
O O20 0.500000 0.000000 0.633891
#
# Coordination Sequence:
#
# PCOD9392902 Si02
#       8
#     8   8   8   8   8   8   8   8
#     4   9  17  32  52  74 108 150 199 248 290 343
#     4  11  22  38  59  86 124 160 197 241 294 358
#     4  11  22  34  53  84 119 155 200 250 305 351
#     4  11  23  39  62  93 127 155 185 234 294 352
#     4  10  20  34  54  83 111 149 198 251 293 350
#     4  10  19  36  62  86 113 150 196 238 280 349
#     4   8  16  31  54  81 107 151 197 233 283 341
#     4  10  19  32  50  76 114 155 200 252 306 354
#
# _framework density 18.684560999999999
#
# number of rings (size 3 to 8) (size 9 to 14) (size 15 to 20)
#    0.000    2.000    3.750    1.500    0.000    2.500 
#    0.000    1.875    0.000    4.500    0.000    3.500 
#    0.000    0.000    0.000    0.000    0.000    0.000 
#
# Total GULP energy -356804.794893 kJ/mol
# GULP energy per Si atom -5575.074920 kJ/mol
# Density = 1.864203 g / cm^3
# Si number density = 18.684561 Si / 1000 Ang^3
#
#
#
# Elastic Constant Matrix: (Units=GPa)
#
#
# Indices 1 2 3 4 5 6 
#
# 1 92.1428 55.3720 16.5235 0.0000 0.0000 0.0000
# 2 55.3720 103.5678 39.6720 0.0000 0.0000 0.0000
# 3 16.5235 39.6720 72.7662 0.0000 0.0000 0.0000
# 4 0.0000 0.0000 0.0000 9.2615 0.0000 0.0000
# 5 0.0000 0.0000 0.0000 0.0000 66.1419 0.0000
# 6 0.0000 0.0000 0.0000 0.0000 0.0000 32.0544
#
#
#
# Elastic Compliance Matrix: (Units=1/GPa)
#
#
# Indices 1 2 3 4 5 6 
#
# 1 0.016088 -0.009103 0.001310 0.000000 0.000000 0.000000
# 2 -0.009103 0.017355 -0.007395 0.000000 0.000000 0.000000
# 3 0.001310 -0.007395 0.017477 0.000000 0.000000 0.000000
# 4 0.000000 0.000000 0.000000 0.107974 0.000000 0.000000
# 5 0.000000 0.000000 0.000000 0.000000 0.015119 0.000000
# 6 0.000000 0.000000 0.000000 0.000000 0.000000 0.031197
#
#
# Mechanical properties :
#
#
# Convention : Reuss Voigt Hill
#
# Bulk Modulus (GPa) = 48.67668 54.62354 51.65011
# Shear Modulus (GPa) = 20.62413 31.95218 26.28816
#
# Velocity S-wave (km/s) = 3.32596 4.13980 3.75500
# Velocity P-wave (km/s) = 6.39201 7.22140 6.81933
#
# Compressibility (1/GPa) = 0.02054372
#
# Stress axis : x y z
#
# Youngs Moduli (GPa) = 62.15687 57.61983 57.21845
#
# Poissons Ratio (x) = 0.52453 -0.07494
# Poissons Ratio (y) = 0.56583 0.42312
# Poissons Ratio (z) = -0.08141 0.42609
#
# Static dielectric constant tensor:
#      x y z
#    x 1.687320 0.000000 0.000000 
#    y 0.000000 1.646460 0.000000 
#    z 0.000000 0.000000 1.695820 
# 
# From -- ./inp_files/13114.got.cif
#   From: 2010.05.17/outbox.cif.g08.bks.cpg/sg49_7_cif.got.tgz:13114.got - 2010.06.03 21:02:19.
