data_PCOD9392299
_publ_section_title
;
Structure prediction by ZEFSAII (Michael W. Deem and Ramdas Pophale) SiO2 
 PCOD9392299
Probable space group: P C C M
;
_chemical_formula_sum "Si O2"
_cell_formula_units_Z 56
_cell_length_a 18.661755
_cell_length_b 21.745643
_cell_length_c 8.880386
_cell_angle_alpha 90.000000
_cell_angle_beta 90.000000
_cell_angle_gamma 90.000000
_cell_volume 3603.765978
_symmetry_space_group_name_H-M "P C C M"
_symmetry_group_IT_number 49
_symmetry_cell_setting 'orthorhombic'
loop_
_space_group_symop_operation_xyz
x,y,z
-x,-y,z
x,-y,1/2-z
-x,y,1/2-z
-x,-y,-z
x,y,-z
-x,y,1/2+z
x,-y,1/2+z
loop_
_atom_site_type_symbol
_atom_site_label
_atom_site_fract_x
_atom_site_fract_y
_atom_site_fract_z
Si Si1 0.705010 0.625359 0.327652
Si Si2 0.795712 0.247269 0.827319
Si Si3 0.578855 0.935548 0.819048
Si Si4 0.077339 0.685421 0.679831
Si Si5 0.577891 0.309756 0.320858
Si Si6 0.848775 0.564870 0.317923
Si Si7 0.335059 0.812934 0.680742
O O1 0.684492 0.611957 0.500000
O O2 0.749767 0.689290 0.327184
O O3 0.634675 0.638614 0.231362
O O4 0.765009 0.576876 0.276387
O O5 0.865575 0.262940 0.730694
O O6 0.741344 0.198023 0.758051
O O7 0.814550 0.233554 0.000000
O O8 0.500000 0.924943 0.750000
O O9 0.628717 0.877675 0.781677
O O10 0.605042 0.000000 0.750000
O O11 0.573298 0.940467 0.000000
O O12 0.074220 0.680932 0.500000
O O13 0.106035 0.621013 0.749159
O O14 0.000000 0.698134 0.750000
O O15 0.500000 0.317502 0.250000
O O16 0.571954 0.310155 0.500000
O O17 0.612263 0.243606 0.275097
O O18 0.872165 0.500000 0.250000
O O19 0.853848 0.566291 0.500000
O O20 0.326291 0.809135 0.500000
#
# Coordination Sequence:
#
# PCOD9392299 Si02
#       7
#     8   8   8   8   8   8   8
#     4   8  16  30  45  62  86 112 141 178 220 267
#     4   9  17  30  48  69  91 117 149 185 226 272
#     4  10  19  30  43  61  90 127 167 204 241 280
#     4  11  21  34  51  71  98 126 151 182 221 266
#     4  10  18  27  42  63  86 111 143 183 230 275
#     4  10  20  34  51  71  92 118 152 185 220 265
#     4   9  18  30  44  64  89 120 156 193 230 274
#
# _framework density 15.539300000000001
#
# number of rings (size 3 to 8) (size 9 to 14) (size 15 to 20)
#    0.000    2.429    0.000    4.714    0.000    6.000 
#    0.000    1.429    0.000    0.429    0.000    3.000 
#    0.000    0.571    0.000    6.000    0.000    3.286 
#
# Total GULP energy -312189.944130 kJ/mol
# GULP energy per Si atom -5574.820431 kJ/mol
# Density = 1.550393 g / cm^3
# Si number density = 15.539300 Si / 1000 Ang^3
#
#
#
# Elastic Constant Matrix: (Units=GPa)
#
#
# Indices 1 2 3 4 5 6 
#
# 1 104.6555 22.9013 50.5970 0.0000 0.0000 0.0000
# 2 22.9013 39.0148 18.1481 0.0000 0.0000 0.0000
# 3 50.5970 18.1481 74.0028 0.0000 0.0000 0.0000
# 4 0.0000 0.0000 0.0000 18.5807 0.0000 0.0000
# 5 0.0000 0.0000 0.0000 0.0000 27.8772 0.0000
# 6 0.0000 0.0000 0.0000 0.0000 0.0000 18.1761
#
#
#
# Elastic Compliance Matrix: (Units=1/GPa)
#
#
# Indices 1 2 3 4 5 6 
#
# 1 0.014953 -0.004539 -0.009110 0.000000 0.000000 0.000000
# 2 -0.004539 0.030310 -0.004329 0.000000 0.000000 0.000000
# 3 -0.009110 -0.004329 0.020804 0.000000 0.000000 0.000000
# 4 0.000000 0.000000 0.000000 0.053819 0.000000 0.000000
# 5 0.000000 0.000000 0.000000 0.000000 0.035872 0.000000
# 6 0.000000 0.000000 0.000000 0.000000 0.000000 0.055017
#
#
# Mechanical properties :
#
#
# Convention : Reuss Voigt Hill
#
# Bulk Modulus (GPa) = 33.21374 44.55176 38.88275
# Shear Modulus (GPa) = 19.47276 21.32859 20.40067
#
# Velocity S-wave (km/s) = 3.54380 3.70882 3.62725
# Velocity P-wave (km/s) = 6.17779 6.86099 6.52833
#
# Compressibility (1/GPa) = 0.03010802
#
# Stress axis : x y z
#
# Youngs Moduli (GPa) = 66.87595 32.99273 48.06846
#
# Poissons Ratio (x) = 0.14977 0.43792
# Poissons Ratio (y) = 0.30358 0.20810
# Poissons Ratio (z) = 0.60927 0.14284
#
# Static dielectric constant tensor:
#      x y z
#    x 1.511600 0.000000 0.000000 
#    y 0.000000 1.508470 0.000000 
#    z 0.000000 0.000000 1.522750 
# 
# From -- ./inp_files/5212.got.cif
#   From: 2010.05.17/outbox.cif.g08.bks.cpg/sg49_3_cif.got.tgz:5212.got - 2010.06.03 21:02:19.
