data_PCOD9392387
_publ_section_title
;
Structure prediction by ZEFSAII (Michael W. Deem and Ramdas Pophale) SiO2 
 PCOD9392387
Probable space group: P C C M
;
_chemical_formula_sum "Si O2"
_cell_formula_units_Z 64
_cell_length_a 18.966528
_cell_length_b 23.573060
_cell_length_c 8.584800
_cell_angle_alpha 90.000000
_cell_angle_beta 90.000000
_cell_angle_gamma 90.000000
_cell_volume 3838.256375
_symmetry_space_group_name_H-M "P C C M"
_symmetry_group_IT_number 49
_symmetry_cell_setting 'orthorhombic'
loop_
_space_group_symop_operation_xyz
x,y,z
-x,-y,z
x,-y,1/2-z
-x,y,1/2-z
-x,-y,-z
x,y,-z
-x,y,1/2+z
x,-y,1/2+z
loop_
_atom_site_type_symbol
_atom_site_label
_atom_site_fract_x
_atom_site_fract_y
_atom_site_fract_z
Si Si1 0.785097 0.560112 0.684423
Si Si2 0.186242 0.150761 0.183437
Si Si3 0.075908 0.063892 0.314331
Si Si4 0.076211 0.763595 0.818912
Si Si5 0.616262 0.438939 0.815622
Si Si6 0.838306 0.325967 0.681746
Si Si7 0.706692 0.757226 0.813817
Si Si8 0.424313 0.687324 0.813066
O O1 0.808641 0.500000 0.750000
O O2 0.797090 0.565306 0.500000
O O3 0.700575 0.563792 0.709855
O O4 0.821776 0.610051 0.777214
O O5 0.146152 0.098135 0.263754
O O6 0.129155 0.199762 0.214871
O O7 0.259023 0.181986 0.238266
O O8 0.193278 0.138956 0.000000
O O9 0.070955 0.063650 0.500000
O O10 0.000000 0.087011 0.250000
O O11 0.081191 0.000000 0.250000
O O12 0.101629 0.699654 0.791217
O O13 0.000000 0.771872 0.750000
O O14 0.081074 0.779836 0.000000
O O15 0.591271 0.500000 0.750000
O O16 0.588025 0.378105 0.755062
O O17 0.602727 0.440579 0.000000
O O18 0.856194 0.318417 0.500000
O O19 0.767150 0.289972 0.714685
O O20 0.636502 0.731001 0.739902
O O21 0.696876 0.761447 0.000000
O O22 0.500000 0.705877 0.750000
O O23 0.423784 0.685374 0.000000
#
# Coordination Sequence:
#
# PCOD9392387 Si02
#       8
#     8   8   8   8   8   8   8   8
#     4  10  18  30  47  69  91 116 152 193 241 292
#     4  10  20  35  53  76 104 136 174 214 253 295
#     4  11  21  34  52  77 111 152 189 222 256 294
#     4  11  21  33  49  71  98 128 162 202 245 292
#     4   9  19  32  47  67  91 122 157 199 244 299
#     4  10  19  32  50  71  93 120 153 196 246 295
#     4   9  19  34  52  72  96 126 163 206 251 296
#     4  11  22  35  50  70  97 129 165 205 254 310
#
# _framework density 16.674237999999999
#
# number of rings (size 3 to 8) (size 9 to 14) (size 15 to 20)
#    0.000    1.875    1.250    5.250    0.000    4.250 
#    0.000    1.250    0.000    0.375    0.000    2.625 
#    0.000    0.500    0.000    5.250    0.000    2.250 
#
# Total GULP energy -356734.143620 kJ/mol
# GULP energy per Si atom -5573.970994 kJ/mol
# Density = 1.663629 g / cm^3
# Si number density = 16.674238 Si / 1000 Ang^3
#
#
#
# Elastic Constant Matrix: (Units=GPa)
#
#
# Indices 1 2 3 4 5 6 
#
# 1 70.3387 40.6189 16.0820 0.0000 0.0000 0.0000
# 2 40.6189 86.5752 28.5507 0.0000 0.0000 0.0000
# 3 16.0820 28.5507 21.4035 0.0000 0.0000 0.0000
# 4 0.0000 0.0000 0.0000 25.7042 0.0000 0.0000
# 5 0.0000 0.0000 0.0000 0.0000 16.4087 0.0000
# 6 0.0000 0.0000 0.0000 0.0000 0.0000 11.8575
#
#
#
# Elastic Compliance Matrix: (Units=1/GPa)
#
#
# Indices 1 2 3 4 5 6 
#
# 1 0.019732 -0.007799 -0.004422 0.000000 0.000000 0.000000
# 2 -0.007799 0.023705 -0.025761 0.000000 0.000000 0.000000
# 3 -0.004422 -0.025761 0.084407 0.000000 0.000000 0.000000
# 4 0.000000 0.000000 0.000000 0.038904 0.000000 0.000000
# 5 0.000000 0.000000 0.000000 0.000000 0.060943 0.000000
# 6 0.000000 0.000000 0.000000 0.000000 0.000000 0.084335
#
#
# Mechanical properties :
#
#
# Convention : Reuss Voigt Hill
#
# Bulk Modulus (GPa) = 19.27544 38.75784 29.01664
# Shear Modulus (GPa) = 12.33700 16.99847 14.66773
#
# Velocity S-wave (km/s) = 2.72303 3.19634 2.96913
# Velocity P-wave (km/s) = 4.63375 6.07591 5.40316
#
# Compressibility (1/GPa) = 0.05187948
#
# Stress axis : x y z
#
# Youngs Moduli (GPa) = 50.67918 42.18462 11.84733
#
# Poissons Ratio (x) = 0.32901 0.05239
# Poissons Ratio (y) = 0.39527 0.30520
# Poissons Ratio (z) = 0.22412 1.08671
#
# Static dielectric constant tensor:
#      x y z
#    x 1.635960 0.000000 0.000000 
#    y 0.000000 1.605090 0.000000 
#    z 0.000000 0.000000 1.565810 
# 
# From -- ./inp_files/5391.got.cif
#   From: 2010.05.17/outbox.cif.g08.bks.cpg/sg49_3_cif.got.tgz:5391.got - 2010.06.03 21:02:19.
