data_PCOD9392242
_publ_section_title
;
Structure prediction by ZEFSAII (Michael W. Deem and Ramdas Pophale) SiO2 
 PCOD9392242
Probable space group: P C C M
;
_chemical_formula_sum "Si O2"
_cell_formula_units_Z 48
_cell_length_a 9.258052
_cell_length_b 30.175397
_cell_length_c 9.005207
_cell_angle_alpha 90.000000
_cell_angle_beta 90.000000
_cell_angle_gamma 90.000000
_cell_volume 2515.743207
_symmetry_space_group_name_H-M "P C C M"
_symmetry_group_IT_number 49
_symmetry_cell_setting 'orthorhombic'
loop_
_space_group_symop_operation_xyz
x,y,z
-x,-y,z
x,-y,1/2-z
-x,y,1/2-z
-x,-y,-z
x,y,-z
-x,y,1/2+z
x,-y,1/2+z
loop_
_atom_site_type_symbol
_atom_site_label
_atom_site_fract_x
_atom_site_fract_y
_atom_site_fract_z
Si Si1 0.651664 0.699395 0.677051
Si Si2 0.844053 0.786495 0.675680
Si Si3 0.339610 0.864525 0.320160
Si Si4 0.195280 0.542230 0.500000
Si Si5 0.856348 0.438078 0.000000
Si Si6 0.662599 0.044813 0.819322
Si Si7 0.673798 0.397180 0.742465
O O1 0.500000 0.713686 0.750000
O O2 0.632659 0.687830 0.500000
O O3 0.763274 0.739368 0.686635
O O4 0.698196 0.655676 0.769283
O O5 0.852411 0.797976 0.500000
O O6 0.753195 0.823167 0.764725
O O7 0.000000 0.783521 0.750000
O O8 0.500000 0.859247 0.250000
O O9 0.347316 0.867794 0.500000
O O10 0.275311 0.909588 0.247001
O O11 0.193454 0.489395 0.500000
O O12 0.280834 0.564844 0.630759
O O13 0.029226 0.558973 0.500000
O O14 0.783833 0.411484 0.868935
O O15 0.500000 0.045349 0.750000
O O16 0.729684 0.000000 0.750000
O O17 0.658818 0.044088 0.000000
O O18 0.500000 0.400095 0.750000
#
# Coordination Sequence:
#
# PCOD9392242 Si02
#       7
#     8   8   8   4   4   8   8
#     4  10  23  42  65  90 120 154 193 244 299 359
#     4  11  24  42  61  89 120 156 201 248 303 364
#     4  11  21  36  58  87 120 161 205 254 310 366
#     4  11  25  39  63  91 119 173 195 251 300 365
#     4  11  23  43  61  87 131 155 211 241 304 365
#     4  10  17  28  48  79 117 157 201 255 308 365
#     4  11  23  41  63  93 121 157 202 254 304 361
#
# _framework density 19.079847999999998
#
# number of rings (size 3 to 8) (size 9 to 14) (size 15 to 20)
#    0.000    1.333    0.833    7.000    3.500    7.333 
#    0.000    0.000    0.000    0.500    0.000    3.500 
#    0.000    0.000    0.000    0.000    0.000    0.000 
#
# Total GULP energy -267360.808001 kJ/mol
# GULP energy per Si atom -5570.016833 kJ/mol
# Density = 1.903642 g / cm^3
# Si number density = 19.079848 Si / 1000 Ang^3
#
#
#
# Elastic Constant Matrix: (Units=GPa)
#
#
# Indices 1 2 3 4 5 6 
#
# 1 71.4547 68.1828 17.9028 0.0000 0.0000 0.0000
# 2 68.1828 126.7178 24.4500 0.0000 0.0000 0.0000
# 3 17.9028 24.4500 74.7374 0.0000 0.0000 0.0000
# 4 0.0000 0.0000 0.0000 35.7489 0.0000 0.0000
# 5 0.0000 0.0000 0.0000 0.0000 18.0541 0.0000
# 6 0.0000 0.0000 0.0000 0.0000 0.0000 -36.6840
#
#
#
# Elastic Compliance Matrix: (Units=1/GPa)
#
#
# Indices 1 2 3 4 5 6 
#
# 1 0.029031 -0.015241 -0.001968 0.000000 0.000000 0.000000
# 2 -0.015241 0.016425 -0.001722 0.000000 0.000000 0.000000
# 3 -0.001968 -0.001722 0.014415 0.000000 0.000000 0.000000
# 4 0.000000 0.000000 0.000000 0.027973 0.000000 0.000000
# 5 0.000000 0.000000 0.000000 0.000000 0.055389 0.000000
# 6 0.000000 0.000000 0.000000 0.000000 0.000000 -0.027260
#
#
# Mechanical properties :
#
#
# Convention : Reuss Voigt Hill
#
# Bulk Modulus (GPa) = 45.43852 54.88679 50.16265
# Shear Modulus (GPa) = 31.02285 14.24875 22.63580
#
# Velocity S-wave (km/s) = 4.03668 2.73572 3.44811
# Velocity P-wave (km/s) = 6.75226 6.22963 6.49620
#
# Compressibility (1/GPa) = 0.02200776
#
# Stress axis : x y z
#
# Youngs Moduli (GPa) = 34.44591 60.88458 69.37163
#
# Poissons Ratio (x) = 0.92794 0.13654
# Poissons Ratio (y) = 0.52499 0.11948
# Poissons Ratio (z) = 0.06780 0.10487
#
# Static dielectric constant tensor:
#      x y z
#    x 1.633720 0.000000 0.000000 
#    y 0.000000 1.672400 0.000000 
#    z 0.000000 0.000000 1.660760 
# 
# From -- ./inp_files/2145.got.cif
#   From: 2010.05.17/outbox.cif.g08.bks.cpg/sg49_2_cif.got.tgz:2145.got - 2010.06.03 21:02:19.
