data_PCOD9392425
_publ_section_title
;
Structure prediction by ZEFSAII (Michael W. Deem and Ramdas Pophale) SiO2 
 PCOD9392425
Probable space group: P C C M
;
_chemical_formula_sum "Si O2"
_cell_formula_units_Z 64
_cell_length_a 20.739698
_cell_length_b 20.614233
_cell_length_c 8.228723
_cell_angle_alpha 90.000000
_cell_angle_beta 90.000000
_cell_angle_gamma 90.000000
_cell_volume 3518.050358
_symmetry_space_group_name_H-M "P C C M"
_symmetry_group_IT_number 49
_symmetry_cell_setting 'orthorhombic'
loop_
_space_group_symop_operation_xyz
x,y,z
-x,-y,z
x,-y,1/2-z
-x,y,1/2-z
-x,-y,-z
x,y,-z
-x,y,1/2+z
x,-y,1/2+z
loop_
_atom_site_type_symbol
_atom_site_label
_atom_site_fract_x
_atom_site_fract_y
_atom_site_fract_z
Si Si1 0.431512 0.884169 0.695248
Si Si2 0.292326 0.929333 0.695031
Si Si3 0.289605 0.431201 0.304208
Si Si4 0.568698 0.399697 0.189222
Si Si5 0.817146 0.167884 0.194332
Si Si6 0.926536 0.072155 0.194796
Si Si7 0.255170 0.710433 0.197763
Si Si8 0.601557 0.260055 0.693450
O O1 0.500000 0.911585 0.750000
O O2 0.430291 0.884283 0.500000
O O3 0.366222 0.919002 0.751797
O O4 0.425570 0.809004 0.749513
O O5 0.290693 0.924485 0.500000
O O6 0.245658 0.875032 0.766671
O O7 0.269960 0.000000 0.750000
O O8 0.262279 0.500000 0.250000
O O9 0.292117 0.430364 0.500000
O O10 0.363645 0.425353 0.238597
O O11 0.252953 0.365319 0.254256
O O12 0.500000 0.423993 0.250000
O O13 0.571946 0.322277 0.218583
O O14 0.570896 0.413403 0.000000
O O15 0.878401 0.127766 0.258588
O O16 0.801451 0.240958 0.250982
O O17 0.824665 0.171309 0.000000
O O18 0.000000 0.082228 0.250000
O O19 0.906190 0.000000 0.250000
O O20 0.925149 0.072441 0.000000
O O21 0.322305 0.737352 0.268712
O O22 0.259788 0.712714 0.000000
O O23 0.591340 0.266651 0.500000
#
# Coordination Sequence:
#
# PCOD9392425 Si02
#       8
#     8   8   8   8   8   8   8   8
#     4  10  22  35  48  66  89 117 156 205 257 310
#     4  11  23  38  52  72  97 125 165 210 258 308
#     4   9  19  33  48  67  94 126 159 198 249 305
#     4  10  20  32  45  65  89 118 155 199 249 307
#     4  10  20  35  57  81 104 136 173 210 251 295
#     4  10  20  34  53  80 113 149 182 209 245 291
#     4   9  18  33  52  74  99 127 162 204 249 296
#     4  10  18  31  48  69  92 118 154 200 252 306
#
# _framework density 18.191894000000001
#
# number of rings (size 3 to 8) (size 9 to 14) (size 15 to 20)
#    0.000    2.125    1.250    3.375    0.000    8.000 
#    0.000    2.500    0.000    0.000    0.000    0.000 
#    0.000    0.500    0.000    6.250    0.000    0.000 
#
# Total GULP energy -357140.409768 kJ/mol
# GULP energy per Si atom -5580.318903 kJ/mol
# Density = 1.815049 g / cm^3
# Si number density = 18.191894 Si / 1000 Ang^3
#
#
#
# Elastic Constant Matrix: (Units=GPa)
#
#
# Indices 1 2 3 4 5 6 
#
# 1 80.5026 51.1404 5.9568 0.0000 0.0000 0.0000
# 2 51.1404 128.5459 3.5319 0.0000 0.0000 0.0000
# 3 5.9568 3.5319 6.3758 0.0000 0.0000 0.0000
# 4 0.0000 0.0000 0.0000 10.2175 0.0000 0.0000
# 5 0.0000 0.0000 0.0000 0.0000 132.8460 0.0000
# 6 0.0000 0.0000 0.0000 0.0000 0.0000 5.2350
#
#
#
# Elastic Compliance Matrix: (Units=1/GPa)
#
#
# Indices 1 2 3 4 5 6 
#
# 1 0.017588 -0.006647 -0.012750 0.000000 0.000000 0.000000
# 2 -0.006647 0.010412 0.000442 0.000000 0.000000 0.000000
# 3 -0.012750 0.000442 0.168511 0.000000 0.000000 0.000000
# 4 0.000000 0.000000 0.000000 0.097871 0.000000 0.000000
# 5 0.000000 0.000000 0.000000 0.000000 0.007528 0.000000
# 6 0.000000 0.000000 0.000000 0.000000 0.000000 0.191022
#
#
# Mechanical properties :
#
#
# Convention : Reuss Voigt Hill
#
# Bulk Modulus (GPa) = 6.30512 37.40919 21.85716
# Shear Modulus (GPa) = 8.56595 39.97938 24.27266
#
# Velocity S-wave (km/s) = 2.17230 4.69299 3.65671
# Velocity P-wave (km/s) = 3.12494 7.06922 5.46531
#
# Compressibility (1/GPa) = 0.15860116
#
# Stress axis : x y z
#
# Youngs Moduli (GPa) = 56.85730 96.04749 5.93434
#
# Poissons Ratio (x) = 0.63841 0.07566
# Poissons Ratio (y) = 0.37792 -0.00263
# Poissons Ratio (z) = 0.72494 -0.04250
#
# Static dielectric constant tensor:
#      x y z
#    x 1.632660 0.000000 0.000000 
#    y 0.000000 1.649170 0.000000 
#    z 0.000000 0.000000 1.620300 
# 
# From -- ./inp_files/6070.got.cif
#   From: 2010.05.17/outbox.cif.g08.bks.cpg/sg49_4_cif.got.tgz:6070.got - 2010.06.03 21:02:19.
