data_PCOD9392870
_publ_section_title
;
Structure prediction by ZEFSAII (Michael W. Deem and Ramdas Pophale) SiO2 
 PCOD9392870
Probable space group: P C C M
;
_chemical_formula_sum "Si O2"
_cell_formula_units_Z 48
_cell_length_a 9.623237
_cell_length_b 32.827915
_cell_length_c 8.603094
_cell_angle_alpha 90.000000
_cell_angle_beta 90.000000
_cell_angle_gamma 90.000000
_cell_volume 2717.810362
_symmetry_space_group_name_H-M "P C C M"
_symmetry_group_IT_number 49
_symmetry_cell_setting 'orthorhombic'
loop_
_space_group_symop_operation_xyz
x,y,z
-x,-y,z
x,-y,1/2-z
-x,y,1/2-z
-x,-y,-z
x,y,-z
-x,y,1/2+z
x,-y,1/2+z
loop_
_atom_site_type_symbol
_atom_site_label
_atom_site_fract_x
_atom_site_fract_y
_atom_site_fract_z
Si Si1 0.343358 0.868935 0.812380
Si Si2 0.657983 0.958462 0.685912
Si Si3 0.842146 0.291409 0.313578
Si Si4 0.343833 0.456605 0.812952
Si Si5 0.156960 0.793122 0.186473
Si Si6 0.156447 0.619136 0.312571
O O1 0.500000 0.864946 0.750000
O O2 0.285545 0.913876 0.768390
O O3 0.247842 0.831578 0.760562
O O4 0.349688 0.868028 0.000000
O O5 0.500000 0.957884 0.750000
O O6 0.345982 0.038853 0.500000
O O7 0.724738 0.000000 0.750000
O O8 0.843872 0.288156 0.500000
O O9 0.780714 0.249993 0.244171
O O10 0.784876 0.336005 0.268949
O O11 0.000000 0.292184 0.250000
O O12 0.290596 0.500000 0.750000
O O13 0.500000 0.451731 0.750000
O O14 0.250291 0.418590 0.761330
O O15 0.347214 0.457942 0.000000
O O16 0.000000 0.796583 0.250000
O O17 0.151302 0.792542 0.000000
O O18 0.149892 0.618373 0.500000
O O19 0.000000 0.615374 0.250000
#
# Coordination Sequence:
#
# PCOD9392870 Si02
#       6
#     8   8   8   8   8   8
#     4   9  19  32  47  68  96 123 153 192 235 277
#     4   9  15  25  41  63  88 116 148 186 227 273
#     4   9  16  29  48  70  94 123 156 193 232 276
#     4  10  20  35  52  72  97 129 163 195 231 279
#     4  10  19  32  49  71  95 124 159 194 230 278
#     4   9  19  33  51  74  99 123 155 196 238 278
#
# _framework density 17.661276999999998
#
# number of rings (size 3 to 8) (size 9 to 14) (size 15 to 20)
#    0.000    2.667    0.000    4.000    0.000    4.333 
#    0.000    2.500    0.000    4.500    0.000    3.500 
#    0.000    0.000    0.000    0.000    0.000    0.000 
#
# Total GULP energy -267321.907504 kJ/mol
# GULP energy per Si atom -5569.206406 kJ/mol
# Density = 1.762108 g / cm^3
# Si number density = 17.661277 Si / 1000 Ang^3
#
#
#
# Elastic Constant Matrix: (Units=GPa)
#
#
# Indices 1 2 3 4 5 6 
#
# 1 36.3353 64.5285 11.7643 0.0000 0.0000 0.0000
# 2 64.5285 233.3709 43.0423 0.0000 0.0000 0.0000
# 3 11.7643 43.0423 40.8088 0.0000 0.0000 0.0000
# 4 0.0000 0.0000 0.0000 31.9922 0.0000 0.0000
# 5 0.0000 0.0000 0.0000 0.0000 8.1527 0.0000
# 6 0.0000 0.0000 0.0000 0.0000 0.0000 32.1280
#
#
#
# Elastic Compliance Matrix: (Units=1/GPa)
#
#
# Indices 1 2 3 4 5 6 
#
# 1 0.054077 -0.014994 0.000226 0.000000 0.000000 0.000000
# 2 -0.014994 0.009477 -0.005674 0.000000 0.000000 0.000000
# 3 0.000226 -0.005674 0.030424 0.000000 0.000000 0.000000
# 4 0.000000 0.000000 0.000000 0.031258 0.000000 0.000000
# 5 0.000000 0.000000 0.000000 0.000000 0.122659 0.000000
# 6 0.000000 0.000000 0.000000 0.000000 0.000000 0.031125
#
#
# Mechanical properties :
#
#
# Convention : Reuss Voigt Hill
#
# Bulk Modulus (GPa) = 18.83470 61.02059 39.92765
# Shear Modulus (GPa) = 14.81031 27.19991 21.00511
#
# Velocity S-wave (km/s) = 2.89896 3.92865 3.45241
# Velocity P-wave (km/s) = 4.67898 7.42998 6.20876
#
# Compressibility (1/GPa) = 0.05309348
#
# Stress axis : x y z
#
# Youngs Moduli (GPa) = 18.49222 105.51373 32.86918
#
# Poissons Ratio (x) = 1.58209 -0.00742
# Poissons Ratio (y) = 0.27728 0.18649
# Poissons Ratio (z) = -0.00417 0.59865
#
# Static dielectric constant tensor:
#      x y z
#    x 1.608080 0.000000 0.000000 
#    y 0.000000 1.680470 0.000000 
#    z 0.000000 0.000000 1.598620 
# 
# From -- ./inp_files/3037.got.cif
#   From: 2010.05.17/outbox.cif.g08.bks.cpg/sg49_2_cif.got.tgz:3037.got - 2010.06.03 21:02:19.
