data_PCOD9392833
_publ_section_title
;
Structure prediction by ZEFSAII (Michael W. Deem and Ramdas Pophale) SiO2 
 PCOD9392833
Probable space group: P C C M
;
_chemical_formula_sum "Si O2"
_cell_formula_units_Z 64
_cell_length_a 11.166476
_cell_length_b 14.567108
_cell_length_c 18.746729
_cell_angle_alpha 90.000000
_cell_angle_beta 90.000000
_cell_angle_gamma 90.000000
_cell_volume 3049.404089
_symmetry_space_group_name_H-M "P C C M"
_symmetry_group_IT_number 49
_symmetry_cell_setting 'orthorhombic'
loop_
_space_group_symop_operation_xyz
x,y,z
-x,-y,z
x,-y,1/2-z
-x,y,1/2-z
-x,-y,-z
x,y,-z
-x,y,1/2+z
x,-y,1/2+z
loop_
_atom_site_type_symbol
_atom_site_label
_atom_site_fract_x
_atom_site_fract_y
_atom_site_fract_z
Si Si1 0.857998 0.521949 0.666425
Si Si2 0.386572 0.742373 0.296268
Si Si3 0.694947 0.896406 0.579965
Si Si4 0.977805 0.778097 0.920640
Si Si5 0.796028 0.734231 0.667938
Si Si6 0.881948 0.035439 0.626396
Si Si7 0.366229 0.946698 0.678322
Si Si8 0.749575 0.643204 0.916801
O O1 0.835313 0.500000 0.750000
O O2 0.815588 0.626187 0.653228
O O3 0.785675 0.454621 0.615185
O O4 0.000000 0.500000 0.654874
O O5 0.500000 0.708100 0.250000
O O6 0.267904 0.742042 0.245231
O O7 0.419199 0.845766 0.321594
O O8 0.351955 0.685703 0.366120
O O9 0.656147 0.881323 0.500000
O O10 0.710927 0.800688 0.620626
O O11 0.617240 0.975047 0.618522
O O12 0.822953 0.950519 0.583653
O O13 0.919016 0.878325 0.920416
O O14 0.869226 0.706485 0.910983
O O15 0.071746 0.770737 0.855340
O O16 0.033302 0.761060 0.000000
O O17 0.776986 0.069899 0.676589
O O18 0.000000 0.000000 0.663979
O O19 0.387780 0.000000 0.750000
O O20 0.716605 0.640167 0.000000
#
# Coordination Sequence:
#
# PCOD9392833 Si02
#       8
#     8   8   8   8   8   8   8   8
#     4  11  23  41  68 104 144 185 226 288 370 446
#     4  12  26  47  72  98 129 190 245 294 342 406
#     4  10  21  36  59  93 137 177 219 278 342 413
#     4  11  21  35  62  98 142 180 214 275 357 434
#     4  12  23  40  65  99 137 177 233 289 352 426
#     4  10  19  31  53  89 136 176 215 256 336 420
#     4  10  21  40  58  93 129 171 229 277 333 413
#     4  11  24  45  70 105 138 174 234 293 356 434
#
# _framework density 20.987705999999999
#
# number of rings (size 3 to 8) (size 9 to 14) (size 15 to 20)
#    0.750    0.375    6.250    0.750    0.000    3.250 
#    0.000    2.500    0.000    1.500    0.000    0.000 
#    0.000    0.000    0.000    0.000    0.000    0.000 
#
# Total GULP energy -356700.109262 kJ/mol
# GULP energy per Si atom -5573.439207 kJ/mol
# Density = 2.093994 g / cm^3
# Si number density = 20.987706 Si / 1000 Ang^3
#
#
#
# Elastic Constant Matrix: (Units=GPa)
#
#
# Indices 1 2 3 4 5 6 
#
# 1 92.8218 26.5903 46.5448 0.0000 0.0000 0.0000
# 2 26.5903 171.7480 61.4091 0.0000 0.0000 0.0000
# 3 46.5448 61.4091 142.8636 0.0000 0.0000 0.0000
# 4 0.0000 0.0000 0.0000 34.0926 0.0000 0.0000
# 5 0.0000 0.0000 0.0000 0.0000 29.4218 0.0000
# 6 0.0000 0.0000 0.0000 0.0000 0.0000 -159.5299
#
#
#
# Elastic Compliance Matrix: (Units=1/GPa)
#
#
# Indices 1 2 3 4 5 6 
#
# 1 0.012927 -0.000585 -0.003960 0.000000 0.000000 0.000000
# 2 -0.000585 0.006906 -0.002778 0.000000 0.000000 0.000000
# 3 -0.003960 -0.002778 0.009484 0.000000 0.000000 0.000000
# 4 0.000000 0.000000 0.000000 0.029332 0.000000 0.000000
# 5 0.000000 0.000000 0.000000 0.000000 0.033988 0.000000
# 6 0.000000 0.000000 0.000000 0.000000 0.000000 -0.006268
#
#
# Mechanical properties :
#
#
# Convention : Reuss Voigt Hill
#
# Bulk Modulus (GPa) = 68.16418 75.16910 71.66664
# Shear Modulus (GPa) = 47.21194 -1.01048 23.10073
#
# Velocity S-wave (km/s) = 4.74804 -0.69463 3.32125
# Velocity P-wave (km/s) = 7.91247 5.93719 6.99490
#
# Compressibility (1/GPa) = 0.01467046
#
# Stress axis : x y z
#
# Youngs Moduli (GPa) = 77.35944 144.79349 105.44227
#
# Poissons Ratio (x) = 0.08477 0.41753
# Poissons Ratio (y) = 0.04529 0.29291
# Poissons Ratio (z) = 0.30633 0.40223
#
# Static dielectric constant tensor:
#      x y z
#    x 1.867870 0.000000 0.000000 
#    y 0.000000 1.760100 0.000000 
#    z 0.000000 0.000000 1.864030 
# 
# From -- ./inp_files/17292.got.cif
#   From: 2010.05.17/outbox.cif.g08.bks.cpg/sg49_9_cif.got.tgz:17292.got - 2010.06.03 21:02:19.
