data_PCOD9392765
_publ_section_title
;
Structure prediction by ZEFSAII (Michael W. Deem and Ramdas Pophale) SiO2 
 PCOD9392765
Probable space group: P C C M
;
_chemical_formula_sum "Si O2"
_cell_formula_units_Z 64
_cell_length_a 16.946515
_cell_length_b 22.920154
_cell_length_c 7.789378
_cell_angle_alpha 90.000000
_cell_angle_beta 90.000000
_cell_angle_gamma 90.000000
_cell_volume 3025.524759
_symmetry_space_group_name_H-M "P C C M"
_symmetry_group_IT_number 49
_symmetry_cell_setting 'orthorhombic'
loop_
_space_group_symop_operation_xyz
x,y,z
-x,-y,z
x,-y,1/2-z
-x,y,1/2-z
-x,-y,-z
x,y,-z
-x,y,1/2+z
x,-y,1/2+z
loop_
_atom_site_type_symbol
_atom_site_label
_atom_site_fract_x
_atom_site_fract_y
_atom_site_fract_z
Si Si1 0.221436 0.308137 0.790750
Si Si2 0.586601 0.856235 0.707333
Si Si3 0.244366 0.563877 0.303305
Si Si4 0.583929 0.402227 0.205282
Si Si5 0.085041 0.219671 0.203670
Si Si6 0.608270 0.273072 0.801835
Si Si7 0.265632 0.934741 0.793223
Si Si8 0.910168 0.087617 0.193156
O O1 0.214925 0.374826 0.725221
O O2 0.149113 0.267035 0.749032
O O3 0.297885 0.278962 0.708684
O O4 0.231494 0.308471 0.000000
O O5 0.500000 0.881970 0.750000
O O6 0.592503 0.853772 0.500000
O O7 0.586656 0.789367 0.775721
O O8 0.665400 0.890413 0.768101
O O9 0.216965 0.500000 0.250000
O O10 0.223255 0.568331 0.500000
O O11 0.339223 0.567337 0.281198
O O12 0.500000 0.429253 0.250000
O O13 0.582431 0.335273 0.275490
O O14 0.594312 0.400687 0.000000
O O15 0.092559 0.157928 0.297997
O O16 0.000000 0.243940 0.250000
O O17 0.090169 0.207359 0.000000
O O18 0.581511 0.272922 0.000000
O O19 0.174880 0.929012 0.723827
O O20 0.292055 0.000000 0.750000
O O21 0.261000 0.926904 0.000000
O O22 0.000000 0.071857 0.250000
O O23 0.906263 0.065053 0.000000
#
# Coordination Sequence:
#
# PCOD9392765 Si02
#       8
#     8   8   8   8   8   8   8   8
#     4   9  19  33  51  75 104 134 167 208 254 301
#     4  10  21  37  55  78 105 138 178 223 270 316
#     4  10  20  35  51  69  94 127 168 212 251 294
#     4  10  19  31  48  72  99 129 161 200 250 304
#     4  10  19  32  52  81 111 138 165 199 246 303
#     4   9  18  32  52  76 103 131 165 207 257 313
#     4  10  23  40  57  77 106 142 182 223 265 311
#     4  10  20  36  58  85 114 143 172 211 260 316
#
# _framework density 21.153355000000001
#
# number of rings (size 3 to 8) (size 9 to 14) (size 15 to 20)
#    0.000    2.250    0.000    3.375    0.000    5.750 
#    0.000    3.750    0.000    0.375    0.000    2.625 
#    0.000    0.000    0.000    0.000    0.000    0.000 
#
# Total GULP energy -356804.169698 kJ/mol
# GULP energy per Si atom -5575.065152 kJ/mol
# Density = 2.110521 g / cm^3
# Si number density = 21.153355 Si / 1000 Ang^3
#
#
#
# Elastic Constant Matrix: (Units=GPa)
#
#
# Indices 1 2 3 4 5 6 
#
# 1 98.7077 43.6446 0.2313 0.0000 0.0000 0.0000
# 2 43.6446 95.2140 0.1702 0.0000 0.0000 0.0000
# 3 0.2313 0.1702 24.8497 0.0000 0.0000 0.0000
# 4 0.0000 0.0000 0.0000 19.3244 0.0000 0.0000
# 5 0.0000 0.0000 0.0000 0.0000 9.7203 0.0000
# 6 0.0000 0.0000 0.0000 0.0000 0.0000 -107.4398
#
#
#
# Elastic Compliance Matrix: (Units=1/GPa)
#
#
# Indices 1 2 3 4 5 6 
#
# 1 0.012706 -0.005824 -0.000078 0.000000 0.000000 0.000000
# 2 -0.005824 0.013172 -0.000036 0.000000 0.000000 0.000000
# 3 -0.000078 -0.000036 0.040243 0.000000 0.000000 0.000000
# 4 0.000000 0.000000 0.000000 0.051748 0.000000 0.000000
# 5 0.000000 0.000000 0.000000 0.000000 0.102878 0.000000
# 6 0.000000 0.000000 0.000000 0.000000 0.000000 -0.009308
#
#
# Mechanical properties :
#
#
# Convention : Reuss Voigt Hill
#
# Bulk Modulus (GPa) = 18.43503 34.09592 26.26548
# Shear Modulus (GPa) = 20.71263 -4.03066 8.34099
#
# Velocity S-wave (km/s) = 3.13256 -1.38188 1.98788
# Velocity P-wave (km/s) = 4.67095 3.68881 4.20863
#
# Compressibility (1/GPa) = 0.05424454
#
# Stress axis : x y z
#
# Youngs Moduli (GPa) = 78.70074 75.91591 24.84906
#
# Poissons Ratio (x) = 0.44215 0.00195
# Poissons Ratio (y) = 0.45837 0.00089
# Poissons Ratio (z) = 0.00617 0.00273
#
# Static dielectric constant tensor:
#      x y z
#    x 1.783850 0.000000 0.000000 
#    y 0.000000 1.789050 0.000000 
#    z 0.000000 0.000000 1.742470 
# 
# From -- ./inp_files/5317.got.cif
#   From: 2010.05.17/outbox.cif.g08.bks.cpg/sg49_3_cif.got.tgz:5317.got - 2010.06.03 21:02:19.
