data_PCOD9392657
_publ_section_title
;
Structure prediction by ZEFSAII (Michael W. Deem and Ramdas Pophale) SiO2 
 PCOD9392657
Probable space group: P C C M
;
_chemical_formula_sum "Si O2"
_cell_formula_units_Z 64
_cell_length_a 32.720791
_cell_length_b 14.870536
_cell_length_c 8.480461
_cell_angle_alpha 90.000000
_cell_angle_beta 90.000000
_cell_angle_gamma 90.000000
_cell_volume 4126.386252
_symmetry_space_group_name_H-M "P C C M"
_symmetry_group_IT_number 49
_symmetry_cell_setting 'orthorhombic'
loop_
_space_group_symop_operation_xyz
x,y,z
-x,-y,z
x,-y,1/2-z
-x,y,1/2-z
-x,-y,-z
x,y,-z
-x,y,1/2+z
x,-y,1/2+z
loop_
_atom_site_type_symbol
_atom_site_label
_atom_site_fract_x
_atom_site_fract_y
_atom_site_fract_z
Si Si1 0.042331 0.896783 0.688879
Si Si2 0.297049 0.213236 0.309268
Si Si3 0.424213 0.596212 0.189895
Si Si4 0.779728 0.897427 0.189210
Si Si5 0.622994 0.898627 0.309438
Si Si6 0.130531 0.897402 0.690185
Si Si7 0.543698 0.787111 0.309630
Si Si8 0.328852 0.596400 0.810045
O O1 0.040617 0.898515 0.500000
O O2 0.086523 0.857130 0.739650
O O3 0.000000 0.855038 0.750000
O O4 0.042674 0.000000 0.750000
O O5 0.296406 0.212683 0.500000
O O6 0.256443 0.165333 0.249284
O O7 0.336884 0.156366 0.258490
O O8 0.303838 0.316226 0.257027
O O9 0.439442 0.500000 0.250000
O O10 0.448257 0.684390 0.244418
O O11 0.376536 0.606100 0.239182
O O12 0.424949 0.595099 0.000000
O O13 0.824911 0.862419 0.240469
O O14 0.774619 0.000000 0.250000
O O15 0.778679 0.900478 0.000000
O O16 0.622942 0.898620 0.500000
O O17 0.581787 0.847964 0.257103
O O18 0.624425 0.000000 0.250000
O O19 0.130344 0.897717 0.500000
O O20 0.130283 0.000000 0.750000
O O21 0.500000 0.819299 0.250000
O O22 0.543672 0.786988 0.500000
O O23 0.313965 0.500000 0.750000
O O24 0.328681 0.595505 0.000000
#
# Coordination Sequence:
#
# PCOD9392657 Si02
#       8
#     8   8   8   8   8   8   8   8
#     4   9  14  20  30  45  65  93 131 175 219 258
#     4  10  19  33  51  69  91 116 141 175 217 256
#     4   9  17  32  52  72  94 118 139 165 202 245
#     4  10  19  30  43  62  87 116 150 186 222 261
#     4  10  21  37  53  68  89 115 143 176 213 250
#     4   8  15  25  35  48  72 104 137 176 220 259
#     4  10  21  37  53  69  92 118 142 170 207 249
#     4   9  17  31  51  72  93 116 139 168 207 250
#
# _framework density 15.509938999999999
#
# number of rings (size 3 to 8) (size 9 to 14) (size 15 to 20)
#    0.000    2.625    1.250    1.500    0.000    4.500 
#    0.000    2.500    0.000    0.000    0.000    0.000 
#    0.000    0.000    0.000    0.000    0.000    0.625 
#
# Total GULP energy -356465.262374 kJ/mol
# GULP energy per Si atom -5569.769725 kJ/mol
# Density = 1.547464 g / cm^3
# Si number density = 15.509939 Si / 1000 Ang^3
#
#
#
# Elastic Constant Matrix: (Units=GPa)
#
#
# Indices 1 2 3 4 5 6 
#
# 1 155.6787 58.2859 21.3505 0.0000 0.0000 0.0000
# 2 58.2859 83.9949 13.6687 0.0000 0.0000 0.0000
# 3 21.3505 13.6687 10.9711 0.0000 0.0000 0.0000
# 4 0.0000 0.0000 0.0000 19.6330 0.0000 0.0000
# 5 0.0000 0.0000 0.0000 0.0000 20.3093 0.0000
# 6 0.0000 0.0000 0.0000 0.0000 0.0000 4.1243
#
#
#
# Elastic Compliance Matrix: (Units=1/GPa)
#
#
# Indices 1 2 3 4 5 6 
#
# 1 0.010087 -0.004773 -0.013684 0.000000 0.000000 0.000000
# 2 -0.004773 0.017191 -0.012130 0.000000 0.000000 0.000000
# 3 -0.013684 -0.012130 0.132891 0.000000 0.000000 0.000000
# 4 0.000000 0.000000 0.000000 0.050935 0.000000 0.000000
# 5 0.000000 0.000000 0.000000 0.000000 0.049239 0.000000
# 6 0.000000 0.000000 0.000000 0.000000 0.000000 0.242467
#
#
# Mechanical properties :
#
#
# Convention : Reuss Voigt Hill
#
# Bulk Modulus (GPa) = 10.10142 48.58389 29.34265
# Shear Modulus (GPa) = 8.37545 19.30262 13.83904
#
# Velocity S-wave (km/s) = 2.32632 3.53162 2.99033
# Velocity P-wave (km/s) = 3.70712 6.92980 5.55720
#
# Compressibility (1/GPa) = 0.09899601
#
# Stress axis : x y z
#
# Youngs Moduli (GPa) = 99.13655 58.16841 7.52494
#
# Poissons Ratio (x) = 0.27763 0.10297
# Poissons Ratio (y) = 0.47316 0.09128
# Poissons Ratio (z) = 1.35657 0.70560
#
# Static dielectric constant tensor:
#      x y z
#    x 1.563370 0.000000 0.000000 
#    y 0.000000 1.488940 0.000000 
#    z 0.000000 0.000000 1.535570 
# 
# From -- ./inp_files/4539.got.cif
#   From: 2010.05.17/outbox.cif.g08.bks.cpg/sg49_3_cif.got.tgz:4539.got - 2010.06.03 21:02:19.
