data_PCOD9392682
_publ_section_title
;
Structure prediction by ZEFSAII (Michael W. Deem and Ramdas Pophale) SiO2 
 PCOD9392682
Probable space group: P C C M
;
_chemical_formula_sum "Si O2"
_cell_formula_units_Z 64
_cell_length_a 18.578142
_cell_length_b 23.990133
_cell_length_c 8.200495
_cell_angle_alpha 90.000000
_cell_angle_beta 90.000000
_cell_angle_gamma 90.000000
_cell_volume 3654.895817
_symmetry_space_group_name_H-M "P C C M"
_symmetry_group_IT_number 49
_symmetry_cell_setting 'orthorhombic'
loop_
_space_group_symop_operation_xyz
x,y,z
-x,-y,z
x,-y,1/2-z
-x,y,1/2-z
-x,-y,-z
x,y,-z
-x,y,1/2+z
x,-y,1/2+z
loop_
_atom_site_type_symbol
_atom_site_label
_atom_site_fract_x
_atom_site_fract_y
_atom_site_fract_z
Si Si1 0.916583 0.058532 0.694190
Si Si2 0.214309 0.749416 0.698891
Si Si3 0.581363 0.936655 0.693756
Si Si4 0.654342 0.830368 0.806215
Si Si5 0.578043 0.730566 0.312171
Si Si6 0.693902 0.651627 0.186469
Si Si7 0.917525 0.181026 0.302860
Si Si8 0.419892 0.435968 0.804223
O O1 0.914819 0.058172 0.500000
O O2 0.890152 0.119332 0.751290
O O3 0.000000 0.057728 0.750000
O O4 0.882829 0.000000 0.750000
O O5 0.214511 0.745795 0.500000
O O6 0.271529 0.798599 0.740340
O O7 0.240326 0.688240 0.759339
O O8 0.136725 0.771059 0.753970
O O9 0.500000 0.921304 0.750000
O O10 0.583155 0.934253 0.500000
O O11 0.640710 0.894337 0.763971
O O12 0.593842 0.000000 0.750000
O O13 0.593729 0.795612 0.710535
O O14 0.645436 0.823459 0.000000
O O15 0.500000 0.716857 0.250000
O O16 0.589370 0.714261 0.500000
O O17 0.632955 0.699224 0.194083
O O18 0.648667 0.599793 0.259187
O O19 0.712605 0.636784 0.000000
O O20 0.916184 0.180939 0.500000
O O21 0.000000 0.188145 0.250000
O O22 0.413440 0.500000 0.750000
O O23 0.500000 0.416523 0.750000
O O24 0.418973 0.432538 0.000000
#
# Coordination Sequence:
#
# PCOD9392682 Si02
#       8
#     8   8   8   8   8   8   8   8
#     4   9  15  23  38  59  83 108 136 168 207 254
#     4   8  16  32  51  67  89 120 152 184 226 278
#     4  11  21  34  50  68  88 113 148 190 235 282
#     4  10  19  33  49  64  85 114 147 186 229 276
#     4  11  20  29  43  64  88 115 148 186 225 267
#     4   9  18  32  48  66  89 122 159 193 228 270
#     4   9  17  30  48  69  91 118 149 185 230 283
#     4  10  19  30  46  68  96 129 165 199 232 267
#
# _framework density 17.510757999999999
#
# number of rings (size 3 to 8) (size 9 to 14) (size 15 to 20)
#    0.000    2.375    0.000    6.000    0.000    2.500 
#    0.000    3.750    0.000    1.500    0.000    0.000 
#    0.000    0.500    0.000    6.250    0.000    0.000 
#
# Total GULP energy -356301.137965 kJ/mol
# GULP energy per Si atom -5567.205281 kJ/mol
# Density = 1.747090 g / cm^3
# Si number density = 17.510758 Si / 1000 Ang^3
#
#
#
# Elastic Constant Matrix: (Units=GPa)
#
#
# Indices 1 2 3 4 5 6 
#
# 1 64.9962 48.2015 5.8646 0.0000 0.0000 0.0000
# 2 48.2015 100.2247 5.9908 0.0000 0.0000 0.0000
# 3 5.8646 5.9908 49.1170 0.0000 0.0000 0.0000
# 4 0.0000 0.0000 0.0000 16.1931 0.0000 0.0000
# 5 0.0000 0.0000 0.0000 0.0000 9.6980 0.0000
# 6 0.0000 0.0000 0.0000 0.0000 0.0000 28.1648
#
#
#
# Elastic Compliance Matrix: (Units=1/GPa)
#
#
# Indices 1 2 3 4 5 6 
#
# 1 0.024020 -0.011464 -0.001470 0.000000 0.000000 0.000000
# 2 -0.011464 0.015522 -0.000524 0.000000 0.000000 0.000000
# 3 -0.001470 -0.000524 0.020599 0.000000 0.000000 0.000000
# 4 0.000000 0.000000 0.000000 0.061755 0.000000 0.000000
# 5 0.000000 0.000000 0.000000 0.000000 0.103114 0.000000
# 6 0.000000 0.000000 0.000000 0.000000 0.000000 0.035505
#
#
# Mechanical properties :
#
#
# Convention : Reuss Voigt Hill
#
# Bulk Modulus (GPa) = 30.09804 37.16130 33.62967
# Shear Modulus (GPa) = 16.75003 21.09659 18.92331
#
# Velocity S-wave (km/s) = 3.09618 3.47476 3.29092
# Velocity P-wave (km/s) = 5.47790 6.11283 5.80405
#
# Compressibility (1/GPa) = 0.03322476
#
# Stress axis : x y z
#
# Youngs Moduli (GPa) = 41.63188 64.42276 48.54610
#
# Poissons Ratio (x) = 0.73856 0.07135
# Poissons Ratio (y) = 0.47728 0.02546
# Poissons Ratio (z) = 0.06119 0.03379
#
# Static dielectric constant tensor:
#      x y z
#    x 1.626360 0.000000 0.000000 
#    y 0.000000 1.656960 0.000000 
#    z 0.000000 0.000000 1.616220 
# 
# From -- ./inp_files/6135.got.cif
#   From: 2010.05.17/outbox.cif.g08.bks.cpg/sg49_4_cif.got.tgz:6135.got - 2010.06.03 21:02:19.
