data_PCOD9392820
_publ_section_title
;
Structure prediction by ZEFSAII (Michael W. Deem and Ramdas Pophale) SiO2 
 PCOD9392820
Probable space group: P C C M
;
_chemical_formula_sum "Si O2"
_cell_formula_units_Z 46
_cell_length_a 11.328928
_cell_length_b 10.723911
_cell_length_c 18.463947
_cell_angle_alpha 90.000000
_cell_angle_beta 90.000000
_cell_angle_gamma 90.000000
_cell_volume 2243.192595
_symmetry_space_group_name_H-M "P C C M"
_symmetry_group_IT_number 49
_symmetry_cell_setting 'orthorhombic'
loop_
_space_group_symop_operation_xyz
x,y,z
-x,-y,z
x,-y,1/2-z
-x,y,1/2-z
-x,-y,-z
x,y,-z
-x,y,1/2+z
x,-y,1/2+z
loop_
_atom_site_type_symbol
_atom_site_label
_atom_site_fract_x
_atom_site_fract_y
_atom_site_fract_z
Si Si1 0.215788 0.624460 0.333650
Si Si2 0.856575 0.120654 0.618717
Si Si3 0.377342 0.428871 0.582772
Si Si4 0.870204 0.848637 0.580566
Si Si5 0.736313 0.000000 0.250000
Si Si6 0.000000 0.500000 0.750000
Si Si7 0.687953 0.246743 0.808401
O O1 0.203023 0.744140 0.386800
O O2 0.280195 0.513821 0.376342
O O3 0.289469 0.670411 0.262846
O O4 0.089165 0.580619 0.300800
O O5 0.992993 0.139891 0.601012
O O6 0.821135 0.991612 0.579431
O O7 0.824627 0.079804 0.700135
O O8 0.500000 0.500000 0.580132
O O9 0.343129 0.399441 0.500000
O O10 0.397733 0.310887 0.634804
O O11 0.858787 0.796380 0.500000
O O12 0.806304 0.770863 0.642874
O O13 0.658215 0.894562 0.287385
#
# Coordination Sequence:
#
# PCOD9392820 Si02
#       7
#     8   8   8   8   4   2   8
#     4  11  22  37  60  88 123 160 206 253 306 372
#     4   9  18  30  50  80 118 161 202 253 309 379
#     4  11  25  44  64  87 120 169 219 258 304 361
#     4  10  19  31  51  82 121 164 204 250 313 377
#     4   8  18  31  56  85 116 152 204 254 318 366
#     4  12  20  36  56  94 124 160 194 254 314 372
#     4  10  19  38  59  88 115 157 202 257 305 359
#
# _framework density 20.506487
#
# number of rings (size 3 to 8) (size 9 to 14) (size 15 to 20)
#    0.000    1.913    1.739    2.609    0.000   13.913 
#    0.000    0.435    0.000   15.652    0.000   23.130 
#    0.000    0.000    0.000    0.000    0.000    0.000 
#
# Total GULP energy -256272.449456 kJ/mol
# GULP energy per Si atom -5571.140206 kJ/mol
# Density = 2.045981 g / cm^3
# Si number density = 20.506487 Si / 1000 Ang^3
#
#
#
# Elastic Constant Matrix: (Units=GPa)
#
#
# Indices 1 2 3 4 5 6 
#
# 1 31.5168 19.8134 12.2250 0.0000 0.0000 0.0000
# 2 19.8134 95.0634 48.3813 0.0000 0.0000 0.0000
# 3 12.2250 48.3813 92.9894 0.0000 0.0000 0.0000
# 4 0.0000 0.0000 0.0000 -15.3047 0.0000 0.0000
# 5 0.0000 0.0000 0.0000 0.0000 18.5866 0.0000
# 6 0.0000 0.0000 0.0000 0.0000 0.0000 23.5722
#
#
#
# Elastic Compliance Matrix: (Units=1/GPa)
#
#
# Indices 1 2 3 4 5 6 
#
# 1 0.036603 -0.007045 -0.001146 0.000000 0.000000 0.000000
# 2 -0.007045 0.015664 -0.007224 0.000000 0.000000 0.000000
# 3 -0.001146 -0.007224 0.014663 0.000000 0.000000 0.000000
# 4 0.000000 0.000000 0.000000 -0.065339 0.000000 0.000000
# 5 0.000000 0.000000 0.000000 0.000000 0.053802 0.000000
# 6 0.000000 0.000000 0.000000 0.000000 0.000000 0.042423
#
#
# Mechanical properties :
#
#
# Convention : Reuss Voigt Hill
#
# Bulk Modulus (GPa) = 27.70146 42.26767 34.98456
# Shear Modulus (GPa) = 35.54165 14.64746 25.09456
#
# Velocity S-wave (km/s) = 4.16768 2.67551 3.50199
# Velocity P-wave (km/s) = 6.05783 5.49555 5.78353
#
# Compressibility (1/GPa) = 0.03609918
#
# Stress axis : x y z
#
# Youngs Moduli (GPa) = 27.32011 63.84029 68.19893
#
# Poissons Ratio (x) = 0.44979 0.07818
# Poissons Ratio (y) = 0.19248 0.49264
# Poissons Ratio (z) = 0.03132 0.46116
#
# Static dielectric constant tensor:
#      x y z
#    x 1.703450 0.000000 0.000000 
#    y 0.000000 1.810150 0.000000 
#    z 0.000000 0.000000 1.785100 
# 
# From -- ./inp_files/17138.got.cif
#   From: 2010.05.17/outbox.cif.g08.bks.cpg/sg49_9_cif.got.tgz:17138.got - 2010.06.03 21:02:19.
