data_PCOD9392272
_publ_section_title
;
Structure prediction by ZEFSAII (Michael W. Deem and Ramdas Pophale) SiO2 
 PCOD9392272
Probable space group: P C C M
;
_chemical_formula_sum "Si O2"
_cell_formula_units_Z 64
_cell_length_a 12.214559
_cell_length_b 16.083628
_cell_length_c 17.447393
_cell_angle_alpha 90.000000
_cell_angle_beta 90.000000
_cell_angle_gamma 90.000000
_cell_volume 3427.617527
_symmetry_space_group_name_H-M "P C C M"
_symmetry_group_IT_number 49
_symmetry_cell_setting 'orthorhombic'
loop_
_space_group_symop_operation_xyz
x,y,z
-x,-y,z
x,-y,1/2-z
-x,y,1/2-z
-x,-y,-z
x,y,-z
-x,y,1/2+z
x,-y,1/2+z
loop_
_atom_site_type_symbol
_atom_site_label
_atom_site_fract_x
_atom_site_fract_y
_atom_site_fract_z
Si Si1 0.876545 0.834194 0.409143
Si Si2 0.872885 0.814724 0.908362
Si Si3 0.370461 0.592894 0.728828
Si Si4 0.499186 0.802729 0.583845
Si Si5 0.704338 0.322956 0.586031
Si Si6 0.692873 0.766623 0.700261
Si Si7 0.606744 0.915053 0.803235
Si Si8 0.755317 0.007944 0.410059
O O1 0.866156 0.811084 0.500000
O O2 0.797478 0.784690 0.352121
O O3 0.001698 0.821455 0.383533
O O4 0.837733 0.930387 0.404472
O O5 0.802892 0.734967 0.881852
O O6 0.813778 0.903242 0.897048
O O7 0.874917 0.804884 0.000000
O O8 0.335961 0.500000 0.750000
O O9 0.500000 0.600063 0.750000
O O10 0.337316 0.604708 0.640522
O O11 0.313938 0.673425 0.767300
O O12 0.548153 0.814077 0.500000
O O13 0.401031 0.737168 0.581106
O O14 0.588820 0.775593 0.644251
O O15 0.441784 0.884472 0.615381
O O16 0.732180 0.350590 0.500000
O O17 0.674845 0.839169 0.764227
O O18 0.500000 0.922123 0.750000
O O19 0.674387 0.994329 0.835531
O O20 0.714965 0.006472 0.500000
#
# Coordination Sequence:
#
# PCOD9392272 Si02
#       8
#     8   8   8   8   8   8   8   8
#     4  10  22  36  54  82 113 149 192 235 282 329
#     4   9  17  33  60  85 108 145 192 243 281 319
#     4  11  21  38  60  88 120 148 176 226 289 343
#     4  10  17  30  55  80 104 145 190 226 269 332
#     4  10  18  34  61  88 113 145 193 230 269 335
#     4  11  20  36  52  77 116 150 182 225 285 350
#     4  10  19  32  53  77 111 151 191 230 284 339
#     4  10  18  34  57  82 110 144 194 246 284 322
#
# _framework density 18.671862000000001
#
# number of rings (size 3 to 8) (size 9 to 14) (size 15 to 20)
#    0.000    1.875    3.750    1.500    0.000    2.000 
#    0.000   10.000    0.000   11.250    0.000    2.625 
#    0.000    0.000    0.000    0.000    0.000    0.000 
#
# Total GULP energy -356679.593118 kJ/mol
# GULP energy per Si atom -5573.118642 kJ/mol
# Density = 1.862936 g / cm^3
# Si number density = 18.671862 Si / 1000 Ang^3
#
#
#
# Elastic Constant Matrix: (Units=GPa)
#
#
# Indices 1 2 3 4 5 6 
#
# 1 95.5721 29.7712 40.2187 0.0000 0.0000 0.0000
# 2 29.7712 99.5018 47.1373 0.0000 0.0000 0.0000
# 3 40.2187 47.1373 94.6395 0.0000 0.0000 0.0000
# 4 0.0000 0.0000 0.0000 27.6806 0.0000 0.0000
# 5 0.0000 0.0000 0.0000 0.0000 -0.0081 0.0000
# 6 0.0000 0.0000 0.0000 0.0000 0.0000 10.8334
#
#
#
# Elastic Compliance Matrix: (Units=1/GPa)
#
#
# Indices 1 2 3 4 5 6 
#
# 1 0.012948 -0.001659 -0.004676 0.000000 0.000000 0.000000
# 2 -0.001659 0.013366 -0.005952 0.000000 0.000000 0.000000
# 3 -0.004676 -0.005952 0.015518 0.000000 0.000000 0.000000
# 4 0.000000 0.000000 0.000000 0.036126 0.000000 0.000000
# 5 0.000000 0.000000 0.000000 0.000000********** 0.000000
# 6 0.000000 0.000000 0.000000 0.000000 0.000000 0.092307
#
#
# Mechanical properties :
#
#
# Convention : Reuss Voigt Hill
#
# Bulk Modulus (GPa) = 57.94530 58.21865 58.08198
# Shear Modulus (GPa) = -0.04054 19.20694 9.58320
#
# Velocity S-wave (km/s) = -0.14752 3.21075 2.26794
# Velocity P-wave (km/s) = 5.57421 6.70767 6.16703
#
# Compressibility (1/GPa) = 0.01725766
#
# Stress axis : x y z
#
# Youngs Moduli (GPa) = 77.23279 74.81538 64.43964
#
# Poissons Ratio (x) = 0.12410 0.30134
# Poissons Ratio (y) = 0.12811 0.38357
# Poissons Ratio (z) = 0.36116 0.44533
#
# Static dielectric constant tensor:
#      x y z
#    x 1.685640 0.000000 0.000000 
#    y 0.000000 1.646730 0.000000 
#    z 0.000000 0.000000 0.929270 
# 
# From -- ./inp_files/17254.got.cif
#   From: 2010.05.17/outbox.cif.g08.bks.cpg/sg49_9_cif.got.tgz:17254.got - 2010.06.03 21:02:19.
