data_PCOD9392311
_publ_section_title
;
Structure prediction by ZEFSAII (Michael W. Deem and Ramdas Pophale) SiO2 
 PCOD9392311
Probable space group: P C C M
;
_chemical_formula_sum "Si O2"
_cell_formula_units_Z 64
_cell_length_a 26.846285
_cell_length_b 18.719151
_cell_length_c 8.888275
_cell_angle_alpha 90.000000
_cell_angle_beta 90.000000
_cell_angle_gamma 90.000000
_cell_volume 4466.710721
_symmetry_space_group_name_H-M "P C C M"
_symmetry_group_IT_number 49
_symmetry_cell_setting 'orthorhombic'
loop_
_space_group_symop_operation_xyz
x,y,z
-x,-y,z
x,-y,1/2-z
-x,y,1/2-z
-x,-y,-z
x,y,-z
-x,y,1/2+z
x,-y,1/2+z
loop_
_atom_site_type_symbol
_atom_site_label
_atom_site_fract_x
_atom_site_fract_y
_atom_site_fract_z
Si Si1 0.850162 0.831789 0.819887
Si Si2 0.641901 0.333573 0.679820
Si Si3 0.248668 0.921659 0.319594
Si Si4 0.445706 0.422850 0.680779
Si Si5 0.798535 0.296674 0.172678
Si Si6 0.053102 0.078185 0.181370
Si Si7 0.257240 0.422036 0.178766
Si Si8 0.304302 0.205356 0.325745
O O1 0.804748 0.885525 0.779974
O O2 0.839099 0.755645 0.745176
O O3 0.902320 0.868145 0.779153
O O4 0.848508 0.822974 0.000000
O O5 0.634436 0.333417 0.500000
O O6 0.594569 0.365664 0.764725
O O7 0.689460 0.384744 0.713508
O O8 0.656654 0.255069 0.738513
O O9 0.252087 0.924614 0.500000
O O10 0.290688 0.868876 0.253781
O O11 0.251812 0.000000 0.250000
O O12 0.431085 0.500000 0.750000
O O13 0.500000 0.406689 0.750000
O O14 0.448184 0.427376 0.500000
O O15 0.785212 0.368985 0.259445
O O16 0.747330 0.250502 0.177296
O O17 0.810385 0.312125 0.000000
O O18 0.000000 0.100483 0.250000
O O19 0.064100 0.000000 0.250000
O O20 0.049779 0.072736 0.000000
O O21 0.254853 0.500000 0.250000
O O22 0.253349 0.427100 0.000000
O O23 0.318288 0.195394 0.500000
#
# Coordination Sequence:
#
# PCOD9392311 Si02
#       8
#     8   8   8   8   8   8   8   8
#     4   9  18  30  43  59  82 112 144 176 214 255
#     4  10  19  31  46  64  86 115 147 179 215 255
#     4  10  18  28  42  61  85 113 144 178 214 255
#     4  11  21  33  47  64  87 115 147 184 220 255
#     4   9  17  28  43  61  82 108 140 175 211 251
#     4  10  19  30  43  60  83 111 143 180 216 252
#     4  10  19  29  43  62  87 115 144 176 210 250
#     4   9  17  29  43  61  84 111 142 176 212 253
#
# _framework density 14.328217
#
# number of rings (size 3 to 8) (size 9 to 14) (size 15 to 20)
#    0.000    2.250    0.000    4.875    0.000    7.000 
#    0.000    0.000    0.000    0.000    0.000    0.000 
#    0.000    1.000    0.000   10.250    0.000    5.875 
#
# Total GULP energy -356917.876941 kJ/mol
# GULP energy per Si atom -5576.841827 kJ/mol
# Density = 1.429561 g / cm^3
# Si number density = 14.328217 Si / 1000 Ang^3
#
#
#
# Elastic Constant Matrix: (Units=GPa)
#
#
# Indices 1 2 3 4 5 6 
#
# 1 68.9799 45.1647 41.9177 0.0000 0.0000 0.0000
# 2 45.1647 106.2811 54.7066 0.0000 0.0000 0.0000
# 3 41.9177 54.7066 80.9445 0.0000 0.0000 0.0000
# 4 0.0000 0.0000 0.0000 29.2689 0.0000 0.0000
# 5 0.0000 0.0000 0.0000 0.0000 17.5485 0.0000
# 6 0.0000 0.0000 0.0000 0.0000 0.0000 26.3888
#
#
#
# Elastic Compliance Matrix: (Units=1/GPa)
#
#
# Indices 1 2 3 4 5 6 
#
# 1 0.023157 -0.005625 -0.008191 0.000000 0.000000 0.000000
# 2 -0.005625 0.015795 -0.007762 0.000000 0.000000 0.000000
# 3 -0.008191 -0.007762 0.021842 0.000000 0.000000 0.000000
# 4 0.000000 0.000000 0.000000 0.034166 0.000000 0.000000
# 5 0.000000 0.000000 0.000000 0.000000 0.056985 0.000000
# 6 0.000000 0.000000 0.000000 0.000000 0.000000 0.037895
#
#
# Mechanical properties :
#
#
# Convention : Reuss Voigt Hill
#
# Bulk Modulus (GPa) = 56.69355 59.97596 58.33475
# Shear Modulus (GPa) = 20.93161 22.26902 21.60031
#
# Velocity S-wave (km/s) = 3.82627 3.94662 3.88691
# Velocity P-wave (km/s) = 7.69247 7.91942 7.80677
#
# Compressibility (1/GPa) = 0.01763869
#
# Stress axis : x y z
#
# Youngs Moduli (GPa) = 43.18351 63.31247 45.78402
#
# Poissons Ratio (x) = 0.35612 0.37500
# Poissons Ratio (y) = 0.24290 0.35538
# Poissons Ratio (z) = 0.35370 0.49144
#
# Static dielectric constant tensor:
#      x y z
#    x 1.459250 0.000000 0.000000 
#    y 0.000000 1.455710 0.000000 
#    z 0.000000 0.000000 1.479550 
# 
# From -- ./inp_files/5447.got.cif
#   From: 2010.05.17/outbox.cif.g08.bks.cpg/sg49_3_cif.got.tgz:5447.got - 2010.06.03 21:02:19.
