data_PCOD9392934
_publ_section_title
;
Structure prediction by ZEFSAII (Michael W. Deem and Ramdas Pophale) SiO2 
 PCOD9392934
Probable space group: P C C M
;
_chemical_formula_sum "Si O2"
_cell_formula_units_Z 56
_cell_length_a 15.409224
_cell_length_b 23.198804
_cell_length_c 8.487281
_cell_angle_alpha 90.000000
_cell_angle_beta 90.000000
_cell_angle_gamma 90.000000
_cell_volume 3033.995591
_symmetry_space_group_name_H-M "P C C M"
_symmetry_group_IT_number 49
_symmetry_cell_setting 'orthorhombic'
loop_
_space_group_symop_operation_xyz
x,y,z
-x,-y,z
x,-y,1/2-z
-x,y,1/2-z
-x,-y,-z
x,y,-z
-x,y,1/2+z
x,-y,1/2+z
loop_
_atom_site_type_symbol
_atom_site_label
_atom_site_fract_x
_atom_site_fract_y
_atom_site_fract_z
Si Si1 0.595051 0.294377 0.809841
Si Si2 0.222967 0.660759 0.190852
Si Si3 0.905857 0.435098 0.687433
Si Si4 0.595236 0.161663 0.809769
Si Si5 0.093170 0.105690 0.310046
Si Si6 0.906248 0.761006 0.310278
Si Si7 0.276124 0.061191 0.309688
O O1 0.500000 0.311711 0.750000
O O2 0.677131 0.332390 0.758397
O O3 0.611294 0.227794 0.759189
O O4 0.593160 0.294760 0.000000
O O5 0.170353 0.606530 0.255091
O O6 0.169608 0.718022 0.239965
O O7 0.221514 0.658474 0.000000
O O8 0.893418 0.500000 0.750000
O O9 0.909148 0.436143 0.500000
O O10 0.000000 0.414715 0.750000
O O11 0.500000 0.145250 0.750000
O O12 0.666070 0.115353 0.756654
O O13 0.595727 0.161751 0.000000
O O14 0.091711 0.105091 0.500000
O O15 0.104954 0.172621 0.258818
O O16 0.176997 0.070716 0.255587
O O17 0.000000 0.085146 0.250000
O O18 0.907299 0.761188 0.500000
O O19 0.000000 0.740890 0.250000
O O20 0.276554 0.061118 0.500000
O O21 0.309494 0.000000 0.250000
#
# Coordination Sequence:
#
# PCOD9392934 Si02
#       7
#     8   8   8   8   8   8   8
#     4   9  18  33  54  78 105 135 169 209 256 308
#     4  10  19  32  52  78 107 139 172 210 256 305
#     4  11  22  37  56  79 110 147 184 219 253 294
#     4   9  18  34  54  75  99 130 163 201 251 306
#     4   9  18  33  50  68  92 125 161 200 245 297
#     4   9  17  29  47  71  99 128 160 198 246 301
#     4  10  21  35  50  68  93 124 162 204 249 299
#
# _framework density 18.457509000000002
#
# number of rings (size 3 to 8) (size 9 to 14) (size 15 to 20)
#    0.000    2.429    0.000    3.000    0.000    7.429 
#    0.000    2.857    0.000    9.000    0.000    3.000 
#    0.000    0.000    0.000    0.000    0.000    0.000 
#
# Total GULP energy -312501.024060 kJ/mol
# GULP energy per Si atom -5580.375430 kJ/mol
# Density = 1.841550 g / cm^3
# Si number density = 18.457509 Si / 1000 Ang^3
#
#
#
# Elastic Constant Matrix: (Units=GPa)
#
#
# Indices 1 2 3 4 5 6 
#
# 1 154.2370 68.0565 28.7030 0.0000 0.0000 0.0000
# 2 68.0565 65.7964 17.2495 0.0000 0.0000 0.0000
# 3 28.7030 17.2495 22.6772 0.0000 0.0000 0.0000
# 4 0.0000 0.0000 0.0000 24.0729 0.0000 0.0000
# 5 0.0000 0.0000 0.0000 0.0000 28.3120 0.0000
# 6 0.0000 0.0000 0.0000 0.0000 0.0000 18.3070
#
#
#
# Elastic Compliance Matrix: (Units=1/GPa)
#
#
# Indices 1 2 3 4 5 6 
#
# 1 0.012929 -0.011345 -0.007735 0.000000 0.000000 0.000000
# 2 -0.011345 0.028940 -0.007653 0.000000 0.000000 0.000000
# 3 -0.007735 -0.007653 0.059708 0.000000 0.000000 0.000000
# 4 0.000000 0.000000 0.000000 0.041540 0.000000 0.000000
# 5 0.000000 0.000000 0.000000 0.000000 0.035321 0.000000
# 6 0.000000 0.000000 0.000000 0.000000 0.000000 0.054624
#
#
# Mechanical properties :
#
#
# Convention : Reuss Voigt Hill
#
# Bulk Modulus (GPa) = 20.78526 52.30320 36.54423
# Shear Modulus (GPa) = 16.52534 22.71850 19.62192
#
# Velocity S-wave (km/s) = 2.99543 3.51216 3.26404
# Velocity P-wave (km/s) = 4.82173 6.69669 5.83501
#
# Compressibility (1/GPa) = 0.04811101
#
# Stress axis : x y z
#
# Youngs Moduli (GPa) = 77.34519 34.55432 16.74807
#
# Poissons Ratio (x) = 0.39203 0.12954
# Poissons Ratio (y) = 0.87751 0.12817
# Poissons Ratio (z) = 0.59824 0.26445
#
# Static dielectric constant tensor:
#      x y z
#    x 1.634060 0.000000 0.000000 
#    y 0.000000 1.629710 0.000000 
#    z 0.000000 0.000000 1.634170 
# 
# From -- ./inp_files/4010.got.cif
#   From: 2010.05.17/outbox.cif.g08.bks.cpg/sg49_3_cif.got.tgz:4010.got - 2010.06.03 21:02:19.
