data_PCOD9392791
_publ_section_title
;
Structure prediction by ZEFSAII (Michael W. Deem and Ramdas Pophale) SiO2 
 PCOD9392791
Probable space group: P C C M
;
_chemical_formula_sum "Si O2"
_cell_formula_units_Z 56
_cell_length_a 22.979834
_cell_length_b 15.376890
_cell_length_c 8.711876
_cell_angle_alpha 90.000000
_cell_angle_beta 90.000000
_cell_angle_gamma 90.000000
_cell_volume 3078.414387
_symmetry_space_group_name_H-M "P C C M"
_symmetry_group_IT_number 49
_symmetry_cell_setting 'orthorhombic'
loop_
_space_group_symop_operation_xyz
x,y,z
-x,-y,z
x,-y,1/2-z
-x,y,1/2-z
-x,-y,-z
x,y,-z
-x,y,1/2+z
x,-y,1/2+z
loop_
_atom_site_type_symbol
_atom_site_label
_atom_site_fract_x
_atom_site_fract_y
_atom_site_fract_z
Si Si1 0.207047 0.406676 0.315657
Si Si2 0.832468 0.778227 0.314631
Si Si3 0.935693 0.094017 0.184655
Si Si4 0.738352 0.092784 0.683748
Si Si5 0.560942 0.721615 0.184267
Si Si6 0.397770 0.091518 0.184133
Si Si7 0.657235 0.594501 0.684220
O O1 0.189098 0.500000 0.250000
O O2 0.204529 0.412009 0.500000
O O3 0.170917 0.322236 0.264924
O O4 0.274954 0.391052 0.273406
O O5 0.829028 0.779623 0.500000
O O6 0.890027 0.831540 0.269994
O O7 0.777432 0.830586 0.249986
O O8 0.000000 0.111100 0.250000
O O9 0.916991 0.000000 0.250000
O O10 0.938188 0.088777 0.000000
O O11 0.742187 0.091500 0.500000
O O12 0.670417 0.102163 0.727796
O O13 0.758640 0.000000 0.750000
O O14 0.500000 0.688092 0.250000
O O15 0.569393 0.821867 0.235095
O O16 0.614861 0.666125 0.245898
O O17 0.560479 0.718730 0.000000
O O18 0.419082 0.000000 0.250000
O O19 0.400369 0.086902 0.000000
O O20 0.640964 0.500000 0.750000
O O21 0.652895 0.594685 0.500000
#
# Coordination Sequence:
#
# PCOD9392791 Si02
#       7
#     8   8   8   8   8   8   8
#     4   9  19  35  55  80 108 135 167 207 255 307
#     4  10  20  33  51  77 107 138 171 213 258 302
#     4  10  20  34  52  74 105 142 180 217 254 296
#     4  10  19  31  49  75 104 134 167 205 252 307
#     4  11  23  38  54  75 101 130 169 213 254 302
#     4   9  20  36  53  73 100 133 168 208 253 302
#     4  10  20  36  58  81 105 134 164 202 254 310
#
# _framework density 18.191182999999999
#
# number of rings (size 3 to 8) (size 9 to 14) (size 15 to 20)
#    0.000    2.143    0.000    3.429    0.000    5.714 
#    0.000    2.857    0.000    0.429    0.000    3.000 
#    0.000    0.000    0.000    0.000    0.000    0.000 
#
# Total GULP energy -312701.484511 kJ/mol
# GULP energy per Si atom -5583.955081 kJ/mol
# Density = 1.814978 g / cm^3
# Si number density = 18.191183 Si / 1000 Ang^3
#
#
#
# Elastic Constant Matrix: (Units=GPa)
#
#
# Indices 1 2 3 4 5 6 
#
# 1 63.4850 61.4695 23.1607 0.0000 0.0000 0.0000
# 2 61.4695 150.8025 31.0583 0.0000 0.0000 0.0000
# 3 23.1607 31.0583 28.3414 0.0000 0.0000 0.0000
# 4 0.0000 0.0000 0.0000 30.3948 0.0000 0.0000
# 5 0.0000 0.0000 0.0000 0.0000 15.2558 0.0000
# 6 0.0000 0.0000 0.0000 0.0000 0.0000 -33.9951
#
#
#
# Elastic Compliance Matrix: (Units=1/GPa)
#
#
# Indices 1 2 3 4 5 6 
#
# 1 0.029936 -0.009252 -0.014325 0.000000 0.000000 0.000000
# 2 -0.009252 0.011424 -0.004958 0.000000 0.000000 0.000000
# 3 -0.014325 -0.004958 0.052423 0.000000 0.000000 0.000000
# 4 0.000000 0.000000 0.000000 0.032900 0.000000 0.000000
# 5 0.000000 0.000000 0.000000 0.000000 0.065549 0.000000
# 6 0.000000 0.000000 0.000000 0.000000 0.000000 -0.029416
#
#
# Mechanical properties :
#
#
# Convention : Reuss Voigt Hill
#
# Bulk Modulus (GPa) = 27.23786 52.66730 39.95258
# Shear Modulus (GPa) = 21.54022 10.79380 16.16701
#
# Velocity S-wave (km/s) = 3.44481 2.43853 2.98439
# Velocity P-wave (km/s) = 5.55229 6.07812 5.82114
#
# Compressibility (1/GPa) = 0.03671361
#
# Stress axis : x y z
#
# Youngs Moduli (GPa) = 33.40433 87.53801 19.07548
#
# Poissons Ratio (x) = 0.80992 0.27325
# Poissons Ratio (y) = 0.30906 0.09457
# Poissons Ratio (z) = 0.47851 0.43399
#
# Static dielectric constant tensor:
#      x y z
#    x 1.613770 0.000000 0.000000 
#    y 0.000000 1.624840 0.000000 
#    z 0.000000 0.000000 1.614630 
# 
# From -- ./inp_files/4088.got.cif
#   From: 2010.05.17/outbox.cif.g08.bks.cpg/sg49_3_cif.got.tgz:4088.got - 2010.06.03 21:02:19.
