data_PCOD9392237
_publ_section_title
;
Structure prediction by ZEFSAII (Michael W. Deem and Ramdas Pophale) SiO2 
 PCOD9392237
Probable space group: P C C M
;
_chemical_formula_sum "Si O2"
_cell_formula_units_Z 40
_cell_length_a 9.256151
_cell_length_b 26.527937
_cell_length_c 8.560128
_cell_angle_alpha 90.000000
_cell_angle_beta 90.000000
_cell_angle_gamma 90.000000
_cell_volume 2101.910245
_symmetry_space_group_name_H-M "P C C M"
_symmetry_group_IT_number 49
_symmetry_cell_setting 'orthorhombic'
loop_
_space_group_symop_operation_xyz
x,y,z
-x,-y,z
x,-y,1/2-z
-x,y,1/2-z
-x,-y,-z
x,y,-z
-x,y,1/2+z
x,-y,1/2+z
loop_
_atom_site_type_symbol
_atom_site_label
_atom_site_fract_x
_atom_site_fract_y
_atom_site_fract_z
Si Si1 0.337304 0.245865 0.187198
Si Si2 0.837714 0.850179 0.687136
Si Si3 0.165260 0.552157 0.686789
Si Si4 0.164318 0.341880 0.312926
Si Si5 0.337679 0.944862 0.687320
O O1 0.500000 0.245012 0.250000
O O2 0.254010 0.196797 0.249299
O O3 0.256441 0.295341 0.250507
O O4 0.336556 0.245938 0.000000
O O5 0.837055 0.849735 0.500000
O O6 0.765714 0.901446 0.749243
O O7 0.000000 0.846018 0.750000
O O8 0.231794 0.500000 0.750000
O O9 0.163526 0.551962 0.500000
O O10 0.226119 0.604753 0.750766
O O11 0.000000 0.552356 0.750000
O O12 0.160725 0.342460 0.500000
O O13 0.000000 0.336831 0.250000
O O14 0.500000 0.935410 0.750000
O O15 0.339492 0.945066 0.500000
O O16 0.294318 0.000000 0.750000
#
# Coordination Sequence:
#
# PCOD9392237 Si02
#       5
#     8   8   8   8   8
#     4  12  25  43  63  87 116 153 195 241 292 351
#     4  12  25  43  64  91 122 157 197 245 296 349
#     4  10  17  28  47  76 111 149 189 236 287 343
#     4  11  21  36  57  85 117 153 193 241 292 346
#     4  11  22  40  64  93 125 163 203 245 291 346
#
# _framework density 19.030308000000002
#
# number of rings (size 3 to 8) (size 9 to 14) (size 15 to 20)
#    0.000    0.800    0.000   12.600    0.000    0.400 
#    0.000    2.000    0.000    0.600    0.000    4.200 
#    0.000    0.000    0.000    0.000    0.000    0.000 
#
# Total GULP energy -223775.174875 kJ/mol
# GULP energy per Si atom -5594.379372 kJ/mol
# Density = 1.898699 g / cm^3
# Si number density = 19.030308 Si / 1000 Ang^3
#
#
#
# Elastic Constant Matrix: (Units=GPa)
#
#
# Indices 1 2 3 4 5 6 
#
# 1 110.1275 107.8125 67.3027 0.0000 0.0000 0.0000
# 2 107.8125 197.2927 97.0719 0.0000 0.0000 0.0000
# 3 67.3027 97.0719 260.6404 0.0000 0.0000 0.0000
# 4 0.0000 0.0000 0.0000 40.7454 0.0000 0.0000
# 5 0.0000 0.0000 0.0000 0.0000 32.5655 0.0000
# 6 0.0000 0.0000 0.0000 0.0000 0.0000 311.2270
#
#
#
# Elastic Compliance Matrix: (Units=1/GPa)
#
#
# Indices 1 2 3 4 5 6 
#
# 1 0.019898 -0.010218 -0.001333 0.000000 0.000000 0.000000
# 2 -0.010218 0.011453 -0.001627 0.000000 0.000000 0.000000
# 3 -0.001333 -0.001627 0.004787 0.000000 0.000000 0.000000
# 4 0.000000 0.000000 0.000000 0.024543 0.000000 0.000000
# 5 0.000000 0.000000 0.000000 0.000000 0.030707 0.000000
# 6 0.000000 0.000000 0.000000 0.000000 0.000000 0.003213
#
#
# Mechanical properties :
#
#
# Convention : Reuss Voigt Hill
#
# Bulk Modulus (GPa) = 102.22146 123.60386 112.91266
# Shear Modulus (GPa) = 40.25276 96.63248 68.44262
#
# Velocity S-wave (km/s) = 4.60411 7.13361 6.00359
# Velocity P-wave (km/s) = 9.06066 11.53010 10.36916
#
# Compressibility (1/GPa) = 0.00978268
#
# Stress axis : x y z
#
# Youngs Moduli (GPa) = 50.25748 87.31641 208.91025
#
# Poissons Ratio (x) = 0.89216 0.27839
# Poissons Ratio (y) = 0.51351 0.33989
# Poissons Ratio (z) = 0.06697 0.14206
#
# Static dielectric constant tensor:
#      x y z
#    x 1.642350 0.000000 0.000000 
#    y 0.000000 1.676830 0.000000 
#    z 0.000000 0.000000 1.629470 
# 
# From -- ./inp_files/1699.got.cif
#   From: 2010.05.17/outbox.cif.g08.bks.cpg/sg49_1_cif.got.tgz:1699.got - 2010.06.03 21:02:19.
