data_PCOD9392146
_publ_section_title
;
Structure prediction by ZEFSAII (Michael W. Deem and Ramdas Pophale) SiO2 
 PCOD9392146
Probable space group: P C C M
;
_chemical_formula_sum "Si O2"
_cell_formula_units_Z 58
_cell_length_a 14.842016
_cell_length_b 25.600630
_cell_length_c 8.867279
_cell_angle_alpha 90.000000
_cell_angle_beta 90.000000
_cell_angle_gamma 90.000000
_cell_volume 3369.255311
_symmetry_space_group_name_H-M "P C C M"
_symmetry_group_IT_number 49
_symmetry_cell_setting 'orthorhombic'
loop_
_space_group_symop_operation_xyz
x,y,z
-x,-y,z
x,-y,1/2-z
-x,y,1/2-z
-x,-y,-z
x,y,-z
-x,y,1/2+z
x,-y,1/2+z
loop_
_atom_site_type_symbol
_atom_site_label
_atom_site_fract_x
_atom_site_fract_y
_atom_site_fract_z
Si Si1 0.647463 0.416351 0.828450
Si Si2 0.500000 0.500000 0.250000
Si Si3 0.900558 0.160140 0.679950
Si Si4 0.835015 0.554277 0.820901
Si Si5 0.910668 0.342961 0.176815
Si Si6 0.591901 0.693449 0.178414
Si Si7 0.217071 0.737005 0.676287
Si Si8 0.898699 0.947254 0.681155
O O1 0.568495 0.459689 0.830247
O O2 0.731734 0.436275 0.731108
O O3 0.613717 0.362090 0.757294
O O4 0.678476 0.407710 0.000000
O O5 0.911515 0.151409 0.500000
O O6 0.832386 0.208171 0.702257
O O7 0.862208 0.107911 0.758992
O O8 0.000000 0.171184 0.750000
O O9 0.865802 0.500000 0.750000
O O10 0.891657 0.602095 0.755910
O O11 0.839709 0.552774 0.000000
O O12 0.828236 0.305644 0.217158
O O13 0.000000 0.318853 0.250000
O O14 0.921881 0.349338 0.000000
O O15 0.500000 0.713788 0.250000
O O16 0.676121 0.732322 0.199050
O O17 0.580626 0.684022 0.000000
O O18 0.200145 0.722361 0.500000
O O19 0.901395 0.949546 0.500000
O O20 0.000000 0.946358 0.750000
O O21 0.856105 0.000000 0.750000
#
# Coordination Sequence:
#
# PCOD9392146 Si02
#       8
#     8   2   8   8   8   8   8   8
#     4  12  24  38  57  82 107 136 168 207 262 322
#     4  12  26  36  60  82 116 132 170 212 264 332
#     4  10  19  32  50  76 109 148 190 232 274 320
#     4  12  25  42  61  81 107 134 168 210 260 318
#     4  12  25  41  62  84 108 139 178 219 268 321
#     4  11  23  39  59  81 109 140 176 221 269 326
#     4  10  22  39  58  80 111 146 182 226 276 322
#     4  10  17  27  44  69 104 147 190 232 273 318
#
# _framework density 17.214486000000001
#
# number of rings (size 3 to 8) (size 9 to 14) (size 15 to 20)
#    0.000    0.966    2.759    6.828    0.000    4.138 
#    0.000    1.379    0.000    0.000    0.000    0.000 
#    0.000    0.552    0.000    6.345    0.000    1.931 
#
# Total GULP energy -324036.024115 kJ/mol
# GULP energy per Si atom -5586.828002 kJ/mol
# Density = 1.717531 g / cm^3
# Si number density = 17.214486 Si / 1000 Ang^3
#
#
#
# Elastic Constant Matrix: (Units=GPa)
#
#
# Indices 1 2 3 4 5 6 
#
# 1 66.4882 27.1348 37.7376 0.0000 0.0000 0.0000
# 2 27.1348 91.8723 58.9719 0.0000 0.0000 0.0000
# 3 37.7376 58.9719 156.8684 0.0000 0.0000 0.0000
# 4 0.0000 0.0000 0.0000 15.1423 0.0000 0.0000
# 5 0.0000 0.0000 0.0000 0.0000 23.0243 0.0000
# 6 0.0000 0.0000 0.0000 0.0000 0.0000 3.0751
#
#
#
# Elastic Compliance Matrix: (Units=1/GPa)
#
#
# Indices 1 2 3 4 5 6 
#
# 1 0.018180 -0.003377 -0.003104 0.000000 0.000000 0.000000
# 2 -0.003377 0.014974 -0.004817 0.000000 0.000000 0.000000
# 3 -0.003104 -0.004817 0.008932 0.000000 0.000000 0.000000
# 4 0.000000 0.000000 0.000000 0.066040 0.000000 0.000000
# 5 0.000000 0.000000 0.000000 0.000000 0.043432 0.000000
# 6 0.000000 0.000000 0.000000 0.000000 0.000000 0.325196
#
#
# Mechanical properties :
#
#
# Convention : Reuss Voigt Hill
#
# Bulk Modulus (GPa) = 51.30663 62.54638 56.92651
# Shear Modulus (GPa) = 9.88439 21.00731 15.44585
#
# Velocity S-wave (km/s) = 2.39883 3.49711 2.99868
# Velocity P-wave (km/s) = 6.12711 7.26077 6.71790
#
# Compressibility (1/GPa) = 0.01949066
#
# Stress axis : x y z
#
# Youngs Moduli (GPa) = 55.00451 66.78255 111.95359
#
# Poissons Ratio (x) = 0.22554 0.34751
# Poissons Ratio (y) = 0.18576 0.53925
# Poissons Ratio (z) = 0.17074 0.32168
#
# Static dielectric constant tensor:
#      x y z
#    x 1.625580 0.000000 0.000000 
#    y 0.000000 1.607400 0.000000 
#    z 0.000000 0.000000 1.592930 
# 
# From -- ./inp_files/4256.got.cif
#   From: 2010.05.17/outbox.cif.g08.bks.cpg/sg49_3_cif.got.tgz:4256.got - 2010.06.03 21:02:19.
