data_PCOD9392043
_publ_section_title
;
Structure prediction by ZEFSAII (Michael W. Deem and Ramdas Pophale) SiO2 
 PCOD9392043
Probable space group: P C C M
;
_chemical_formula_sum "Si O2"
_cell_formula_units_Z 40
_cell_length_a 21.831407
_cell_length_b 5.405245
_cell_length_c 14.484872
_cell_angle_alpha 90.000000
_cell_angle_beta 90.000000
_cell_angle_gamma 90.000000
_cell_volume 1709.274335
_symmetry_space_group_name_H-M "P C C M"
_symmetry_group_IT_number 49
_symmetry_cell_setting 'orthorhombic'
loop_
_space_group_symop_operation_xyz
x,y,z
-x,-y,z
x,-y,1/2-z
-x,y,1/2-z
-x,-y,-z
x,y,-z
-x,y,1/2+z
x,-y,1/2+z
loop_
_atom_site_type_symbol
_atom_site_label
_atom_site_fract_x
_atom_site_fract_y
_atom_site_fract_z
Si Si1 0.025947 0.254131 0.144764
Si Si2 0.639737 0.083914 0.888441
Si Si3 0.567413 0.586695 0.111557
Si Si4 0.171722 0.727930 0.643953
Si Si5 0.777752 0.780538 0.647369
O O1 0.098774 0.285872 0.145356
O O2 0.000000 0.500000 0.100264
O O3 0.000000 0.251992 0.250000
O O4 0.000000 0.000000 0.104536
O O5 0.606925 0.343727 0.868913
O O6 0.707761 0.129576 0.851032
O O7 0.600821 0.841532 0.855965
O O8 0.644789 0.059469 0.000000
O O9 0.500000 0.500000 0.143612
O O10 0.562546 0.618076 0.000000
O O11 0.206958 0.487998 0.605322
O O12 0.195746 0.751474 0.749320
O O13 0.187930 0.991236 0.600841
#
# Coordination Sequence:
#
# PCOD9392043 Si02
#       5
#     8   8   8   8   8
#     4  10  16  25  41  63  91 111 139 189 236 274
#     4  10  19  30  47  71  95 120 150 184 227 275
#     4   9  17  30  47  68  93 117 145 187 235 273
#     4  10  19  30  45  67  93 123 153 182 227 276
#     4  10  18  30  44  64  95 123 150 183 217 273
#
# _framework density 23.401743
#
# number of rings (size 3 to 8) (size 9 to 14) (size 15 to 20)
#    0.000    2.200    0.000    7.800    0.000    2.400 
#    0.000    0.000    0.000    0.000    0.000   42.000 
#    0.000   59.200    0.000    0.000    0.000    0.000 
#
# Total GULP energy -223200.642619 kJ/mol
# GULP energy per Si atom -5580.016065 kJ/mol
# Density = 2.334848 g / cm^3
# Si number density = 23.401743 Si / 1000 Ang^3
#
#
#
# Elastic Constant Matrix: (Units=GPa)
#
#
# Indices 1 2 3 4 5 6 
#
# 1 230.1139 102.5061 8.6786 0.0000 0.0000 0.0000
# 2 102.5061 261.6039 34.0613 0.0000 0.0000 0.0000
# 3 8.6786 34.0613 79.3088 0.0000 0.0000 0.0000
# 4 0.0000 0.0000 0.0000 -14.4206 0.0000 0.0000
# 5 0.0000 0.0000 0.0000 0.0000 47.0431 0.0000
# 6 0.0000 0.0000 0.0000 0.0000 0.0000 -1.3126
#
#
#
# Elastic Compliance Matrix: (Units=1/GPa)
#
#
# Indices 1 2 3 4 5 6 
#
# 1 0.005273 -0.002109 0.000329 0.000000 0.000000 0.000000
# 2 -0.002109 0.004892 -0.001870 0.000000 0.000000 0.000000
# 3 0.000329 -0.001870 0.013376 0.000000 0.000000 0.000000
# 4 0.000000 0.000000 0.000000 -0.069345 0.000000 0.000000
# 5 0.000000 0.000000 0.000000 0.000000 0.021257 0.000000
# 6 0.000000 0.000000 0.000000 0.000000 0.000000 -0.761837
#
#
# Mechanical properties :
#
#
# Convention : Reuss Voigt Hill
#
# Bulk Modulus (GPa) = 61.57520 95.72428 78.64974
# Shear Modulus (GPa) = -6.46271 34.64734 14.09231
#
# Velocity S-wave (km/s) = -1.66362 3.85196 2.45662
# Velocity P-wave (km/s) = 4.76227 7.79596 6.45973
#
# Compressibility (1/GPa) = 0.01624030
#
# Stress axis : x y z
#
# Youngs Moduli (GPa) = 189.65714 204.39775 74.75926
#
# Poissons Ratio (x) = 0.43104 -0.02457
# Poissons Ratio (y) = 0.39995 0.13983
# Poissons Ratio (z) = -0.06234 0.38231
#
# Static dielectric constant tensor:
#      x y z
#    x 1.941900 0.000000 0.000000 
#    y 0.000000 1.907990 0.000000 
#    z 0.000000 0.000000 2.186770 
# 
# From -- ./inp_files/21121.got.cif
#   From: 2010.05.17/outbox.cif.g08.bks.cpg/sg49_11_cif.got.tgz:21121.got - 2010.06.03 21:02:19.
