data_PCOD9392848
_publ_section_title
;
Structure prediction by ZEFSAII (Michael W. Deem and Ramdas Pophale) SiO2 
 PCOD9392848
Probable space group: P C C M
;
_chemical_formula_sum "Si O2"
_cell_formula_units_Z 56
_cell_length_a 21.845488
_cell_length_b 18.766858
_cell_length_c 8.765228
_cell_angle_alpha 90.000000
_cell_angle_beta 90.000000
_cell_angle_gamma 90.000000
_cell_volume 3593.490789
_symmetry_space_group_name_H-M "P C C M"
_symmetry_group_IT_number 49
_symmetry_cell_setting 'orthorhombic'
loop_
_space_group_symop_operation_xyz
x,y,z
-x,-y,z
x,-y,1/2-z
-x,y,1/2-z
-x,-y,-z
x,y,-z
-x,y,1/2+z
x,-y,1/2+z
loop_
_atom_site_type_symbol
_atom_site_label
_atom_site_fract_x
_atom_site_fract_y
_atom_site_fract_z
Si Si1 0.934204 0.420584 0.316351
Si Si2 0.246721 0.796504 0.825260
Si Si3 0.182859 0.343140 0.684911
Si Si4 0.313984 0.077670 0.818885
Si Si5 0.697365 0.421566 0.317296
Si Si6 0.372691 0.295174 0.675902
Si Si7 0.435462 0.836901 0.682787
O O1 0.923451 0.500000 0.250000
O O2 0.935608 0.422987 0.500000
O O3 0.879696 0.371664 0.255044
O O4 0.000000 0.397566 0.250000
O O5 0.196393 0.739325 0.773064
O O6 0.261698 0.866410 0.729916
O O7 0.309158 0.749728 0.824107
O O8 0.234246 0.816964 0.000000
O O9 0.183133 0.348189 0.500000
O O10 0.239030 0.390213 0.749655
O O11 0.379103 0.112214 0.768482
O O12 0.305533 0.000000 0.750000
O O13 0.315557 0.072610 0.000000
O O14 0.687904 0.500000 0.250000
O O15 0.700976 0.423218 0.500000
O O16 0.644128 0.367521 0.262969
O O17 0.389361 0.308825 0.500000
O O18 0.420281 0.242316 0.755863
O O19 0.500000 0.861087 0.750000
O O20 0.437558 0.835762 0.500000
#
# Coordination Sequence:
#
# PCOD9392848 Si02
#       7
#     8   8   8   8   8   8   8
#     4  11  21  33  47  65  93 130 168 205 241 280
#     4   8  16  30  48  67  90 118 149 185 228 273
#     4  10  19  32  48  68  93 123 158 196 235 277
#     4  10  20  32  48  69  96 124 152 184 225 272
#     4  11  20  30  45  67  92 118 150 190 234 279
#     4   9  17  31  48  66  88 115 146 186 231 275
#     4  10  20  33  49  69  90 119 154 188 222 267
#
# _framework density 15.583734
#
# number of rings (size 3 to 8) (size 9 to 14) (size 15 to 20)
#    0.000    2.143    0.000    6.000    0.000    6.000 
#    0.000    1.429    0.000    0.429    0.000    3.000 
#    0.000    0.571    0.000    6.000    0.000    2.571 
#
# Total GULP energy -312324.735706 kJ/mol
# GULP energy per Si atom -5577.227423 kJ/mol
# Density = 1.554826 g / cm^3
# Si number density = 15.583734 Si / 1000 Ang^3
#
#
#
# Elastic Constant Matrix: (Units=GPa)
#
#
# Indices 1 2 3 4 5 6 
#
# 1 39.9643 29.8728 19.3200 0.0000 0.0000 0.0000
# 2 29.8728 115.7500 49.0790 0.0000 0.0000 0.0000
# 3 19.3200 49.0790 95.0927 0.0000 0.0000 0.0000
# 4 0.0000 0.0000 0.0000 24.6511 0.0000 0.0000
# 5 0.0000 0.0000 0.0000 0.0000 20.8883 0.0000
# 6 0.0000 0.0000 0.0000 0.0000 0.0000 17.2706
#
#
#
# Elastic Compliance Matrix: (Units=1/GPa)
#
#
# Indices 1 2 3 4 5 6 
#
# 1 0.031587 -0.006952 -0.002829 0.000000 0.000000 0.000000
# 2 -0.006952 0.012590 -0.005085 0.000000 0.000000 0.000000
# 3 -0.002829 -0.005085 0.013715 0.000000 0.000000 0.000000
# 4 0.000000 0.000000 0.000000 0.040566 0.000000 0.000000
# 5 0.000000 0.000000 0.000000 0.000000 0.047874 0.000000
# 6 0.000000 0.000000 0.000000 0.000000 0.000000 0.057902
#
#
# Mechanical properties :
#
#
# Convention : Reuss Voigt Hill
#
# Bulk Modulus (GPa) = 35.51346 49.70562 42.60954
# Shear Modulus (GPa) = 20.54620 22.73100 21.63860
#
# Velocity S-wave (km/s) = 3.63497 3.82335 3.73035
# Velocity P-wave (km/s) = 6.36047 7.17327 6.77906
#
# Compressibility (1/GPa) = 0.02815833
#
# Stress axis : x y z
#
# Youngs Moduli (GPa) = 31.65868 79.42960 72.91023
#
# Poissons Ratio (x) = 0.55222 0.20629
# Poissons Ratio (y) = 0.22010 0.37077
# Poissons Ratio (z) = 0.08957 0.40392
#
# Static dielectric constant tensor:
#      x y z
#    x 1.512920 0.000000 0.000000 
#    y 0.000000 1.515140 0.000000 
#    z 0.000000 0.000000 1.522000 
# 
# From -- ./inp_files/5182.got.cif
#   From: 2010.05.17/outbox.cif.g08.bks.cpg/sg49_3_cif.got.tgz:5182.got - 2010.06.03 21:02:19.
