data_PCOD9392579
_publ_section_title
;
Structure prediction by ZEFSAII (Michael W. Deem and Ramdas Pophale) SiO2 
 PCOD9392579
Probable space group: P C C M
;
_chemical_formula_sum "Si O2"
_cell_formula_units_Z 48
_cell_length_a 10.204242
_cell_length_b 7.881869
_cell_length_c 28.927838
_cell_angle_alpha 90.000000
_cell_angle_beta 90.000000
_cell_angle_gamma 90.000000
_cell_volume 2326.622581
_symmetry_space_group_name_H-M "P C C M"
_symmetry_group_IT_number 49
_symmetry_cell_setting 'orthorhombic'
loop_
_space_group_symop_operation_xyz
x,y,z
-x,-y,z
x,-y,1/2-z
-x,y,1/2-z
-x,-y,-z
x,y,-z
-x,y,1/2+z
x,-y,1/2+z
loop_
_atom_site_type_symbol
_atom_site_label
_atom_site_fract_x
_atom_site_fract_y
_atom_site_fract_z
Si Si1 0.730147 0.274933 0.338859
Si Si2 0.151002 0.706122 0.756058
Si Si3 0.507916 0.292894 0.098775
Si Si4 0.038111 0.191465 0.095508
Si Si5 0.779187 0.675938 0.358284
Si Si6 0.112917 0.358978 0.000000
Si Si7 0.582253 0.328798 0.500000
O O1 0.754080 0.236365 0.285192
O O2 0.591736 0.230673 0.361706
O O3 0.848151 0.192063 0.366744
O O4 0.751516 0.476841 0.348735
O O5 0.147238 0.500000 0.750000
O O6 0.201083 0.751503 0.807014
O O7 0.000000 0.763751 0.750000
O O8 0.500000 0.500000 0.098628
O O9 0.656765 0.251870 0.112809
O O10 0.457129 0.237343 0.048053
O O11 0.913845 0.297676 0.114094
O O12 0.089823 0.262201 0.047561
O O13 0.000000 0.000000 0.087710
O O14 0.000000 0.500000 0.000000
O O15 0.268029 0.393673 0.000000
O O16 0.500000 0.500000 0.500000
#
# Coordination Sequence:
#
# PCOD9392579 Si02
#       7
#     8   8   8   8   8   4   4
#     4  10  18  36  59  84 116 156 196 245 301 345
#     4   9  16  28  54  88 117 147 194 252 291 345
#     4   9  19  32  56  85 118 149 193 252 294 357
#     4  12  25  39  57  87 123 154 195 244 292 350
#     4  10  20  36  59  87 116 156 200 238 300 353
#     4  12  25  41  69  90 112 156 198 248 299 349
#     4  10  20  35  57  94 121 137 191 248 299 354
#
# _framework density 20.630763000000002
#
# number of rings (size 3 to 8) (size 9 to 14) (size 15 to 20)
#    0.000    1.833    3.333    1.750    4.667    0.667 
#    0.000    5.833    0.000    1.000    0.000    2.333 
#    0.000    0.000    0.000    0.000    0.000    0.000 
#
# Total GULP energy -267962.860394 kJ/mol
# GULP energy per Si atom -5582.559592 kJ/mol
# Density = 2.058381 g / cm^3
# Si number density = 20.630763 Si / 1000 Ang^3
#
#
#
# Elastic Constant Matrix: (Units=GPa)
#
#
# Indices 1 2 3 4 5 6 
#
# 1 135.2207 7.1272 55.7381 0.0000 0.0000 0.0000
# 2 7.1272 14.2539 4.8584 0.0000 0.0000 0.0000
# 3 55.7381 4.8584 124.6781 0.0000 0.0000 0.0000
# 4 0.0000 0.0000 0.0000 52.1630 0.0000 0.0000
# 5 0.0000 0.0000 0.0000 0.0000 12.9354 0.0000
# 6 0.0000 0.0000 0.0000 0.0000 0.0000 -0.5671
#
#
#
# Elastic Compliance Matrix: (Units=1/GPa)
#
#
# Indices 1 2 3 4 5 6 
#
# 1 0.009212 -0.003245 -0.003992 0.000000 0.000000 0.000000
# 2 -0.003245 0.072244 -0.001364 0.000000 0.000000 0.000000
# 3 -0.003992 -0.001364 0.009858 0.000000 0.000000 0.000000
# 4 0.000000 0.000000 0.000000 0.019171 0.000000 0.000000
# 5 0.000000 0.000000 0.000000 0.000000 0.077307 0.000000
# 6 0.000000 0.000000 0.000000 0.000000 0.000000 -1.763288
#
#
# Mechanical properties :
#
#
# Convention : Reuss Voigt Hill
#
# Bulk Modulus (GPa) = 13.49325 45.51113 29.50219
# Shear Modulus (GPa) = -3.26032 26.66820 11.70394
#
# Velocity S-wave (km/s) = -1.25847 3.59923 2.38440
# Velocity P-wave (km/s) = 2.10781 6.27538 4.68099
#
# Compressibility (1/GPa) = 0.07411114
#
# Stress axis : x y z
#
# Youngs Moduli (GPa) = 108.55687 13.84200 101.43702
#
# Poissons Ratio (x) = 0.04492 0.40491
# Poissons Ratio (y) = 0.35232 0.13839
# Poissons Ratio (z) = 0.43333 0.01888
#
# Static dielectric constant tensor:
#      x y z
#    x 1.952940 0.000000 0.000000 
#    y 0.000000 1.722600 0.000000 
#    z 0.000000 0.000000 1.746370 
# 
# From -- ./inp_files/26350.got.cif
#   From: 2010.05.17/outbox.cif.g08.bks.cpg/sg49_14_cif.got.tgz:26350.got - 2010.06.03 21:02:19.
