data_PCOD9392598
_publ_section_title
;
Structure prediction by ZEFSAII (Michael W. Deem and Ramdas Pophale) SiO2 
 PCOD9392598
Probable space group: P C C M
;
_chemical_formula_sum "Si O2"
_cell_formula_units_Z 64
_cell_length_a 27.161903
_cell_length_b 18.789865
_cell_length_c 9.093909
_cell_angle_alpha 90.000000
_cell_angle_beta 90.000000
_cell_angle_gamma 90.000000
_cell_volume 4641.244609
_symmetry_space_group_name_H-M "P C C M"
_symmetry_group_IT_number 49
_symmetry_cell_setting 'orthorhombic'
loop_
_space_group_symop_operation_xyz
x,y,z
-x,-y,z
x,-y,1/2-z
-x,y,1/2-z
-x,-y,-z
x,y,-z
-x,y,1/2+z
x,-y,1/2+z
loop_
_atom_site_type_symbol
_atom_site_label
_atom_site_fract_x
_atom_site_fract_y
_atom_site_fract_z
Si Si1 0.898686 0.702126 0.331194
Si Si2 0.949319 0.156359 0.822497
Si Si3 0.253290 0.658658 0.674653
Si Si4 0.151133 0.924035 0.822427
Si Si5 0.452320 0.421856 0.324543
Si Si6 0.794139 0.214321 0.831066
Si Si7 0.657830 0.577756 0.324704
Si Si8 0.848912 0.576356 0.825227
O O1 0.909968 0.682339 0.500000
O O2 0.937031 0.761866 0.278411
O O3 0.846881 0.745131 0.333508
O O4 0.888789 0.632687 0.235234
O O5 0.902522 0.107821 0.780689
O O6 0.000000 0.132737 0.750000
O O7 0.952618 0.155380 0.000000
O O8 0.260710 0.657457 0.500000
O O9 0.240531 0.737724 0.730788
O O10 0.299998 0.626653 0.757452
O O11 0.205082 0.609993 0.708027
O O12 0.192087 0.865091 0.780993
O O13 0.158904 0.000000 0.750000
O O14 0.151833 0.928897 0.000000
O O15 0.449984 0.500000 0.250000
O O16 0.500000 0.386018 0.250000
O O17 0.459684 0.428015 0.500000
O O18 0.397474 0.392215 0.298730
O O19 0.776262 0.212920 0.000000
O O20 0.661371 0.500000 0.250000
O O21 0.664112 0.569731 0.500000
O O22 0.853496 0.500000 0.750000
O O23 0.853011 0.569708 0.000000
#
# Coordination Sequence:
#
# PCOD9392598 Si02
#       8
#     8   8   8   8   8   8   8   8
#     4   8  15  29  45  58  75 100 128 156 187 227
#     4   9  18  31  46  64  84 106 130 155 188 227
#     4  10  19  28  40  59  80 103 132 164 200 241
#     4   9  18  31  46  65  87 110 134 159 188 222
#     4   9  16  25  37  51  68  95 132 172 212 250
#     4   8  15  29  45  58  77 105 132 158 190 229
#     4  10  19  28  38  54  77 105 137 174 214 250
#     4  10  19  28  40  59  79  99 125 157 195 236
#
# _framework density 13.789405
#
# number of rings (size 3 to 8) (size 9 to 14) (size 15 to 20)
#    0.000    2.875    0.000    3.750    0.000    5.750 
#    0.000    3.750    0.000    0.375    0.000    2.625 
#    0.000    0.000    0.000    0.000    0.000    0.625 
#
# Total GULP energy -356352.846822 kJ/mol
# GULP energy per Si atom -5568.013232 kJ/mol
# Density = 1.375802 g / cm^3
# Si number density = 13.789405 Si / 1000 Ang^3
#
#
#
# Elastic Constant Matrix: (Units=GPa)
#
#
# Indices 1 2 3 4 5 6 
#
# 1 46.1899 27.1312 19.7857 0.0000 0.0000 0.0000
# 2 27.1312 94.8956 33.1769 0.0000 0.0000 0.0000
# 3 19.7857 33.1769 36.9674 0.0000 0.0000 0.0000
# 4 0.0000 0.0000 0.0000 22.5932 0.0000 0.0000
# 5 0.0000 0.0000 0.0000 0.0000 42.0107 0.0000
# 6 0.0000 0.0000 0.0000 0.0000 0.0000 8.9742
#
#
#
# Elastic Compliance Matrix: (Units=1/GPa)
#
#
# Indices 1 2 3 4 5 6 
#
# 1 0.029196 -0.004203 -0.011855 0.000000 0.000000 0.000000
# 2 -0.004203 0.015961 -0.012075 0.000000 0.000000 0.000000
# 3 -0.011855 -0.012075 0.044233 0.000000 0.000000 0.000000
# 4 0.000000 0.000000 0.000000 0.044261 0.000000 0.000000
# 5 0.000000 0.000000 0.000000 0.000000 0.023803 0.000000
# 6 0.000000 0.000000 0.000000 0.000000 0.000000 0.111431
#
#
# Mechanical properties :
#
#
# Convention : Reuss Voigt Hill
#
# Bulk Modulus (GPa) = 30.18859 37.58228 33.88544
# Shear Modulus (GPa) = 14.87246 21.24623 18.05934
#
# Velocity S-wave (km/s) = 3.28768 3.92952 3.62284
# Velocity P-wave (km/s) = 6.02925 6.92111 6.49052
#
# Compressibility (1/GPa) = 0.03312509
#
# Stress axis : x y z
#
# Youngs Moduli (GPa) = 34.25076 62.65210 22.60778
#
# Poissons Ratio (x) = 0.26332 0.26801
# Poissons Ratio (y) = 0.14395 0.27299
# Poissons Ratio (z) = 0.40603 0.75653
#
# Static dielectric constant tensor:
#      x y z
#    x 1.464090 0.000000 0.000000 
#    y 0.000000 1.441410 0.000000 
#    z 0.000000 0.000000 1.459550 
# 
# From -- ./inp_files/6806.got.cif
#   From: 2010.05.17/outbox.cif.g08.bks.cpg/sg49_4_cif.got.tgz:6806.got - 2010.06.03 21:02:19.
