data_PCOD9392771
_publ_section_title
;
Structure prediction by ZEFSAII (Michael W. Deem and Ramdas Pophale) SiO2 
 PCOD9392771
Probable space group: P C C M
;
_chemical_formula_sum "Si O2"
_cell_formula_units_Z 34
_cell_length_a 5.229809
_cell_length_b 16.368208
_cell_length_c 21.269250
_cell_angle_alpha 90.000000
_cell_angle_beta 90.000000
_cell_angle_gamma 90.000000
_cell_volume 1820.703132
_symmetry_space_group_name_H-M "P C C M"
_symmetry_group_IT_number 49
_symmetry_cell_setting 'orthorhombic'
loop_
_space_group_symop_operation_xyz
x,y,z
-x,-y,z
x,-y,1/2-z
-x,y,1/2-z
-x,-y,-z
x,y,-z
-x,y,1/2+z
x,-y,1/2+z
loop_
_atom_site_type_symbol
_atom_site_label
_atom_site_fract_x
_atom_site_fract_y
_atom_site_fract_z
Si Si1 0.000000 0.500000 0.750000
Si Si2 0.002173 0.187853 0.675278
Si Si3 0.496305 0.094860 0.826985
Si Si4 0.386350 0.591635 0.928223
Si Si5 0.874893 0.626648 0.146345
O O1 0.151118 0.437908 0.796116
O O2 0.758344 0.139311 0.650138
O O3 0.972217 0.284222 0.666130
O O4 0.000000 0.174326 0.750000
O O5 0.260868 0.147033 0.650970
O O6 0.500000 0.096204 0.750000
O O7 0.500000 0.000000 0.845221
O O8 0.500000 0.500000 0.929020
O O9 0.601511 0.636939 0.887159
O O10 0.104452 0.593866 0.898192
O O11 0.374503 0.621267 0.000000
#
# Coordination Sequence:
#
# PCOD9392771 Si02
#       5
#     2   8   8   8   8
#     4  12  24  38  54  86 114 162 176 220 272 342
#     4  10  19  31  48  77 110 141 173 221 264 327
#     4   9  17  30  48  70 104 146 179 207 260 327
#     4  11  23  40  58  76 102 148 199 241 270 303
#     4  12  23  38  56  82 115 146 191 223 272 330
#
# _framework density 18.674104
#
# number of rings (size 3 to 8) (size 9 to 14) (size 15 to 20)
#    0.000    1.412    3.529    2.824    0.000    6.588 
#    0.000    0.000    0.000    0.000    0.000    0.000 
#    0.000   65.882    0.000    0.000    0.000    0.000 
#
# Total GULP energy -189657.695993 kJ/mol
# GULP energy per Si atom -5578.167529 kJ/mol
# Density = 1.863160 g / cm^3
# Si number density = 18.674104 Si / 1000 Ang^3
#
#
#
# Elastic Constant Matrix: (Units=GPa)
#
#
# Indices 1 2 3 4 5 6 
#
# 1 122.5328 43.6727 29.5390 0.0000 0.0000 0.0000
# 2 43.6727 126.6697 7.6050 0.0000 0.0000 0.0000
# 3 29.5390 7.6050 56.6635 0.0000 0.0000 0.0000
# 4 0.0000 0.0000 0.0000 4.4968 0.0000 0.0000
# 5 0.0000 0.0000 0.0000 0.0000 -15.9042 0.0000
# 6 0.0000 0.0000 0.0000 0.0000 0.0000 32.7653
#
#
#
# Elastic Compliance Matrix: (Units=1/GPa)
#
#
# Indices 1 2 3 4 5 6 
#
# 1 0.010572 -0.003341 -0.005063 0.000000 0.000000 0.000000
# 2 -0.003341 0.009015 0.000532 0.000000 0.000000 0.000000
# 3 -0.005063 0.000532 0.020216 0.000000 0.000000 0.000000
# 4 0.000000 0.000000 0.000000 0.222383 0.000000 0.000000
# 5 0.000000 0.000000 0.000000 0.000000 -0.062876 0.000000
# 6 0.000000 0.000000 0.000000 0.000000 0.000000 0.030520
#
#
# Mechanical properties :
#
#
# Convention : Reuss Voigt Hill
#
# Bulk Modulus (GPa) = 41.56544 51.94437 46.75491
# Shear Modulus (GPa) = 19.71656 19.27484 19.49570
#
# Velocity S-wave (km/s) = 3.25287 3.21622 3.23460
# Velocity P-wave (km/s) = 6.03447 6.45514 6.24835
#
# Compressibility (1/GPa) = 0.02405845
#
# Stress axis : x y z
#
# Youngs Moduli (GPa) = 94.58516 110.93156 49.46559
#
# Poissons Ratio (x) = 0.37064 0.25045
# Poissons Ratio (y) = 0.31602 -0.02631
# Poissons Ratio (z) = 0.47889 -0.05900
#
# Static dielectric constant tensor:
#      x y z
#    x 1.676370 0.000000 0.000000 
#    y 0.000000 1.646670 0.000000 
#    z 0.000000 0.000000 1.665410 
# 
# From -- ./inp_files/15167.got.cif
#   From: 2010.05.17/outbox.cif.g08.bks.cpg/sg49_8_cif.got.tgz:15167.got - 2010.06.03 21:02:19.
