data_PCOD9392946
_publ_section_title
;
Structure prediction by ZEFSAII (Michael W. Deem and Ramdas Pophale) SiO2 
 PCOD9392946
Probable space group: P C C M
;
_chemical_formula_sum "Si O2"
_cell_formula_units_Z 48
_cell_length_a 29.629886
_cell_length_b 9.466844
_cell_length_c 9.909426
_cell_angle_alpha 90.000000
_cell_angle_beta 90.000000
_cell_angle_gamma 90.000000
_cell_volume 2779.608941
_symmetry_space_group_name_H-M "P C C M"
_symmetry_group_IT_number 49
_symmetry_cell_setting 'orthorhombic'
loop_
_space_group_symop_operation_xyz
x,y,z
-x,-y,z
x,-y,1/2-z
-x,y,1/2-z
-x,-y,-z
x,y,-z
-x,y,1/2+z
x,-y,1/2+z
loop_
_atom_site_type_symbol
_atom_site_label
_atom_site_fract_x
_atom_site_fract_y
_atom_site_fract_z
Si Si1 0.545625 0.863642 0.164329
Si Si2 0.624820 0.637350 0.158199
Si Si3 0.952638 0.667739 0.000000
Si Si4 0.887736 0.330307 0.742246
Si Si5 0.299048 0.136907 0.158731
Si Si6 0.055385 0.675398 0.000000
Si Si7 0.806468 0.861593 0.159688
O O1 0.500000 0.829901 0.250000
O O2 0.581076 0.737078 0.174179
O O3 0.563159 0.000000 0.250000
O O4 0.538977 0.889670 0.000000
O O5 0.622258 0.500000 0.250000
O O6 0.667875 0.734839 0.193113
O O7 0.628284 0.598410 0.000000
O O8 0.923325 0.709217 0.872690
O O9 0.951332 0.495647 0.000000
O O10 0.003543 0.724420 0.000000
O O11 0.882072 0.500000 0.750000
O O12 0.913889 0.283916 0.875047
O O13 0.840407 0.257806 0.711395
O O14 0.246395 0.176273 0.175645
O O15 0.308146 0.000000 0.250000
O O16 0.306394 0.102630 0.000000
O O17 0.814464 0.000000 0.250000
O O18 0.814177 0.887534 0.000000
#
# Coordination Sequence:
#
# PCOD9392946 Si02
#       7
#     8   8   4   8   8   4   8
#     4  10  20  35  56  83 111 148 191 233 272 318
#     4  10  22  37  55  81 114 146 180 223 276 326
#     4   9  16  32  49  75 107 135 171 215 262 301
#     4  10  19  32  53  79 104 135 171 217 264 307
#     4   9  19  37  58  79 102 136 180 222 264 317
#     4   9  18  28  51  79 103 133 175 215 254 315
#     4  10  21  37  56  77 106 140 174 215 264 318
#
# _framework density 17.268616000000002
#
# number of rings (size 3 to 8) (size 9 to 14) (size 15 to 20)
#    0.000    2.333    0.833    2.000    1.167    5.000 
#    0.000    1.667    0.000    3.000    0.000    0.000 
#    0.000    0.000    0.000    0.000    0.000    0.000 
#
# Total GULP energy -267385.033705 kJ/mol
# GULP energy per Si atom -5570.521536 kJ/mol
# Density = 1.722931 g / cm^3
# Si number density = 17.268616 Si / 1000 Ang^3
#
#
#
# Elastic Constant Matrix: (Units=GPa)
#
#
# Indices 1 2 3 4 5 6 
#
# 1 100.2197 77.7133 73.1179 0.0000 0.0000 0.0000
# 2 77.7133 94.5402 72.7151 0.0000 0.0000 0.0000
# 3 73.1179 72.7151 150.3079 0.0000 0.0000 0.0000
# 4 0.0000 0.0000 0.0000 34.6911 0.0000 0.0000
# 5 0.0000 0.0000 0.0000 0.0000 18.5639 0.0000
# 6 0.0000 0.0000 0.0000 0.0000 0.0000 28.0742
#
#
#
# Elastic Compliance Matrix: (Units=1/GPa)
#
#
# Indices 1 2 3 4 5 6 
#
# 1 0.029026 -0.020703 -0.004104 0.000000 0.000000 0.000000
# 2 -0.020703 0.031612 -0.005222 0.000000 0.000000 0.000000
# 3 -0.004104 -0.005222 0.011176 0.000000 0.000000 0.000000
# 4 0.000000 0.000000 0.000000 0.028826 0.000000 0.000000
# 5 0.000000 0.000000 0.000000 0.000000 0.053868 0.000000
# 6 0.000000 0.000000 0.000000 0.000000 0.000000 0.035620
#
#
# Mechanical properties :
#
#
# Convention : Reuss Voigt Hill
#
# Bulk Modulus (GPa) = 85.06748 88.01780 86.54264
# Shear Modulus (GPa) = 19.67683 24.36729 22.02206
#
# Velocity S-wave (km/s) = 3.37925 3.76050 3.57496
# Velocity P-wave (km/s) = 8.03704 8.36275 8.20151
#
# Compressibility (1/GPa) = 0.01175537
#
# Stress axis : x y z
#
# Youngs Moduli (GPa) = 34.45138 31.63321 89.47850
#
# Poissons Ratio (x) = 0.65491 0.36725
# Poissons Ratio (y) = 0.71326 0.46726
# Poissons Ratio (z) = 0.14140 0.16519
#
# Static dielectric constant tensor:
#      x y z
#    x 1.582070 0.000000 0.000000 
#    y 0.000000 1.664270 0.000000 
#    z 0.000000 0.000000 1.657080 
# 
# From -- ./inp_files/6912.got.cif
#   From: 2010.05.17/outbox.cif.g08.bks.cpg/sg49_4_cif.got.tgz:6912.got - 2010.06.03 21:02:19.
