data_PCOD9392036
_publ_section_title
;
Structure prediction by ZEFSAII (Michael W. Deem and Ramdas Pophale) SiO2 
 PCOD9392036
Probable space group: P C C M
;
_chemical_formula_sum "Si O2"
_cell_formula_units_Z 40
_cell_length_a 27.162987
_cell_length_b 9.318400
_cell_length_c 8.582193
_cell_angle_alpha 90.000000
_cell_angle_beta 90.000000
_cell_angle_gamma 90.000000
_cell_volume 2172.286742
_symmetry_space_group_name_H-M "P C C M"
_symmetry_group_IT_number 49
_symmetry_cell_setting 'orthorhombic'
loop_
_space_group_symop_operation_xyz
x,y,z
-x,-y,z
x,-y,1/2-z
-x,y,1/2-z
-x,-y,-z
x,y,-z
-x,y,1/2+z
x,-y,1/2+z
loop_
_atom_site_type_symbol
_atom_site_label
_atom_site_fract_x
_atom_site_fract_y
_atom_site_fract_z
Si Si1 0.050924 0.835688 0.313875
Si Si2 0.744502 0.162316 0.687461
Si Si3 0.152641 0.836073 0.813907
Si Si4 0.447437 0.838455 0.312712
Si Si5 0.351902 0.339675 0.187856
O O1 0.050421 0.839274 0.500000
O O2 0.102118 0.770098 0.252487
O O3 0.000000 0.770284 0.250000
O O4 0.051220 0.000000 0.250000
O O5 0.747738 0.157476 0.500000
O O6 0.795596 0.225472 0.754281
O O7 0.696985 0.253305 0.735660
O O8 0.738949 0.000000 0.750000
O O9 0.153646 0.000000 0.750000
O O10 0.150946 0.838689 0.000000
O O11 0.500000 0.784695 0.250000
O O12 0.449044 0.842806 0.500000
O O13 0.401341 0.742718 0.261468
O O14 0.441021 0.000000 0.250000
O O15 0.351028 0.500000 0.250000
O O16 0.352229 0.342224 0.000000
#
# Coordination Sequence:
#
# PCOD9392036 Si02
#       5
#     8   8   8   8   8
#     4  10  16  23  34  52  81 118 156 197 243 297
#     4  10  19  33  51  73  97 128 167 210 253 301
#     4  10  17  26  40  61  87 120 159 201 246 297
#     4  10  20  36  57  83 108 137 172 210 250 298
#     4  10  23  38  54  76 105 136 171 209 254 303
#
# _framework density 18.413775000000001
#
# number of rings (size 3 to 8) (size 9 to 14) (size 15 to 20)
#    0.000    2.000    0.000    9.000    0.000    3.600 
#    0.000    2.000    0.000    0.000    0.000    0.000 
#    0.000    0.800    0.000    8.400    0.000    8.000 
#
# Total GULP energy -223165.729262 kJ/mol
# GULP energy per Si atom -5579.143232 kJ/mol
# Density = 1.837186 g / cm^3
# Si number density = 18.413775 Si / 1000 Ang^3
#
#
#
# Elastic Constant Matrix: (Units=GPa)
#
#
# Indices 1 2 3 4 5 6 
#
# 1 241.3072 69.6093 68.3428 0.0000 0.0000 0.0000
# 2 69.6093 45.8660 20.7345 0.0000 0.0000 0.0000
# 3 68.3428 20.7345 116.6941 0.0000 0.0000 0.0000
# 4 0.0000 0.0000 0.0000 19.4185 0.0000 0.0000
# 5 0.0000 0.0000 0.0000 0.0000 45.3130 0.0000
# 6 0.0000 0.0000 0.0000 0.0000 0.0000 -6.1982
#
#
#
# Elastic Compliance Matrix: (Units=1/GPa)
#
#
# Indices 1 2 3 4 5 6 
#
# 1 0.008131 -0.011076 -0.002794 0.000000 0.000000 0.000000
# 2 -0.011076 0.038797 -0.000406 0.000000 0.000000 0.000000
# 3 -0.002794 -0.000406 0.010278 0.000000 0.000000 0.000000
# 4 0.000000 0.000000 0.000000 0.051497 0.000000 0.000000
# 5 0.000000 0.000000 0.000000 0.000000 0.022069 0.000000
# 6 0.000000 0.000000 0.000000 0.000000 0.000000 -0.161337
#
#
# Mechanical properties :
#
#
# Convention : Reuss Voigt Hill
#
# Bulk Modulus (GPa) = 34.90167 80.13781 57.51974
# Shear Modulus (GPa) = 663.29559 28.05204 345.67382
#
# Velocity S-wave (km/s) = 18.99998 3.90734 13.71617
# Velocity P-wave (km/s) = 22.36800 7.99822 16.79730
#
# Compressibility (1/GPa) = 0.02865192
#
# Stress axis : x y z
#
# Youngs Moduli (GPa) = 122.99366 25.77529 97.29776
#
# Poissons Ratio (x) = 0.28550 0.27181
# Poissons Ratio (y) = 1.36234 0.03955
# Poissons Ratio (z) = 0.34359 0.01048
#
# Static dielectric constant tensor:
#      x y z
#    x 1.706760 0.000000 0.000000 
#    y 0.000000 1.587590 0.000000 
#    z 0.000000 0.000000 1.617630 
# 
# From -- ./inp_files/1934.got.cif
#   From: 2010.05.17/outbox.cif.g08.bks.cpg/sg49_1_cif.got.tgz:1934.got - 2010.06.03 21:02:19.
