data_PCOD9392595
_publ_section_title
;
Structure prediction by ZEFSAII (Michael W. Deem and Ramdas Pophale) SiO2 
 PCOD9392595
Probable space group: P C C M
;
_chemical_formula_sum "Si O2"
_cell_formula_units_Z 64
_cell_length_a 18.767958
_cell_length_b 27.091107
_cell_length_c 9.111483
_cell_angle_alpha 90.000000
_cell_angle_beta 90.000000
_cell_angle_gamma 90.000000
_cell_volume 4632.685772
_symmetry_space_group_name_H-M "P C C M"
_symmetry_group_IT_number 49
_symmetry_cell_setting 'orthorhombic'
loop_
_space_group_symop_operation_xyz
x,y,z
-x,-y,z
x,-y,1/2-z
-x,y,1/2-z
-x,-y,-z
x,y,-z
-x,y,1/2+z
x,-y,1/2+z
loop_
_atom_site_type_symbol
_atom_site_label
_atom_site_fract_x
_atom_site_fract_y
_atom_site_fract_z
Si Si1 0.797705 0.799748 0.831878
Si Si2 0.075800 0.151928 0.674701
Si Si3 0.577801 0.658154 0.675071
Si Si4 0.423711 0.149424 0.822914
Si Si5 0.844731 0.049841 0.174341
Si Si6 0.421848 0.547727 0.824862
Si Si7 0.284936 0.904906 0.668403
Si Si8 0.656188 0.251532 0.677247
O O1 0.866012 0.809039 0.732505
O O2 0.754257 0.851544 0.834257
O O3 0.738147 0.760586 0.783481
O O4 0.819093 0.789409 0.000000
O O5 0.069497 0.154684 0.500000
O O6 0.107266 0.097514 0.712636
O O7 0.000000 0.158825 0.750000
O O8 0.500000 0.661430 0.750000
O O9 0.569862 0.664604 0.500000
O O10 0.607974 0.602709 0.700465
O O11 0.626014 0.700590 0.743976
O O12 0.500000 0.142354 0.750000
O O13 0.364785 0.108181 0.781259
O O14 0.391471 0.203363 0.783712
O O15 0.429132 0.148188 0.000000
O O16 0.765014 0.061337 0.232440
O O17 0.871014 0.000000 0.250000
O O18 0.844378 0.044377 0.000000
O O19 0.385948 0.500000 0.750000
O O20 0.500000 0.550124 0.750000
O O21 0.428132 0.540247 0.000000
O O22 0.286119 0.923215 0.500000
O O23 0.652823 0.256513 0.500000
#
# Coordination Sequence:
#
# PCOD9392595 Si02
#       8
#     8   8   8   8   8   8   8   8
#     4   8  15  29  46  61  80 106 133 160 190 228
#     4  10  20  32  47  67  88 109 133 158 185 220
#     4  10  19  27  36  53  77 104 136 176 217 252
#     4   9  17  27  40  59  80 102 128 159 196 235
#     4  10  20  32  47  66  84 104 129 155 187 226
#     4   9  16  25  36  49  66  93 131 173 215 254
#     4   8  15  29  45  59  78 103 129 157 189 227
#     4   9  17  28  41  58  80 106 134 163 200 242
#
# _framework density 13.81488
#
# number of rings (size 3 to 8) (size 9 to 14) (size 15 to 20)
#    0.000    2.875    0.000    3.750    0.000    5.750 
#    0.000    3.750    0.000    0.375    0.000    2.625 
#    0.000    0.000    0.000    0.000    0.000    0.625 
#
# Total GULP energy -356365.278140 kJ/mol
# GULP energy per Si atom -5568.207471 kJ/mol
# Density = 1.378344 g / cm^3
# Si number density = 13.814880 Si / 1000 Ang^3
#
#
#
# Elastic Constant Matrix: (Units=GPa)
#
#
# Indices 1 2 3 4 5 6 
#
# 1 91.0562 26.3828 36.0672 0.0000 0.0000 0.0000
# 2 26.3828 49.8756 25.0039 0.0000 0.0000 0.0000
# 3 36.0672 25.0039 41.1134 0.0000 0.0000 0.0000
# 4 0.0000 0.0000 0.0000 -10.5180 0.0000 0.0000
# 5 0.0000 0.0000 0.0000 0.0000 20.8987 0.0000
# 6 0.0000 0.0000 0.0000 0.0000 0.0000 9.3111
#
#
#
# Elastic Compliance Matrix: (Units=1/GPa)
#
#
# Indices 1 2 3 4 5 6 
#
# 1 0.016994 -0.002180 -0.013582 0.000000 0.000000 0.000000
# 2 -0.002180 0.029124 -0.015800 0.000000 0.000000 0.000000
# 3 -0.013582 -0.015800 0.045847 0.000000 0.000000 0.000000
# 4 0.000000 0.000000 0.000000 -0.095075 0.000000 0.000000
# 5 0.000000 0.000000 0.000000 0.000000 0.047850 0.000000
# 6 0.000000 0.000000 0.000000 0.000000 0.000000 0.107399
#
#
# Mechanical properties :
#
#
# Convention : Reuss Voigt Hill
#
# Bulk Modulus (GPa) = 34.67321 39.66144 37.16733
# Shear Modulus (GPa) = 22.23455 10.24445 16.23950
#
# Velocity S-wave (km/s) = 4.01617 2.72610 3.43229
# Velocity P-wave (km/s) = 6.83074 6.21935 6.53221
#
# Compressibility (1/GPa) = 0.02884071
#
# Stress axis : x y z
#
# Youngs Moduli (GPa) = 58.84521 34.33609 21.81179
#
# Poissons Ratio (x) = 0.07486 0.29625
# Poissons Ratio (y) = 0.12829 0.34462
# Poissons Ratio (z) = 0.79924 0.54250
#
# Static dielectric constant tensor:
#      x y z
#    x 1.441970 0.000000 0.000000 
#    y 0.000000 1.467600 0.000000 
#    z 0.000000 0.000000 1.459270 
# 
# From -- ./inp_files/5443.got.cif
#   From: 2010.05.17/outbox.cif.g08.bks.cpg/sg49_3_cif.got.tgz:5443.got - 2010.06.03 21:02:19.
