data_PCOD9392875
_publ_section_title
;
Structure prediction by ZEFSAII (Michael W. Deem and Ramdas Pophale) SiO2 
 PCOD9392875
Probable space group: P C C M
;
_chemical_formula_sum "Si O2"
_cell_formula_units_Z 58
_cell_length_a 24.482808
_cell_length_b 15.182654
_cell_length_c 8.928907
_cell_angle_alpha 90.000000
_cell_angle_beta 90.000000
_cell_angle_gamma 90.000000
_cell_volume 3318.999762
_symmetry_space_group_name_H-M "P C C M"
_symmetry_group_IT_number 49
_symmetry_cell_setting 'orthorhombic'
loop_
_space_group_symop_operation_xyz
x,y,z
-x,-y,z
x,-y,1/2-z
-x,y,1/2-z
-x,-y,-z
x,y,-z
-x,y,1/2+z
x,-y,1/2+z
loop_
_atom_site_type_symbol
_atom_site_label
_atom_site_fract_x
_atom_site_fract_y
_atom_site_fract_z
Si Si1 0.774984 0.094208 0.319041
Si Si2 0.000000 0.500000 0.250000
Si Si3 0.107329 0.413944 0.333367
Si Si4 0.392785 0.404405 0.319662
Si Si5 0.174585 0.725722 0.321365
Si Si6 0.556316 0.765075 0.180630
Si Si7 0.648817 0.905997 0.820344
Si Si8 0.274741 0.405732 0.819853
O O1 0.777164 0.089152 0.500000
O O2 0.812698 0.175418 0.269724
O O3 0.711693 0.113991 0.277328
O O4 0.789524 0.000000 0.250000
O O5 0.042703 0.436643 0.334284
O O6 0.130855 0.500000 0.250000
O O7 0.128969 0.410845 0.500000
O O8 0.124034 0.325559 0.250330
O O9 0.406118 0.500000 0.250000
O O10 0.393396 0.407775 0.500000
O O11 0.431777 0.329220 0.255136
O O12 0.332083 0.382016 0.257763
O O13 0.167309 0.727187 0.500000
O O14 0.228017 0.665826 0.290840
O O15 0.500000 0.799829 0.250000
O O16 0.606302 0.830062 0.220320
O O17 0.553258 0.757876 0.000000
O O18 0.634100 0.000000 0.750000
O O19 0.647827 0.914055 0.000000
O O20 0.259488 0.500000 0.750000
O O21 0.282387 0.412800 0.000000
#
# Coordination Sequence:
#
# PCOD9392875 Si02
#       8
#     8   2   8   8   8   8   8   8
#     4   9  18  34  53  76 104 138 174 215 262 314
#     4   8  22  36  54  76 112 152 190 232 264 304
#     4  10  20  33  52  76 108 146 186 224 264 307
#     4  11  22  37  56  76  99 133 172 212 259 315
#     4  10  20  32  50  76 109 143 179 220 267 311
#     4  11  23  39  56  77 103 131 167 215 263 314
#     4   9  19  36  58  79 104 135 169 208 259 317
#     4  10  19  32  49  73 105 139 170 209 257 313
#
# _framework density 17.475145999999999
#
# number of rings (size 3 to 8) (size 9 to 14) (size 15 to 20)
#    0.414    1.655    0.000    4.759    0.000    6.621 
#    0.000    5.517    0.000    0.000    0.000    0.483 
#    0.000    3.310    0.000    0.000    0.000    0.000 
#
# Total GULP energy -323448.433249 kJ/mol
# GULP energy per Si atom -5576.697125 kJ/mol
# Density = 1.743537 g / cm^3
# Si number density = 17.475146 Si / 1000 Ang^3
#
#
#
# Elastic Constant Matrix: (Units=GPa)
#
#
# Indices 1 2 3 4 5 6 
#
# 1 61.5868 56.1135 25.2599 0.0000 0.0000 0.0000
# 2 56.1135 114.7943 40.7252 0.0000 0.0000 0.0000
# 3 25.2599 40.7252 66.0654 0.0000 0.0000 0.0000
# 4 0.0000 0.0000 0.0000 27.9321 0.0000 0.0000
# 5 0.0000 0.0000 0.0000 0.0000 19.4965 0.0000
# 6 0.0000 0.0000 0.0000 0.0000 0.0000 24.2766
#
#
#
# Elastic Compliance Matrix: (Units=1/GPa)
#
#
# Indices 1 2 3 4 5 6 
#
# 1 0.029760 -0.013452 -0.003086 0.000000 0.000000 0.000000
# 2 -0.013452 0.017230 -0.005478 0.000000 0.000000 0.000000
# 3 -0.003086 -0.005478 0.019693 0.000000 0.000000 0.000000
# 4 0.000000 0.000000 0.000000 0.035801 0.000000 0.000000
# 5 0.000000 0.000000 0.000000 0.000000 0.051291 0.000000
# 6 0.000000 0.000000 0.000000 0.000000 0.000000 0.041192
#
#
# Mechanical properties :
#
#
# Convention : Reuss Voigt Hill
#
# Bulk Modulus (GPa) = 44.14866 54.07152 49.11009
# Shear Modulus (GPa) = 20.27981 22.36423 21.32202
#
# Velocity S-wave (km/s) = 3.41030 3.58127 3.49683
# Velocity P-wave (km/s) = 6.38947 6.93612 6.66840
#
# Compressibility (1/GPa) = 0.02265074
#
# Stress axis : x y z
#
# Youngs Moduli (GPa) = 33.60248 58.03712 50.77867
#
# Poissons Ratio (x) = 0.78073 0.15671
# Poissons Ratio (y) = 0.45203 0.27817
# Poissons Ratio (z) = 0.10370 0.31793
#
# Static dielectric constant tensor:
#      x y z
#    x 1.612440 0.000000 0.000000 
#    y 0.000000 1.589810 0.000000 
#    z 0.000000 0.000000 1.590020 
# 
# From -- ./inp_files/6764.got.cif
#   From: 2010.05.17/outbox.cif.g08.bks.cpg/sg49_4_cif.got.tgz:6764.got - 2010.06.03 21:02:19.
