data_PCOD9392538
_publ_section_title
;
Structure prediction by ZEFSAII (Michael W. Deem and Ramdas Pophale) SiO2 
 PCOD9392538
Probable space group: P C C M
;
_chemical_formula_sum "Si O2"
_cell_formula_units_Z 64
_cell_length_a 11.486636
_cell_length_b 15.794734
_cell_length_c 18.534778
_cell_angle_alpha 90.000000
_cell_angle_beta 90.000000
_cell_angle_gamma 90.000000
_cell_volume 3362.734379
_symmetry_space_group_name_H-M "P C C M"
_symmetry_group_IT_number 49
_symmetry_cell_setting 'orthorhombic'
loop_
_space_group_symop_operation_xyz
x,y,z
-x,-y,z
x,-y,1/2-z
-x,y,1/2-z
-x,-y,-z
x,y,-z
-x,y,1/2+z
x,-y,1/2+z
loop_
_atom_site_type_symbol
_atom_site_label
_atom_site_fract_x
_atom_site_fract_y
_atom_site_fract_z
Si Si1 0.133788 0.466209 0.414936
Si Si2 0.642358 0.856537 0.077749
Si Si3 0.938051 0.689628 0.320849
Si Si4 0.697503 0.393675 0.361039
Si Si5 0.630573 0.084578 0.275709
Si Si6 0.690878 0.273448 0.221619
Si Si7 0.867281 0.747867 0.080170
Si Si8 0.522717 0.690329 0.415733
O O1 0.165906 0.464447 0.500000
O O2 0.115022 0.376651 0.377158
O O3 0.232887 0.517974 0.370013
O O4 0.000000 0.500000 0.410939
O O5 0.625848 0.922484 0.139174
O O6 0.774664 0.822897 0.083100
O O7 0.557724 0.775193 0.086519
O O8 0.620666 0.892918 0.000000
O O9 0.825904 0.738365 0.295175
O O10 0.000000 0.649203 0.250000
O O11 0.033573 0.745901 0.360630
O O12 0.683943 0.348793 0.282112
O O13 0.786591 0.333800 0.405385
O O14 0.569495 0.384666 0.396446
O O15 0.500000 0.080453 0.250000
O O16 0.660823 0.181731 0.255177
O O17 0.696704 0.000000 0.250000
O O18 0.615452 0.297459 0.149917
O O19 0.917873 0.742099 0.000000
O O20 0.563978 0.681532 0.500000
#
# Coordination Sequence:
#
# PCOD9392538 Si02
#       8
#     8   8   8   8   8   8   8   8
#     4  11  22  36  57  87 119 149 198 258 300 335
#     4   9  17  33  59  86 116 151 196 237 281 354
#     4  12  23  37  56  84 122 160 198 249 300 355
#     4  11  19  36  62  84 114 155 200 246 288 351
#     4  11  20  36  60  90 118 147 185 245 298 350
#     4  12  22  38  59  86 123 155 197 244 297 360
#     4  10  18  33  58  86 111 153 203 242 285 342
#     4  10  20  35  59  86 116 157 197 232 290 357
#
# _framework density 19.032131
#
# number of rings (size 3 to 8) (size 9 to 14) (size 15 to 20)
#    0.000    1.250    6.250    2.625    0.000    2.750 
#    0.000    2.500    0.000    7.875    0.000    1.750 
#    0.000    0.000    0.000    0.000    0.000    0.000 
#
# Total GULP energy -356313.821196 kJ/mol
# GULP energy per Si atom -5567.403456 kJ/mol
# Density = 1.898881 g / cm^3
# Si number density = 19.032131 Si / 1000 Ang^3
#
#
#
# Elastic Constant Matrix: (Units=GPa)
#
#
# Indices 1 2 3 4 5 6 
#
# 1 75.5697 21.5180 47.4930 0.0000 0.0000 0.0000
# 2 21.5180 32.4647 40.4371 0.0000 0.0000 0.0000
# 3 47.4930 40.4371 155.4024 0.0000 0.0000 0.0000
# 4 0.0000 0.0000 0.0000 9.4101 0.0000 0.0000
# 5 0.0000 0.0000 0.0000 0.0000 27.1783 0.0000
# 6 0.0000 0.0000 0.0000 0.0000 0.0000 16.9211
#
#
#
# Elastic Compliance Matrix: (Units=1/GPa)
#
#
# Indices 1 2 3 4 5 6 
#
# 1 0.017473 -0.007294 -0.003442 0.000000 0.000000 0.000000
# 2 -0.007294 0.048618 -0.010422 0.000000 0.000000 0.000000
# 3 -0.003442 -0.010422 0.010199 0.000000 0.000000 0.000000
# 4 0.000000 0.000000 0.000000 0.106269 0.000000 0.000000
# 5 0.000000 0.000000 0.000000 0.000000 0.036794 0.000000
# 6 0.000000 0.000000 0.000000 0.000000 0.000000 0.059098
#
#
# Mechanical properties :
#
#
# Convention : Reuss Voigt Hill
#
# Bulk Modulus (GPa) = 29.43402 53.59255 41.51329
# Shear Modulus (GPa) = 15.05611 20.96782 18.01196
#
# Velocity S-wave (km/s) = 2.81568 3.32280 3.07970
# Velocity P-wave (km/s) = 5.10586 6.55297 5.87415
#
# Compressibility (1/GPa) = 0.03397429
#
# Stress axis : x y z
#
# Youngs Moduli (GPa) = 57.23142 20.56839 98.05221
#
# Poissons Ratio (x) = 0.15003 0.33749
# Poissons Ratio (y) = 0.41745 1.02188
# Poissons Ratio (z) = 0.19699 0.21436
#
# Static dielectric constant tensor:
#      x y z
#    x 1.859610 0.000000 0.000000 
#    y 0.000000 1.768810 0.000000 
#    z 0.000000 0.000000 1.666510 
# 
# From -- ./inp_files/17309.got.cif
#   From: 2010.05.17/outbox.cif.g08.bks.cpg/sg49_9_cif.got.tgz:17309.got - 2010.06.03 21:02:19.
