data_PCOD9392785
_publ_section_title
;
Structure prediction by ZEFSAII (Michael W. Deem and Ramdas Pophale) SiO2 
 PCOD9392785
Probable space group: P C C M
;
_chemical_formula_sum "Si O2"
_cell_formula_units_Z 64
_cell_length_a 15.625010
_cell_length_b 25.459869
_cell_length_c 8.735926
_cell_angle_alpha 90.000000
_cell_angle_beta 90.000000
_cell_angle_gamma 90.000000
_cell_volume 3475.244905
_symmetry_space_group_name_H-M "P C C M"
_symmetry_group_IT_number 49
_symmetry_cell_setting 'orthorhombic'
loop_
_space_group_symop_operation_xyz
x,y,z
-x,-y,z
x,-y,1/2-z
-x,y,1/2-z
-x,-y,-z
x,y,-z
-x,y,1/2+z
x,-y,1/2+z
loop_
_atom_site_type_symbol
_atom_site_label
_atom_site_fract_x
_atom_site_fract_y
_atom_site_fract_z
Si Si1 0.726320 0.353148 0.814024
Si Si2 0.591920 0.441516 0.815180
Si Si3 0.729051 0.054336 0.817461
Si Si4 0.088720 0.085131 0.180209
Si Si5 0.910139 0.314985 0.183013
Si Si6 0.411249 0.267829 0.316394
Si Si7 0.139144 0.795681 0.680283
Si Si8 0.318912 0.167790 0.684863
O O1 0.670834 0.404003 0.769461
O O2 0.824223 0.345417 0.762594
O O3 0.668725 0.303339 0.766307
O O4 0.729099 0.352985 0.000000
O O5 0.604390 0.500000 0.750000
O O6 0.500000 0.422666 0.750000
O O7 0.586665 0.442752 0.000000
O O8 0.826585 0.062932 0.760647
O O9 0.677902 0.106875 0.769191
O O10 0.695871 0.000000 0.750000
O O11 0.729139 0.051468 0.000000
O O12 0.092063 0.148497 0.200558
O O13 0.000000 0.065536 0.250000
O O14 0.093442 0.073755 0.000000
O O15 0.898557 0.254103 0.231897
O O16 0.000000 0.334478 0.250000
O O17 0.913553 0.317639 0.000000
O O18 0.500000 0.287327 0.250000
O O19 0.415067 0.270890 0.500000
O O20 0.394064 0.207443 0.271377
O O21 0.140489 0.783667 0.500000
O O22 0.233507 0.807771 0.743237
O O23 0.310222 0.169439 0.500000
#
# Coordination Sequence:
#
# PCOD9392785 Si02
#       8
#     8   8   8   8   8   8   8   8
#     4   9  19  35  55  77 112 151 183 220 272 320
#     4  10  19  34  56  84 114 150 187 226 272 322
#     4  10  20  34  52  71  90 123 164 209 258 315
#     4  10  20  32  46  67  95 125 162 209 257 313
#     4  11  21  35  52  74 106 146 187 229 270 319
#     4  10  19  34  54  81 110 142 173 210 263 323
#     4  10  19  31  49  74 101 134 176 218 261 311
#     4   9  18  34  54  72 101 138 170 205 262 320
#
# _framework density 18.415966999999998
#
# number of rings (size 3 to 8) (size 9 to 14) (size 15 to 20)
#    0.000    2.125    1.250    3.000    0.000    3.750 
#    0.000    4.375    0.000    0.750    0.000    5.250 
#    0.000    0.000    0.000    0.000    0.000    0.000 
#
# Total GULP energy -357072.580191 kJ/mol
# GULP energy per Si atom -5579.259065 kJ/mol
# Density = 1.837405 g / cm^3
# Si number density = 18.415967 Si / 1000 Ang^3
#
#
#
# Elastic Constant Matrix: (Units=GPa)
#
#
# Indices 1 2 3 4 5 6 
#
# 1 114.3658 55.5950 22.5920 0.0000 0.0000 0.0000
# 2 55.5950 101.6092 29.6256 0.0000 0.0000 0.0000
# 3 22.5920 29.6256 25.6888 0.0000 0.0000 0.0000
# 4 0.0000 0.0000 0.0000 20.8653 0.0000 0.0000
# 5 0.0000 0.0000 0.0000 0.0000 19.4830 0.0000
# 6 0.0000 0.0000 0.0000 0.0000 0.0000 -0.1299
#
#
#
# Elastic Compliance Matrix: (Units=1/GPa)
#
#
# Indices 1 2 3 4 5 6 
#
# 1 0.012261 -0.005371 -0.004590 0.000000 0.000000 0.000000
# 2 -0.005371 0.017180 -0.015089 0.000000 0.000000 0.000000
# 3 -0.004590 -0.015089 0.060365 0.000000 0.000000 0.000000
# 4 0.000000 0.000000 0.000000 0.047926 0.000000 0.000000
# 5 0.000000 0.000000 0.000000 0.000000 0.051327 0.000000
# 6 0.000000 0.000000 0.000000 0.000000 0.000000 -7.699193
#
#
# Mechanical properties :
#
#
# Convention : Reuss Voigt Hill
#
# Bulk Modulus (GPa) = 25.18414 50.80987 37.99701
# Shear Modulus (GPa) = -0.67143 16.96710 8.14783
#
# Velocity S-wave (km/s) = -0.60447 3.03863 2.10569
# Velocity P-wave (km/s) = 3.63561 6.32147 5.15649
#
# Compressibility (1/GPa) = 0.03970753
#
# Stress axis : x y z
#
# Youngs Moduli (GPa) = 81.55815 58.20873 16.56581
#
# Poissons Ratio (x) = 0.31261 0.07603
# Poissons Ratio (y) = 0.43801 0.24996
# Poissons Ratio (z) = 0.37431 0.87832
#
# Static dielectric constant tensor:
#      x y z
#    x 1.628940 0.000000 0.000000 
#    y 0.000000 1.656970 0.000000 
#    z 0.000000 0.000000 1.620710 
# 
# From -- ./inp_files/4389.got.cif
#   From: 2010.05.17/outbox.cif.g08.bks.cpg/sg49_3_cif.got.tgz:4389.got - 2010.06.03 21:02:19.
