data_PCOD9392580
_publ_section_title
;
Structure prediction by ZEFSAII (Michael W. Deem and Ramdas Pophale) SiO2 
 PCOD9392580
Probable space group: P C C M
;
_chemical_formula_sum "Si O2"
_cell_formula_units_Z 64
_cell_length_a 12.195470
_cell_length_b 17.754151
_cell_length_c 15.996555
_cell_angle_alpha 90.000000
_cell_angle_beta 90.000000
_cell_angle_gamma 90.000000
_cell_volume 3463.577542
_symmetry_space_group_name_H-M "P C C M"
_symmetry_group_IT_number 49
_symmetry_cell_setting 'orthorhombic'
loop_
_space_group_symop_operation_xyz
x,y,z
-x,-y,z
x,-y,1/2-z
-x,y,1/2-z
-x,-y,-z
x,y,-z
-x,y,1/2+z
x,-y,1/2+z
loop_
_atom_site_type_symbol
_atom_site_label
_atom_site_fract_x
_atom_site_fract_y
_atom_site_fract_z
Si Si1 0.792634 0.091620 0.097568
Si Si2 0.172200 0.707222 0.405831
Si Si3 0.623116 0.795135 0.153324
Si Si4 0.131368 0.587413 0.255570
Si Si5 0.627435 0.776684 0.351468
Si Si6 0.193426 0.324475 0.406634
Si Si7 0.025846 0.804619 0.152345
Si Si8 0.622378 0.025453 0.653151
O O1 0.697260 0.149820 0.124780
O O2 0.907896 0.116620 0.140254
O O3 0.730476 0.013308 0.114474
O O4 0.813616 0.100034 0.000000
O O5 0.154589 0.677814 0.500000
O O6 0.289924 0.746255 0.396458
O O7 0.160499 0.641440 0.335075
O O8 0.086244 0.776172 0.390253
O O9 0.635740 0.771697 0.250890
O O10 0.498780 0.781860 0.126326
O O11 0.636914 0.885098 0.147841
O O12 0.164994 0.500000 0.250000
O O13 0.176522 0.620490 0.169618
O O14 0.000000 0.590315 0.250000
O O15 0.685417 0.708679 0.398316
O O16 0.170415 0.352140 0.500000
O O17 0.112800 0.255149 0.384436
O O18 0.000000 0.795074 0.250000
O O19 0.500000 0.000000 0.620316
O O20 0.621709 0.000000 0.750000
#
# Coordination Sequence:
#
# PCOD9392580 Si02
#       8
#     8   8   8   8   8   8   8   8
#     4  11  22  35  57  87 118 152 202 258 305 363
#     4  12  23  39  62  89 127 162 201 250 300 367
#     4  11  21  36  62  88 118 165 211 253 306 362
#     4  11  23  41  64  93 128 157 193 243 301 370
#     4  10  18  36  59  88 118 153 202 254 298 358
#     4  11  20  36  64  92 122 153 196 248 296 362
#     4  11  20  38  62  84 115 161 205 247 297 358
#     4  11  20  38  59  83 118 160 204 259 316 360
#
# _framework density 18.478005
#
# number of rings (size 3 to 8) (size 9 to 14) (size 15 to 20)
#    0.000    1.000    6.250    3.750    0.000    2.250 
#    0.000    1.875    0.000    3.000    0.000    1.750 
#    0.000    0.000    0.000    0.000    0.000    0.000 
#
# Total GULP energy -356744.741001 kJ/mol
# GULP energy per Si atom -5574.136578 kJ/mol
# Density = 1.843595 g / cm^3
# Si number density = 18.478005 Si / 1000 Ang^3
#
#
#
# Elastic Constant Matrix: (Units=GPa)
#
#
# Indices 1 2 3 4 5 6 
#
# 1 84.4386 30.4515 37.5145 0.0000 0.0000 0.0000
# 2 30.4515 47.5799 30.5572 0.0000 0.0000 0.0000
# 3 37.5145 30.5572 121.9361 0.0000 0.0000 0.0000
# 4 0.0000 0.0000 0.0000 -1.8892 0.0000 0.0000
# 5 0.0000 0.0000 0.0000 0.0000 22.8186 0.0000
# 6 0.0000 0.0000 0.0000 0.0000 0.0000 2.2451
#
#
#
# Elastic Compliance Matrix: (Units=1/GPa)
#
#
# Indices 1 2 3 4 5 6 
#
# 1 0.016182 -0.008532 -0.002840 0.000000 0.000000 0.000000
# 2 -0.008532 0.029548 -0.004780 0.000000 0.000000 0.000000
# 3 -0.002840 -0.004780 0.010273 0.000000 0.000000 0.000000
# 4 0.000000 0.000000 0.000000 -0.529322 0.000000 0.000000
# 5 0.000000 0.000000 0.000000 0.000000 0.043824 0.000000
# 6 0.000000 0.000000 0.000000 0.000000 0.000000 0.445418
#
#
# Mechanical properties :
#
#
# Convention : Reuss Voigt Hill
#
# Bulk Modulus (GPa) = 42.19830 50.11121 46.15475
# Shear Modulus (GPa) = 89.08510 14.99699 52.04104
#
# Velocity S-wave (km/s) = 6.95098 2.85197 5.31271
# Velocity P-wave (km/s) = 9.34388 6.16630 7.91616
#
# Compressibility (1/GPa) = 0.02369764
#
# Stress axis : x y z
#
# Youngs Moduli (GPa) = 61.79759 33.84360 97.34626
#
# Poissons Ratio (x) = 0.28877 0.27649
# Poissons Ratio (y) = 0.52728 0.46528
# Poissons Ratio (z) = 0.17552 0.16176
#
# Static dielectric constant tensor:
#      x y z
#    x 1.668910 0.000000 0.000000 
#    y 0.000000 1.679330 0.000000 
#    z 0.000000 0.000000 1.687650 
# 
# From -- ./inp_files/13113.got.cif
#   From: 2010.05.17/outbox.cif.g08.bks.cpg/sg49_7_cif.got.tgz:13113.got - 2010.06.03 21:02:19.
