data_PCOD9392165
_publ_section_title
;
Structure prediction by ZEFSAII (Michael W. Deem and Ramdas Pophale) SiO2 
 PCOD9392165
Probable space group: P C C M
;
_chemical_formula_sum "Si O2"
_cell_formula_units_Z 48
_cell_length_a 9.259071
_cell_length_b 31.887653
_cell_length_c 8.586472
_cell_angle_alpha 90.000000
_cell_angle_beta 90.000000
_cell_angle_gamma 90.000000
_cell_volume 2535.156229
_symmetry_space_group_name_H-M "P C C M"
_symmetry_group_IT_number 49
_symmetry_cell_setting 'orthorhombic'
loop_
_space_group_symop_operation_xyz
x,y,z
-x,-y,z
x,-y,1/2-z
-x,y,1/2-z
-x,-y,-z
x,y,-z
-x,y,1/2+z
x,-y,1/2+z
loop_
_atom_site_type_symbol
_atom_site_label
_atom_site_fract_x
_atom_site_fract_y
_atom_site_fract_z
Si Si1 0.838268 0.286412 0.312409
Si Si2 0.338553 0.954044 0.686619
Si Si3 0.663558 0.630946 0.187392
Si Si4 0.838348 0.875949 0.313673
Si Si5 0.662391 0.203447 0.687669
Si Si6 0.664913 0.456774 0.814108
O O1 0.842801 0.286469 0.500000
O O2 0.757161 0.328985 0.263754
O O3 0.747671 0.245511 0.264191
O O4 0.000000 0.284588 0.250000
O O5 0.500000 0.945246 0.750000
O O6 0.341611 0.954580 0.500000
O O7 0.232346 0.918390 0.748001
O O8 0.297552 0.000000 0.750000
O O9 0.500000 0.635842 0.250000
O O10 0.726309 0.587202 0.252890
O O11 0.658082 0.628578 0.000000
O O12 0.839220 0.877047 0.500000
O O13 0.743598 0.836925 0.254890
O O14 0.000000 0.871317 0.250000
O O15 0.500000 0.204951 0.750000
O O16 0.661239 0.201063 0.500000
O O17 0.731641 0.500000 0.750000
O O18 0.500000 0.456314 0.750000
O O19 0.662041 0.457578 0.000000
#
# Coordination Sequence:
#
# PCOD9392165 Si02
#       6
#     8   8   8   8   8   8
#     4  10  23  39  58  82 113 148 187 230 281 337
#     4  11  22  40  64  92 123 160 202 248 295 346
#     4  10  19  33  52  79 109 142 182 228 275 330
#     4  12  25  42  62  89 122 159 198 243 293 348
#     4  11  23  41  63  90 118 152 193 238 287 341
#     4  10  17  27  45  72 104 140 177 223 274 325
#
# _framework density 18.933745999999999
#
# number of rings (size 3 to 8) (size 9 to 14) (size 15 to 20)
#    0.000    1.333    0.000    9.000    0.000    4.333 
#    0.000    1.667    0.000    0.500    0.000    3.500 
#    0.000    0.000    0.000    0.000    0.000    0.000 
#
# Total GULP energy -268340.346367 kJ/mol
# GULP energy per Si atom -5590.423883 kJ/mol
# Density = 1.889065 g / cm^3
# Si number density = 18.933746 Si / 1000 Ang^3
#
#
#
# Elastic Constant Matrix: (Units=GPa)
#
#
# Indices 1 2 3 4 5 6 
#
# 1 130.7712 108.2250 49.8687 0.0000 0.0000 0.0000
# 2 108.2250 178.4712 68.6290 0.0000 0.0000 0.0000
# 3 49.8687 68.6290 143.7619 0.0000 0.0000 0.0000
# 4 0.0000 0.0000 0.0000 22.9814 0.0000 0.0000
# 5 0.0000 0.0000 0.0000 0.0000 29.9850 0.0000
# 6 0.0000 0.0000 0.0000 0.0000 0.0000 -28.4802
#
#
#
# Elastic Compliance Matrix: (Units=1/GPa)
#
#
# Indices 1 2 3 4 5 6 
#
# 1 0.015489 -0.008974 -0.001089 0.000000 0.000000 0.000000
# 2 -0.008974 0.012062 -0.002645 0.000000 0.000000 0.000000
# 3 -0.001089 -0.002645 0.008597 0.000000 0.000000 0.000000
# 4 0.000000 0.000000 0.000000 0.043513 0.000000 0.000000
# 5 0.000000 0.000000 0.000000 0.000000 0.033350 0.000000
# 6 0.000000 0.000000 0.000000 0.000000 0.000000 -0.035112
#
#
# Mechanical properties :
#
#
# Convention : Reuss Voigt Hill
#
# Bulk Modulus (GPa) = 93.18475 100.71664 96.95069
# Shear Modulus (GPa) = 46.77643 19.98268 33.37955
#
# Velocity S-wave (km/s) = 4.97584 3.25222 4.20332
# Velocity P-wave (km/s) = 9.07386 8.21050 8.65296
#
# Compressibility (1/GPa) = 0.01073137
#
# Stress axis : x y z
#
# Youngs Moduli (GPa) = 64.56331 82.90523 116.32616
#
# Poissons Ratio (x) = 0.74396 0.12668
# Poissons Ratio (y) = 0.57936 0.30772
# Poissons Ratio (z) = 0.07031 0.21931
#
# Static dielectric constant tensor:
#      x y z
#    x 1.626890 0.000000 0.000000 
#    y 0.000000 1.673740 0.000000 
#    z 0.000000 0.000000 1.636420 
# 
# From -- ./inp_files/2089.got.cif
#   From: 2010.05.17/outbox.cif.g08.bks.cpg/sg49_2_cif.got.tgz:2089.got - 2010.06.03 21:02:19.
