data_PCOD9392925
_publ_section_title
;
Structure prediction by ZEFSAII (Michael W. Deem and Ramdas Pophale) SiO2 
 PCOD9392925
Probable space group: P C C M
;
_chemical_formula_sum "Si O2"
_cell_formula_units_Z 64
_cell_length_a 15.635540
_cell_length_b 25.383682
_cell_length_c 8.623365
_cell_angle_alpha 90.000000
_cell_angle_beta 90.000000
_cell_angle_gamma 90.000000
_cell_volume 3422.506425
_symmetry_space_group_name_H-M "P C C M"
_symmetry_group_IT_number 49
_symmetry_cell_setting 'orthorhombic'
loop_
_space_group_symop_operation_xyz
x,y,z
-x,-y,z
x,-y,1/2-z
-x,y,1/2-z
-x,-y,-z
x,y,-z
-x,y,1/2+z
x,-y,1/2+z
loop_
_atom_site_type_symbol
_atom_site_label
_atom_site_fract_x
_atom_site_fract_y
_atom_site_fract_z
Si Si1 0.090290 0.358917 0.314763
Si Si2 0.588918 0.826920 0.186558
Si Si3 0.411097 0.405609 0.186589
Si Si4 0.630747 0.289406 0.314739
Si Si5 0.231815 0.444114 0.686173
Si Si6 0.907085 0.941408 0.686253
Si Si7 0.825253 0.740762 0.816184
Si Si8 0.227278 0.147935 0.314342
O O1 0.088276 0.357937 0.500000
O O2 0.167166 0.397629 0.265447
O O3 0.107956 0.300144 0.253000
O O4 0.000000 0.378063 0.250000
O O5 0.500000 0.849761 0.250000
O O6 0.594445 0.765937 0.245490
O O7 0.677414 0.852936 0.242616
O O8 0.588263 0.826889 0.000000
O O9 0.500000 0.427908 0.250000
O O10 0.403791 0.344693 0.245475
O O11 0.326157 0.433719 0.246841
O O12 0.411223 0.406203 0.000000
O O13 0.616249 0.289433 0.500000
O O14 0.732161 0.285589 0.289332
O O15 0.200650 0.500000 0.750000
O O16 0.236008 0.445112 0.500000
O O17 0.911496 0.943293 0.500000
O O18 0.832457 0.900980 0.731809
O O19 0.000000 0.924490 0.750000
O O20 0.890839 0.000000 0.750000
O O21 0.818350 0.798138 0.740390
O O22 0.837375 0.746608 0.000000
O O23 0.235200 0.148652 0.500000
#
# Coordination Sequence:
#
# PCOD9392925 Si02
#       8
#     8   8   8   8   8   8   8   8
#     4  11  24  41  63  89 116 148 187 231 286 347
#     4  10  19  32  51  80 116 158 200 240 288 339
#     4  11  21  36  58  85 116 148 185 230 279 338
#     4   8  16  30  51  79 110 147 185 223 274 328
#     4  11  25  44  64  86 110 144 186 233 287 340
#     4  10  21  37  60  86 116 152 196 245 296 346
#     4  10  19  35  58  85 118 154 190 231 283 338
#     4  10  21  36  55  85 121 159 199 241 288 344
#
# _framework density 18.699746000000001
#
# number of rings (size 3 to 8) (size 9 to 14) (size 15 to 20)
#    0.000    1.875    1.250    4.125    0.000    4.500 
#    0.000    5.000    0.000    0.375    0.000    2.625 
#    0.000    0.000    0.000    0.000    0.000    0.000 
#
# Total GULP energy -357336.242797 kJ/mol
# GULP energy per Si atom -5583.378794 kJ/mol
# Density = 1.865718 g / cm^3
# Si number density = 18.699746 Si / 1000 Ang^3
#
#
#
# Elastic Constant Matrix: (Units=GPa)
#
#
# Indices 1 2 3 4 5 6 
#
# 1 124.7407 62.7559 46.3283 0.0000 0.0000 0.0000
# 2 62.7559 84.8029 28.6957 0.0000 0.0000 0.0000
# 3 46.3283 28.6957 54.0912 0.0000 0.0000 0.0000
# 4 0.0000 0.0000 0.0000 20.7624 0.0000 0.0000
# 5 0.0000 0.0000 0.0000 0.0000 30.1879 0.0000
# 6 0.0000 0.0000 0.0000 0.0000 0.0000 -10.4459
#
#
#
# Elastic Compliance Matrix: (Units=1/GPa)
#
#
# Indices 1 2 3 4 5 6 
#
# 1 0.015598 -0.008558 -0.008819 0.000000 0.000000 0.000000
# 2 -0.008558 0.019068 -0.002786 0.000000 0.000000 0.000000
# 3 -0.008819 -0.002786 0.027518 0.000000 0.000000 0.000000
# 4 0.000000 0.000000 0.000000 0.048164 0.000000 0.000000
# 5 0.000000 0.000000 0.000000 0.000000 0.033126 0.000000
# 6 0.000000 0.000000 0.000000 0.000000 0.000000 -0.095732
#
#
# Mechanical properties :
#
#
# Convention : Reuss Voigt Hill
#
# Bulk Modulus (GPa) = 45.74922 59.91052 52.82987
# Shear Modulus (GPa) = 52.43631 16.49120 34.46375
#
# Velocity S-wave (km/s) = 5.30114 2.97289 4.29768
# Velocity P-wave (km/s) = 7.87323 6.62509 7.27597
#
# Compressibility (1/GPa) = 0.02185830
#
# Stress axis : x y z
#
# Youngs Moduli (GPa) = 64.11260 52.44376 36.33952
#
# Poissons Ratio (x) = 0.44884 0.32047
# Poissons Ratio (y) = 0.54870 0.10123
# Poissons Ratio (z) = 0.56540 0.14609
#
# Static dielectric constant tensor:
#      x y z
#    x 1.651670 0.000000 0.000000 
#    y 0.000000 1.646450 0.000000 
#    z 0.000000 0.000000 1.625250 
# 
# From -- ./inp_files/4412.got.cif
#   From: 2010.05.17/outbox.cif.g08.bks.cpg/sg49_3_cif.got.tgz:4412.got - 2010.06.03 21:02:19.
