data_PCOD9392937
_publ_section_title
;
Structure prediction by ZEFSAII (Michael W. Deem and Ramdas Pophale) SiO2 
 PCOD9392937
Probable space group: P C C M
;
_chemical_formula_sum "Si O2"
_cell_formula_units_Z 36
_cell_length_a 13.207422
_cell_length_b 16.515214
_cell_length_c 9.519298
_cell_angle_alpha 90.000000
_cell_angle_beta 90.000000
_cell_angle_gamma 90.000000
_cell_volume 2076.381652
_symmetry_space_group_name_H-M "P C C M"
_symmetry_group_IT_number 49
_symmetry_cell_setting 'orthorhombic'
loop_
_space_group_symop_operation_xyz
x,y,z
-x,-y,z
x,-y,1/2-z
-x,y,1/2-z
-x,-y,-z
x,y,-z
-x,y,1/2+z
x,-y,1/2+z
loop_
_atom_site_type_symbol
_atom_site_label
_atom_site_fract_x
_atom_site_fract_y
_atom_site_fract_z
Si Si1 0.594077 0.381957 0.158438
Si Si2 0.709223 0.750624 0.834048
Si Si3 0.762243 0.500000 0.750000
Si Si4 0.898907 0.648082 0.839229
Si Si5 0.605415 0.919097 0.830978
O O1 0.500000 0.411302 0.250000
O O2 0.635918 0.302955 0.237936
O O3 0.685289 0.446568 0.157893
O O4 0.562225 0.364400 0.000000
O O5 0.822473 0.720786 0.798469
O O6 0.681944 0.844239 0.815535
O O7 0.694042 0.730544 0.000000
O O8 0.833435 0.565695 0.824648
O O9 0.000000 0.643483 0.750000
O O10 0.927928 0.659156 0.000000
O O11 0.500000 0.898671 0.750000
O O12 0.641044 0.000000 0.750000
O O13 0.589719 0.931730 0.000000
#
# Coordination Sequence:
#
# PCOD9392937 Si02
#       5
#     8   8   4   8   8
#     4  11  22  34  51  74 102 138 176 212 253 303
#     4   9  20  37  54  74 104 138 171 210 254 301
#     4  10  22  36  52  72 100 134 172 214 256 304
#     4  10  21  37  55  75  99 128 167 215 262 305
#     4  10  19  32  52  79 109 139 168 201 243 293
#
# _framework density 17.337852999999999
#
# number of rings (size 3 to 8) (size 9 to 14) (size 15 to 20)
#    0.000    2.000    0.000    4.000    0.000   12.444 
#    0.000    0.000    0.000    0.667    0.000    4.667 
#    0.000    0.000    0.000    0.000    0.000    0.000 
#
# Total GULP energy -200761.519404 kJ/mol
# GULP energy per Si atom -5576.708872 kJ/mol
# Density = 1.729839 g / cm^3
# Si number density = 17.337853 Si / 1000 Ang^3
#
#
#
# Elastic Constant Matrix: (Units=GPa)
#
#
# Indices 1 2 3 4 5 6 
#
# 1 113.3718 59.1770 60.4124 0.0000 0.0000 0.0000
# 2 59.1770 116.9885 43.6226 0.0000 0.0000 0.0000
# 3 60.4124 43.6226 107.2823 0.0000 0.0000 0.0000
# 4 0.0000 0.0000 0.0000 27.8085 0.0000 0.0000
# 5 0.0000 0.0000 0.0000 0.0000 15.3966 0.0000
# 6 0.0000 0.0000 0.0000 0.0000 0.0000 11.5839
#
#
#
# Elastic Compliance Matrix: (Units=1/GPa)
#
#
# Indices 1 2 3 4 5 6 
#
# 1 0.014863 -0.005183 -0.006262 0.000000 0.000000 0.000000
# 2 -0.005183 0.011883 -0.001913 0.000000 0.000000 0.000000
# 3 -0.006262 -0.001913 0.013625 0.000000 0.000000 0.000000
# 4 0.000000 0.000000 0.000000 0.035960 0.000000 0.000000
# 5 0.000000 0.000000 0.000000 0.000000 0.064949 0.000000
# 6 0.000000 0.000000 0.000000 0.000000 0.000000 0.086327
#
#
# Mechanical properties :
#
#
# Convention : Reuss Voigt Hill
#
# Bulk Modulus (GPa) = 73.23471 73.78518 73.50995
# Shear Modulus (GPa) = 19.31428 22.58649 20.95039
#
# Velocity S-wave (km/s) = 3.34128 3.61325 3.47992
# Velocity P-wave (km/s) = 7.56419 7.74965 7.65748
#
# Compressibility (1/GPa) = 0.01365473
#
# Stress axis : x y z
#
# Youngs Moduli (GPa) = 67.28202 84.15352 73.39300
#
# Poissons Ratio (x) = 0.43618 0.45958
# Poissons Ratio (y) = 0.34874 0.14041
# Poissons Ratio (z) = 0.42131 0.16099
#
# Static dielectric constant tensor:
#      x y z
#    x 1.590360 0.000000 0.000000 
#    y 0.000000 1.597550 0.000000 
#    z 0.000000 0.000000 1.443970 
# 
# From -- ./inp_files/3384.got.cif
#   From: 2010.05.17/outbox.cif.g08.bks.cpg/sg49_2_cif.got.tgz:3384.got - 2010.06.03 21:02:19.
