data_PCOD9392566
_publ_section_title
;
Structure prediction by ZEFSAII (Michael W. Deem and Ramdas Pophale) SiO2 
 PCOD9392566
Probable space group: P C C M
;
_chemical_formula_sum "Si O2"
_cell_formula_units_Z 58
_cell_length_a 17.599734
_cell_length_b 10.319212
_cell_length_c 14.757051
_cell_angle_alpha 90.000000
_cell_angle_beta 90.000000
_cell_angle_gamma 90.000000
_cell_volume 2680.107518
_symmetry_space_group_name_H-M "P C C M"
_symmetry_group_IT_number 49
_symmetry_cell_setting 'orthorhombic'
loop_
_space_group_symop_operation_xyz
x,y,z
-x,-y,z
x,-y,1/2-z
-x,y,1/2-z
-x,-y,-z
x,y,-z
-x,y,1/2+z
x,-y,1/2+z
loop_
_atom_site_type_symbol
_atom_site_label
_atom_site_fract_x
_atom_site_fract_y
_atom_site_fract_z
Si Si1 0.005832 0.649251 0.890192
Si Si2 0.750781 0.953175 0.845670
Si Si3 0.417279 0.543885 0.391164
Si Si4 0.405264 0.150564 0.100647
Si Si5 0.500000 0.000000 0.250000
Si Si6 0.740949 0.557133 0.610556
Si Si7 0.157602 0.207336 0.391123
Si Si8 0.833989 0.299837 0.390454
O O1 0.076229 0.737116 0.857253
O O2 0.000000 0.500000 0.858365
O O3 0.923138 0.705481 0.871427
O O4 0.013812 0.641664 0.000000
O O5 0.676172 0.920658 0.903064
O O6 0.794435 0.818283 0.841336
O O7 0.720346 0.000000 0.750000
O O8 0.811309 0.063571 0.873261
O O9 0.500000 0.500000 0.356683
O O10 0.419199 0.522612 0.500000
O O11 0.398975 0.695862 0.379774
O O12 0.344767 0.463903 0.356468
O O13 0.451792 0.088153 0.181733
O O14 0.441093 0.138999 0.000000
O O15 0.739193 0.558262 0.500000
O O16 0.779166 0.689896 0.640645
O O17 0.795171 0.436177 0.634638
O O18 0.153344 0.216710 0.500000
O O19 0.823556 0.284869 0.500000
#
# Coordination Sequence:
#
# PCOD9392566 Si02
#       8
#     8   8   8   8   2   8   8   8
#     4   9  16  30  58  95 127 156 207 278 335 396
#     4  12  25  42  60  87 128 173 223 271 316 387
#     4   9  18  34  61  96 126 160 213 268 326 397
#     4  11  23  44  71  95 131 180 218 264 336 398
#     4  12  26  44  66 102 140 166 222 274 320 394
#     4   9  16  30  58  90 118 154 206 262 323 394
#     4  10  20  35  60  94 124 159 212 273 334 392
#     4  10  18  34  63  90 119 166 213 262 335 404
#
# _framework density 21.640923000000001
#
# number of rings (size 3 to 8) (size 9 to 14) (size 15 to 20)
#    0.000    1.931    3.448    1.448    0.000    1.655 
#    0.000    7.241    0.000    0.828    0.000    0.000 
#    0.000    0.000    0.000    0.000    0.000    0.000 
#
# Total GULP energy -323840.212630 kJ/mol
# GULP energy per Si atom -5583.451942 kJ/mol
# Density = 2.159167 g / cm^3
# Si number density = 21.640923 Si / 1000 Ang^3
#
#
#
# Elastic Constant Matrix: (Units=GPa)
#
#
# Indices 1 2 3 4 5 6 
#
# 1 108.4622 20.7722 12.7319 0.0000 0.0000 0.0000
# 2 20.7722 83.4050 15.7338 0.0000 0.0000 0.0000
# 3 12.7319 15.7338 71.5556 0.0000 0.0000 0.0000
# 4 0.0000 0.0000 0.0000 63.8793 0.0000 0.0000
# 5 0.0000 0.0000 0.0000 0.0000 8.5514 0.0000
# 6 0.0000 0.0000 0.0000 0.0000 0.0000 28.2026
#
#
#
# Elastic Compliance Matrix: (Units=1/GPa)
#
#
# Indices 1 2 3 4 5 6 
#
# 1 0.009789 -0.002201 -0.001258 0.000000 0.000000 0.000000
# 2 -0.002201 0.013003 -0.002468 0.000000 0.000000 0.000000
# 3 -0.001258 -0.002468 0.014742 0.000000 0.000000 0.000000
# 4 0.000000 0.000000 0.000000 0.015655 0.000000 0.000000
# 5 0.000000 0.000000 0.000000 0.000000 0.116939 0.000000
# 6 0.000000 0.000000 0.000000 0.000000 0.000000 0.035458
#
#
# Mechanical properties :
#
#
# Convention : Reuss Voigt Hill
#
# Bulk Modulus (GPa) = 38.93862 40.21096 39.57479
# Shear Modulus (GPa) = 22.12407 34.40565 28.26486
#
# Velocity S-wave (km/s) = 3.20085 3.99161 3.61790
# Velocity P-wave (km/s) = 5.62963 6.31389 5.98155
#
# Compressibility (1/GPa) = 0.02568145
#
# Stress axis : x y z
#
# Youngs Moduli (GPa) = 102.15634 76.90373 67.83546
#
# Poissons Ratio (x) = 0.16924 0.08533
# Poissons Ratio (y) = 0.22481 0.16739
# Poissons Ratio (z) = 0.12850 0.18977
#
# Static dielectric constant tensor:
#      x y z
#    x 1.839020 0.000000 0.000000 
#    y 0.000000 1.752890 0.000000 
#    z 0.000000 0.000000 1.833330 
# 
# From -- ./inp_files/18193.got.cif
#   From: 2010.05.17/outbox.cif.g08.bks.cpg/sg49_10_cif.got.tgz:18193.got - 2010.06.03 21:02:19.
