data_PCOD9392420
_publ_section_title
;
Structure prediction by ZEFSAII (Michael W. Deem and Ramdas Pophale) SiO2 
 PCOD9392420
Probable space group: P C C M
;
_chemical_formula_sum "Si O2"
_cell_formula_units_Z 48
_cell_length_a 14.687494
_cell_length_b 9.980443
_cell_length_c 14.011951
_cell_angle_alpha 90.000000
_cell_angle_beta 90.000000
_cell_angle_gamma 90.000000
_cell_volume 2053.979623
_symmetry_space_group_name_H-M "P C C M"
_symmetry_group_IT_number 49
_symmetry_cell_setting 'orthorhombic'
loop_
_space_group_symop_operation_xyz
x,y,z
-x,-y,z
x,-y,1/2-z
-x,y,1/2-z
-x,-y,-z
x,y,-z
-x,y,1/2+z
x,-y,1/2+z
loop_
_atom_site_type_symbol
_atom_site_label
_atom_site_fract_x
_atom_site_fract_y
_atom_site_fract_z
Si Si1 0.550357 0.141464 0.390768
Si Si2 0.726605 0.016997 0.609957
Si Si3 0.967447 0.350580 0.115703
Si Si4 0.076837 0.088806 0.846751
Si Si5 0.238962 0.713034 0.116691
Si Si6 0.429490 0.615379 0.883954
O O1 0.567308 0.188825 0.500000
O O2 0.479385 0.248572 0.353044
O O3 0.500000 0.000000 0.391918
O O4 0.647949 0.108917 0.345654
O O5 0.696864 0.995274 0.500000
O O6 0.741466 0.866491 0.647200
O O7 0.823484 0.088883 0.610097
O O8 0.034519 0.236279 0.155735
O O9 0.000000 0.500000 0.138919
O O10 0.862725 0.327137 0.146944
O O11 0.970099 0.336775 0.000000
O O12 0.088843 0.000000 0.750000
O O13 0.000000 0.000000 0.899099
O O14 0.324287 0.621536 0.148545
O O15 0.237177 0.711459 0.000000
O O16 0.500000 0.500000 0.855974
O O17 0.423538 0.611017 0.000000
#
# Coordination Sequence:
#
# PCOD9392420 Si02
#       6
#     8   8   8   8   8   8
#     4   9  15  25  43  72 102 133 176 225 283 344
#     4  10  18  30  55  81 107 144 191 244 291 344
#     4  10  21  37  60  90 123 154 194 251 308 359
#     4  11  23  38  56  82 114 155 199 243 289 353
#     4   9  16  28  48  76 111 149 184 231 297 352
#     4   9  16  25  40  69 111 147 175 220 286 357
#
# _framework density 23.369268000000002
#
# number of rings (size 3 to 8) (size 9 to 14) (size 15 to 20)
#    0.000    2.333    3.333    0.500    0.000    2.000 
#    0.000    6.667    0.000    0.500    0.000    0.000 
#    0.000    0.000    0.000    0.000    0.000    0.000 
#
# Total GULP energy -267955.509906 kJ/mol
# GULP energy per Si atom -5582.406456 kJ/mol
# Density = 2.331608 g / cm^3
# Si number density = 23.369268 Si / 1000 Ang^3
#
#
#
# Elastic Constant Matrix: (Units=GPa)
#
#
# Indices 1 2 3 4 5 6 
#
# 1 216.8411 71.1024 15.6716 0.0000 0.0000 0.0000
# 2 71.1024 143.0651 6.1079 0.0000 0.0000 0.0000
# 3 15.6716 6.1079 80.2459 0.0000 0.0000 0.0000
# 4 0.0000 0.0000 0.0000 26.4673 0.0000 0.0000
# 5 0.0000 0.0000 0.0000 0.0000 11.5837 0.0000
# 6 0.0000 0.0000 0.0000 0.0000 0.0000 40.1368
#
#
#
# Elastic Compliance Matrix: (Units=1/GPa)
#
#
# Indices 1 2 3 4 5 6 
#
# 1 0.005571 -0.002731 -0.000880 0.000000 0.000000 0.000000
# 2 -0.002731 0.008352 -0.000102 0.000000 0.000000 0.000000
# 3 -0.000880 -0.000102 0.012641 0.000000 0.000000 0.000000
# 4 0.000000 0.000000 0.000000 0.037782 0.000000 0.000000
# 5 0.000000 0.000000 0.000000 0.000000 0.086329 0.000000
# 6 0.000000 0.000000 0.000000 0.000000 0.000000 0.024915
#
#
# Mechanical properties :
#
#
# Convention : Reuss Voigt Hill
#
# Bulk Modulus (GPa) = 52.25547 69.54621 60.90084
# Shear Modulus (GPa) = 26.39982 38.78892 32.59437
#
# Velocity S-wave (km/s) = 3.36472 4.07852 3.73869
# Velocity P-wave (km/s) = 6.12409 7.21133 6.68983
#
# Compressibility (1/GPa) = 0.01913675
#
# Stress axis : x y z
#
# Youngs Moduli (GPa) = 179.50752 119.73873 79.10546
#
# Poissons Ratio (x) = 0.32702 0.06962
# Poissons Ratio (y) = 0.49025 0.00809
# Poissons Ratio (z) = 0.15798 0.01225
#
# Static dielectric constant tensor:
#      x y z
#    x 1.930130 0.000000 0.000000 
#    y 0.000000 1.871750 0.000000 
#    z 0.000000 0.000000 2.003450 
# 
# From -- ./inp_files/17707.got.cif
#   From: 2010.05.17/outbox.cif.g08.bks.cpg/sg49_9_cif.got.tgz:17707.got - 2010.06.03 21:02:19.
