data_PCOD9392188
_publ_section_title
;
Structure prediction by ZEFSAII (Michael W. Deem and Ramdas Pophale) SiO2 
 PCOD9392188
Probable space group: P C C M
;
_chemical_formula_sum "Si O2"
_cell_formula_units_Z 64
_cell_length_a 31.668673
_cell_length_b 14.676147
_cell_length_c 8.669189
_cell_angle_alpha 90.000000
_cell_angle_beta 90.000000
_cell_angle_gamma 90.000000
_cell_volume 4029.214517
_symmetry_space_group_name_H-M "P C C M"
_symmetry_group_IT_number 49
_symmetry_cell_setting 'orthorhombic'
loop_
_space_group_symop_operation_xyz
x,y,z
-x,-y,z
x,-y,1/2-z
-x,y,1/2-z
-x,-y,-z
x,y,-z
-x,y,1/2+z
x,-y,1/2+z
loop_
_atom_site_type_symbol
_atom_site_label
_atom_site_fract_x
_atom_site_fract_y
_atom_site_fract_z
Si Si1 0.877577 0.787424 0.814659
Si Si2 0.045980 0.899986 0.816618
Si Si3 0.207830 0.102034 0.185331
Si Si4 0.368564 0.897358 0.315801
Si Si5 0.288804 0.208399 0.684962
Si Si6 0.456668 0.103478 0.684609
Si Si7 0.255192 0.403729 0.684516
Si Si8 0.160593 0.596518 0.684981
O O1 0.918155 0.829963 0.734475
O O2 0.835886 0.846614 0.777297
O O3 0.867403 0.683354 0.770772
O O4 0.883271 0.791418 0.000000
O O5 0.000000 0.875418 0.750000
O O6 0.056809 0.000000 0.750000
O O7 0.043430 0.906193 0.000000
O O8 0.246984 0.155968 0.258416
O O9 0.206891 0.000000 0.250000
O O10 0.212546 0.100770 0.000000
O O11 0.371881 0.902948 0.500000
O O12 0.329137 0.836848 0.264382
O O13 0.412327 0.858523 0.245939
O O14 0.362545 0.000000 0.250000
O O15 0.292383 0.199399 0.500000
O O16 0.282575 0.315005 0.723626
O O17 0.500000 0.145753 0.750000
O O18 0.457622 0.101532 0.500000
O O19 0.456208 0.000000 0.750000
O O20 0.271110 0.500000 0.750000
O O21 0.251881 0.410022 0.500000
O O22 0.208099 0.389961 0.751902
O O23 0.145187 0.500000 0.750000
O O24 0.162819 0.592477 0.500000
#
# Coordination Sequence:
#
# PCOD9392188 Si02
#       8
#     8   8   8   8   8   8   8   8
#     4  10  21  36  54  77 104 133 168 206 247 293
#     4  11  22  37  58  80 106 135 167 204 247 295
#     4  11  22  35  49  69  99 134 169 205 243 287
#     4  11  21  33  48  67  95 133 172 210 252 300
#     4  11  22  35  49  69  97 132 169 206 247 297
#     4  10  17  28  45  66  92 123 164 210 253 297
#     4  10  20  33  52  73  97 127 165 208 251 297
#     4  10  19  33  53  77 104 131 164 205 248 295
#
# _framework density 15.883988
#
# number of rings (size 3 to 8) (size 9 to 14) (size 15 to 20)
#    0.000    1.500    1.250    7.875    0.000    4.500 
#    0.000    0.000    0.000    0.375    0.000    2.625 
#    0.000    0.500    0.000    5.250    0.000    2.875 
#
# Total GULP energy -357396.698091 kJ/mol
# GULP energy per Si atom -5584.323408 kJ/mol
# Density = 1.584784 g / cm^3
# Si number density = 15.883988 Si / 1000 Ang^3
#
#
#
# Elastic Constant Matrix: (Units=GPa)
#
#
# Indices 1 2 3 4 5 6 
#
# 1 112.9193 71.5818 58.5342 0.0000 0.0000 0.0000
# 2 71.5818 118.9564 55.9435 0.0000 0.0000 0.0000
# 3 58.5342 55.9435 109.7906 0.0000 0.0000 0.0000
# 4 0.0000 0.0000 0.0000 -8.4597 0.0000 0.0000
# 5 0.0000 0.0000 0.0000 0.0000 29.5910 0.0000
# 6 0.0000 0.0000 0.0000 0.0000 0.0000 6.0520
#
#
#
# Elastic Compliance Matrix: (Units=1/GPa)
#
#
# Indices 1 2 3 4 5 6 
#
# 1 0.016016 -0.007394 -0.004772 0.000000 0.000000 0.000000
# 2 -0.007394 0.014469 -0.003431 0.000000 0.000000 0.000000
# 3 -0.004772 -0.003431 0.013400 0.000000 0.000000 0.000000
# 4 0.000000 0.000000 0.000000 -0.118207 0.000000 0.000000
# 5 0.000000 0.000000 0.000000 0.000000 0.033794 0.000000
# 6 0.000000 0.000000 0.000000 0.000000 0.000000 0.165234
#
#
# Mechanical properties :
#
#
# Convention : Reuss Voigt Hill
#
# Bulk Modulus (GPa) = 78.77993 79.30950 79.04471
# Shear Modulus (GPa) = 31.22459 15.81046 23.51753
#
# Velocity S-wave (km/s) = 4.43853 3.15837 3.85201
# Velocity P-wave (km/s) = 8.71620 7.95860 8.34600
#
# Compressibility (1/GPa) = 0.01269359
#
# Stress axis : x y z
#
# Youngs Moduli (GPa) = 62.43588 69.11276 74.62546
#
# Poissons Ratio (x) = 0.51101 0.35608
# Poissons Ratio (y) = 0.46164 0.25602
# Poissons Ratio (z) = 0.29791 0.23710
#
# Static dielectric constant tensor:
#      x y z
#    x 1.530700 0.000000 0.000000 
#    y 0.000000 1.523810 0.000000 
#    z 0.000000 0.000000 1.532290 
# 
# From -- ./inp_files/7053.got.cif
#   From: 2010.05.17/outbox.cif.g08.bks.cpg/sg49_4_cif.got.tgz:7053.got - 2010.06.03 21:02:19.
