data_PCOD9392000
_publ_section_title
;
Structure prediction by ZEFSAII (Michael W. Deem and Ramdas Pophale) SiO2 
 PCOD9392000
Probable space group: P C C M
;
_chemical_formula_sum "Si O2"
_cell_formula_units_Z 40
_cell_length_a 27.244207
_cell_length_b 9.408428
_cell_length_c 8.600159
_cell_angle_alpha 90.000000
_cell_angle_beta 90.000000
_cell_angle_gamma 90.000000
_cell_volume 2204.437131
_symmetry_space_group_name_H-M "P C C M"
_symmetry_group_IT_number 49
_symmetry_cell_setting 'orthorhombic'
loop_
_space_group_symop_operation_xyz
x,y,z
-x,-y,z
x,-y,1/2-z
-x,y,1/2-z
-x,-y,-z
x,y,-z
-x,y,1/2+z
x,-y,1/2+z
loop_
_atom_site_type_symbol
_atom_site_label
_atom_site_fract_x
_atom_site_fract_y
_atom_site_fract_z
Si Si1 0.759333 0.339682 0.687538
Si Si2 0.052555 0.659477 0.313254
Si Si3 0.651277 0.661730 0.813528
Si Si4 0.449451 0.337578 0.685179
Si Si5 0.147057 0.841187 0.687908
O O1 0.764252 0.500000 0.750000
O O2 0.760732 0.347443 0.500000
O O3 0.705158 0.280004 0.729315
O O4 0.804495 0.243665 0.741289
O O5 0.059886 0.500000 0.250000
O O6 0.050654 0.654196 0.500000
O O7 0.097943 0.757342 0.264222
O O8 0.000000 0.710719 0.250000
O O9 0.652993 0.500000 0.750000
O O10 0.601953 0.728373 0.742415
O O11 0.646458 0.658994 0.000000
O O12 0.448765 0.500000 0.750000
O O13 0.500000 0.272449 0.750000
O O14 0.450923 0.342565 0.500000
O O15 0.147798 0.843779 0.500000
O O16 0.146920 0.000000 0.750000
#
# Coordination Sequence:
#
# PCOD9392000 Si02
#       5
#     8   8   8   8   8
#     4   9  18  32  50  71  95 124 162 203 245 291
#     4  10  20  35  56  80 105 132 167 204 243 289
#     4   9  15  24  38  57  82 112 147 189 233 280
#     4  10  16  22  32  49  77 112 149 186 228 280
#     4  10  22  37  52  74 102 133 166 203 245 292
#
# _framework density 18.145220999999999
#
# number of rings (size 3 to 8) (size 9 to 14) (size 15 to 20)
#    0.000    2.400    0.000    6.000    0.000    3.600 
#    0.000    2.000    0.000    0.000    0.000    0.000 
#    0.000    0.800    0.000    9.200    0.000    5.800 
#
# Total GULP energy -222959.859928 kJ/mol
# GULP energy per Si atom -5573.996498 kJ/mol
# Density = 1.810392 g / cm^3
# Si number density = 18.145221 Si / 1000 Ang^3
#
#
#
# Elastic Constant Matrix: (Units=GPa)
#
#
# Indices 1 2 3 4 5 6 
#
# 1 237.9392 75.2655 56.7504 0.0000 0.0000 0.0000
# 2 75.2655 49.0247 16.7247 0.0000 0.0000 0.0000
# 3 56.7504 16.7247 68.5464 0.0000 0.0000 0.0000
# 4 0.0000 0.0000 0.0000 19.3540 0.0000 0.0000
# 5 0.0000 0.0000 0.0000 0.0000 50.2277 0.0000
# 6 0.0000 0.0000 0.0000 0.0000 0.0000 -5.3437
#
#
#
# Elastic Compliance Matrix: (Units=1/GPa)
#
#
# Indices 1 2 3 4 5 6 
#
# 1 0.009344 -0.012769 -0.004620 0.000000 0.000000 0.000000
# 2 -0.012769 0.039700 0.000885 0.000000 0.000000 0.000000
# 3 -0.004620 0.000885 0.018198 0.000000 0.000000 0.000000
# 4 0.000000 0.000000 0.000000 0.051669 0.000000 0.000000
# 5 0.000000 0.000000 0.000000 0.000000 0.019909 0.000000
# 6 0.000000 0.000000 0.000000 0.000000 0.000000 -0.187137
#
#
# Mechanical properties :
#
#
# Convention : Reuss Voigt Hill
#
# Bulk Modulus (GPa) = 29.21148 72.55459 50.88304
# Shear Modulus (GPa) = -1282.66962 26.63225 -628.01869
#
# Velocity S-wave (km/s) = -26.61627 3.83525 -18.62413
# Velocity P-wave (km/s) = 30.47021 7.72557 20.84166
#
# Compressibility (1/GPa) = 0.03423311
#
# Stress axis : x y z
#
# Youngs Moduli (GPa) = 107.02209 25.18920 54.95130
#
# Poissons Ratio (x) = 0.32164 0.25390
# Poissons Ratio (y) = 1.36656 -0.04865
# Poissons Ratio (z) = 0.49448 -0.02230
#
# Static dielectric constant tensor:
#      x y z
#    x 1.702630 0.000000 0.000000 
#    y 0.000000 1.566740 0.000000 
#    z 0.000000 0.000000 1.619290 
# 
# From -- ./inp_files/1906.got.cif
#   From: 2010.05.17/outbox.cif.g08.bks.cpg/sg49_1_cif.got.tgz:1906.got - 2010.06.03 21:02:19.
