data_PCOD9392926
_publ_section_title
;
Structure prediction by ZEFSAII (Michael W. Deem and Ramdas Pophale) SiO2 
 PCOD9392926
Probable space group: P C C M
;
_chemical_formula_sum "Si O2"
_cell_formula_units_Z 64
_cell_length_a 20.287034
_cell_length_b 9.243892
_cell_length_c 13.915131
_cell_angle_alpha 90.000000
_cell_angle_beta 90.000000
_cell_angle_gamma 90.000000
_cell_volume 2609.520537
_symmetry_space_group_name_H-M "P C C M"
_symmetry_group_IT_number 49
_symmetry_cell_setting 'orthorhombic'
loop_
_space_group_symop_operation_xyz
x,y,z
-x,-y,z
x,-y,1/2-z
-x,y,1/2-z
-x,-y,-z
x,y,-z
-x,y,1/2+z
x,-y,1/2+z
loop_
_atom_site_type_symbol
_atom_site_label
_atom_site_fract_x
_atom_site_fract_y
_atom_site_fract_z
Si Si1 0.182953 0.743421 0.117812
Si Si2 0.714222 0.218508 0.617399
Si Si3 0.556867 0.286673 0.882930
Si Si4 0.018332 0.344463 0.138991
Si Si5 0.681834 0.892222 0.617051
Si Si6 0.936071 0.079463 0.105212
Si Si7 0.416488 0.382176 0.116730
Si Si8 0.164817 0.412023 0.885603
O O1 0.258168 0.784034 0.140875
O O2 0.132978 0.871852 0.151926
O O3 0.164801 0.579575 0.150308
O O4 0.177163 0.747770 0.000000
O O5 0.717148 0.215241 0.500000
O O6 0.650992 0.310825 0.646923
O O7 0.778184 0.306083 0.650973
O O8 0.702270 0.053553 0.647912
O O9 0.610798 0.169516 0.850495
O O10 0.578391 0.449802 0.855248
O O11 0.479919 0.286720 0.854052
O O12 0.557222 0.279874 0.000000
O O13 0.970235 0.232971 0.092171
O O14 0.000000 0.500000 0.101743
O O15 0.000000 0.338450 0.250000
O O16 0.095942 0.330491 0.128668
O O17 0.678715 0.896519 0.500000
O O18 0.923212 0.009473 0.000000
O O19 0.000000 0.000000 0.149978
O O20 0.417338 0.383978 0.000000
O O21 0.175269 0.427691 0.000000
#
# Coordination Sequence:
#
# PCOD9392926 Si02
#       8
#     8   8   8   8   8   8   8   8
#     4   9  17  29  44  65  91 120 157 202 253 300
#     4   9  17  25  38  62  89 117 158 210 254 295
#     4   8  13  21  34  49  77 121 163 200 239 294
#     4  11  23  38  55  76 102 131 167 209 257 317
#     4   9  16  24  35  57  88 120 157 205 254 296
#     4  10  21  35  55  79 101 129 166 210 256 309
#     4   8  13  22  34  52  78 117 165 202 239 292
#     4  10  19  32  52  72  94 127 166 212 259 306
#
# _framework density 24.525577999999999
#
# number of rings (size 3 to 8) (size 9 to 14) (size 15 to 20)
#    0.000    2.750    1.250    1.875    1.750    4.250 
#    0.000    2.500    0.000    0.000    0.000    0.000 
#    0.000    0.000    0.000    1.125    5.500    4.125 
#
# Total GULP energy -357497.446866 kJ/mol
# GULP energy per Si atom -5585.897607 kJ/mol
# Density = 2.446976 g / cm^3
# Si number density = 24.525578 Si / 1000 Ang^3
#
#
#
# Elastic Constant Matrix: (Units=GPa)
#
#
# Indices 1 2 3 4 5 6 
#
# 1 188.5921 39.1017 -9.2778 0.0000 0.0000 0.0000
# 2 39.1017 50.6377 -2.1089 0.0000 0.0000 0.0000
# 3 -9.2778 -2.1089 70.8222 0.0000 0.0000 0.0000
# 4 0.0000 0.0000 0.0000 10.6951 0.0000 0.0000
# 5 0.0000 0.0000 0.0000 0.0000 10.7685 0.0000
# 6 0.0000 0.0000 0.0000 0.0000 0.0000 280.4303
#
#
#
# Elastic Compliance Matrix: (Units=1/GPa)
#
#
# Indices 1 2 3 4 5 6 
#
# 1 0.006346 -0.004872 0.000686 0.000000 0.000000 0.000000
# 2 -0.004872 0.023513 0.000062 0.000000 0.000000 0.000000
# 3 0.000686 0.000062 0.014212 0.000000 0.000000 0.000000
# 4 0.000000 0.000000 0.000000 0.093501 0.000000 0.000000
# 5 0.000000 0.000000 0.000000 0.000000 0.092864 0.000000
# 6 0.000000 0.000000 0.000000 0.000000 0.000000 0.003566
#
#
# Mechanical properties :
#
#
# Convention : Reuss Voigt Hill
#
# Bulk Modulus (GPa) = 27.91482 40.60908 34.26195
# Shear Modulus (GPa) = 19.67036 79.20125 49.43581
#
# Velocity S-wave (km/s) = 2.83509 5.68889 4.49451
# Velocity P-wave (km/s) = 4.70358 7.72949 6.39800
#
# Compressibility (1/GPa) = 0.03582326
#
# Stress axis : x y z
#
# Youngs Moduli (GPa) = 157.57110 42.53008 70.36495
#
# Poissons Ratio (x) = 0.20721 -0.04829
# Poissons Ratio (y) = 0.76768 -0.00436
# Poissons Ratio (z) = -0.10814 -0.00263
#
# Static dielectric constant tensor:
#      x y z
#    x 41.474240 0.000000 0.000000 
#    y 0.000000 1.905800 0.000000 
#    z 0.000000 0.000000 2.015370 
# 
# From -- ./inp_files/18340.got.cif
#   From: 2010.05.17/outbox.cif.g08.bks.cpg/sg49_10_cif.got.tgz:18340.got - 2010.06.03 21:02:19.
