data_PCOD9392047
_publ_section_title
;
Structure prediction by ZEFSAII (Michael W. Deem and Ramdas Pophale) SiO2 
 PCOD9392047
Probable space group: P C C M
;
_chemical_formula_sum "Si O2"
_cell_formula_units_Z 36
_cell_length_a 11.407930
_cell_length_b 10.235746
_cell_length_c 19.207907
_cell_angle_alpha 90.000000
_cell_angle_beta 90.000000
_cell_angle_gamma 90.000000
_cell_volume 2242.881828
_symmetry_space_group_name_H-M "P C C M"
_symmetry_group_IT_number 49
_symmetry_cell_setting 'orthorhombic'
loop_
_space_group_symop_operation_xyz
x,y,z
-x,-y,z
x,-y,1/2-z
-x,y,1/2-z
-x,-y,-z
x,y,-z
-x,y,1/2+z
x,-y,1/2+z
loop_
_atom_site_type_symbol
_atom_site_label
_atom_site_fract_x
_atom_site_fract_y
_atom_site_fract_z
Si Si1 0.138682 0.497704 0.580742
Si Si2 0.672886 0.719587 0.079515
Si Si3 0.273714 0.613851 0.199058
Si Si4 0.500000 0.500000 0.872497
Si Si5 0.634302 0.144318 0.723656
O O1 0.160901 0.467075 0.500000
O O2 0.208477 0.634504 0.593692
O O3 0.195301 0.390639 0.630761
O O4 0.000000 0.500000 0.592036
O O5 0.569981 0.610305 0.085263
O O6 0.647974 0.823362 0.141218
O O7 0.677169 0.769988 0.000000
O O8 0.228860 0.500000 0.250000
O O9 0.402900 0.569455 0.174711
O O10 0.285942 0.748649 0.238399
O O11 0.500000 0.164173 0.750000
O O12 0.666145 0.000000 0.750000
#
# Coordination Sequence:
#
# PCOD9392047 Si02
#       5
#     8   8   8   4   8
#     4   9  19  33  52  80 106 131 168 218 267 302
#     4  10  19  32  52  76 105 137 171 214 260 312
#     4  11  17  31  53  76 102 132 172 213 257 306
#     4  10  16  28  52  78 102 128 170 212 260 306
#     4  11  21  35  50  74 111 144 169 208 257 307
#
# _framework density 16.050778000000001
#
# number of rings (size 3 to 8) (size 9 to 14) (size 15 to 20)
#    0.000    1.778    6.667    0.667    0.000    1.333 
#    0.000    3.333    0.000    2.667    0.000    4.667 
#    0.000    0.000    0.000    0.000    0.000    0.000 
#
# Total GULP energy -200509.004912 kJ/mol
# GULP energy per Si atom -5569.694581 kJ/mol
# Density = 1.601425 g / cm^3
# Si number density = 16.050778 Si / 1000 Ang^3
#
#
#
# Elastic Constant Matrix: (Units=GPa)
#
#
# Indices 1 2 3 4 5 6 
#
# 1 55.3664 15.3138 47.6534 0.0000 0.0000 0.0000
# 2 15.3138 102.0751 64.1657 0.0000 0.0000 0.0000
# 3 47.6534 64.1657 130.0997 0.0000 0.0000 0.0000
# 4 0.0000 0.0000 0.0000 12.6188 0.0000 0.0000
# 5 0.0000 0.0000 0.0000 0.0000 -0.5348 0.0000
# 6 0.0000 0.0000 0.0000 0.0000 0.0000 7.2148
#
#
#
# Elastic Compliance Matrix: (Units=1/GPa)
#
#
# Indices 1 2 3 4 5 6 
#
# 1 0.027057 0.003146 -0.011462 0.000000 0.000000 0.000000
# 2 0.003146 0.014565 -0.008336 0.000000 0.000000 0.000000
# 3 -0.011462 -0.008336 0.015996 0.000000 0.000000 0.000000
# 4 0.000000 0.000000 0.000000 0.079247 0.000000 0.000000
# 5 0.000000 0.000000 0.000000 0.000000 -1.869842 0.000000
# 6 0.000000 0.000000 0.000000 0.000000 0.000000 0.138605
#
#
# Mechanical properties :
#
#
# Convention : Reuss Voigt Hill
#
# Bulk Modulus (GPa) = 41.12885 60.20076 50.66480
# Shear Modulus (GPa) = -3.21965 14.55365 5.66700
#
# Velocity S-wave (km/s) = -1.41784 3.01445 1.88105
# Velocity P-wave (km/s) = 4.79578 7.05009 6.02923
#
# Compressibility (1/GPa) = 0.02431383
#
# Stress axis : x y z
#
# Youngs Moduli (GPa) = 36.95956 68.65947 62.51583
#
# Poissons Ratio (x) = -0.21600 0.71656
# Poissons Ratio (y) = -0.11628 0.52111
# Poissons Ratio (z) = 0.42363 0.57232
#
# Static dielectric constant tensor:
#      x y z
#    x 1.540510 0.000000 0.000000 
#    y 0.000000 1.527960 0.000000 
#    z 0.000000 0.000000 1.579860 
# 
# From -- ./inp_files/16933.got.cif
#   From: 2010.05.17/outbox.cif.g08.bks.cpg/sg49_9_cif.got.tgz:16933.got - 2010.06.03 21:02:19.
