data_PCOD9392355
_publ_section_title
;
Structure prediction by ZEFSAII (Michael W. Deem and Ramdas Pophale) SiO2 
 PCOD9392355
Probable space group: P C C M
;
_chemical_formula_sum "Si O2"
_cell_formula_units_Z 64
_cell_length_a 24.319455
_cell_length_b 19.488726
_cell_length_c 8.911507
_cell_angle_alpha 90.000000
_cell_angle_beta 90.000000
_cell_angle_gamma 90.000000
_cell_volume 4223.655038
_symmetry_space_group_name_H-M "P C C M"
_symmetry_group_IT_number 49
_symmetry_cell_setting 'orthorhombic'
loop_
_space_group_symop_operation_xyz
x,y,z
-x,-y,z
x,-y,1/2-z
-x,y,1/2-z
-x,-y,-z
x,y,-z
-x,y,1/2+z
x,-y,1/2+z
loop_
_atom_site_type_symbol
_atom_site_label
_atom_site_fract_x
_atom_site_fract_y
_atom_site_fract_z
Si Si1 0.256020 0.427505 0.179406
Si Si2 0.831217 0.847538 0.320042
Si Si3 0.729262 0.073195 0.678285
Si Si4 0.441333 0.713431 0.680599
Si Si5 0.058424 0.074894 0.680483
Si Si6 0.614417 0.571866 0.819890
Si Si7 0.229296 0.711505 0.820871
Si Si8 0.331850 0.209911 0.820188
O O1 0.238744 0.500000 0.250000
O O2 0.321027 0.418147 0.219027
O O3 0.224078 0.362201 0.243965
O O4 0.251992 0.429833 0.000000
O O5 0.824224 0.854067 0.500000
O O6 0.786040 0.895876 0.242438
O O7 0.892044 0.873494 0.282744
O O8 0.816295 0.768978 0.280605
O O9 0.734158 0.066084 0.500000
O O10 0.683272 0.131022 0.710567
O O11 0.717483 0.000000 0.750000
O O12 0.500000 0.729459 0.750000
O O13 0.445633 0.712887 0.500000
O O14 0.420344 0.637796 0.728923
O O15 0.392783 0.766253 0.721253
O O16 0.053919 0.068961 0.500000
O O17 0.000000 0.096249 0.750000
O O18 0.071115 0.000000 0.750000
O O19 0.595895 0.500000 0.750000
O O20 0.611418 0.567350 0.000000
O O21 0.286573 0.744492 0.764079
O O22 0.230335 0.703585 0.000000
O O23 0.325083 0.221819 0.000000
#
# Coordination Sequence:
#
# PCOD9392355 Si02
#       8
#     8   8   8   8   8   8   8   8
#     4  10  18  30  46  66  92 123 154 185 225 272
#     4   9  19  32  46  68  98 126 157 194 228 267
#     4  10  19  30  49  71  92 118 146 183 229 275
#     4  10  20  34  48  64  85 111 145 184 222 266
#     4  10  19  31  46  65  93 130 167 200 229 263
#     4   9  18  31  46  62  86 114 143 179 214 257
#     4  10  18  29  47  70  93 119 151 189 230 271
#     4   9  18  34  49  63  88 118 145 178 225 276
#
# _framework density 15.152753000000001
#
# number of rings (size 3 to 8) (size 9 to 14) (size 15 to 20)
#    0.000    2.375    1.250    2.250    0.000    4.750 
#    0.000    1.250    0.000    0.375    0.000    2.625 
#    0.000    0.500    0.000    5.750    0.000    1.750 
#
# Total GULP energy -356895.177044 kJ/mol
# GULP energy per Si atom -5576.487141 kJ/mol
# Density = 1.511826 g / cm^3
# Si number density = 15.152753 Si / 1000 Ang^3
#
#
#
# Elastic Constant Matrix: (Units=GPa)
#
#
# Indices 1 2 3 4 5 6 
#
# 1 106.2096 71.7126 37.6473 0.0000 0.0000 0.0000
# 2 71.7126 134.6262 51.0166 0.0000 0.0000 0.0000
# 3 37.6473 51.0166 35.6559 0.0000 0.0000 0.0000
# 4 0.0000 0.0000 0.0000 24.9814 0.0000 0.0000
# 5 0.0000 0.0000 0.0000 0.0000 18.0344 0.0000
# 6 0.0000 0.0000 0.0000 0.0000 0.0000 23.9679
#
#
#
# Elastic Compliance Matrix: (Units=1/GPa)
#
#
# Indices 1 2 3 4 5 6 
#
# 1 0.016315 -0.004724 -0.010467 0.000000 0.000000 0.000000
# 2 -0.004724 0.017594 -0.020185 0.000000 0.000000 0.000000
# 3 -0.010467 -0.020185 0.067978 0.000000 0.000000 0.000000
# 4 0.000000 0.000000 0.000000 0.040030 0.000000 0.000000
# 5 0.000000 0.000000 0.000000 0.000000 0.055450 0.000000
# 6 0.000000 0.000000 0.000000 0.000000 0.000000 0.041722
#
#
# Mechanical properties :
#
#
# Convention : Reuss Voigt Hill
#
# Bulk Modulus (GPa) = 32.11855 66.36052 49.23954
# Shear Modulus (GPa) = 15.61434 21.13777 18.37606
#
# Velocity S-wave (km/s) = 3.21356 3.73899 3.48619
# Velocity P-wave (km/s) = 5.91708 7.90756 6.98360
#
# Compressibility (1/GPa) = 0.03113466
#
# Stress axis : x y z
#
# Youngs Moduli (GPa) = 61.29182 56.83893 14.71072
#
# Poissons Ratio (x) = 0.26853 0.15397
# Poissons Ratio (y) = 0.28957 0.29693
# Poissons Ratio (z) = 0.64153 1.14727
#
# Static dielectric constant tensor:
#      x y z
#    x 1.484470 0.000000 0.000000 
#    y 0.000000 1.508530 0.000000 
#    z 0.000000 0.000000 1.507800 
# 
# From -- ./inp_files/6617.got.cif
#   From: 2010.05.17/outbox.cif.g08.bks.cpg/sg49_4_cif.got.tgz:6617.got - 2010.06.03 21:02:19.
