data_PCOD9392347
_publ_section_title
;
Structure prediction by ZEFSAII (Michael W. Deem and Ramdas Pophale) SiO2 
 PCOD9392347
Probable space group: P C C M
;
_chemical_formula_sum "Si O2"
_cell_formula_units_Z 56
_cell_length_a 23.953695
_cell_length_b 5.268679
_cell_length_c 24.421632
_cell_angle_alpha 90.000000
_cell_angle_beta 90.000000
_cell_angle_gamma 90.000000
_cell_volume 3082.115700
_symmetry_space_group_name_H-M "P C C M"
_symmetry_group_IT_number 49
_symmetry_cell_setting 'orthorhombic'
loop_
_space_group_symop_operation_xyz
x,y,z
-x,-y,z
x,-y,1/2-z
-x,y,1/2-z
-x,-y,-z
x,y,-z
-x,y,1/2+z
x,-y,1/2+z
loop_
_atom_site_type_symbol
_atom_site_label
_atom_site_fract_x
_atom_site_fract_y
_atom_site_fract_z
Si Si1 0.891326 0.891236 0.381291
Si Si2 0.859246 0.392430 0.563936
Si Si3 0.937673 0.249553 0.774301
Si Si4 0.631686 0.531068 0.566129
Si Si5 0.436474 0.029014 0.066385
Si Si6 0.775812 0.908977 0.687602
Si Si7 0.743375 0.407022 0.368670
O O1 0.883835 0.672100 0.425991
O O2 0.937682 0.789670 0.338923
O O3 0.835446 0.900095 0.343691
O O4 0.895376 0.170388 0.406927
O O5 0.853831 0.336156 0.500000
O O6 0.798715 0.397938 0.593131
O O7 0.909037 0.500000 0.750000
O O8 0.000000 0.254465 0.750000
O O9 0.910212 0.000000 0.750000
O O10 0.639150 0.533598 0.500000
O O11 0.590607 0.298386 0.580306
O O12 0.690345 0.481464 0.595144
O O13 0.602879 0.795077 0.583016
O O14 0.500000 0.000000 0.086268
O O15 0.438652 0.018655 0.000000
O O16 0.751997 0.627350 0.676749
O O17 0.780531 0.000000 0.750000
O O18 0.739868 0.127720 0.657451
#
# Coordination Sequence:
#
# PCOD9392347 Si02
#       7
#     8   8   8   8   8   8   8
#     4  10  20  33  53  78 104 136 172 206 251 305
#     4  10  20  34  51  75 107 142 175 206 237 289
#     4  10  20  34  54  82 107 129 161 213 266 306
#     4  10  18  29  46  67  97 132 162 199 241 290
#     4   9  17  28  43  65  94 128 163 201 249 296
#     4  10  20  33  49  70 101 132 160 204 253 298
#     4  10  20  32  48  72 100 133 171 201 239 300
#
# _framework density 18.169336000000001
#
# number of rings (size 3 to 8) (size 9 to 14) (size 15 to 20)
#    0.000    2.143    0.000    3.857    0.000    4.000 
#    0.000    4.286    0.000    0.000    0.000   40.000 
#    0.000   40.000    0.000    0.000    0.000    0.000 
#
# Total GULP energy -312205.911146 kJ/mol
# GULP energy per Si atom -5575.105556 kJ/mol
# Density = 1.812798 g / cm^3
# Si number density = 18.169336 Si / 1000 Ang^3
#
#
#
# Elastic Constant Matrix: (Units=GPa)
#
#
# Indices 1 2 3 4 5 6 
#
# 1 41.5616 3.9656 11.3369 0.0000 0.0000 0.0000
# 2 3.9656 111.2639 20.6582 0.0000 0.0000 0.0000
# 3 11.3369 20.6582 73.1756 0.0000 0.0000 0.0000
# 4 0.0000 0.0000 0.0000 25.2435 0.0000 0.0000
# 5 0.0000 0.0000 0.0000 0.0000 20.1291 0.0000
# 6 0.0000 0.0000 0.0000 0.0000 0.0000 -56.3111
#
#
#
# Elastic Compliance Matrix: (Units=1/GPa)
#
#
# Indices 1 2 3 4 5 6 
#
# 1 0.025126 -0.000182 -0.003841 0.000000 0.000000 0.000000
# 2 -0.000182 0.009486 -0.002650 0.000000 0.000000 0.000000
# 3 -0.003841 -0.002650 0.015009 0.000000 0.000000 0.000000
# 4 0.000000 0.000000 0.000000 0.039614 0.000000 0.000000
# 5 0.000000 0.000000 0.000000 0.000000 0.049679 0.000000
# 6 0.000000 0.000000 0.000000 0.000000 0.000000 -0.017758
#
#
# Mechanical properties :
#
#
# Convention : Reuss Voigt Hill
#
# Bulk Modulus (GPa) = 27.56778 33.10251 30.33515
# Shear Modulus (GPa) = 34.10780 10.48165 22.29472
#
# Velocity S-wave (km/s) = 4.33739 2.40445 3.50673
# Velocity P-wave (km/s) = 6.34740 5.09578 5.75571
#
# Compressibility (1/GPa) = 0.03627423
#
# Stress axis : x y z
#
# Youngs Moduli (GPa) = 39.79967 105.41720 66.62698
#
# Poissons Ratio (x) = 0.01922 0.25593
# Poissons Ratio (y) = 0.00726 0.17655
# Poissons Ratio (z) = 0.15288 0.27933
#
# Static dielectric constant tensor:
#      x y z
#    x 1.600810 0.000000 0.000000 
#    y 0.000000 1.663110 0.000000 
#    z 0.000000 0.000000 1.631500 
# 
# From -- ./inp_files/21226.got.cif
#   From: 2010.05.17/outbox.cif.g08.bks.cpg/sg49_11_cif.got.tgz:21226.got - 2010.06.03 21:02:19.
