data_PCOD9392391
_publ_section_title
;
Structure prediction by ZEFSAII (Michael W. Deem and Ramdas Pophale) SiO2 
 PCOD9392391
Probable space group: P C C M
;
_chemical_formula_sum "Si O2"
_cell_formula_units_Z 64
_cell_length_a 19.485604
_cell_length_b 24.033006
_cell_length_c 8.695313
_cell_angle_alpha 90.000000
_cell_angle_beta 90.000000
_cell_angle_gamma 90.000000
_cell_volume 4071.994538
_symmetry_space_group_name_H-M "P C C M"
_symmetry_group_IT_number 49
_symmetry_cell_setting 'orthorhombic'
loop_
_space_group_symop_operation_xyz
x,y,z
-x,-y,z
x,-y,1/2-z
-x,y,1/2-z
-x,-y,-z
x,y,-z
-x,y,1/2+z
x,-y,1/2+z
loop_
_atom_site_type_symbol
_atom_site_label
_atom_site_fract_x
_atom_site_fract_y
_atom_site_fract_z
Si Si1 0.215004 0.060138 0.683611
Si Si2 0.424641 0.767573 0.684749
Si Si3 0.425126 0.438436 0.184352
Si Si4 0.342244 0.337524 0.316235
Si Si5 0.073440 0.244381 0.315542
Si Si6 0.927209 0.113735 0.815088
Si Si7 0.214889 0.276168 0.815722
Si Si8 0.705417 0.837471 0.816303
O O1 0.213306 0.057483 0.500000
O O2 0.139129 0.079692 0.738445
O O3 0.267901 0.107651 0.734636
O O4 0.231814 0.000000 0.750000
O O5 0.500000 0.777045 0.750000
O O6 0.426122 0.761106 0.500000
O O7 0.392069 0.711840 0.756755
O O8 0.371430 0.817246 0.721479
O O9 0.411284 0.500000 0.250000
O O10 0.500000 0.421639 0.250000
O O11 0.369767 0.394299 0.242879
O O12 0.427998 0.439868 0.000000
O O13 0.344607 0.340353 0.500000
O O14 0.266493 0.320400 0.259206
O O15 0.073902 0.247687 0.500000
O O16 0.081153 0.178858 0.271241
O O17 0.137782 0.277000 0.246188
O O18 0.000000 0.262792 0.250000
O O19 0.000000 0.093885 0.750000
O O20 0.929901 0.111481 0.000000
O O21 0.246307 0.215254 0.775679
O O22 0.216961 0.281559 0.000000
O O23 0.709931 0.845271 0.000000
#
# Coordination Sequence:
#
# PCOD9392391 Si02
#       8
#     8   8   8   8   8   8   8   8
#     4  11  22  35  50  69  91 119 156 195 238 289
#     4  10  20  34  52  77 102 127 158 196 244 293
#     4  11  21  35  52  73 103 141 182 218 252 293
#     4  11  21  33  50  74 104 138 172 210 249 289
#     4  10  18  30  47  70  97 129 165 199 243 297
#     4   9  19  32  47  67  91 121 156 193 233 282
#     4  10  19  32  50  73  99 129 163 205 251 296
#     4   9  19  34  51  70  94 121 153 192 238 291
#
# _framework density 15.717114
#
# number of rings (size 3 to 8) (size 9 to 14) (size 15 to 20)
#    0.000    1.875    1.250    5.250    0.000    4.250 
#    0.000    1.250    0.000    0.375    0.000    2.625 
#    0.000    0.500    0.000    5.000    0.000    3.000 
#
# Total GULP energy -357304.577256 kJ/mol
# GULP energy per Si atom -5582.884020 kJ/mol
# Density = 1.568134 g / cm^3
# Si number density = 15.717114 Si / 1000 Ang^3
#
#
#
# Elastic Constant Matrix: (Units=GPa)
#
#
# Indices 1 2 3 4 5 6 
#
# 1 126.5142 53.4391 51.9024 0.0000 0.0000 0.0000
# 2 53.4391 79.5149 43.3965 0.0000 0.0000 0.0000
# 3 51.9024 43.3965 86.9857 0.0000 0.0000 0.0000
# 4 0.0000 0.0000 0.0000 15.6693 0.0000 0.0000
# 5 0.0000 0.0000 0.0000 0.0000 28.5364 0.0000
# 6 0.0000 0.0000 0.0000 0.0000 0.0000 23.2841
#
#
#
# Elastic Compliance Matrix: (Units=1/GPa)
#
#
# Indices 1 2 3 4 5 6 
#
# 1 0.012131 -0.005775 -0.004357 0.000000 0.000000 0.000000
# 2 -0.005775 0.020031 -0.006547 0.000000 0.000000 0.000000
# 3 -0.004357 -0.006547 0.017363 0.000000 0.000000 0.000000
# 4 0.000000 0.000000 0.000000 0.063819 0.000000 0.000000
# 5 0.000000 0.000000 0.000000 0.000000 0.035043 0.000000
# 6 0.000000 0.000000 0.000000 0.000000 0.000000 0.042948
#
#
# Mechanical properties :
#
#
# Convention : Reuss Voigt Hill
#
# Bulk Modulus (GPa) = 61.86161 65.61009 63.73585
# Shear Modulus (GPa) = 21.73143 23.11642 22.42393
#
# Velocity S-wave (km/s) = 3.72245 3.83924 3.78129
# Velocity P-wave (km/s) = 7.61054 7.84143 7.72685
#
# Compressibility (1/GPa) = 0.01616511
#
# Stress axis : x y z
#
# Youngs Moduli (GPa) = 82.43276 49.92342 57.59523
#
# Poissons Ratio (x) = 0.28830 0.25096
# Poissons Ratio (y) = 0.47603 0.37710
# Poissons Ratio (z) = 0.35919 0.32687
#
# Static dielectric constant tensor:
#      x y z
#    x 1.524020 0.000000 0.000000 
#    y 0.000000 1.502830 0.000000 
#    z 0.000000 0.000000 1.522180 
# 
# From -- ./inp_files/5251.got.cif
#   From: 2010.05.17/outbox.cif.g08.bks.cpg/sg49_3_cif.got.tgz:5251.got - 2010.06.03 21:02:19.
