data_PCOD9392118
_publ_section_title
;
Structure prediction by ZEFSAII (Michael W. Deem and Ramdas Pophale) SiO2 
 PCOD9392118
Probable space group: P C C M
;
_chemical_formula_sum "Si O2"
_cell_formula_units_Z 64
_cell_length_a 14.738567
_cell_length_b 31.911338
_cell_length_c 8.669635
_cell_angle_alpha 90.000000
_cell_angle_beta 90.000000
_cell_angle_gamma 90.000000
_cell_volume 4077.566829
_symmetry_space_group_name_H-M "P C C M"
_symmetry_group_IT_number 49
_symmetry_cell_setting 'orthorhombic'
loop_
_space_group_symop_operation_xyz
x,y,z
-x,-y,z
x,-y,1/2-z
-x,y,1/2-z
-x,-y,-z
x,y,-z
-x,y,1/2+z
x,-y,1/2+z
loop_
_atom_site_type_symbol
_atom_site_label
_atom_site_fract_x
_atom_site_fract_y
_atom_site_fract_z
Si Si1 0.096765 0.754996 0.814523
Si Si2 0.290795 0.785665 0.813693
Si Si3 0.396961 0.957026 0.315552
Si Si4 0.903026 0.342682 0.184374
Si Si5 0.398652 0.293931 0.185032
Si Si6 0.281009 0.374874 0.814070
Si Si7 0.397808 0.130371 0.685546
Si Si8 0.600507 0.545467 0.814502
O O1 0.185891 0.780425 0.765303
O O2 0.109746 0.706203 0.767035
O O3 0.000000 0.769400 0.750000
O O4 0.092156 0.755891 0.000000
O O5 0.347896 0.747399 0.744575
O O6 0.336786 0.829710 0.772410
O O7 0.293849 0.782061 0.000000
O O8 0.500000 0.956479 0.250000
O O9 0.399154 0.958159 0.500000
O O10 0.359074 0.912958 0.254737
O O11 0.354853 0.000000 0.250000
O O12 0.818593 0.368888 0.245897
O O13 0.000000 0.356505 0.250000
O O14 0.905069 0.343793 0.000000
O O15 0.500000 0.295569 0.250000
O O16 0.342082 0.335014 0.234068
O O17 0.402184 0.293172 0.000000
O O18 0.331101 0.417654 0.768428
O O19 0.275151 0.374193 0.000000
O O20 0.500000 0.136480 0.750000
O O21 0.402941 0.126811 0.500000
O O22 0.627357 0.500000 0.750000
O O23 0.500000 0.554683 0.750000
O O24 0.595813 0.543697 0.000000
#
# Coordination Sequence:
#
# PCOD9392118 Si02
#       8
#     8   8   8   8   8   8   8   8
#     4   9  18  32  49  70  93 122 158 199 241 281
#     4  10  20  34  48  66  95 128 163 198 236 282
#     4  10  17  27  43  62  86 115 155 199 240 282
#     4  10  19  32  53  75 100 127 159 199 242 288
#     4  11  22  33  47  67  95 129 163 197 233 275
#     4  10  21  35  51  74 100 127 162 200 239 284
#     4  10  19  30  44  62  90 126 162 198 235 279
#     4  10  20  35  54  76 102 130 162 200 240 288
#
# _framework density 15.695634999999999
#
# number of rings (size 3 to 8) (size 9 to 14) (size 15 to 20)
#    0.000    2.000    1.250    4.875    0.000    4.500 
#    0.000    0.000    0.000    0.375    0.000    2.625 
#    0.000    0.500    0.000    5.750    0.000    1.750 
#
# Total GULP energy -357085.582011 kJ/mol
# GULP energy per Si atom -5579.462219 kJ/mol
# Density = 1.565991 g / cm^3
# Si number density = 15.695635 Si / 1000 Ang^3
#
#
#
# Elastic Constant Matrix: (Units=GPa)
#
#
# Indices 1 2 3 4 5 6 
#
# 1 127.8836 84.8205 35.6435 0.0000 0.0000 0.0000
# 2 84.8205 139.8550 47.3919 0.0000 0.0000 0.0000
# 3 35.6435 47.3919 47.6444 0.0000 0.0000 0.0000
# 4 0.0000 0.0000 0.0000 35.3684 0.0000 0.0000
# 5 0.0000 0.0000 0.0000 0.0000 24.2729 0.0000
# 6 0.0000 0.0000 0.0000 0.0000 0.0000 6.4025
#
#
#
# Elastic Compliance Matrix: (Units=1/GPa)
#
#
# Indices 1 2 3 4 5 6 
#
# 1 0.013345 -0.007106 -0.002916 0.000000 0.000000 0.000000
# 2 -0.007106 0.014569 -0.009176 0.000000 0.000000 0.000000
# 3 -0.002916 -0.009176 0.032298 0.000000 0.000000 0.000000
# 4 0.000000 0.000000 0.000000 0.028274 0.000000 0.000000
# 5 0.000000 0.000000 0.000000 0.000000 0.041198 0.000000
# 6 0.000000 0.000000 0.000000 0.000000 0.000000 0.156189
#
#
# Mechanical properties :
#
#
# Convention : Reuss Voigt Hill
#
# Bulk Modulus (GPa) = 45.83587 72.34386 59.08986
# Shear Modulus (GPa) = 15.08108 23.04389 19.06249
#
# Velocity S-wave (km/s) = 3.10311 3.83583 3.48876
# Velocity P-wave (km/s) = 6.48887 8.11233 7.34559
#
# Compressibility (1/GPa) = 0.02181698
#
# Stress axis : x y z
#
# Youngs Moduli (GPa) = 74.93320 68.63769 30.96194
#
# Poissons Ratio (x) = 0.48772 0.09028
# Poissons Ratio (y) = 0.53245 0.28411
# Poissons Ratio (z) = 0.21849 0.62983
#
# Static dielectric constant tensor:
#      x y z
#    x 1.502000 0.000000 0.000000 
#    y 0.000000 1.537330 0.000000 
#    z 0.000000 0.000000 1.529810 
# 
# From -- ./inp_files/3098.got.cif
#   From: 2010.05.17/outbox.cif.g08.bks.cpg/sg49_2_cif.got.tgz:3098.got - 2010.06.03 21:02:19.
