data_PCOD9392838
_publ_section_title
;
Structure prediction by ZEFSAII (Michael W. Deem and Ramdas Pophale) SiO2 
 PCOD9392838
Probable space group: P C C M
;
_chemical_formula_sum "Si O2"
_cell_formula_units_Z 58
_cell_length_a 15.015504
_cell_length_b 12.024828
_cell_length_c 16.701255
_cell_angle_alpha 90.000000
_cell_angle_beta 90.000000
_cell_angle_gamma 90.000000
_cell_volume 3015.559445
_symmetry_space_group_name_H-M "P C C M"
_symmetry_group_IT_number 49
_symmetry_cell_setting 'orthorhombic'
loop_
_space_group_symop_operation_xyz
x,y,z
-x,-y,z
x,-y,1/2-z
-x,y,1/2-z
-x,-y,-z
x,y,-z
-x,y,1/2+z
x,-y,1/2+z
loop_
_atom_site_type_symbol
_atom_site_label
_atom_site_fract_x
_atom_site_fract_y
_atom_site_fract_z
Si Si1 0.348381 0.819005 0.405279
Si Si2 0.717481 0.962912 0.341460
Si Si3 0.904208 0.540392 0.402514
Si Si4 0.267102 0.406369 0.908179
Si Si5 0.374987 0.617837 0.871748
Si Si6 0.500000 0.500000 0.250000
Si Si7 0.798494 0.250425 0.097191
Si Si8 0.454641 0.842479 0.090807
O O1 0.363483 0.801251 0.500000
O O2 0.306993 0.705554 0.370401
O O3 0.446532 0.850780 0.373599
O O4 0.284949 0.923465 0.391609
O O5 0.791300 0.874405 0.370725
O O6 0.622776 0.901691 0.358934
O O7 0.726060 0.000000 0.250000
O O8 0.903138 0.532244 0.500000
O O9 0.822351 0.462460 0.373111
O O10 0.882182 0.669890 0.386193
O O11 0.000000 0.500000 0.373701
O O12 0.342302 0.502190 0.910084
O O13 0.244520 0.377668 0.000000
O O14 0.434463 0.579051 0.798860
O O15 0.282673 0.683505 0.860850
O O16 0.433530 0.711103 0.914868
O O17 0.782500 0.250681 0.000000
O O18 0.449638 0.888362 0.000000
#
# Coordination Sequence:
#
# PCOD9392838 Si02
#       8
#     8   8   8   8   8   2   8   8
#     4  10  20  32  47  69  98 134 176 220 265 317
#     4  11  22  33  48  70  98 137 180 220 260 304
#     4   8  14  28  55  89 113 126 155 210 267 320
#     4   9  17  30  50  75 101 130 161 204 269 331
#     4  10  19  32  45  64  96 132 172 216 268 324
#     4  12  24  28  38  68 104 136 168 218 272 314
#     4   9  18  35  57  76 101 140 180 218 267 326
#     4  10  20  34  51  66  89 133 187 233 265 305
#
# _framework density 19.23358
#
# number of rings (size 3 to 8) (size 9 to 14) (size 15 to 20)
#    0.000    2.345    0.000    5.379    0.000    6.621 
#    0.000    4.483    0.000    0.828    0.000   23.172 
#    0.000    0.000    0.000    0.000    0.000    0.552 
#
# Total GULP energy -323009.549075 kJ/mol
# GULP energy per Si atom -5569.130156 kJ/mol
# Density = 1.918980 g / cm^3
# Si number density = 19.233580 Si / 1000 Ang^3
#
#
#
# Elastic Constant Matrix: (Units=GPa)
#
#
# Indices 1 2 3 4 5 6 
#
# 1 75.8860 44.0058 26.3815 0.0000 0.0000 0.0000
# 2 44.0058 144.0139 16.3000 0.0000 0.0000 0.0000
# 3 26.3815 16.3000 35.6076 0.0000 0.0000 0.0000
# 4 0.0000 0.0000 0.0000 -17.7756 0.0000 0.0000
# 5 0.0000 0.0000 0.0000 0.0000 13.9561 0.0000
# 6 0.0000 0.0000 0.0000 0.0000 0.0000 27.1709
#
#
#
# Elastic Compliance Matrix: (Units=1/GPa)
#
#
# Indices 1 2 3 4 5 6 
#
# 1 0.020461 -0.004784 -0.012969 0.000000 0.000000 0.000000
# 2 -0.004784 0.008442 -0.000320 0.000000 0.000000 0.000000
# 3 -0.012969 -0.000320 0.037839 0.000000 0.000000 0.000000
# 4 0.000000 0.000000 0.000000 -0.056257 0.000000 0.000000
# 5 0.000000 0.000000 0.000000 0.000000 0.071653 0.000000
# 6 0.000000 0.000000 0.000000 0.000000 0.000000 0.036804
#
#
# Mechanical properties :
#
#
# Convention : Reuss Voigt Hill
#
# Bulk Modulus (GPa) = 32.68478 47.65355 40.16917
# Shear Modulus (GPa) = 30.25044 15.92496 23.08770
#
# Velocity S-wave (km/s) = 3.97015 2.88058 3.46842
# Velocity P-wave (km/s) = 6.16819 5.99113 6.08031
#
# Compressibility (1/GPa) = 0.03059528
#
# Stress axis : x y z
#
# Youngs Moduli (GPa) = 48.87434 118.45730 26.42770
#
# Poissons Ratio (x) = 0.56672 0.34274
# Poissons Ratio (y) = 0.23382 0.00845
# Poissons Ratio (z) = 0.63386 0.03789
#
# Static dielectric constant tensor:
#      x y z
#    x 1.683790 0.000000 0.000000 
#    y 0.000000 1.721970 0.000000 
#    z 0.000000 0.000000 1.774630 
# 
# From -- ./inp_files/17901.got.cif
#   From: 2010.05.17/outbox.cif.g08.bks.cpg/sg49_9_cif.got.tgz:17901.got - 2010.06.03 21:02:19.
