data_PCOD9392498
_publ_section_title
;
Structure prediction by ZEFSAII (Michael W. Deem and Ramdas Pophale) SiO2 
 PCOD9392498
Probable space group: P C C M
;
_chemical_formula_sum "Si O2"
_cell_formula_units_Z 56
_cell_length_a 12.831851
_cell_length_b 13.174538
_cell_length_c 14.841878
_cell_angle_alpha 90.000000
_cell_angle_beta 90.000000
_cell_angle_gamma 90.000000
_cell_volume 2509.074519
_symmetry_space_group_name_H-M "P C C M"
_symmetry_group_IT_number 49
_symmetry_cell_setting 'orthorhombic'
loop_
_space_group_symop_operation_xyz
x,y,z
-x,-y,z
x,-y,1/2-z
-x,y,1/2-z
-x,-y,-z
x,y,-z
-x,y,1/2+z
x,-y,1/2+z
loop_
_atom_site_type_symbol
_atom_site_label
_atom_site_fract_x
_atom_site_fract_y
_atom_site_fract_z
Si Si1 0.822575 0.010123 0.352799
Si Si2 0.511572 0.292688 0.602834
Si Si3 0.892178 0.226153 0.363021
Si Si4 0.592779 0.922080 0.891905
Si Si5 0.709270 0.621296 0.347793
Si Si6 0.873588 0.214486 0.143393
Si Si7 0.727123 0.604433 0.133086
O O1 0.870980 0.111226 0.395280
O O2 0.699645 0.035185 0.352288
O O3 0.860956 0.000000 0.250000
O O4 0.848965 0.899298 0.390084
O O5 0.480674 0.269145 0.500000
O O6 0.554844 0.187202 0.643690
O O7 0.411392 0.346227 0.644726
O O8 0.611808 0.364144 0.603653
O O9 0.876814 0.217740 0.253826
O O10 0.811436 0.311316 0.396677
O O11 0.011606 0.250477 0.383964
O O12 0.500000 0.000000 0.876463
O O13 0.610529 0.912760 0.000000
O O14 0.781992 0.710388 0.384476
O O15 0.730052 0.610211 0.241458
O O16 0.738929 0.513426 0.391161
#
# Coordination Sequence:
#
# PCOD9392498 Si02
#       7
#     8   8   8   8   8   8   8
#     4  10  18  32  54  81 107 137 176 221 265 317
#     4  11  22  37  57  78 107 146 184 224 271 324
#     4   9  17  32  53  81 111 138 178 221 266 322
#     4  10  21  36  52  75 109 144 177 220 269 318
#     4  10  21  35  54  80 111 142 180 227 273 315
#     4   9  18  31  53  82 109 141 175 219 272 319
#     4  10  20  36  55  79 110 143 179 228 271 316
#
# _framework density 22.318985999999999
#
# number of rings (size 3 to 8) (size 9 to 14) (size 15 to 20)
#    0.000    2.143    1.429    2.143    0.000    4.857 
#    2.571    2.857    0.000    4.286    0.000    2.000 
#    0.000    0.000    0.000    0.000    0.000    0.000 
#
# Total GULP energy -312797.916789 kJ/mol
# GULP energy per Si atom -5585.677086 kJ/mol
# Density = 2.226819 g / cm^3
# Si number density = 22.318986 Si / 1000 Ang^3
#
#
#
# Elastic Constant Matrix: (Units=GPa)
#
#
# Indices 1 2 3 4 5 6 
#
# 1 148.4308 95.5076 -2.1797 0.0000 0.0000 0.0000
# 2 95.5076 176.2037 10.8730 0.0000 0.0000 0.0000
# 3 -2.1797 10.8730 60.9626 0.0000 0.0000 0.0000
# 4 0.0000 0.0000 0.0000 2.7297 0.0000 0.0000
# 5 0.0000 0.0000 0.0000 0.0000 -421.3298 0.0000
# 6 0.0000 0.0000 0.0000 0.0000 0.0000 3.4290
#
#
#
# Elastic Compliance Matrix: (Units=1/GPa)
#
#
# Indices 1 2 3 4 5 6 
#
# 1 0.010462 -0.005757 0.001401 0.000000 0.000000 0.000000
# 2 -0.005757 0.008907 -0.001794 0.000000 0.000000 0.000000
# 3 0.001401 -0.001794 0.016774 0.000000 0.000000 0.000000
# 4 0.000000 0.000000 0.000000 0.366346 0.000000 0.000000
# 5 0.000000 0.000000 0.000000 0.000000 -0.002373 0.000000
# 6 0.000000 0.000000 0.000000 0.000000 0.000000 0.291633
#
#
# Mechanical properties :
#
#
# Convention : Reuss Voigt Hill
#
# Bulk Modulus (GPa) = 41.94462 65.99988 53.97225
# Shear Modulus (GPa) = 7.02250 -64.27450 -28.62600
#
# Velocity S-wave (km/s) = 1.77574 -5.37221 -3.58520
# Velocity P-wave (km/s) = 4.79983 2.97414 2.66392
#
# Compressibility (1/GPa) = 0.02384096
#
# Stress axis : x y z
#
# Youngs Moduli (GPa) = 95.58175 112.27621 59.61735
#
# Poissons Ratio (x) = 0.64641 -0.08352
# Poissons Ratio (y) = 0.55029 0.10698
# Poissons Ratio (z) = -0.13390 0.20147
#
# Static dielectric constant tensor:
#      x y z
#    x 1.767980 0.000000 0.000000 
#    y 0.000000 1.827190 0.000000 
#    z 0.000000 0.000000 1.967350 
# 
# From -- ./inp_files/20489.got.cif
#   From: 2010.05.17/outbox.cif.g08.bks.cpg/sg49_11_cif.got.tgz:20489.got - 2010.06.03 21:02:19.
