data_PCOD9392883
_publ_section_title
;
Structure prediction by ZEFSAII (Michael W. Deem and Ramdas Pophale) SiO2 
 PCOD9392883
Probable space group: P C C M
;
_chemical_formula_sum "Si O2"
_cell_formula_units_Z 64
_cell_length_a 19.764529
_cell_length_b 19.337395
_cell_length_c 9.138786
_cell_angle_alpha 90.000000
_cell_angle_beta 90.000000
_cell_angle_gamma 90.000000
_cell_volume 3492.793785
_symmetry_space_group_name_H-M "P C C M"
_symmetry_group_IT_number 49
_symmetry_cell_setting 'orthorhombic'
loop_
_space_group_symop_operation_xyz
x,y,z
-x,-y,z
x,-y,1/2-z
-x,y,1/2-z
-x,-y,-z
x,y,-z
-x,y,1/2+z
x,-y,1/2+z
loop_
_atom_site_type_symbol
_atom_site_label
_atom_site_fract_x
_atom_site_fract_y
_atom_site_fract_z
Si Si1 0.654167 0.571931 0.676777
Si Si2 0.335923 0.288327 0.827635
Si Si3 0.219408 0.797043 0.172456
Si Si4 0.066539 0.811639 0.834329
Si Si5 0.685766 0.931498 0.670389
Si Si6 0.812003 0.568773 0.675065
Si Si7 0.062986 0.646934 0.163317
Si Si8 0.428295 0.151689 0.828418
O O1 0.628626 0.500000 0.750000
O O2 0.646003 0.570070 0.500000
O O3 0.631914 0.645024 0.746028
O O4 0.734115 0.575924 0.716960
O O5 0.265769 0.260075 0.754406
O O6 0.387574 0.224021 0.815319
O O7 0.325174 0.303524 0.000000
O O8 0.143356 0.814406 0.227583
O O9 0.261694 0.868034 0.179631
O O10 0.212983 0.775720 0.000000
O O11 0.056045 0.729063 0.843654
O O12 0.000000 0.839067 0.750000
O O13 0.067855 0.840013 0.000000
O O14 0.672739 0.945297 0.500000
O O15 0.618194 0.905589 0.750918
O O16 0.711568 0.000000 0.750000
O O17 0.839213 0.500000 0.750000
O O18 0.810901 0.562617 0.500000
O O19 0.862747 0.629054 0.720879
O O20 0.000000 0.617721 0.250000
O O21 0.059263 0.618941 0.000000
O O22 0.500000 0.156640 0.750000
O O23 0.436190 0.136373 0.000000
#
# Coordination Sequence:
#
# PCOD9392883 Si02
#       8
#     8   8   8   8   8   8   8   8
#     4  10  19  32  50  71  97 129 167 212 263 314
#     4  10  20  33  52  79 107 135 172 217 262 310
#     4   9  18  33  53  75 102 138 176 215 262 315
#     4   9  17  30  47  68  93 122 161 209 261 312
#     4  10  20  35  56  82 112 145 179 214 255 302
#     4   9  18  30  42  57  79 110 148 192 241 295
#     4   9  17  28  40  55  78 108 144 188 239 295
#     4  10  21  37  57  83 114 145 178 213 250 299
#
# _framework density 18.323440000000002
#
# number of rings (size 3 to 8) (size 9 to 14) (size 15 to 20)
#    0.000    2.500    0.000    2.250    0.000    6.000 
#    0.000    5.000    0.000    0.750    0.000    5.250 
#    0.000    0.000    0.000    0.000    0.000    0.000 
#
# Total GULP energy -356384.111837 kJ/mol
# GULP energy per Si atom -5568.501747 kJ/mol
# Density = 1.828174 g / cm^3
# Si number density = 18.323440 Si / 1000 Ang^3
#
#
#
# Elastic Constant Matrix: (Units=GPa)
#
#
# Indices 1 2 3 4 5 6 
#
# 1 57.3903 -16.9617 16.3578 0.0000 0.0000 0.0000
# 2 -16.9617 53.5701 27.7897 0.0000 0.0000 0.0000
# 3 16.3578 27.7897 65.4852 0.0000 0.0000 0.0000
# 4 0.0000 0.0000 0.0000 25.7604 0.0000 0.0000
# 5 0.0000 0.0000 0.0000 0.0000 24.1029 0.0000
# 6 0.0000 0.0000 0.0000 0.0000 0.0000 9.8919
#
#
#
# Elastic Compliance Matrix: (Units=1/GPa)
#
#
# Indices 1 2 3 4 5 6 
#
# 1 0.025235 0.014439 -0.012431 0.000000 0.000000 0.000000
# 2 0.014439 0.032198 -0.017270 0.000000 0.000000 0.000000
# 3 -0.012431 -0.017270 0.025705 0.000000 0.000000 0.000000
# 4 0.000000 0.000000 0.000000 0.038819 0.000000 0.000000
# 5 0.000000 0.000000 0.000000 0.000000 0.041489 0.000000
# 6 0.000000 0.000000 0.000000 0.000000 0.000000 0.101093
#
#
# Mechanical properties :
#
#
# Convention : Reuss Voigt Hill
#
# Bulk Modulus (GPa) = 19.00693 25.64636 22.32664
# Shear Modulus (GPa) = 15.99483 21.90170 18.94826
#
# Velocity S-wave (km/s) = 2.95772 3.46104 3.21923
# Velocity P-wave (km/s) = 4.69677 5.47709 5.10187
#
# Compressibility (1/GPa) = 0.05261238
#
# Stress axis : x y z
#
# Youngs Moduli (GPa) = 39.62753 31.05807 38.90340
#
# Poissons Ratio (x) = -0.44843 0.48360
# Poissons Ratio (y) = -0.57216 0.67187
# Poissons Ratio (z) = 0.49260 0.53638
#
# Static dielectric constant tensor:
#      x y z
#    x 1.652570 0.000000 0.000000 
#    y 0.000000 1.674750 0.000000 
#    z 0.000000 0.000000 1.642140 
# 
# From -- ./inp_files/5997.got.cif
#   From: 2010.05.17/outbox.cif.g08.bks.cpg/sg49_3_cif.got.tgz:5997.got - 2010.06.03 21:02:19.
