data_PCOD9392160
_publ_section_title
;
Structure prediction by ZEFSAII (Michael W. Deem and Ramdas Pophale) SiO2 
 PCOD9392160
Probable space group: P C C M
;
_chemical_formula_sum "Si O2"
_cell_formula_units_Z 40
_cell_length_a 9.331138
_cell_length_b 26.846195
_cell_length_c 8.591364
_cell_angle_alpha 90.000000
_cell_angle_beta 90.000000
_cell_angle_gamma 90.000000
_cell_volume 2152.184367
_symmetry_space_group_name_H-M "P C C M"
_symmetry_group_IT_number 49
_symmetry_cell_setting 'orthorhombic'
loop_
_space_group_symop_operation_xyz
x,y,z
-x,-y,z
x,-y,1/2-z
-x,y,1/2-z
-x,-y,-z
x,y,-z
-x,y,1/2+z
x,-y,1/2+z
loop_
_atom_site_type_symbol
_atom_site_label
_atom_site_fract_x
_atom_site_fract_y
_atom_site_fract_z
Si Si1 0.339424 0.746832 0.687814
Si Si2 0.163557 0.051309 0.685755
Si Si3 0.660869 0.553529 0.186991
Si Si4 0.162132 0.844536 0.312860
Si Si5 0.839567 0.349812 0.311987
O O1 0.500000 0.746087 0.750000
O O2 0.343594 0.746014 0.500000
O O3 0.255912 0.797011 0.734278
O O4 0.251916 0.698074 0.740247
O O5 0.160607 0.050255 0.500000
O O6 0.224355 0.103590 0.746642
O O7 0.000000 0.051885 0.750000
O O8 0.229851 0.000000 0.750000
O O9 0.710997 0.500000 0.250000
O O10 0.500000 0.561430 0.250000
O O11 0.761014 0.599216 0.236365
O O12 0.655573 0.551749 0.000000
O O13 0.156184 0.847705 0.500000
O O14 0.000000 0.838463 0.250000
O O15 0.843221 0.349181 0.500000
O O16 0.000000 0.347274 0.250000
#
# Coordination Sequence:
#
# PCOD9392160 Si02
#       5
#     8   8   8   8   8
#     4  10  22  38  56  78 105 137 176 217 262 316
#     4  10  17  27  45  71 103 137 172 212 258 307
#     4  10  20  35  56  81 110 143 182 220 262 313
#     4  10  19  32  51  77 106 136 172 215 260 310
#     4  10  22  38  56  81 109 140 177 220 266 315
#
# _framework density 18.585768000000002
#
# number of rings (size 3 to 8) (size 9 to 14) (size 15 to 20)
#    0.000    2.000    0.000    6.600    0.000    4.400 
#    0.000    2.000    0.000    0.600    0.000    4.200 
#    0.000    0.000    0.000    0.000    0.000    0.000 
#
# Total GULP energy -223318.649696 kJ/mol
# GULP energy per Si atom -5582.966242 kJ/mol
# Density = 1.854347 g / cm^3
# Si number density = 18.585768 Si / 1000 Ang^3
#
#
#
# Elastic Constant Matrix: (Units=GPa)
#
#
# Indices 1 2 3 4 5 6 
#
# 1 103.6156 105.9624 27.3384 0.0000 0.0000 0.0000
# 2 105.9624 231.1386 55.0661 0.0000 0.0000 0.0000
# 3 27.3384 55.0661 66.7139 0.0000 0.0000 0.0000
# 4 0.0000 0.0000 0.0000 29.9836 0.0000 0.0000
# 5 0.0000 0.0000 0.0000 0.0000 24.7847 0.0000
# 6 0.0000 0.0000 0.0000 0.0000 0.0000 -87.6770
#
#
#
# Elastic Compliance Matrix: (Units=1/GPa)
#
#
# Indices 1 2 3 4 5 6 
#
# 1 0.018196 -0.008172 -0.000711 0.000000 0.000000 0.000000
# 2 -0.008172 0.009056 -0.004126 0.000000 0.000000 0.000000
# 3 -0.000711 -0.004126 0.018686 0.000000 0.000000 0.000000
# 4 0.000000 0.000000 0.000000 0.033352 0.000000 0.000000
# 5 0.000000 0.000000 0.000000 0.000000 0.040348 0.000000
# 6 0.000000 0.000000 0.000000 0.000000 0.000000 -0.011405
#
#
# Mechanical properties :
#
#
# Convention : Reuss Voigt Hill
#
# Bulk Modulus (GPa) = 50.20126 86.46688 68.33407
# Shear Modulus (GPa) = 35.48864 7.62500 21.55682
#
# Velocity S-wave (km/s) = 4.37447 2.02768 3.40936
# Velocity P-wave (km/s) = 7.25147 7.21846 7.23499
#
# Compressibility (1/GPa) = 0.01991982
#
# Stress axis : x y z
#
# Youngs Moduli (GPa) = 54.95675 110.42558 53.51537
#
# Poissons Ratio (x) = 0.90244 0.03805
# Poissons Ratio (y) = 0.44913 0.22080
# Poissons Ratio (z) = 0.03907 0.45560
#
# Static dielectric constant tensor:
#      x y z
#    x 1.600400 0.000000 0.000000 
#    y 0.000000 1.680190 0.000000 
#    z 0.000000 0.000000 1.628030 
# 
# From -- ./inp_files/1884.got.cif
#   From: 2010.05.17/outbox.cif.g08.bks.cpg/sg49_1_cif.got.tgz:1884.got - 2010.06.03 21:02:19.
