data_PCOD9392738
_publ_section_title
;
Structure prediction by ZEFSAII (Michael W. Deem and Ramdas Pophale) SiO2 
 PCOD9392738
Probable space group: P C C M
;
_chemical_formula_sum "Si O2"
_cell_formula_units_Z 56
_cell_length_a 20.832163
_cell_length_b 15.504152
_cell_length_c 8.864105
_cell_angle_alpha 90.000000
_cell_angle_beta 90.000000
_cell_angle_gamma 90.000000
_cell_volume 2862.973145
_symmetry_space_group_name_H-M "P C C M"
_symmetry_group_IT_number 49
_symmetry_cell_setting 'orthorhombic'
loop_
_space_group_symop_operation_xyz
x,y,z
-x,-y,z
x,-y,1/2-z
-x,y,1/2-z
-x,-y,-z
x,y,-z
-x,y,1/2+z
x,-y,1/2+z
loop_
_atom_site_type_symbol
_atom_site_label
_atom_site_fract_x
_atom_site_fract_y
_atom_site_fract_z
Si Si1 0.929269 0.724750 0.181410
Si Si2 0.434805 0.108967 0.329732
Si Si3 0.820234 0.594621 0.182175
Si Si4 0.565874 0.683827 0.669605
Si Si5 0.071940 0.914667 0.680381
Si Si6 0.299043 0.285750 0.181769
Si Si7 0.299774 0.911316 0.678758
O O1 0.882447 0.649083 0.231643
O O2 0.900679 0.820125 0.216541
O O3 0.000000 0.717374 0.250000
O O4 0.934960 0.721731 0.000000
O O5 0.500000 0.083716 0.250000
O O6 0.426404 0.074700 0.500000
O O7 0.439315 0.212438 0.342389
O O8 0.374884 0.088612 0.223830
O O9 0.819123 0.500000 0.250000
O O10 0.757976 0.650307 0.224821
O O11 0.821504 0.589496 0.000000
O O12 0.500000 0.653607 0.750000
O O13 0.570012 0.648073 0.500000
O O14 0.633612 0.676926 0.756212
O O15 0.068360 0.924151 0.500000
O O16 0.000000 0.911616 0.750000
O O17 0.103573 0.000000 0.750000
O O18 0.282203 0.186695 0.230936
O O19 0.304131 0.281721 0.000000
O O20 0.289797 0.915793 0.500000
O O21 0.272206 0.000000 0.750000
#
# Coordination Sequence:
#
# PCOD9392738 Si02
#       7
#     8   8   8   8   8   8   8
#     4   9  19  35  56  83 117 152 186 225 271 320
#     4   9  16  26  40  62  94 132 173 216 258 306
#     4  10  22  41  62  84 109 141 180 224 276 334
#     4   9  16  27  48  77 107 138 176 220 268 319
#     4   9  15  25  44  72 107 147 186 223 261 306
#     4   9  19  36  56  76 105 143 180 219 269 325
#     4  10  19  31  47  68  96 133 173 214 259 310
#
# _framework density 19.560086999999999
#
# number of rings (size 3 to 8) (size 9 to 14) (size 15 to 20)
#    0.000    2.714    0.000    2.143    0.000    6.286 
#    0.000    3.571    0.000    0.429    0.000    3.000 
#    0.000    0.000    0.000    0.000    0.000    0.000 
#
# Total GULP energy -312024.140944 kJ/mol
# GULP energy per Si atom -5571.859660 kJ/mol
# Density = 1.951557 g / cm^3
# Si number density = 19.560087 Si / 1000 Ang^3
#
#
#
# Elastic Constant Matrix: (Units=GPa)
#
#
# Indices 1 2 3 4 5 6 
#
# 1 95.0274 72.6192 26.1448 0.0000 0.0000 0.0000
# 2 72.6192 148.5807 36.8154 0.0000 0.0000 0.0000
# 3 26.1448 36.8154 43.3440 0.0000 0.0000 0.0000
# 4 0.0000 0.0000 0.0000 29.3799 0.0000 0.0000
# 5 0.0000 0.0000 0.0000 0.0000 15.1341 0.0000
# 6 0.0000 0.0000 0.0000 0.0000 0.0000 -25.5223
#
#
#
# Elastic Compliance Matrix: (Units=1/GPa)
#
#
# Indices 1 2 3 4 5 6 
#
# 1 0.017363 -0.007462 -0.004136 0.000000 0.000000 0.000000
# 2 -0.007462 0.011731 -0.005463 0.000000 0.000000 0.000000
# 3 -0.004136 -0.005463 0.030206 0.000000 0.000000 0.000000
# 4 0.000000 0.000000 0.000000 0.034037 0.000000 0.000000
# 5 0.000000 0.000000 0.000000 0.000000 0.066076 0.000000
# 6 0.000000 0.000000 0.000000 0.000000 0.000000 -0.039181
#
#
# Mechanical properties :
#
#
# Convention : Reuss Voigt Hill
#
# Bulk Modulus (GPa) = 39.71503 62.01232 50.86367
# Shear Modulus (GPa) = 30.72275 13.88983 22.30629
#
# Velocity S-wave (km/s) = 3.96749 2.66768 3.38064
# Velocity P-wave (km/s) = 6.42932 6.42347 6.42640
#
# Compressibility (1/GPa) = 0.02517939
#
# Stress axis : x y z
#
# Youngs Moduli (GPa) = 57.59306 85.24515 33.10590
#
# Poissons Ratio (x) = 0.63606 0.13691
# Poissons Ratio (y) = 0.42973 0.18086
# Poissons Ratio (z) = 0.23819 0.46571
#
# Static dielectric constant tensor:
#      x y z
#    x 1.677860 0.000000 0.000000 
#    y 0.000000 1.730160 0.000000 
#    z 0.000000 0.000000 1.677040 
# 
# From -- ./inp_files/5776.got.cif
#   From: 2010.05.17/outbox.cif.g08.bks.cpg/sg49_3_cif.got.tgz:5776.got - 2010.06.03 21:02:19.
