data_PCOD9392709
_publ_section_title
;
Structure prediction by ZEFSAII (Michael W. Deem and Ramdas Pophale) SiO2 
 PCOD9392709
Probable space group: P C C M
;
_chemical_formula_sum "Si O2"
_cell_formula_units_Z 40
_cell_length_a 23.588952
_cell_length_b 7.472483
_cell_length_c 10.202543
_cell_angle_alpha 90.000000
_cell_angle_beta 90.000000
_cell_angle_gamma 90.000000
_cell_volume 1798.382286
_symmetry_space_group_name_H-M "P C C M"
_symmetry_group_IT_number 49
_symmetry_cell_setting 'orthorhombic'
loop_
_space_group_symop_operation_xyz
x,y,z
-x,-y,z
x,-y,1/2-z
-x,y,1/2-z
-x,-y,-z
x,y,-z
-x,y,1/2+z
x,-y,1/2+z
loop_
_atom_site_type_symbol
_atom_site_label
_atom_site_fract_x
_atom_site_fract_y
_atom_site_fract_z
Si Si1 0.221685 0.746790 0.000000
Si Si2 0.565483 0.218109 0.756460
Si Si3 0.950986 0.181077 0.660283
Si Si4 0.371538 0.251205 0.000000
Si Si5 0.643343 0.179966 0.000000
Si Si6 0.755707 0.328559 0.500000
Si Si7 0.826460 0.712019 0.232145
O O1 0.220914 0.530013 0.000000
O O2 0.187475 0.803547 0.870392
O O3 0.288838 0.789731 0.000000
O O4 0.500000 0.275292 0.750000
O O5 0.594163 0.296134 0.628389
O O6 0.563840 0.000000 0.750000
O O7 0.607859 0.254040 0.876562
O O8 0.963159 0.165160 0.500000
O O9 0.889097 0.264243 0.675339
O O10 0.000000 0.275918 0.750000
O O11 0.944824 0.000000 0.750000
O O12 0.310869 0.339547 0.000000
O O13 0.362922 0.035799 0.000000
O O14 0.779641 0.230527 0.372842
O O15 0.819042 0.500000 0.250000
#
# Coordination Sequence:
#
# PCOD9392709 Si02
#       7
#     4   8   8   4   4   4   8
#     4  10  22  35  58  80 114 149 187 236 289 344
#     4   9  17  30  49  75 105 137 178 230 282 335
#     4  11  24  42  64  92 125 157 192 237 290 345
#     4  10  19  30  54  75 105 140 181 229 281 340
#     4  10  19  32  50  81 103 138 187 229 279 344
#     4  10  20  39  54  80 112 149 187 234 293 338
#     4  10  22  40  61  85 114 154 199 240 284 341
#
# _framework density 22.242213
#
# number of rings (size 3 to 8) (size 9 to 14) (size 15 to 20)
#    0.000    2.000    1.000    3.000    2.800    4.400 
#    0.000    1.000    0.000    3.600    0.000    0.000 
#    0.000    0.000    0.000    0.000    0.000    0.000 
#
# Total GULP energy -222979.822063 kJ/mol
# GULP energy per Si atom -5574.495552 kJ/mol
# Density = 2.219159 g / cm^3
# Si number density = 22.242213 Si / 1000 Ang^3
#
#
#
# Elastic Constant Matrix: (Units=GPa)
#
#
# Indices 1 2 3 4 5 6 
#
# 1 153.5228 -24.4134 88.2963 0.0000 0.0000 0.0000
# 2 -24.4134 33.0122 -0.0149 0.0000 0.0000 0.0000
# 3 88.2963 -0.0149 206.8327 0.0000 0.0000 0.0000
# 4 0.0000 0.0000 0.0000 -16.9484 0.0000 0.0000
# 5 0.0000 0.0000 0.0000 0.0000 43.9816 0.0000
# 6 0.0000 0.0000 0.0000 0.0000 0.0000 37.8704
#
#
#
# Elastic Compliance Matrix: (Units=1/GPa)
#
#
# Indices 1 2 3 4 5 6 
#
# 1 0.010227 0.007561 -0.004365 0.000000 0.000000 0.000000
# 2 0.007561 0.035882 -0.003225 0.000000 0.000000 0.000000
# 3 -0.004365 -0.003225 0.006698 0.000000 0.000000 0.000000
# 4 0.000000 0.000000 0.000000 -0.059003 0.000000 0.000000
# 5 0.000000 0.000000 0.000000 0.000000 0.022737 0.000000
# 6 0.000000 0.000000 0.000000 0.000000 0.000000 0.026406
#
#
# Mechanical properties :
#
#
# Convention : Reuss Voigt Hill
#
# Bulk Modulus (GPa) = 18.95818 57.90042 38.42930
# Shear Modulus (GPa) = 82.52451 34.94735 58.73593
#
# Velocity S-wave (km/s) = 6.09780 3.96816 5.14439
# Velocity P-wave (km/s) = 7.62362 6.86173 7.25269
#
# Compressibility (1/GPa) = 0.05274767
#
# Stress axis : x y z
#
# Youngs Moduli (GPa) = 97.78432 27.86924 149.29674
#
# Poissons Ratio (x) = -0.21072 0.65170
# Poissons Ratio (y) = -0.73934 0.48150
# Poissons Ratio (z) = 0.42684 0.08988
#
# Static dielectric constant tensor:
#      x y z
#    x 1.789810 0.000000 0.000000 
#    y 0.000000 1.864220 0.000000 
#    z 0.000000 0.000000 1.873490 
# 
# From -- ./inp_files/6258.got.cif
#   From: 2010.05.17/outbox.cif.g08.bks.cpg/sg49_4_cif.got.tgz:6258.got - 2010.06.03 21:02:19.
