data_PCOD9392131
_publ_section_title
;
Structure prediction by ZEFSAII (Michael W. Deem and Ramdas Pophale) SiO2 
 PCOD9392131
Probable space group: P C C M
;
_chemical_formula_sum "Si O2"
_cell_formula_units_Z 58
_cell_length_a 26.177679
_cell_length_b 15.244878
_cell_length_c 8.273166
_cell_angle_alpha 90.000000
_cell_angle_beta 90.000000
_cell_angle_gamma 90.000000
_cell_volume 3301.618046
_symmetry_space_group_name_H-M "P C C M"
_symmetry_group_IT_number 49
_symmetry_cell_setting 'orthorhombic'
loop_
_space_group_symop_operation_xyz
x,y,z
-x,-y,z
x,-y,1/2-z
-x,y,1/2-z
-x,-y,-z
x,y,-z
-x,y,1/2+z
x,-y,1/2+z
loop_
_atom_site_type_symbol
_atom_site_label
_atom_site_fract_x
_atom_site_fract_y
_atom_site_fract_z
Si Si1 0.199251 0.596579 0.305830
Si Si2 0.663828 0.101157 0.306901
Si Si3 0.000000 0.500000 0.750000
Si Si4 0.845494 0.907134 0.192979
Si Si5 0.446331 0.898843 0.191742
Si Si6 0.081026 0.631658 0.692757
Si Si7 0.054607 0.823563 0.810508
Si Si8 0.244114 0.775941 0.697035
O O1 0.214224 0.500000 0.250000
O O2 0.200210 0.598671 0.500000
O O3 0.139818 0.614239 0.261543
O O4 0.234843 0.676440 0.246653
O O5 0.666419 0.098307 0.500000
O O6 0.607619 0.134948 0.257284
O O7 0.707425 0.167642 0.245836
O O8 0.670626 0.000000 0.250000
O O9 0.042793 0.572618 0.799966
O O10 0.899866 0.890077 0.273745
O O11 0.806660 0.830269 0.239233
O O12 0.824025 0.000000 0.250000
O O13 0.851138 0.906309 0.000000
O O14 0.500000 0.858466 0.250000
O O15 0.445379 0.102208 0.500000
O O16 0.446959 0.000000 0.250000
O O17 0.073425 0.609954 0.500000
O O18 0.067795 0.733085 0.718490
O O19 0.000000 0.856248 0.750000
O O20 0.052121 0.804750 0.000000
O O21 0.246992 0.774068 0.500000
#
# Coordination Sequence:
#
# PCOD9392131 Si02
#       8
#     8   8   2   8   8   8   8   8
#     4  10  20  37  55  76 102 135 168 207 256 311
#     4  10  18  30  48  73 104 142 182 221 260 305
#     4  12  22  32  56  86 108 128 166 200 264 320
#     4  11  22  40  60  81 105 134 169 211 256 308
#     4  10  17  27  43  67 101 142 183 223 261 303
#     4  11  22  36  54  77 106 131 159 201 252 311
#     4  12  25  40  58  78 100 129 163 203 253 309
#     4   9  19  35  55  75 105 141 173 211 262 309
#
# _framework density 17.567145
#
# number of rings (size 3 to 8) (size 9 to 14) (size 15 to 20)
#    0.000    1.517    2.759    5.172    0.000    1.379 
#    0.000    4.828    0.000    0.000    0.000    0.000 
#    0.000    0.552    0.000    6.345    0.000    1.931 
#
# Total GULP energy -323478.772445 kJ/mol
# GULP energy per Si atom -5577.220215 kJ/mol
# Density = 1.752716 g / cm^3
# Si number density = 17.567145 Si / 1000 Ang^3
#
#
#
# Elastic Constant Matrix: (Units=GPa)
#
#
# Indices 1 2 3 4 5 6 
#
# 1 127.8711 49.0131 21.3368 0.0000 0.0000 0.0000
# 2 49.0131 87.5087 12.1808 0.0000 0.0000 0.0000
# 3 21.3368 12.1808 53.8096 0.0000 0.0000 0.0000
# 4 0.0000 0.0000 0.0000 18.6874 0.0000 0.0000
# 5 0.0000 0.0000 0.0000 0.0000 12.2504 0.0000
# 6 0.0000 0.0000 0.0000 0.0000 0.0000 8.6771
#
#
#
# Elastic Compliance Matrix: (Units=1/GPa)
#
#
# Indices 1 2 3 4 5 6 
#
# 1 0.010376 -0.005409 -0.002890 0.000000 0.000000 0.000000
# 2 -0.005409 0.014619 -0.001164 0.000000 0.000000 0.000000
# 3 -0.002890 -0.001164 0.019994 0.000000 0.000000 0.000000
# 4 0.000000 0.000000 0.000000 0.053512 0.000000 0.000000
# 5 0.000000 0.000000 0.000000 0.000000 0.081630 0.000000
# 6 0.000000 0.000000 0.000000 0.000000 0.000000 0.115246
#
#
# Mechanical properties :
#
#
# Convention : Reuss Voigt Hill
#
# Bulk Modulus (GPa) = 38.37056 48.25010 43.31033
# Shear Modulus (GPa) = 15.48028 20.36688 17.92358
#
# Velocity S-wave (km/s) = 2.97173 3.40865 3.19766
# Velocity P-wave (km/s) = 5.80212 6.55878 6.19202
#
# Compressibility (1/GPa) = 0.02606165
#
# Stress axis : x y z
#
# Youngs Moduli (GPa) = 96.37669 68.40314 50.01620
#
# Poissons Ratio (x) = 0.37001 0.14454
# Poissons Ratio (y) = 0.52133 0.05824
# Poissons Ratio (z) = 0.27851 0.07965
#
# Static dielectric constant tensor:
#      x y z
#    x 1.619060 0.000000 0.000000 
#    y 0.000000 1.598070 0.000000 
#    z 0.000000 0.000000 1.643000 
# 
# From -- ./inp_files/6471.got.cif
#   From: 2010.05.17/outbox.cif.g08.bks.cpg/sg49_4_cif.got.tgz:6471.got - 2010.06.03 21:02:19.
