data_PCOD9392677
_publ_section_title
;
Structure prediction by ZEFSAII (Michael W. Deem and Ramdas Pophale) SiO2 
 PCOD9392677
Probable space group: P C C M
;
_chemical_formula_sum "Si O2"
_cell_formula_units_Z 56
_cell_length_a 22.584621
_cell_length_b 5.058758
_cell_length_c 27.893397
_cell_angle_alpha 90.000000
_cell_angle_beta 90.000000
_cell_angle_gamma 90.000000
_cell_volume 3186.824294
_symmetry_space_group_name_H-M "P C C M"
_symmetry_group_IT_number 49
_symmetry_cell_setting 'orthorhombic'
loop_
_space_group_symop_operation_xyz
x,y,z
-x,-y,z
x,-y,1/2-z
-x,y,1/2-z
-x,-y,-z
x,y,-z
-x,y,1/2+z
x,-y,1/2+z
loop_
_atom_site_type_symbol
_atom_site_label
_atom_site_fract_x
_atom_site_fract_y
_atom_site_fract_z
Si Si1 0.861921 0.397576 0.556542
Si Si2 0.378650 0.066349 0.301236
Si Si3 0.458955 0.244050 0.946080
Si Si4 0.762882 0.571189 0.864608
Si Si5 0.626361 0.548497 0.135179
Si Si6 0.060681 0.118829 0.556528
Si Si7 0.241284 0.094654 0.300906
O O1 0.849769 0.449466 0.500000
O O2 0.804487 0.424679 0.589300
O O3 0.911560 0.607406 0.573975
O O4 0.889662 0.106624 0.560278
O O5 0.401275 0.291396 0.338054
O O6 0.310914 0.160260 0.291157
O O7 0.408008 0.000000 0.250000
O O8 0.374814 0.786946 0.327213
O O9 0.500000 0.500000 0.949595
O O10 0.407948 0.335646 0.910302
O O11 0.500000 0.000000 0.929198
O O12 0.437500 0.174802 0.000000
O O13 0.695059 0.495694 0.877538
O O14 0.784443 0.353811 0.826010
O O15 0.762030 0.854496 0.838467
O O16 0.048193 0.168488 0.500000
O O17 0.000000 0.000000 0.577491
O O18 0.216012 0.000000 0.250000
#
# Coordination Sequence:
#
# PCOD9392677 Si02
#       7
#     8   8   8   8   8   8   8
#     4  10  19  30  45  69 103 133 156 194 241 286
#     4   9  17  30  50  75  99 125 157 192 240 300
#     4  10  21  37  55  73  94 126 172 217 245 273
#     4  10  19  30  47  74 103 128 157 193 245 304
#     4  10  19  32  52  74  98 130 161 197 246 296
#     4   9  17  30  47  65  90 130 172 201 230 274
#     4   9  17  30  47  68  97 129 161 199 237 281
#
# _framework density 17.572353
#
# number of rings (size 3 to 8) (size 9 to 14) (size 15 to 20)
#    0.000    2.429    0.000    3.000    0.000    5.714 
#    0.000    0.000    0.000   16.714    0.000    0.000 
#    0.000   40.000    0.000    0.000    0.000    0.000 
#
# Total GULP energy -311896.307814 kJ/mol
# GULP energy per Si atom -5569.576925 kJ/mol
# Density = 1.753236 g / cm^3
# Si number density = 17.572353 Si / 1000 Ang^3
#
#
#
# Elastic Constant Matrix: (Units=GPa)
#
#
# Indices 1 2 3 4 5 6 
#
# 1 36.9015 -3.3816 33.0190 0.0000 0.0000 0.0000
# 2 -3.3816 67.4394 -3.6109 0.0000 0.0000 0.0000
# 3 33.0190 -3.6109 70.3427 0.0000 0.0000 0.0000
# 4 0.0000 0.0000 0.0000 25.0992 0.0000 0.0000
# 5 0.0000 0.0000 0.0000 0.0000 -13.1159 0.0000
# 6 0.0000 0.0000 0.0000 0.0000 0.0000 12.4123
#
#
#
# Elastic Compliance Matrix: (Units=1/GPa)
#
#
# Indices 1 2 3 4 5 6 
#
# 1 0.046816 0.001174 -0.021915 0.000000 0.000000 0.000000
# 2 0.001174 0.014898 0.000214 0.000000 0.000000 0.000000
# 3 -0.021915 0.000214 0.024514 0.000000 0.000000 0.000000
# 4 0.000000 0.000000 0.000000 0.039842 0.000000 0.000000
# 5 0.000000 0.000000 0.000000 0.000000 -0.076243 0.000000
# 6 0.000000 0.000000 0.000000 0.000000 0.000000 0.080565
#
#
# Mechanical properties :
#
#
# Convention : Reuss Voigt Hill
#
# Bulk Modulus (GPa) = 22.13675 25.19294 23.66485
# Shear Modulus (GPa) = 26.80876 14.78959 20.79917
#
# Velocity S-wave (km/s) = 3.91016 2.90425 3.44413
# Velocity P-wave (km/s) = 5.74549 5.06103 5.41409
#
# Compressibility (1/GPa) = 0.04517375
#
# Stress axis : x y z
#
# Youngs Moduli (GPa) = 21.36001 67.12110 40.79265
#
# Poissons Ratio (x) = -0.07881 0.89399
# Poissons Ratio (y) = -0.02508 -0.00872
# Poissons Ratio (z) = 0.46811 -0.01434
#
# Static dielectric constant tensor:
#      x y z
#    x 1.610280 0.000000 0.000000 
#    y 0.000000 1.616930 0.000000 
#    z 0.000000 0.000000 1.627430 
# 
# From -- ./inp_files/21881.got.cif
#   From: 2010.05.17/outbox.cif.g08.bks.cpg/sg49_11_cif.got.tgz:21881.got - 2010.06.03 21:02:19.
