data_PCOD9392972
_publ_section_title
;
Structure prediction by ZEFSAII (Michael W. Deem and Ramdas Pophale) SiO2 
 PCOD9392972
Probable space group: P C C M
;
_chemical_formula_sum "Si O2"
_cell_formula_units_Z 40
_cell_length_a 9.351126
_cell_length_b 15.063159
_cell_length_c 14.937904
_cell_angle_alpha 90.000000
_cell_angle_beta 90.000000
_cell_angle_gamma 90.000000
_cell_volume 2104.115779
_symmetry_space_group_name_H-M "P C C M"
_symmetry_group_IT_number 49
_symmetry_cell_setting 'orthorhombic'
loop_
_space_group_symop_operation_xyz
x,y,z
-x,-y,z
x,-y,1/2-z
-x,y,1/2-z
-x,-y,-z
x,y,-z
-x,y,1/2+z
x,-y,1/2+z
loop_
_atom_site_type_symbol
_atom_site_label
_atom_site_fract_x
_atom_site_fract_y
_atom_site_fract_z
Si Si1 0.615955 0.753836 0.103659
Si Si2 0.921212 0.406582 0.500000
Si Si3 0.419667 0.408123 0.000000
Si Si4 0.069591 0.730408 0.341420
Si Si5 0.586982 0.087414 0.890629
Si Si6 0.913912 0.086911 0.108280
O O1 0.759857 0.747393 0.160167
O O2 0.502181 0.825405 0.135400
O O3 0.661571 0.780188 0.000000
O O4 0.549536 0.656562 0.084852
O O5 0.750584 0.422429 0.500000
O O6 0.955848 0.344553 0.415565
O O7 0.000000 0.500000 0.500000
O O8 0.500000 0.500000 0.000000
O O9 0.000000 0.699354 0.250000
O O10 0.994340 0.823392 0.365320
O O11 0.750236 0.086669 0.858753
O O12 0.500000 0.000000 0.863426
O O13 0.591903 0.087744 0.000000
O O14 0.909800 0.083944 0.000000
O O15 0.000000 0.000000 0.138791
#
# Coordination Sequence:
#
# PCOD9392972 Si02
#       6
#     8   4   4   8   8   8
#     4   8  16  32  52  78 114 145 188 231 282 343
#     4  10  22  40  61  86 115 144 191 244 298 352
#     4   8  16  30  53  80 105 142 177 226 288 346
#     4  11  21  37  59  84 117 154 191 239 294 347
#     4   9  16  27  49  78 107 149 195 237 284 332
#     4  10  19  32  54  83 117 155 198 242 285 344
#
# _framework density 19.010361
#
# number of rings (size 3 to 8) (size 9 to 14) (size 15 to 20)
#    0.600    2.000    2.000    1.200    0.000    5.600 
#    0.000    1.000    0.000    1.200    0.000    1.400 
#    0.000    0.000    0.000    0.000    0.000    0.000 
#
# Total GULP energy -223085.697691 kJ/mol
# GULP energy per Si atom -5577.142442 kJ/mol
# Density = 1.896709 g / cm^3
# Si number density = 19.010361 Si / 1000 Ang^3
#
#
#
# Elastic Constant Matrix: (Units=GPa)
#
#
# Indices 1 2 3 4 5 6 
#
# 1 132.9788 109.9360 41.8303 0.0000 0.0000 0.0000
# 2 109.9360 207.6904 37.6376 0.0000 0.0000 0.0000
# 3 41.8303 37.6376 68.6144 0.0000 0.0000 0.0000
# 4 0.0000 0.0000 0.0000 -15.7553 0.0000 0.0000
# 5 0.0000 0.0000 0.0000 0.0000 8.1636 0.0000
# 6 0.0000 0.0000 0.0000 0.0000 0.0000 43.6035
#
#
#
# Elastic Compliance Matrix: (Units=1/GPa)
#
#
# Indices 1 2 3 4 5 6 
#
# 1 0.014921 -0.006939 -0.005290 0.000000 0.000000 0.000000
# 2 -0.006939 0.008574 -0.000472 0.000000 0.000000 0.000000
# 3 -0.005290 -0.000472 0.018058 0.000000 0.000000 0.000000
# 4 0.000000 0.000000 0.000000 -0.063471 0.000000 0.000000
# 5 0.000000 0.000000 0.000000 0.000000 0.122495 0.000000
# 6 0.000000 0.000000 0.000000 0.000000 0.000000 0.022934
#
#
# Mechanical properties :
#
#
# Convention : Reuss Voigt Hill
#
# Bulk Modulus (GPa) = 61.92172 87.56571 74.74371
# Shear Modulus (GPa) = 32.40489 21.86101 27.13295
#
# Velocity S-wave (km/s) = 4.13315 3.39477 3.78202
# Velocity P-wave (km/s) = 7.44450 7.84398 7.64685
#
# Compressibility (1/GPa) = 0.01614942
#
# Stress axis : x y z
#
# Youngs Moduli (GPa) = 67.01978 116.63584 55.37616
#
# Poissons Ratio (x) = 0.80939 0.29294
# Poissons Ratio (y) = 0.46508 0.02616
# Poissons Ratio (z) = 0.35453 0.05510
#
# Static dielectric constant tensor:
#      x y z
#    x 1.644540 0.000000 0.000000 
#    y 0.000000 1.638880 0.000000 
#    z 0.000000 0.000000 1.713270 
# 
# From -- ./inp_files/16173.got.cif
#   From: 2010.05.17/outbox.cif.g08.bks.cpg/sg49_9_cif.got.tgz:16173.got - 2010.06.03 21:02:19.
