data_PCOD9392836
_publ_section_title
;
Structure prediction by ZEFSAII (Michael W. Deem and Ramdas Pophale) SiO2 
 PCOD9392836
Probable space group: P C C M
;
_chemical_formula_sum "Si O2"
_cell_formula_units_Z 48
_cell_length_a 14.821422
_cell_length_b 17.864614
_cell_length_c 9.299253
_cell_angle_alpha 90.000000
_cell_angle_beta 90.000000
_cell_angle_gamma 90.000000
_cell_volume 2462.246752
_symmetry_space_group_name_H-M "P C C M"
_symmetry_group_IT_number 49
_symmetry_cell_setting 'orthorhombic'
loop_
_space_group_symop_operation_xyz
x,y,z
-x,-y,z
x,-y,1/2-z
-x,y,1/2-z
-x,-y,-z
x,y,-z
-x,y,1/2+z
x,-y,1/2+z
loop_
_atom_site_type_symbol
_atom_site_label
_atom_site_fract_x
_atom_site_fract_y
_atom_site_fract_z
Si Si1 0.413997 0.347649 0.330117
Si Si2 0.784492 0.817638 0.161987
Si Si3 0.121154 0.563873 0.500000
Si Si4 0.079373 0.612065 0.000000
Si Si5 0.418109 0.187010 0.169247
Si Si6 0.903723 0.926053 0.671838
Si Si7 0.787865 0.645430 0.749896
O O1 0.500000 0.385443 0.250000
O O2 0.431922 0.343780 0.500000
O O3 0.410275 0.265472 0.255950
O O4 0.311501 0.375974 0.308458
O O5 0.681724 0.846413 0.176379
O O6 0.843984 0.855578 0.283569
O O7 0.782746 0.727887 0.179921
O O8 0.817293 0.835341 0.000000
O O9 0.098147 0.476922 0.500000
O O10 0.180096 0.585126 0.636051
O O11 0.029178 0.613926 0.500000
O O12 0.132048 0.646811 0.866072
O O13 0.500000 0.145930 0.250000
O O14 0.437961 0.199148 0.000000
O O15 0.911930 0.935115 0.500000
O O16 0.000000 0.916123 0.750000
O O17 0.864146 0.000000 0.750000
#
# Coordination Sequence:
#
# PCOD9392836 Si02
#       7
#     8   8   4   4   8   8   8
#     4  10  19  31  54  83 114 148 188 237 294 357
#     4  10  21  37  57  88 122 154 195 240 291 340
#     4  11  24  42  63  81 114 162 195 246 301 361
#     4  11  24  42  61  87 112 152 209 240 299 363
#     4   9  17  29  51  81 117 152 187 233 284 341
#     4  11  23  40  62  85 118 159 198 239 290 352
#     4  11  22  39  61  89 120 151 197 253 295 349
#
# _framework density 19.494392000000001
#
# number of rings (size 3 to 8) (size 9 to 14) (size 15 to 20)
#    0.000    1.667    1.667    5.000    3.500    4.000 
#    0.000    0.000    0.000    3.500    0.000    3.500 
#    0.000    0.000    0.000    0.000    0.000    0.000 
#
# Total GULP energy -267544.590057 kJ/mol
# GULP energy per Si atom -5573.845626 kJ/mol
# Density = 1.945002 g / cm^3
# Si number density = 19.494392 Si / 1000 Ang^3
#
#
#
# Elastic Constant Matrix: (Units=GPa)
#
#
# Indices 1 2 3 4 5 6 
#
# 1 101.7176 14.8025 46.7132 0.0000 0.0000 0.0000
# 2 14.8025 26.7073 11.0687 0.0000 0.0000 0.0000
# 3 46.7132 11.0687 167.6222 0.0000 0.0000 0.0000
# 4 0.0000 0.0000 0.0000 24.6948 0.0000 0.0000
# 5 0.0000 0.0000 0.0000 0.0000 32.2273 0.0000
# 6 0.0000 0.0000 0.0000 0.0000 0.0000 -17.6680
#
#
#
# Elastic Compliance Matrix: (Units=1/GPa)
#
#
# Indices 1 2 3 4 5 6 
#
# 1 0.011988 -0.005408 -0.002984 0.000000 0.000000 0.000000
# 2 -0.005408 0.040936 -0.001196 0.000000 0.000000 0.000000
# 3 -0.002984 -0.001196 0.006876 0.000000 0.000000 0.000000
# 4 0.000000 0.000000 0.000000 0.040494 0.000000 0.000000
# 5 0.000000 0.000000 0.000000 0.000000 0.031030 0.000000
# 6 0.000000 0.000000 0.000000 0.000000 0.000000 -0.056600
#
#
# Mechanical properties :
#
#
# Convention : Reuss Voigt Hill
#
# Bulk Modulus (GPa) = 24.61537 49.02402 36.81969
# Shear Modulus (GPa) = 46.53651 22.74834 34.64242
#
# Velocity S-wave (km/s) = 4.89117 3.41972 4.22008
# Velocity P-wave (km/s) = 6.67476 6.38710 6.53251
#
# Compressibility (1/GPa) = 0.04062502
#
# Stress axis : x y z
#
# Youngs Moduli (GPa) = 83.41359 24.42838 145.42660
#
# Poissons Ratio (x) = 0.13211 0.43393
# Poissons Ratio (y) = 0.45110 0.17394
# Poissons Ratio (z) = 0.24889 0.02922
#
# Static dielectric constant tensor:
#      x y z
#    x 1.743450 0.000000 0.000000 
#    y 0.000000 1.687030 0.000000 
#    z 0.000000 0.000000 1.663320 
# 
# From -- ./inp_files/3765.got.cif
#   From: 2010.05.17/outbox.cif.g08.bks.cpg/sg49_2_cif.got.tgz:3765.got - 2010.06.03 21:02:19.
