data_PCOD9392254
_publ_section_title
;
Structure prediction by ZEFSAII (Michael W. Deem and Ramdas Pophale) SiO2 
 PCOD9392254
Probable space group: P C C M
;
_chemical_formula_sum "Si O2"
_cell_formula_units_Z 26
_cell_length_a 17.659695
_cell_length_b 7.323791
_cell_length_c 8.782464
_cell_angle_alpha 90.000000
_cell_angle_beta 90.000000
_cell_angle_gamma 90.000000
_cell_volume 1135.888020
_symmetry_space_group_name_H-M "P C C M"
_symmetry_group_IT_number 49
_symmetry_cell_setting 'orthorhombic'
loop_
_space_group_symop_operation_xyz
x,y,z
-x,-y,z
x,-y,1/2-z
-x,y,1/2-z
-x,-y,-z
x,y,-z
-x,y,1/2+z
x,-y,1/2+z
loop_
_atom_site_type_symbol
_atom_site_label
_atom_site_fract_x
_atom_site_fract_y
_atom_site_fract_z
Si Si1 0.077394 0.292736 0.182706
Si Si2 0.768620 0.703435 0.318449
Si Si3 0.613019 0.820963 0.173705
Si Si4 0.500000 0.500000 0.250000
O O1 0.078557 0.500000 0.250000
O O2 0.156215 0.211280 0.242965
O O3 0.000000 0.210914 0.250000
O O4 0.075285 0.296947 0.000000
O O5 0.764006 0.500000 0.250000
O O6 0.777040 0.698923 0.500000
O O7 0.689137 0.787671 0.269515
O O8 0.558100 0.644485 0.173890
O O9 0.577945 0.000000 0.250000
O O10 0.633744 0.858821 0.000000
#
# Coordination Sequence:
#
# PCOD9392254 Si02
#       4
#     8   8   8   2
#     4  10  17  28  49  83 126 172 224 280 334 395
#     4  11  21  37  62  93 131 178 227 280 341 405
#     4  12  27  47  72 104 140 181 228 280 342 409
#     4  12  28  48  80 104 140 176 228 276 346 406
#
# _framework density 22.889581
#
# number of rings (size 3 to 8) (size 9 to 14) (size 15 to 20)
#    0.000    0.923    1.538   10.154    0.000    4.923 
#    0.000    0.000    0.000    0.923    0.000    6.462 
#    0.000    0.000    0.000    0.000    0.000    0.000 
#
# Total GULP energy -145275.330616 kJ/mol
# GULP energy per Si atom -5587.512716 kJ/mol
# Density = 2.283748 g / cm^3
# Si number density = 22.889581 Si / 1000 Ang^3
#
#
#
# Elastic Constant Matrix: (Units=GPa)
#
#
# Indices 1 2 3 4 5 6 
#
# 1 211.9581 42.9947 80.2064 0.0000 0.0000 0.0000
# 2 42.9947 124.1873 38.2202 0.0000 0.0000 0.0000
# 3 80.2064 38.2202 250.6200 0.0000 0.0000 0.0000
# 4 0.0000 0.0000 0.0000 18.2249 0.0000 0.0000
# 5 0.0000 0.0000 0.0000 0.0000 -89.7697 0.0000
# 6 0.0000 0.0000 0.0000 0.0000 0.0000 -24.0787
#
#
#
# Elastic Compliance Matrix: (Units=1/GPa)
#
#
# Indices 1 2 3 4 5 6 
#
# 1 0.005609 -0.001458 -0.001573 0.000000 0.000000 0.000000
# 2 -0.001458 0.008828 -0.000880 0.000000 0.000000 0.000000
# 3 -0.001573 -0.000880 0.004628 0.000000 0.000000 0.000000
# 4 0.000000 0.000000 0.000000 0.054870 0.000000 0.000000
# 5 0.000000 0.000000 0.000000 0.000000 -0.011140 0.000000
# 6 0.000000 0.000000 0.000000 0.000000 0.000000 -0.041531
#
#
# Mechanical properties :
#
#
# Convention : Reuss Voigt Hill
#
# Bulk Modulus (GPa) = 88.93821 101.06754 95.00287
# Shear Modulus (GPa) = 152.28926 9.23157 80.76042
#
# Velocity S-wave (km/s) = 8.16557 2.01043 5.94636
# Velocity P-wave (km/s) = 11.30671 7.04552 9.42022
#
# Compressibility (1/GPa) = 0.01124376
#
# Stress axis : x y z
#
# Youngs Moduli (GPa) = 178.29385 113.27853 216.09644
#
# Poissons Ratio (x) = 0.16514 0.33984
# Poissons Ratio (y) = 0.25991 0.19011
# Poissons Ratio (z) = 0.28039 0.09965
#
# Static dielectric constant tensor:
#      x y z
#    x 1.942130 0.000000 0.000000 
#    y 0.000000 1.884390 0.000000 
#    z 0.000000 0.000000 1.813800 
# 
# From -- ./inp_files/4613.got.cif
#   From: 2010.05.17/outbox.cif.g08.bks.cpg/sg49_3_cif.got.tgz:4613.got - 2010.06.03 21:02:19.
