data_PCOD9392966
_publ_section_title
;
Structure prediction by ZEFSAII (Michael W. Deem and Ramdas Pophale) SiO2 
 PCOD9392966
Probable space group: P C C M
;
_chemical_formula_sum "Si O2"
_cell_formula_units_Z 56
_cell_length_a 20.436062
_cell_length_b 15.556648
_cell_length_c 8.852329
_cell_angle_alpha 90.000000
_cell_angle_beta 90.000000
_cell_angle_gamma 90.000000
_cell_volume 2814.302542
_symmetry_space_group_name_H-M "P C C M"
_symmetry_group_IT_number 49
_symmetry_cell_setting 'orthorhombic'
loop_
_space_group_symop_operation_xyz
x,y,z
-x,-y,z
x,-y,1/2-z
-x,y,1/2-z
-x,-y,-z
x,y,-z
-x,y,1/2+z
x,-y,1/2+z
loop_
_atom_site_type_symbol
_atom_site_label
_atom_site_fract_x
_atom_site_fract_y
_atom_site_fract_z
Si Si1 0.170438 0.409895 0.679698
Si Si2 0.930373 0.275700 0.680538
Si Si3 0.747393 0.854109 0.676005
Si Si4 0.433348 0.728179 0.319759
Si Si5 0.119814 0.085733 0.819996
Si Si6 0.400041 0.911066 0.825036
Si Si7 0.290613 0.673999 0.679956
O O1 0.148114 0.500000 0.750000
O O2 0.166417 0.411578 0.500000
O O3 0.126018 0.333423 0.745712
O O4 0.244675 0.392128 0.733253
O O5 0.929543 0.287458 0.500000
O O6 0.917101 0.174956 0.712272
O O7 0.000000 0.300346 0.750000
O O8 0.759832 0.832058 0.500000
O O9 0.808850 0.902912 0.744770
O O10 0.679221 0.905452 0.681274
O O11 0.735780 0.768008 0.772312
O O12 0.500000 0.692693 0.250000
O O13 0.437584 0.731053 0.500000
O O14 0.424316 0.825416 0.258370
O O15 0.367374 0.676359 0.278883
O O16 0.088976 0.000000 0.750000
O O17 0.126039 0.076525 0.000000
O O18 0.421174 0.000000 0.750000
O O19 0.420054 0.907556 0.000000
O O20 0.283966 0.662613 0.500000
#
# Coordination Sequence:
#
# PCOD9392966 Si02
#       7
#     8   8   8   8   8   8   8
#     4  12  25  43  71 102 132 165 205 255 311 377
#     4  11  25  45  67  94 130 171 213 262 316 373
#     4  10  19  32  54  82 114 155 203 254 312 369
#     4  10  21  36  56  81 114 156 201 250 304 368
#     4  11  23  37  58  86 123 166 214 266 313 368
#     4  10  20  32  47  72 107 148 199 255 309 367
#     4  10  20  37  61  90 124 160 201 251 308 366
#
# _framework density 19.898358000000002
#
# number of rings (size 3 to 8) (size 9 to 14) (size 15 to 20)
#    0.000    1.429    1.429    4.286    0.000    7.143 
#    0.000    4.286    0.000    0.429    0.000    3.000 
#    0.000    0.000    0.000    0.000    0.000    0.000 
#
# Total GULP energy -313111.280168 kJ/mol
# GULP energy per Si atom -5591.272860 kJ/mol
# Density = 1.985307 g / cm^3
# Si number density = 19.898358 Si / 1000 Ang^3
#
#
#
# Elastic Constant Matrix: (Units=GPa)
#
#
# Indices 1 2 3 4 5 6 
#
# 1 113.2182 29.3115 53.2332 0.0000 0.0000 0.0000
# 2 29.3115 75.9130 45.1375 0.0000 0.0000 0.0000
# 3 53.2332 45.1375 105.3440 0.0000 0.0000 0.0000
# 4 0.0000 0.0000 0.0000 27.3320 0.0000 0.0000
# 5 0.0000 0.0000 0.0000 0.0000 47.1301 0.0000
# 6 0.0000 0.0000 0.0000 0.0000 0.0000 -3.3426
#
#
#
# Elastic Compliance Matrix: (Units=1/GPa)
#
#
# Indices 1 2 3 4 5 6 
#
# 1 0.011686 -0.001343 -0.005330 0.000000 0.000000 0.000000
# 2 -0.001343 0.017831 -0.006961 0.000000 0.000000 0.000000
# 3 -0.005330 -0.006961 0.015169 0.000000 0.000000 0.000000
# 4 0.000000 0.000000 0.000000 0.036587 0.000000 0.000000
# 5 0.000000 0.000000 0.000000 0.000000 0.021218 0.000000
# 6 0.000000 0.000000 0.000000 0.000000 0.000000 -0.299170
#
#
# Mechanical properties :
#
#
# Convention : Reuss Voigt Hill
#
# Bulk Modulus (GPa) = 57.41491 61.09329 59.25410
# Shear Modulus (GPa) = -30.56141 25.34342 -2.60899
#
# Velocity S-wave (km/s) = -3.92328 3.57269 -1.14630
# Velocity P-wave (km/s) = 2.89723 6.91289 5.30010
#
# Compressibility (1/GPa) = 0.01741708
#
# Stress axis : x y z
#
# Youngs Moduli (GPa) = 85.57062 56.08280 65.92471
#
# Poissons Ratio (x) = 0.07533 0.35137
# Poissons Ratio (y) = 0.11494 0.45892
# Poissons Ratio (z) = 0.45608 0.39041
#
# Static dielectric constant tensor:
#      x y z
#    x 1.715000 0.000000 0.000000 
#    y 0.000000 1.693190 0.000000 
#    z 0.000000 0.000000 1.663250 
# 
# From -- ./inp_files/4092.got.cif
#   From: 2010.05.17/outbox.cif.g08.bks.cpg/sg49_3_cif.got.tgz:4092.got - 2010.06.03 21:02:19.
