data_PCOD9392282
_publ_section_title
;
Structure prediction by ZEFSAII (Michael W. Deem and Ramdas Pophale) SiO2 
 PCOD9392282
Probable space group: P C C M
;
_chemical_formula_sum "Si O2"
_cell_formula_units_Z 48
_cell_length_a 9.990529
_cell_length_b 14.318735
_cell_length_c 18.391616
_cell_angle_alpha 90.000000
_cell_angle_beta 90.000000
_cell_angle_gamma 90.000000
_cell_volume 2630.952620
_symmetry_space_group_name_H-M "P C C M"
_symmetry_group_IT_number 49
_symmetry_cell_setting 'orthorhombic'
loop_
_space_group_symop_operation_xyz
x,y,z
-x,-y,z
x,-y,1/2-z
-x,y,1/2-z
-x,-y,-z
x,y,-z
-x,y,1/2+z
x,-y,1/2+z
loop_
_atom_site_type_symbol
_atom_site_label
_atom_site_fract_x
_atom_site_fract_y
_atom_site_fract_z
Si Si1 0.059685 0.706848 0.585113
Si Si2 0.347729 0.745411 0.771971
Si Si3 0.133170 0.872104 0.300866
Si Si4 0.761489 0.767703 0.579410
Si Si5 0.840401 0.014605 0.920366
Si Si6 0.862718 0.602318 0.215371
O O1 0.099596 0.714424 0.500000
O O2 0.101902 0.795559 0.635347
O O3 0.115218 0.617453 0.629243
O O4 0.898677 0.709606 0.586554
O O5 0.500000 0.754626 0.750000
O O6 0.251622 0.830041 0.747305
O O7 0.338067 0.740167 0.858149
O O8 0.269524 0.657289 0.738337
O O9 0.000000 0.886499 0.250000
O O10 0.189302 0.959953 0.346205
O O11 0.703794 0.753020 0.500000
O O12 0.804262 0.876637 0.585000
O O13 0.786995 0.981209 0.000000
O O14 0.000000 0.000000 0.924443
O O15 0.856152 0.500000 0.250000
O O16 0.000000 0.646171 0.250000
#
# Coordination Sequence:
#
# PCOD9392282 Si02
#       6
#     8   8   8   8   8   8
#     4  10  17  32  57  84 114 144 178 224 282 340
#     4  11  22  38  56  79 108 153 193 223 277 339
#     4  11  19  33  52  82 114 146 193 241 283 320
#     4  10  19  34  53  80 115 147 186 231 284 334
#     4  10  18  29  50  81 112 145 186 241 293 329
#     4  10  20  38  60  87 116 133 173 233 285 340
#
# _framework density 18.244342
#
# number of rings (size 3 to 8) (size 9 to 14) (size 15 to 20)
#    0.000    1.667    5.000    1.500    0.000    2.667 
#    0.000    8.333    0.000    2.000    0.000    5.833 
#    0.000    0.000    0.000    0.000    0.000    0.000 
#
# Total GULP energy -267459.241258 kJ/mol
# GULP energy per Si atom -5572.067526 kJ/mol
# Density = 1.820282 g / cm^3
# Si number density = 18.244342 Si / 1000 Ang^3
#
#
#
# Elastic Constant Matrix: (Units=GPa)
#
#
# Indices 1 2 3 4 5 6 
#
# 1 96.3522 17.4444 49.2814 0.0000 0.0000 0.0000
# 2 17.4444 64.0554 41.5894 0.0000 0.0000 0.0000
# 3 49.2814 41.5894 177.3832 0.0000 0.0000 0.0000
# 4 0.0000 0.0000 0.0000 24.8362 0.0000 0.0000
# 5 0.0000 0.0000 0.0000 0.0000 18.1039 0.0000
# 6 0.0000 0.0000 0.0000 0.0000 0.0000 -0.9542
#
#
#
# Elastic Compliance Matrix: (Units=1/GPa)
#
#
# Indices 1 2 3 4 5 6 
#
# 1 0.012192 -0.001322 -0.003077 0.000000 0.000000 0.000000
# 2 -0.001322 0.018558 -0.003984 0.000000 0.000000 0.000000
# 3 -0.003077 -0.003984 0.007426 0.000000 0.000000 0.000000
# 4 0.000000 0.000000 0.000000 0.040264 0.000000 0.000000
# 5 0.000000 0.000000 0.000000 0.000000 0.055237 0.000000
# 6 0.000000 0.000000 0.000000 0.000000 0.000000 -1.048050
#
#
# Mechanical properties :
#
#
# Convention : Reuss Voigt Hill
#
# Bulk Modulus (GPa) = 46.70727 61.60234 54.15480
# Shear Modulus (GPa) = -5.61502 23.69555 9.04027
#
# Velocity S-wave (km/s) = -1.75623 3.60778 2.22842
# Velocity P-wave (km/s) = 4.64156 7.15495 6.03064
#
# Compressibility (1/GPa) = 0.02140994
#
# Stress axis : x y z
#
# Youngs Moduli (GPa) = 82.02174 53.88464 134.65351
#
# Poissons Ratio (x) = 0.07125 0.41435
# Poissons Ratio (y) = 0.10846 0.53643
# Poissons Ratio (z) = 0.25240 0.21466
#
# Static dielectric constant tensor:
#      x y z
#    x 1.584350 0.000000 0.000000 
#    y 0.000000 1.708260 0.000000 
#    z 0.000000 0.000000 1.705890 
# 
# From -- ./inp_files/16290.got.cif
#   From: 2010.05.17/outbox.cif.g08.bks.cpg/sg49_9_cif.got.tgz:16290.got - 2010.06.03 21:02:19.
