data_PCOD9392585
_publ_section_title
;
Structure prediction by ZEFSAII (Michael W. Deem and Ramdas Pophale) SiO2 
 PCOD9392585
Probable space group: P C C M
;
_chemical_formula_sum "Si O2"
_cell_formula_units_Z 64
_cell_length_a 15.921988
_cell_length_b 24.440200
_cell_length_c 8.500347
_cell_angle_alpha 90.000000
_cell_angle_beta 90.000000
_cell_angle_gamma 90.000000
_cell_volume 3307.795885
_symmetry_space_group_name_H-M "P C C M"
_symmetry_group_IT_number 49
_symmetry_cell_setting 'orthorhombic'
loop_
_space_group_symop_operation_xyz
x,y,z
-x,-y,z
x,-y,1/2-z
-x,y,1/2-z
-x,-y,-z
x,y,-z
-x,y,1/2+z
x,-y,1/2+z
loop_
_atom_site_type_symbol
_atom_site_label
_atom_site_fract_x
_atom_site_fract_y
_atom_site_fract_z
Si Si1 0.909538 0.629873 0.810025
Si Si2 0.249708 0.061645 0.809713
Si Si3 0.746670 0.438438 0.688607
Si Si4 0.590753 0.133018 0.310233
Si Si5 0.846596 0.252306 0.308724
Si Si6 0.909143 0.134108 0.309900
Si Si7 0.409623 0.368603 0.313488
Si Si8 0.350281 0.746878 0.309652
O O1 0.832057 0.592013 0.758393
O O2 0.890983 0.692074 0.755002
O O3 0.000000 0.611518 0.750000
O O4 0.910285 0.630176 0.000000
O O5 0.332935 0.094340 0.757456
O O6 0.166696 0.094773 0.758847
O O7 0.249304 0.000000 0.750000
O O8 0.249992 0.061551 0.000000
O O9 0.743826 0.500000 0.750000
O O10 0.746449 0.438515 0.500000
O O11 0.666419 0.404293 0.745479
O O12 0.500000 0.115389 0.250000
O O13 0.590578 0.132768 0.500000
O O14 0.609646 0.195501 0.260075
O O15 0.848965 0.252053 0.500000
O O16 0.889129 0.196076 0.254829
O O17 0.748286 0.253203 0.265838
O O18 0.909634 0.134572 0.500000
O O19 0.000000 0.116624 0.250000
O O20 0.500000 0.386917 0.250000
O O21 0.409009 0.372317 0.500000
O O22 0.394352 0.305906 0.261868
O O23 0.354935 0.743092 0.500000
#
# Coordination Sequence:
#
# PCOD9392585 Si02
#       8
#     8   8   8   8   8   8   8   8
#     4  10  21  37  61  89 121 158 195 239 294 351
#     4  10  22  40  59  80 110 153 197 242 294 348
#     4  11  24  44  66  89 120 161 205 253 302 349
#     4  10  21  37  60  86 115 152 191 237 292 353
#     4   9  16  33  60  86 116 155 190 232 293 355
#     4  10  20  36  59  85 115 151 192 236 291 351
#     4  12  25  41  63  93 125 159 199 244 295 357
#     4  10  18  36  63  88 120 157 193 237 295 356
#
# _framework density 19.348231999999999
#
# number of rings (size 3 to 8) (size 9 to 14) (size 15 to 20)
#    0.000    1.750    2.500    2.250    0.000    4.500 
#    0.000    5.625    0.000    0.000    0.000    0.000 
#    0.000    0.000    0.000    0.000    0.000    0.000 
#
# Total GULP energy -357637.602705 kJ/mol
# GULP energy per Si atom -5588.087542 kJ/mol
# Density = 1.930419 g / cm^3
# Si number density = 19.348232 Si / 1000 Ang^3
#
#
#
# Elastic Constant Matrix: (Units=GPa)
#
#
# Indices 1 2 3 4 5 6 
#
# 1 199.2957 89.6243 33.1185 0.0000 0.0000 0.0000
# 2 89.6243 153.9814 30.4907 0.0000 0.0000 0.0000
# 3 33.1185 30.4907 29.1601 0.0000 0.0000 0.0000
# 4 0.0000 0.0000 0.0000 33.6896 0.0000 0.0000
# 5 0.0000 0.0000 0.0000 0.0000 29.2552 0.0000
# 6 0.0000 0.0000 0.0000 0.0000 0.0000 -0.7559
#
#
#
# Elastic Compliance Matrix: (Units=1/GPa)
#
#
# Indices 1 2 3 4 5 6 
#
# 1 0.007304 -0.003290 -0.004856 0.000000 0.000000 0.000000
# 2 -0.003290 0.009672 -0.006377 0.000000 0.000000 0.000000
# 3 -0.004856 -0.006377 0.046476 0.000000 0.000000 0.000000
# 4 0.000000 0.000000 0.000000 0.029683 0.000000 0.000000
# 5 0.000000 0.000000 0.000000 0.000000 0.034182 0.000000
# 6 0.000000 0.000000 0.000000 0.000000 0.000000 -1.322959
#
#
# Mechanical properties :
#
#
# Convention : Reuss Voigt Hill
#
# Bulk Modulus (GPa) = 29.06355 76.54492 52.80424
# Shear Modulus (GPa) = -4.32852 27.71802 11.69475
#
# Velocity S-wave (km/s) = -1.49734 3.78906 2.46119
# Velocity P-wave (km/s) = 3.47341 7.66748 5.95209
#
# Compressibility (1/GPa) = 0.03440735
#
# Stress axis : x y z
#
# Youngs Moduli (GPa) = 136.91147 103.39347 21.51657
#
# Poissons Ratio (x) = 0.34014 0.10448
# Poissons Ratio (y) = 0.45041 0.13721
# Poissons Ratio (z) = 0.66479 0.65931
#
# Static dielectric constant tensor:
#      x y z
#    x 1.663440 0.000000 0.000000 
#    y 0.000000 1.654600 0.000000 
#    z 0.000000 0.000000 1.629390 
# 
# From -- ./inp_files/4330.got.cif
#   From: 2010.05.17/outbox.cif.g08.bks.cpg/sg49_3_cif.got.tgz:4330.got - 2010.06.03 21:02:19.
