data_PCOD9392335
_publ_section_title
;
Structure prediction by ZEFSAII (Michael W. Deem and Ramdas Pophale) SiO2 
 PCOD9392335
Probable space group: P C C M
;
_chemical_formula_sum "Si O2"
_cell_formula_units_Z 64
_cell_length_a 18.884195
_cell_length_b 27.112470
_cell_length_c 8.659604
_cell_angle_alpha 90.000000
_cell_angle_beta 90.000000
_cell_angle_gamma 90.000000
_cell_volume 4433.692745
_symmetry_space_group_name_H-M "P C C M"
_symmetry_group_IT_number 49
_symmetry_cell_setting 'orthorhombic'
loop_
_space_group_symop_operation_xyz
x,y,z
-x,-y,z
x,-y,1/2-z
-x,y,1/2-z
-x,-y,-z
x,y,-z
-x,y,1/2+z
x,-y,1/2+z
loop_
_atom_site_type_symbol
_atom_site_label
_atom_site_fract_x
_atom_site_fract_y
_atom_site_fract_z
Si Si1 0.419984 0.049953 0.315729
Si Si2 0.076752 0.651736 0.315877
Si Si3 0.578329 0.352671 0.813117
Si Si4 0.144200 0.551983 0.813111
Si Si5 0.420007 0.159151 0.314494
Si Si6 0.287269 0.405989 0.676665
Si Si7 0.653754 0.744805 0.183680
Si Si8 0.789913 0.299007 0.177230
O O1 0.500000 0.050917 0.250000
O O2 0.423243 0.045927 0.500000
O O3 0.390906 0.104245 0.275980
O O4 0.385679 0.000000 0.250000
O O5 0.075574 0.648903 0.500000
O O6 0.099922 0.598445 0.247862
O O7 0.136236 0.690443 0.260480
O O8 0.000000 0.664377 0.250000
O O9 0.500000 0.361041 0.750000
O O10 0.635556 0.393713 0.756428
O O11 0.607028 0.299516 0.756834
O O12 0.578821 0.352739 0.000000
O O13 0.117442 0.500000 0.750000
O O14 0.225809 0.559763 0.754953
O O15 0.144056 0.553091 0.000000
O O16 0.500000 0.162696 0.250000
O O17 0.422371 0.163659 0.500000
O O18 0.375160 0.203309 0.243694
O O19 0.298290 0.422543 0.500000
O O20 0.249336 0.352368 0.673211
O O21 0.734468 0.735913 0.236904
O O22 0.648125 0.741576 0.000000
O O23 0.800365 0.283645 0.000000
#
# Coordination Sequence:
#
# PCOD9392335 Si02
#       8
#     8   8   8   8   8   8   8   8
#     4   9  16  25  38  52  70  98 136 179 224 267
#     4  11  21  34  51  72  94 117 142 168 197 235
#     4  10  18  29  43  60  81 106 134 171 214 256
#     4  10  19  33  50  69  89 112 139 170 207 246
#     4  10  19  29  39  55  79 109 143 184 228 267
#     4   7  14  28  45  60  79 105 132 161 199 243
#     4  11  20  29  42  61  83 110 141 174 211 256
#     4   9  17  32  49  65  86 112 138 168 202 242
#
# _framework density 14.43492
#
# number of rings (size 3 to 8) (size 9 to 14) (size 15 to 20)
#    0.000    2.375    0.000    6.375    0.000    1.750 
#    0.000    3.125    0.000    0.375    0.000    2.625 
#    0.000    0.000    0.000    0.000    0.000    0.625 
#
# Total GULP energy -356528.792722 kJ/mol
# GULP energy per Si atom -5570.762386 kJ/mol
# Density = 1.440207 g / cm^3
# Si number density = 14.434920 Si / 1000 Ang^3
#
#
#
# Elastic Constant Matrix: (Units=GPa)
#
#
# Indices 1 2 3 4 5 6 
#
# 1 91.6944 16.9671 27.3010 0.0000 0.0000 0.0000
# 2 16.9671 41.7873 14.8741 0.0000 0.0000 0.0000
# 3 27.3010 14.8741 79.5108 0.0000 0.0000 0.0000
# 4 0.0000 0.0000 0.0000 17.1761 0.0000 0.0000
# 5 0.0000 0.0000 0.0000 0.0000 20.2266 0.0000
# 6 0.0000 0.0000 0.0000 0.0000 0.0000 10.4809
#
#
#
# Elastic Compliance Matrix: (Units=1/GPa)
#
#
# Indices 1 2 3 4 5 6 
#
# 1 0.012704 -0.003863 -0.003640 0.000000 0.000000 0.000000
# 2 -0.003863 0.026812 -0.003689 0.000000 0.000000 0.000000
# 3 -0.003640 -0.003689 0.014517 0.000000 0.000000 0.000000
# 4 0.000000 0.000000 0.000000 0.058220 0.000000 0.000000
# 5 0.000000 0.000000 0.000000 0.000000 0.049440 0.000000
# 6 0.000000 0.000000 0.000000 0.000000 0.000000 0.095411
#
#
# Mechanical properties :
#
#
# Convention : Reuss Voigt Hill
#
# Bulk Modulus (GPa) = 31.59587 36.80857 34.20222
# Shear Modulus (GPa) = 17.23908 19.83341 18.53625
#
# Velocity S-wave (km/s) = 3.45956 3.71076 3.58736
# Velocity P-wave (km/s) = 6.15582 6.62681 6.39565
#
# Compressibility (1/GPa) = 0.03164971
#
# Stress axis : x y z
#
# Youngs Moduli (GPa) = 78.71409 37.29617 68.88591
#
# Poissons Ratio (x) = 0.14407 0.25071
# Poissons Ratio (y) = 0.30406 0.25415
# Poissons Ratio (z) = 0.28648 0.13760
#
# Static dielectric constant tensor:
#      x y z
#    x 1.480940 0.000000 0.000000 
#    y 0.000000 1.485030 0.000000 
#    z 0.000000 0.000000 1.485530 
# 
# From -- ./inp_files/5411.got.cif
#   From: 2010.05.17/outbox.cif.g08.bks.cpg/sg49_3_cif.got.tgz:5411.got - 2010.06.03 21:02:19.
