data_PCOD9392963
_publ_section_title
;
Structure prediction by ZEFSAII (Michael W. Deem and Ramdas Pophale) SiO2 
 PCOD9392963
Probable space group: P C C M
;
_chemical_formula_sum "Si O2"
_cell_formula_units_Z 40
_cell_length_a 7.166948
_cell_length_b 22.418730
_cell_length_c 10.702798
_cell_angle_alpha 90.000000
_cell_angle_beta 90.000000
_cell_angle_gamma 90.000000
_cell_volume 1719.659997
_symmetry_space_group_name_H-M "P C C M"
_symmetry_group_IT_number 49
_symmetry_cell_setting 'orthorhombic'
loop_
_space_group_symop_operation_xyz
x,y,z
-x,-y,z
x,-y,1/2-z
-x,y,1/2-z
-x,-y,-z
x,y,-z
-x,y,1/2+z
x,-y,1/2+z
loop_
_atom_site_type_symbol
_atom_site_label
_atom_site_fract_x
_atom_site_fract_y
_atom_site_fract_z
Si Si1 0.273349 0.430809 0.255326
Si Si2 0.700839 0.033732 0.362633
Si Si3 0.772813 0.836616 0.764766
Si Si4 0.755131 0.629557 0.000000
Si Si5 0.306672 0.356418 0.500000
Si Si6 0.750899 0.213388 0.000000
Si Si7 0.178260 0.234884 0.000000
O O1 0.217538 0.500000 0.250000
O O2 0.500000 0.430649 0.250000
O O3 0.197089 0.402642 0.128377
O O4 0.230893 0.390758 0.377170
O O5 0.786957 0.030818 0.500000
O O6 0.693940 0.101910 0.319154
O O7 0.500000 0.000000 0.372572
O O8 0.799805 0.000000 0.250000
O O9 0.692674 0.817706 0.629778
O O10 0.000000 0.842428 0.750000
O O11 0.732865 0.786995 0.870650
O O12 0.530197 0.635124 0.000000
O O13 0.838703 0.694888 0.000000
O O14 0.282323 0.284763 0.500000
O O15 0.974145 0.206749 0.000000
#
# Coordination Sequence:
#
# PCOD9392963 Si02
#       7
#     8   8   8   4   4   4   4
#     4   9  17  30  52  78 111 149 189 238 288 340
#     4  10  22  42  63  88 120 148 188 237 288 349
#     4  10  21  40  61  85 114 153 200 234 280 351
#     4  10  19  32  54  80 109 145 193 237 286 344
#     4  10  19  34  50  84 115 139 195 241 288 340
#     4  10  22  37  59  84 116 156 188 241 290 342
#     4  10  20  39  59  80 114 154 196 233 290 344
#
# _framework density 23.260411999999999
#
# number of rings (size 3 to 8) (size 9 to 14) (size 15 to 20)
#    0.000    2.200    1.000    1.800    1.400    2.800 
#    7.200    1.000    0.000    3.600    0.000    0.000 
#    0.000    0.000    0.000    0.000    0.000    0.000 
#
# Total GULP energy -223465.087286 kJ/mol
# GULP energy per Si atom -5586.627182 kJ/mol
# Density = 2.320747 g / cm^3
# Si number density = 23.260412 Si / 1000 Ang^3
#
#
#
# Elastic Constant Matrix: (Units=GPa)
#
#
# Indices 1 2 3 4 5 6 
#
# 1 94.6237 -11.8181 3.4835 0.0000 0.0000 0.0000
# 2 -11.8181 161.9289 108.3378 0.0000 0.0000 0.0000
# 3 3.4835 108.3378 271.5540 0.0000 0.0000 0.0000
# 4 0.0000 0.0000 0.0000 57.1032 0.0000 0.0000
# 5 0.0000 0.0000 0.0000 0.0000 -14.1057 0.0000
# 6 0.0000 0.0000 0.0000 0.0000 0.0000 95.6247
#
#
#
# Elastic Compliance Matrix: (Units=1/GPa)
#
#
# Indices 1 2 3 4 5 6 
#
# 1 0.010740 0.001195 -0.000615 0.000000 0.000000 0.000000
# 2 0.001195 0.008557 -0.003429 0.000000 0.000000 0.000000
# 3 -0.000615 -0.003429 0.005058 0.000000 0.000000 0.000000
# 4 0.000000 0.000000 0.000000 0.017512 0.000000 0.000000
# 5 0.000000 0.000000 0.000000 0.000000 -0.070894 0.000000
# 6 0.000000 0.000000 0.000000 0.000000 0.000000 0.010458
#
#
# Mechanical properties :
#
#
# Convention : Reuss Voigt Hill
#
# Bulk Modulus (GPa) = 53.59601 80.90145 67.24873
# Shear Modulus (GPa) = -751.71936 56.26469 -347.72733
#
# Velocity S-wave (km/s) = -17.99658 4.92357 -12.24001
# Velocity P-wave (km/s) = 20.21742 8.19624 13.06840
#
# Compressibility (1/GPa) = 0.01865811
#
# Stress axis : x y z
#
# Youngs Moduli (GPa) = 93.10950 116.86258 197.68743
#
# Poissons Ratio (x) = -0.13965 0.12148
# Poissons Ratio (y) = -0.11126 0.67791
# Poissons Ratio (z) = 0.05722 0.40075
#
# Static dielectric constant tensor:
#      x y z
#    x 1.938510 0.000000 0.000000 
#    y 0.000000 1.848830 0.000000 
#    z 0.000000 0.000000 1.872750 
# 
# From -- ./inp_files/8165.got.cif
#   From: 2010.05.17/outbox.cif.g08.bks.cpg/sg49_5_cif.got.tgz:8165.got - 2010.06.03 21:02:19.
