data_PCOD9392795
_publ_section_title
;
Structure prediction by ZEFSAII (Michael W. Deem and Ramdas Pophale) SiO2 
 PCOD9392795
Probable space group: P C C M
;
_chemical_formula_sum "Si O2"
_cell_formula_units_Z 40
_cell_length_a 19.130937
_cell_length_b 13.952161
_cell_length_c 8.838970
_cell_angle_alpha 90.000000
_cell_angle_beta 90.000000
_cell_angle_gamma 90.000000
_cell_volume 2359.279426
_symmetry_space_group_name_H-M "P C C M"
_symmetry_group_IT_number 49
_symmetry_cell_setting 'orthorhombic'
loop_
_space_group_symop_operation_xyz
x,y,z
-x,-y,z
x,-y,1/2-z
-x,y,1/2-z
-x,-y,-z
x,y,-z
-x,y,1/2+z
x,-y,1/2+z
loop_
_atom_site_type_symbol
_atom_site_label
_atom_site_fract_x
_atom_site_fract_y
_atom_site_fract_z
Si Si1 0.215246 0.103500 0.180403
Si Si2 0.143940 0.604447 0.181216
Si Si3 0.073326 0.211410 0.818756
Si Si4 0.285727 0.715077 0.818857
Si Si5 0.426692 0.393858 0.682138
O O1 0.137482 0.141345 0.222402
O O2 0.267471 0.185022 0.240320
O O3 0.228509 0.000000 0.250000
O O4 0.219010 0.098634 0.000000
O O5 0.132112 0.500000 0.250000
O O6 0.093334 0.684703 0.251325
O O7 0.222685 0.641287 0.217759
O O8 0.136157 0.602266 0.000000
O O9 0.000000 0.179251 0.750000
O O10 0.069160 0.217318 0.000000
O O11 0.360291 0.670928 0.776900
O O12 0.284354 0.728719 0.000000
O O13 0.416085 0.500000 0.750000
O O14 0.500000 0.357808 0.750000
O O15 0.431346 0.400083 0.500000
#
# Coordination Sequence:
#
# PCOD9392795 Si02
#       5
#     8   8   8   8   8
#     4  10  21  36  56  78 100 127 163 206 253 302
#     4  10  19  32  50  72  99 132 168 207 247 294
#     4  10  21  36  52  73  99 129 164 204 249 298
#     4   9  19  34  52  74 102 134 169 208 250 294
#     4  10  19  31  49  76 109 143 174 206 243 289
#
# _framework density 16.954329999999999
#
# number of rings (size 3 to 8) (size 9 to 14) (size 15 to 20)
#    0.000    2.200    0.000    3.600    0.000    5.600 
#    0.000    4.000    0.000    0.600    0.000    4.200 
#    0.000    0.000    0.000    0.000    0.000    0.000 
#
# Total GULP energy -223311.634406 kJ/mol
# GULP energy per Si atom -5582.790860 kJ/mol
# Density = 1.691574 g / cm^3
# Si number density = 16.954330 Si / 1000 Ang^3
#
#
#
# Elastic Constant Matrix: (Units=GPa)
#
#
# Indices 1 2 3 4 5 6 
#
# 1 109.3101 27.0016 33.6629 0.0000 0.0000 0.0000
# 2 27.0016 73.5654 24.4839 0.0000 0.0000 0.0000
# 3 33.6629 24.4839 43.1501 0.0000 0.0000 0.0000
# 4 0.0000 0.0000 0.0000 24.0248 0.0000 0.0000
# 5 0.0000 0.0000 0.0000 0.0000 19.5582 0.0000
# 6 0.0000 0.0000 0.0000 0.0000 0.0000 9.7304
#
#
#
# Elastic Compliance Matrix: (Units=1/GPa)
#
#
# Indices 1 2 3 4 5 6 
#
# 1 0.012195 -0.001615 -0.008597 0.000000 0.000000 0.000000
# 2 -0.001615 0.016972 -0.008370 0.000000 0.000000 0.000000
# 3 -0.008597 -0.008370 0.034632 0.000000 0.000000 0.000000
# 4 0.000000 0.000000 0.000000 0.041624 0.000000 0.000000
# 5 0.000000 0.000000 0.000000 0.000000 0.051129 0.000000
# 6 0.000000 0.000000 0.000000 0.000000 0.000000 0.102770
#
#
# Mechanical properties :
#
#
# Convention : Reuss Voigt Hill
#
# Bulk Modulus (GPa) = 37.54707 44.03582 40.79144
# Shear Modulus (GPa) = 16.37389 20.05449 18.21419
#
# Velocity S-wave (km/s) = 3.11105 3.44300 3.28122
# Velocity P-wave (km/s) = 5.92443 6.46801 6.20218
#
# Compressibility (1/GPa) = 0.02663324
#
# Stress axis : x y z
#
# Youngs Moduli (GPa) = 82.00237 58.92121 28.87542
#
# Poissons Ratio (x) = 0.09513 0.24825
# Poissons Ratio (y) = 0.13240 0.24170
# Poissons Ratio (z) = 0.70501 0.49319
#
# Static dielectric constant tensor:
#      x y z
#    x 1.575660 0.000000 0.000000 
#    y 0.000000 1.536340 0.000000 
#    z 0.000000 0.000000 1.563920 
# 
# From -- ./inp_files/2663.got.cif
#   From: 2010.05.17/outbox.cif.g08.bks.cpg/sg49_2_cif.got.tgz:2663.got - 2010.06.03 21:02:19.
