data_PCOD9392065
_publ_section_title
;
Structure prediction by ZEFSAII (Michael W. Deem and Ramdas Pophale) SiO2 
 PCOD9392065
Probable space group: P C C M
;
_chemical_formula_sum "Si O2"
_cell_formula_units_Z 48
_cell_length_a 27.388792
_cell_length_b 5.464325
_cell_length_c 13.930101
_cell_angle_alpha 90.000000
_cell_angle_beta 90.000000
_cell_angle_gamma 90.000000
_cell_volume 2084.796479
_symmetry_space_group_name_H-M "P C C M"
_symmetry_group_IT_number 49
_symmetry_cell_setting 'orthorhombic'
loop_
_space_group_symop_operation_xyz
x,y,z
-x,-y,z
x,-y,1/2-z
-x,y,1/2-z
-x,-y,-z
x,y,-z
-x,y,1/2+z
x,-y,1/2+z
loop_
_atom_site_type_symbol
_atom_site_label
_atom_site_fract_x
_atom_site_fract_y
_atom_site_fract_z
Si Si1 0.797273 0.750000 0.000000
Si Si2 0.520583 0.250000 0.607628
Si Si3 0.384585 0.250000 0.802477
Si Si4 0.278512 0.250000 0.720789
Si Si5 0.134307 0.750000 0.312615
Si Si6 0.265948 0.250000 0.500000
Si Si7 0.979250 0.250000 0.641411
O O1 0.829752 0.750000 0.096201
O O2 0.765024 0.501337 0.000000
O O3 0.765024 0.998663 0.000000
O O4 0.500000 0.500000 0.650308
O O5 0.500633 0.250000 0.500000
O O6 0.579509 0.250000 0.607731
O O7 0.500000 0.000000 0.650308
O O8 0.398028 0.500000 0.750000
O O9 0.325774 0.250000 0.792903
O O10 0.398028 0.000000 0.750000
O O11 0.252088 0.500000 0.750000
O O12 0.291679 0.250000 0.606626
O O13 0.252088 0.000000 0.750000
O O14 0.139500 0.500000 0.250000
O O15 0.078952 0.750000 0.353072
O O16 0.139500 0.000000 0.250000
O O17 0.000000 0.500000 0.599282
O O18 0.000000 0.250000 0.750000
O O19 0.000000 0.000000 0.599282
#
# Coordination Sequence:
#
# PCOD9392065 Si02
#       7
#     4   8   8   8   8   4   8
#     4  12  30  44  66 111 130 173 234 262 348 430
#     4  10  21  37  58  89 132 178 216 254 312 380
#     4  10  21  39  58  97 124 161 218 263 316 380
#     4  10  23  45  72 103 128 168 226 275 344 411
#     4  12  23  42  68  95 142 181 217 283 331 388
#     4  12  26  50  72  95 140 169 214 292 340 422
#     4  10  16  32  61  90 123 178 229 257 324 378
#
# _framework density 23.02383
#
# number of rings (size 3 to 8) (size 9 to 14) (size 15 to 20)
#    0.000    1.333    3.333    3.000    0.000    6.000 
#   12.000    0.833    0.000    0.000    0.000    0.000 
#    0.000    0.000    0.000    0.000    0.000    0.000 
#
# Total GULP energy -267600.718372 kJ/mol
# GULP energy per Si atom -5575.014966 kJ/mol
# Density = 2.297143 g / cm^3
# Si number density = 23.023830 Si / 1000 Ang^3
#
#
#
# Elastic Constant Matrix: (Units=GPa)
#
#
# Indices 1 2 3 4 5 6 
#
# 1 126.2900 40.2148 23.1299 0.0000 0.0000 0.0000
# 2 40.2148 266.0254 54.9046 0.0000 0.0000 0.0000
# 3 23.1299 54.9046 131.2827 0.0000 0.0000 0.0000
# 4 0.0000 0.0000 0.0000 -2.8822 0.0000 0.0000
# 5 0.0000 0.0000 0.0000 0.0000 29.4819 0.0000
# 6 0.0000 0.0000 0.0000 0.0000 0.0000 34.4526
#
#
#
# Elastic Compliance Matrix: (Units=1/GPa)
#
#
# Indices 1 2 3 4 5 6 
#
# 1 0.008448 -0.001061 -0.001044 0.000000 0.000000 0.000000
# 2 -0.001061 0.004248 -0.001589 0.000000 0.000000 0.000000
# 3 -0.001044 -0.001589 0.008466 0.000000 0.000000 0.000000
# 4 0.000000 0.000000 0.000000 -0.346957 0.000000 0.000000
# 5 0.000000 0.000000 0.000000 0.000000 0.033919 0.000000
# 6 0.000000 0.000000 0.000000 0.000000 0.000000 0.029025
#
#
# Mechanical properties :
#
#
# Convention : Reuss Voigt Hill
#
# Bulk Modulus (GPa) = 72.61913 84.45519 78.53716
# Shear Modulus (GPa) = -19.93059 39.23370 9.65155
#
# Velocity S-wave (km/s) = -2.94539 4.13249 2.04965
# Velocity P-wave (km/s) = 4.47686 7.71565 6.30767
#
# Compressibility (1/GPa) = 0.01377048
#
# Stress axis : x y z
#
# Youngs Moduli (GPa) = 118.37723 235.43106 118.12152
#
# Poissons Ratio (x) = 0.24990 0.12337
# Poissons Ratio (y) = 0.12565 0.18774
# Poissons Ratio (z) = 0.12363 0.37419
#
# Static dielectric constant tensor:
#      x y z
#    x 1.859560 0.000000 0.000000 
#    y 0.000000 1.842070 0.000000 
#    z 0.000000 0.000000 1.854310 
# 
# From -- ./inp_files/14592.got.cif
#   From: 2010.05.17/outbox.cif.g08.bks.cpg/sg49_8_cif.got.tgz:14592.got - 2010.06.03 21:02:19.
