data_PCOD9392067
_publ_section_title
;
Structure prediction by ZEFSAII (Michael W. Deem and Ramdas Pophale) SiO2 
 PCOD9392067
Probable space group: P C C M
;
_chemical_formula_sum "Si O2"
_cell_formula_units_Z 48
_cell_length_a 9.359953
_cell_length_b 8.587101
_cell_length_c 30.800229
_cell_angle_alpha 90.000000
_cell_angle_beta 90.000000
_cell_angle_gamma 90.000000
_cell_volume 2475.564148
_symmetry_space_group_name_H-M "P C C M"
_symmetry_group_IT_number 49
_symmetry_cell_setting 'orthorhombic'
loop_
_space_group_symop_operation_xyz
x,y,z
-x,-y,z
x,-y,1/2-z
-x,y,1/2-z
-x,-y,-z
x,y,-z
-x,y,1/2+z
x,-y,1/2+z
loop_
_atom_site_type_symbol
_atom_site_label
_atom_site_fract_x
_atom_site_fract_y
_atom_site_fract_z
Si Si1 0.595392 0.336588 0.000000
Si Si2 0.403231 0.723229 0.905994
Si Si3 0.667649 0.687412 0.748843
Si Si4 0.713040 0.368330 0.592808
Si Si5 0.865916 0.784145 0.170251
Si Si6 0.838398 0.435793 0.500000
Si Si7 0.196416 0.849854 0.165476
O O1 0.500000 0.500000 0.000000
O O2 0.579207 0.239290 0.956752
O O3 0.752866 0.403171 0.000000
O O4 0.569331 0.724730 0.892852
O O5 0.341864 0.546276 0.905377
O O6 0.290969 0.814329 0.877121
O O7 0.671774 0.500000 0.750000
O O8 0.500000 0.731327 0.750000
O O9 0.774586 0.733388 0.787834
O O10 0.721713 0.772185 0.705601
O O11 0.823573 0.321996 0.629433
O O12 0.782820 0.350062 0.544395
O O13 0.037478 0.779527 0.170691
O O14 0.824083 0.965168 0.165688
O O15 0.000000 0.500000 0.500000
#
# Coordination Sequence:
#
# PCOD9392067 Si02
#       7
#     4   8   8   8   8   4   8
#     4  10  16  36  57  88 123 155 195 259 303 346
#     4  10  19  36  61  88 118 155 202 250 300 350
#     4  11  24  43  66  92 117 148 197 251 299 357
#     4  10  20  36  59  90 119 153 203 252 294 357
#     4  11  25  41  58  87 125 159 199 243 298 364
#     4  10  20  32  57  92 123 155 201 253 309 356
#     4  11  25  41  59  86 123 163 197 242 301 360
#
# _framework density 19.389520999999998
#
# number of rings (size 3 to 8) (size 9 to 14) (size 15 to 20)
#    0.000    1.500    3.333    3.000    4.667   10.000 
#    0.000    0.833    0.000    4.000    0.000    0.000 
#    0.000    0.000    0.000    0.000    0.000    0.000 
#
# Total GULP energy -267259.009395 kJ/mol
# GULP energy per Si atom -5567.896029 kJ/mol
# Density = 1.934539 g / cm^3
# Si number density = 19.389521 Si / 1000 Ang^3
#
#
#
# Elastic Constant Matrix: (Units=GPa)
#
#
# Indices 1 2 3 4 5 6 
#
# 1 167.3734 40.9504 52.5588 0.0000 0.0000 0.0000
# 2 40.9504 22.0290 29.1869 0.0000 0.0000 0.0000
# 3 52.5588 29.1869 113.9951 0.0000 0.0000 0.0000
# 4 0.0000 0.0000 0.0000 431.9257 0.0000 0.0000
# 5 0.0000 0.0000 0.0000 0.0000 20.2216 0.0000
# 6 0.0000 0.0000 0.0000 0.0000 0.0000 39.6517
#
#
#
# Elastic Compliance Matrix: (Units=1/GPa)
#
#
# Indices 1 2 3 4 5 6 
#
# 1 0.010964 -0.020708 0.000247 0.000000 0.000000 0.000000
# 2 -0.020708 0.107813 -0.018057 0.000000 0.000000 0.000000
# 3 0.000247 -0.018057 0.013282 0.000000 0.000000 0.000000
# 4 0.000000 0.000000 0.000000 0.002315 0.000000 0.000000
# 5 0.000000 0.000000 0.000000 0.000000 0.049452 0.000000
# 6 0.000000 0.000000 0.000000 0.000000 0.000000 0.025220
#
#
# Mechanical properties :
#
#
# Convention : Reuss Voigt Hill
#
# Bulk Modulus (GPa) = 18.17400 60.97664 39.57532
# Shear Modulus (GPa) = 16.42459 110.40654 63.41556
#
# Velocity S-wave (km/s) = 2.91363 7.55414 5.72513
# Velocity P-wave (km/s) = 4.55109 10.37319 8.00986
#
# Compressibility (1/GPa) = 0.05502365
#
# Stress axis : x y z
#
# Youngs Moduli (GPa) = 91.21100 9.27528 75.29266
#
# Poissons Ratio (x) = 0.19207 -0.01861
# Poissons Ratio (y) = 1.88880 1.35952
# Poissons Ratio (z) = -0.02254 0.16748
#
# Static dielectric constant tensor:
#      x y z
#    x 2.179500 0.000000 0.000000 
#    y 0.000000 1.671780 0.000000 
#    z 0.000000 0.000000 1.739130 
# 
# From -- ./inp_files/26307.got.cif
#   From: 2010.05.17/outbox.cif.g08.bks.cpg/sg49_14_cif.got.tgz:26307.got - 2010.06.03 21:02:19.
