data_PCOD9392577
_publ_section_title
;
Structure prediction by ZEFSAII (Michael W. Deem and Ramdas Pophale) SiO2 
 PCOD9392577
Probable space group: P C C M
;
_chemical_formula_sum "Si O2"
_cell_formula_units_Z 42
_cell_length_a 9.537029
_cell_length_b 9.587908
_cell_length_c 26.541251
_cell_angle_alpha 90.000000
_cell_angle_beta 90.000000
_cell_angle_gamma 90.000000
_cell_volume 2426.936149
_symmetry_space_group_name_H-M "P C C M"
_symmetry_group_IT_number 49
_symmetry_cell_setting 'orthorhombic'
loop_
_space_group_symop_operation_xyz
x,y,z
-x,-y,z
x,-y,1/2-z
-x,y,1/2-z
-x,-y,-z
x,y,-z
-x,y,1/2+z
x,-y,1/2+z
loop_
_atom_site_type_symbol
_atom_site_label
_atom_site_fract_x
_atom_site_fract_y
_atom_site_fract_z
Si Si1 0.736470 0.057112 0.000000
Si Si2 0.776045 0.846986 0.390868
Si Si3 0.500000 0.000000 0.750000
Si Si4 0.508372 0.340054 0.103398
Si Si5 0.988843 0.832209 0.192409
Si Si6 0.563810 0.220072 0.500000
Si Si7 0.680734 0.870852 0.164359
O O1 0.812956 0.103277 0.051929
O O2 0.584408 0.135191 0.000000
O O3 0.688939 0.894240 0.000000
O O4 0.664992 0.722281 0.395988
O O5 0.896635 0.801592 0.351178
O O6 0.701477 0.984682 0.366712
O O7 0.603939 0.910646 0.784201
O O8 0.500000 0.500000 0.118593
O O9 0.418660 0.237542 0.137600
O O10 0.441030 0.316520 0.048625
O O11 0.832928 0.805503 0.172889
O O12 0.000000 0.776350 0.250000
O O13 0.000000 0.000000 0.196934
#
# Coordination Sequence:
#
# PCOD9392577 Si02
#       7
#     4   8   2   8   8   4   8
#     4   9  16  28  58  86 110 139 185 229 289 332
#     4  10  18  36  56  83 115 144 182 234 282 335
#     4  12  20  32  64  82 108 144 192 244 292 326
#     4  11  21  34  55  84 114 147 188 229 278 334
#     4   9  19  34  55  80 109 143 185 227 279 339
#     4   9  17  32  53  83 114 150 177 232 277 337
#     4  11  20  34  57  82 106 142 187 232 281 334
#
# _framework density 17.305769999999999
#
# number of rings (size 3 to 8) (size 9 to 14) (size 15 to 20)
#    0.000    1.905    3.810    2.571    0.000    0.000 
#    0.000    6.667    0.000    1.143    0.000    5.333 
#    0.000    0.000    0.000    0.000    0.000    0.000 
#
# Total GULP energy -233949.234561 kJ/mol
# GULP energy per Si atom -5570.219870 kJ/mol
# Density = 1.726638 g / cm^3
# Si number density = 17.305770 Si / 1000 Ang^3
#
#
#
# Elastic Constant Matrix: (Units=GPa)
#
#
# Indices 1 2 3 4 5 6 
#
# 1 82.6931 24.3946 54.5247 0.0000 0.0000 0.0000
# 2 24.3946 51.8166 24.1600 0.0000 0.0000 0.0000
# 3 54.5247 24.1600 141.8810 0.0000 0.0000 0.0000
# 4 0.0000 0.0000 0.0000 -4.5121 0.0000 0.0000
# 5 0.0000 0.0000 0.0000 0.0000 22.5900 0.0000
# 6 0.0000 0.0000 0.0000 0.0000 0.0000 3.6327
#
#
#
# Elastic Compliance Matrix: (Units=1/GPa)
#
#
# Indices 1 2 3 4 5 6 
#
# 1 0.017558 -0.005562 -0.005801 0.000000 0.000000 0.000000
# 2 -0.005562 0.022725 -0.001732 0.000000 0.000000 0.000000
# 3 -0.005801 -0.001732 0.009572 0.000000 0.000000 0.000000
# 4 0.000000 0.000000 0.000000 -0.221625 0.000000 0.000000
# 5 0.000000 0.000000 0.000000 0.000000 0.044267 0.000000
# 6 0.000000 0.000000 0.000000 0.000000 0.000000 0.275280
#
#
# Mechanical properties :
#
#
# Convention : Reuss Voigt Hill
#
# Bulk Modulus (GPa) = 42.25405 53.61660 47.93532
# Shear Modulus (GPa) = 27.49432 15.89619 21.69525
#
# Velocity S-wave (km/s) = 3.99022 3.03404 3.54452
# Velocity P-wave (km/s) = 6.76005 6.58203 6.67163
#
# Compressibility (1/GPa) = 0.02366637
#
# Stress axis : x y z
#
# Youngs Moduli (GPa) = 56.95317 44.00456 104.46802
#
# Poissons Ratio (x) = 0.24474 0.60597
# Poissons Ratio (y) = 0.31675 0.18097
# Poissons Ratio (z) = 0.33036 0.07623
#
# Static dielectric constant tensor:
#      x y z
#    x 1.631370 0.000000 0.000000 
#    y 0.000000 1.564140 0.000000 
#    z 0.000000 0.000000 1.605790 
# 
# From -- ./inp_files/24418.got.cif
#   From: 2010.05.17/outbox.cif.g08.bks.cpg/sg49_13_cif.got.tgz:24418.got - 2010.06.03 21:02:19.
