data_PCOD9392923
_publ_section_title
;
Structure prediction by ZEFSAII (Michael W. Deem and Ramdas Pophale) SiO2 
 PCOD9392923
Probable space group: P C C M
;
_chemical_formula_sum "Si O2"
_cell_formula_units_Z 40
_cell_length_a 12.162000
_cell_length_b 10.666364
_cell_length_c 17.551283
_cell_angle_alpha 90.000000
_cell_angle_beta 90.000000
_cell_angle_gamma 90.000000
_cell_volume 2276.828234
_symmetry_space_group_name_H-M "P C C M"
_symmetry_group_IT_number 49
_symmetry_cell_setting 'orthorhombic'
loop_
_space_group_symop_operation_xyz
x,y,z
-x,-y,z
x,-y,1/2-z
-x,y,1/2-z
-x,-y,-z
x,y,-z
-x,y,1/2+z
x,-y,1/2+z
loop_
_atom_site_type_symbol
_atom_site_label
_atom_site_fract_x
_atom_site_fract_y
_atom_site_fract_z
Si Si1 0.120686 0.874013 0.286115
Si Si2 0.251809 0.039324 0.088579
Si Si3 0.440166 0.807269 0.674082
Si Si4 0.271605 0.356183 0.741131
Si Si5 0.339935 0.760292 0.912835
O O1 0.139212 0.907129 0.374768
O O2 0.181067 0.745825 0.265604
O O3 0.000000 0.867927 0.250000
O O4 0.174702 0.000000 0.250000
O O5 0.348899 0.103639 0.137385
O O6 0.271445 0.890181 0.093893
O O7 0.261069 0.073240 0.000000
O O8 0.500000 0.858611 0.750000
O O9 0.376789 0.684315 0.706913
O O10 0.533970 0.785782 0.611490
O O11 0.241068 0.500000 0.750000
O O12 0.297601 0.331360 0.652632
O O13 0.332733 0.717068 0.000000
#
# Coordination Sequence:
#
# PCOD9392923 Si02
#       5
#     8   8   8   8   8
#     4  10  20  38  61  83 105 135 185 234 283 341
#     4  10  19  33  54  86 117 144 181 236 289 328
#     4   9  19  30  51  79 114 154 192 221 264 322
#     4  10  21  37  54  78 111 149 187 225 271 331
#     4  10  19  32  51  80 113 147 183 224 273 322
#
# _framework density 17.568300000000001
#
# number of rings (size 3 to 8) (size 9 to 14) (size 15 to 20)
#    0.000    2.200    2.000    1.200    0.000    8.000 
#    0.000    9.000    0.000    0.000    0.000    7.000 
#    0.000    0.000    0.000    0.000    0.000    0.000 
#
# Total GULP energy -222799.830026 kJ/mol
# GULP energy per Si atom -5569.995751 kJ/mol
# Density = 1.752831 g / cm^3
# Si number density = 17.568300 Si / 1000 Ang^3
#
#
#
# Elastic Constant Matrix: (Units=GPa)
#
#
# Indices 1 2 3 4 5 6 
#
# 1 81.5105 34.4753 34.0683 0.0000 0.0000 0.0000
# 2 34.4753 120.5621 41.1893 0.0000 0.0000 0.0000
# 3 34.0683 41.1893 124.2666 0.0000 0.0000 0.0000
# 4 0.0000 0.0000 0.0000 14.0850 0.0000 0.0000
# 5 0.0000 0.0000 0.0000 0.0000 20.5500 0.0000
# 6 0.0000 0.0000 0.0000 0.0000 0.0000 5.1005
#
#
#
# Elastic Compliance Matrix: (Units=1/GPa)
#
#
# Indices 1 2 3 4 5 6 
#
# 1 0.014894 -0.003230 -0.003013 0.000000 0.000000 0.000000
# 2 -0.003230 0.010054 -0.002447 0.000000 0.000000 0.000000
# 3 -0.003013 -0.002447 0.009684 0.000000 0.000000 0.000000
# 4 0.000000 0.000000 0.000000 0.070998 0.000000 0.000000
# 5 0.000000 0.000000 0.000000 0.000000 0.048662 0.000000
# 6 0.000000 0.000000 0.000000 0.000000 0.000000 0.196058
#
#
# Mechanical properties :
#
#
# Convention : Reuss Voigt Hill
#
# Bulk Modulus (GPa) = 57.96058 60.64500 59.30279
# Shear Modulus (GPa) = 13.38764 22.38754 17.88759
#
# Velocity S-wave (km/s) = 2.76349 3.57363 3.19435
# Velocity P-wave (km/s) = 6.57615 7.18486 6.88723
#
# Compressibility (1/GPa) = 0.01725311
#
# Stress axis : x y z
#
# Youngs Moduli (GPa) = 67.14337 99.46256 103.26043
#
# Poissons Ratio (x) = 0.32123 0.31109
# Poissons Ratio (y) = 0.21685 0.25269
# Poissons Ratio (z) = 0.20228 0.24339
#
# Static dielectric constant tensor:
#      x y z
#    x 1.659250 0.000000 0.000000 
#    y 0.000000 1.584350 0.000000 
#    z 0.000000 0.000000 1.637470 
# 
# From -- ./inp_files/16158.got.cif
#   From: 2010.05.17/outbox.cif.g08.bks.cpg/sg49_9_cif.got.tgz:16158.got - 2010.06.03 21:02:19.
