data_PCOD9392398
_publ_section_title
;
Structure prediction by ZEFSAII (Michael W. Deem and Ramdas Pophale) SiO2 
 PCOD9392398
Probable space group: P C C M
;
_chemical_formula_sum "Si O2"
_cell_formula_units_Z 64
_cell_length_a 23.029900
_cell_length_b 8.951697
_cell_length_c 15.435681
_cell_angle_alpha 90.000000
_cell_angle_beta 90.000000
_cell_angle_gamma 90.000000
_cell_volume 3182.168853
_symmetry_space_group_name_H-M "P C C M"
_symmetry_group_IT_number 49
_symmetry_cell_setting 'orthorhombic'
loop_
_space_group_symop_operation_xyz
x,y,z
-x,-y,z
x,-y,1/2-z
-x,y,1/2-z
-x,-y,-z
x,y,-z
-x,y,1/2+z
x,-y,1/2+z
loop_
_atom_site_type_symbol
_atom_site_label
_atom_site_fract_x
_atom_site_fract_y
_atom_site_fract_z
Si Si1 0.657383 0.389556 0.167189
Si Si2 0.357206 0.693409 0.403606
Si Si3 0.001847 0.172150 0.105986
Si Si4 0.877612 0.321521 0.393906
Si Si5 0.568838 0.176933 0.745681
Si Si6 0.115296 0.664435 0.894362
Si Si7 0.763258 0.189818 0.105292
Si Si8 0.238431 0.846062 0.394483
O O1 0.663622 0.500000 0.250000
O O2 0.643287 0.514363 0.096111
O O3 0.605596 0.272347 0.184518
O O4 0.715007 0.297863 0.145258
O O5 0.363505 0.752843 0.500000
O O6 0.407085 0.758069 0.343899
O O7 0.294999 0.752286 0.369064
O O8 0.062145 0.246467 0.133309
O O9 0.944893 0.261883 0.135145
O O10 0.001256 0.174395 0.000000
O O11 0.000000 0.000000 0.132843
O O12 0.876666 0.319938 0.500000
O O13 0.877135 0.493611 0.366355
O O14 0.820983 0.231118 0.364114
O O15 0.500000 0.199702 0.750000
O O16 0.580981 0.000000 0.750000
O O17 0.172141 0.757711 0.870389
O O18 0.113227 0.663490 0.000000
O O19 0.755348 0.017877 0.132141
O O20 0.758529 0.198114 0.000000
O O21 0.235812 0.844752 0.500000
#
# Coordination Sequence:
#
# PCOD9392398 Si02
#       8
#     8   8   8   8   8   8   8   8
#     4  10  21  35  55  80 108 141 176 219 271 327
#     4  10  20  36  58  85 115 147 186 229 274 325
#     4   9  15  22  32  50  82 126 171 210 257 319
#     4   9  15  23  35  55  88 128 168 211 264 319
#     4  10  22  42  63  84 115 152 185 223 272 324
#     4   9  16  24  37  58  88 128 171 215 262 313
#     4  10  18  30  48  72 102 136 177 222 268 319
#     4   9  17  28  46  72 102 136 173 218 268 315
#
# _framework density 20.112068000000001
#
# number of rings (size 3 to 8) (size 9 to 14) (size 15 to 20)
#    0.000    2.500    0.000    3.000    0.000    8.750 
#    0.000    3.750    0.000    0.000    0.000    0.000 
#    0.000   17.000    0.000   32.250    0.000   42.875 
#
# Total GULP energy -357354.083100 kJ/mol
# GULP energy per Si atom -5583.657548 kJ/mol
# Density = 2.006629 g / cm^3
# Si number density = 20.112068 Si / 1000 Ang^3
#
#
#
# Elastic Constant Matrix: (Units=GPa)
#
#
# Indices 1 2 3 4 5 6 
#
# 1 174.0005 98.7765 28.4579 0.0000 0.0000 0.0000
# 2 98.7765 169.5465 19.0208 0.0000 0.0000 0.0000
# 3 28.4579 19.0208 37.1908 0.0000 0.0000 0.0000
# 4 0.0000 0.0000 0.0000 10.4806 0.0000 0.0000
# 5 0.0000 0.0000 0.0000 0.0000 -157.2127 0.0000
# 6 0.0000 0.0000 0.0000 0.0000 0.0000 93.0836
#
#
#
# Elastic Compliance Matrix: (Units=1/GPa)
#
#
# Indices 1 2 3 4 5 6 
#
# 1 0.009273 -0.004887 -0.004596 0.000000 0.000000 0.000000
# 2 -0.004887 0.008832 -0.000778 0.000000 0.000000 0.000000
# 3 -0.004596 -0.000778 0.030803 0.000000 0.000000 0.000000
# 4 0.000000 0.000000 0.000000 0.095414 0.000000 0.000000
# 5 0.000000 0.000000 0.000000 0.000000 -0.006361 0.000000
# 6 0.000000 0.000000 0.000000 0.000000 0.000000 0.010743
#
#
# Mechanical properties :
#
#
# Convention : Reuss Voigt Hill
#
# Bulk Modulus (GPa) = 35.22784 74.80534 55.01659
# Shear Modulus (GPa) = 27.98156 4.90248 16.44202
#
# Velocity S-wave (km/s) = 3.73404 1.56297 2.86233
# Velocity P-wave (km/s) = 6.01203 6.36649 6.19180
#
# Compressibility (1/GPa) = 0.02838664
#
# Stress axis : x y z
#
# Youngs Moduli (GPa) = 107.84116 113.22076 32.46415
#
# Poissons Ratio (x) = 0.55327 0.14921
# Poissons Ratio (y) = 0.52699 0.02526
# Poissons Ratio (z) = 0.49567 0.08808
#
# Static dielectric constant tensor:
#      x y z
#    x 1.662480 0.000000 0.000000 
#    y 0.000000 1.686160 0.000000 
#    z 0.000000 0.000000 1.787460 
# 
# From -- ./inp_files/18325.got.cif
#   From: 2010.05.17/outbox.cif.g08.bks.cpg/sg49_10_cif.got.tgz:18325.got - 2010.06.03 21:02:19.
