data_PCOD9392665
_publ_section_title
;
Structure prediction by ZEFSAII (Michael W. Deem and Ramdas Pophale) SiO2 
 PCOD9392665
Probable space group: P C C M
;
_chemical_formula_sum "Si O2"
_cell_formula_units_Z 64
_cell_length_a 14.727317
_cell_length_b 32.660207
_cell_length_c 8.617216
_cell_angle_alpha 90.000000
_cell_angle_beta 90.000000
_cell_angle_gamma 90.000000
_cell_volume 4144.856955
_symmetry_space_group_name_H-M "P C C M"
_symmetry_group_IT_number 49
_symmetry_cell_setting 'orthorhombic'
loop_
_space_group_symop_operation_xyz
x,y,z
-x,-y,z
x,-y,1/2-z
-x,y,1/2-z
-x,-y,-z
x,y,-z
-x,y,1/2+z
x,-y,1/2+z
loop_
_atom_site_type_symbol
_atom_site_label
_atom_site_fract_x
_atom_site_fract_y
_atom_site_fract_z
Si Si1 0.602807 0.220430 0.186167
Si Si2 0.717129 0.542974 0.186185
Si Si3 0.903717 0.332075 0.686681
Si Si4 0.603527 0.041969 0.813841
Si Si5 0.287862 0.703043 0.687172
Si Si6 0.602666 0.869537 0.313035
Si Si7 0.398446 0.377799 0.187310
Si Si8 0.097102 0.575481 0.185309
O O1 0.500000 0.225361 0.250000
O O2 0.666380 0.256578 0.245577
O O3 0.638894 0.175109 0.234451
O O4 0.598035 0.221823 0.000000
O O5 0.681407 0.500000 0.250000
O O6 0.655820 0.581533 0.235920
O O7 0.818085 0.550289 0.250962
O O8 0.720323 0.542155 0.000000
O O9 0.907051 0.335553 0.500000
O O10 0.816911 0.304872 0.730279
O O11 0.891215 0.377765 0.754724
O O12 0.000000 0.316543 0.750000
O O13 0.500000 0.042638 0.750000
O O14 0.644150 0.086361 0.766763
O O15 0.646066 0.000000 0.750000
O O16 0.600570 0.039499 0.000000
O O17 0.292216 0.705015 0.500000
O O18 0.344671 0.662930 0.737326
O O19 0.500000 0.869723 0.250000
O O20 0.599884 0.869790 0.500000
O O21 0.500000 0.377577 0.250000
O O22 0.400529 0.377604 0.000000
O O23 0.000000 0.560954 0.250000
O O24 0.095595 0.575017 0.000000
#
# Coordination Sequence:
#
# PCOD9392665 Si02
#       8
#     8   8   8   8   8   8   8   8
#     4  10  19  30  44  64  89 120 157 195 232 275
#     4  11  23  41  58  77 102 127 155 190 225 266
#     4  10  19  34  54  77 103 125 150 182 220 263
#     4   9  14  20  30  45  66  95 134 181 228 271
#     4  10  20  35  52  72  97 124 149 186 227 265
#     4   8  15  25  35  49  74 106 141 184 231 270
#     4  10  22  39  56  73  98 124 153 189 226 263
#     4  11  21  35  57  82 105 130 154 180 218 265
#
# _framework density 15.440823
#
# number of rings (size 3 to 8) (size 9 to 14) (size 15 to 20)
#    0.000    2.125    1.250    4.125    0.000    5.000 
#    0.000    2.500    0.000    0.000    0.000    0.000 
#    0.000    0.000    0.000    0.000    0.000    0.625 
#
# Total GULP energy -356783.837069 kJ/mol
# GULP energy per Si atom -5574.747454 kJ/mol
# Density = 1.540568 g / cm^3
# Si number density = 15.440823 Si / 1000 Ang^3
#
#
#
# Elastic Constant Matrix: (Units=GPa)
#
#
# Indices 1 2 3 4 5 6 
#
# 1 77.8849 56.1353 22.2662 0.0000 0.0000 0.0000
# 2 56.1353 156.4447 32.6125 0.0000 0.0000 0.0000
# 3 22.2662 32.6125 45.1023 0.0000 0.0000 0.0000
# 4 0.0000 0.0000 0.0000 34.8687 0.0000 0.0000
# 5 0.0000 0.0000 0.0000 0.0000 19.4631 0.0000
# 6 0.0000 0.0000 0.0000 0.0000 0.0000 2.5258
#
#
#
# Elastic Compliance Matrix: (Units=1/GPa)
#
#
# Indices 1 2 3 4 5 6 
#
# 1 0.018239 -0.005496 -0.005030 0.000000 0.000000 0.000000
# 2 -0.005496 0.009183 -0.003927 0.000000 0.000000 0.000000
# 3 -0.005030 -0.003927 0.027494 0.000000 0.000000 0.000000
# 4 0.000000 0.000000 0.000000 0.028679 0.000000 0.000000
# 5 0.000000 0.000000 0.000000 0.000000 0.051379 0.000000
# 6 0.000000 0.000000 0.000000 0.000000 0.000000 0.395916
#
#
# Mechanical properties :
#
#
# Convention : Reuss Voigt Hill
#
# Bulk Modulus (GPa) = 38.44606 55.71778 47.08192
# Shear Modulus (GPa) = 8.79562 22.59940 15.69751
#
# Velocity S-wave (km/s) = 2.38929 3.82987 3.19191
# Velocity P-wave (km/s) = 5.70654 7.46460 6.64398
#
# Compressibility (1/GPa) = 0.02601046
#
# Stress axis : x y z
#
# Youngs Moduli (GPa) = 54.82892 108.90233 36.37114
#
# Poissons Ratio (x) = 0.59850 0.18295
# Poissons Ratio (y) = 0.30133 0.14281
# Poissons Ratio (z) = 0.27580 0.42761
#
# Static dielectric constant tensor:
#      x y z
#    x 1.484590 0.000000 0.000000 
#    y 0.000000 1.562710 0.000000 
#    z 0.000000 0.000000 1.535940 
# 
# From -- ./inp_files/4538.got.cif
#   From: 2010.05.17/outbox.cif.g08.bks.cpg/sg49_3_cif.got.tgz:4538.got - 2010.06.03 21:02:19.
