data_PCOD9392125
_publ_section_title
;
Structure prediction by ZEFSAII (Michael W. Deem and Ramdas Pophale) SiO2 
 PCOD9392125
Probable space group: P C C M
;
_chemical_formula_sum "Si O2"
_cell_formula_units_Z 64
_cell_length_a 31.761691
_cell_length_b 14.720426
_cell_length_c 8.634861
_cell_angle_alpha 90.000000
_cell_angle_beta 90.000000
_cell_angle_gamma 90.000000
_cell_volume 4037.191457
_symmetry_space_group_name_H-M "P C C M"
_symmetry_group_IT_number 49
_symmetry_cell_setting 'orthorhombic'
loop_
_space_group_symop_operation_xyz
x,y,z
-x,-y,z
x,-y,1/2-z
-x,y,1/2-z
-x,-y,-z
x,y,-z
-x,y,1/2+z
x,-y,1/2+z
loop_
_atom_site_type_symbol
_atom_site_label
_atom_site_fract_x
_atom_site_fract_y
_atom_site_fract_z
Si Si1 0.953603 0.599977 0.314894
Si Si2 0.123454 0.288828 0.186477
Si Si3 0.743073 0.097111 0.314846
Si Si4 0.368700 0.397520 0.313628
Si Si5 0.543294 0.396653 0.314910
Si Si6 0.713541 0.716405 0.686340
Si Si7 0.840889 0.903295 0.186221
Si Si8 0.796400 0.398075 0.186582
O O1 0.942223 0.500000 0.250000
O O2 0.954857 0.596121 0.500000
O O3 0.918954 0.670696 0.257239
O O4 0.000000 0.621416 0.250000
O O5 0.132758 0.184804 0.233859
O O6 0.162700 0.348666 0.244995
O O7 0.121644 0.293297 0.000000
O O8 0.742422 0.094752 0.500000
O O9 0.717513 0.183381 0.255308
O O10 0.792067 0.109129 0.263566
O O11 0.728653 0.000000 0.250000
O O12 0.363067 0.500000 0.250000
O O13 0.371580 0.402017 0.500000
O O14 0.412478 0.358593 0.246351
O O15 0.328685 0.336942 0.268598
O O16 0.543775 0.500000 0.250000
O O17 0.500000 0.354617 0.250000
O O18 0.542340 0.398634 0.500000
O O19 0.713917 0.722960 0.500000
O O20 0.754703 0.658259 0.732455
O O21 0.855790 0.000000 0.250000
O O22 0.841018 0.907058 0.000000
O O23 0.793681 0.500000 0.250000
O O24 0.799114 0.399667 0.000000
#
# Coordination Sequence:
#
# PCOD9392125 Si02
#       8
#     8   8   8   8   8   8   8   8
#     4  11  22  38  58  81 105 135 166 203 247 291
#     4  11  21  36  54  77 104 132 167 205 245 292
#     4  10  19  33  52  73  96 127 164 207 251 294
#     4  10  19  31  45  65  94 130 169 207 248 295
#     4  10  17  27  43  63  87 119 160 206 251 294
#     4  10  21  34  48  68  97 132 168 205 246 293
#     4   9  19  33  52  76 101 129 162 203 248 292
#     4  11  22  34  48  69  98 134 170 206 242 285
#
# _framework density 15.852603999999999
#
# number of rings (size 3 to 8) (size 9 to 14) (size 15 to 20)
#    0.000    1.750    1.250    6.000    0.000    3.000 
#    0.000    0.000    0.000    0.375    0.000    2.625 
#    0.000    0.500    0.000    5.250    0.000    2.250 
#
# Total GULP energy -357260.507339 kJ/mol
# GULP energy per Si atom -5582.195427 kJ/mol
# Density = 1.581652 g / cm^3
# Si number density = 15.852604 Si / 1000 Ang^3
#
#
#
# Elastic Constant Matrix: (Units=GPa)
#
#
# Indices 1 2 3 4 5 6 
#
# 1 110.3771 74.3247 43.4200 0.0000 0.0000 0.0000
# 2 74.3247 128.2348 40.7991 0.0000 0.0000 0.0000
# 3 43.4200 40.7991 76.3838 0.0000 0.0000 0.0000
# 4 0.0000 0.0000 0.0000 25.8965 0.0000 0.0000
# 5 0.0000 0.0000 0.0000 0.0000 27.8113 0.0000
# 6 0.0000 0.0000 0.0000 0.0000 0.0000 6.1402
#
#
#
# Elastic Compliance Matrix: (Units=1/GPa)
#
#
# Indices 1 2 3 4 5 6 
#
# 1 0.016358 -0.007858 -0.005101 0.000000 0.000000 0.000000
# 2 -0.007858 0.013170 -0.002567 0.000000 0.000000 0.000000
# 3 -0.005101 -0.002567 0.017363 0.000000 0.000000 0.000000
# 4 0.000000 0.000000 0.000000 0.038615 0.000000 0.000000
# 5 0.000000 0.000000 0.000000 0.000000 0.035957 0.000000
# 6 0.000000 0.000000 0.000000 0.000000 0.000000 0.162862
#
#
# Mechanical properties :
#
#
# Convention : Reuss Voigt Hill
#
# Bulk Modulus (GPa) = 63.14391 70.23147 66.68769
# Shear Modulus (GPa) = 15.59299 22.39971 18.99635
#
# Velocity S-wave (km/s) = 3.13968 3.76307 3.46542
# Velocity P-wave (km/s) = 7.28435 7.95486 7.62698
#
# Compressibility (1/GPa) = 0.01583684
#
# Stress axis : x y z
#
# Youngs Moduli (GPa) = 61.13223 75.93284 57.59372
#
# Poissons Ratio (x) = 0.59668 0.29381
# Poissons Ratio (y) = 0.48038 0.14787
# Poissons Ratio (z) = 0.31186 0.19495
#
# Static dielectric constant tensor:
#      x y z
#    x 1.540410 0.000000 0.000000 
#    y 0.000000 1.508850 0.000000 
#    z 0.000000 0.000000 1.533030 
# 
# From -- ./inp_files/7050.got.cif
#   From: 2010.05.17/outbox.cif.g08.bks.cpg/sg49_4_cif.got.tgz:7050.got - 2010.06.03 21:02:19.
