data_PCOD9392823
_publ_section_title
;
Structure prediction by ZEFSAII (Michael W. Deem and Ramdas Pophale) SiO2 
 PCOD9392823
Probable space group: P C C M
;
_chemical_formula_sum "Si O2"
_cell_formula_units_Z 58
_cell_length_a 18.384540
_cell_length_b 18.005499
_cell_length_c 9.479276
_cell_angle_alpha 90.000000
_cell_angle_beta 90.000000
_cell_angle_gamma 90.000000
_cell_volume 3137.856641
_symmetry_space_group_name_H-M "P C C M"
_symmetry_group_IT_number 49
_symmetry_cell_setting 'orthorhombic'
loop_
_space_group_symop_operation_xyz
x,y,z
-x,-y,z
x,-y,1/2-z
-x,y,1/2-z
-x,-y,-z
x,y,-z
-x,y,1/2+z
x,-y,1/2+z
loop_
_atom_site_type_symbol
_atom_site_label
_atom_site_fract_x
_atom_site_fract_y
_atom_site_fract_z
Si Si1 0.760672 0.927044 0.341349
Si Si2 0.596775 0.864536 0.654973
Si Si3 0.664642 0.420832 0.168068
Si Si4 0.364012 0.726943 0.333117
Si Si5 0.500000 0.000000 0.750000
Si Si6 0.930587 0.692509 0.161545
Si Si7 0.162281 0.424436 0.334633
Si Si8 0.794423 0.199954 0.345761
O O1 0.781929 0.942602 0.500000
O O2 0.678663 0.895261 0.337981
O O3 0.805227 0.861224 0.272001
O O4 0.764295 0.000000 0.250000
O O5 0.583403 0.831854 0.500000
O O6 0.592017 0.797809 0.768657
O O7 0.549665 0.939678 0.669887
O O8 0.652086 0.500000 0.250000
O O9 0.627469 0.350086 0.246258
O O10 0.751749 0.404575 0.175282
O O11 0.646230 0.426414 0.000000
O O12 0.379224 0.717145 0.500000
O O13 0.278629 0.751606 0.320331
O O14 0.892583 0.629435 0.255199
O O15 0.866179 0.751701 0.149858
O O16 0.000000 0.718917 0.250000
O O17 0.949474 0.669915 0.000000
O O18 0.155934 0.500000 0.250000
O O19 0.145074 0.431010 0.500000
O O20 0.782012 0.164215 0.500000
#
# Coordination Sequence:
#
# PCOD9392823 Si02
#       8
#     8   8   8   8   2   8   8   8
#     4  10  19  33  54  80 107 136 176 219 262 313
#     4  10  22  36  54  81 115 155 192 226 263 314
#     4  10  19  31  52  80 111 143 182 232 286 336
#     4  10  19  34  55  79 109 145 188 231 278 326
#     4  12  22  40  60  86 124 164 194 222 258 308
#     4  11  22  36  52  72  99 133 175 221 272 333
#     4  10  20  33  50  72 100 136 176 221 272 327
#     4   9  19  34  52  73 101 135 172 221 271 322
#
# _framework density 18.483955999999999
#
# number of rings (size 3 to 8) (size 9 to 14) (size 15 to 20)
#    0.000    1.931    2.069    2.276    0.000    4.690 
#    0.000    1.379    0.000    0.414    0.000    3.379 
#    0.000    3.310    0.000    0.000    0.000    0.000 
#
# Total GULP energy -323112.803569 kJ/mol
# GULP energy per Si atom -5570.910406 kJ/mol
# Density = 1.844189 g / cm^3
# Si number density = 18.483956 Si / 1000 Ang^3
#
#
#
# Elastic Constant Matrix: (Units=GPa)
#
#
# Indices 1 2 3 4 5 6 
#
# 1 29.2547 22.7115 19.9779 0.0000 0.0000 0.0000
# 2 22.7115 71.8078 74.2481 0.0000 0.0000 0.0000
# 3 19.9779 74.2481 171.4860 0.0000 0.0000 0.0000
# 4 0.0000 0.0000 0.0000 37.6949 0.0000 0.0000
# 5 0.0000 0.0000 0.0000 0.0000 -39.7279 0.0000
# 6 0.0000 0.0000 0.0000 0.0000 0.0000 16.6061
#
#
#
# Elastic Compliance Matrix: (Units=1/GPa)
#
#
# Indices 1 2 3 4 5 6 
#
# 1 0.045575 -0.016159 0.001687 0.000000 0.000000 0.000000
# 2 -0.016159 0.030943 -0.011515 0.000000 0.000000 0.000000
# 3 0.001687 -0.011515 0.010620 0.000000 0.000000 0.000000
# 4 0.000000 0.000000 0.000000 0.026529 0.000000 0.000000
# 5 0.000000 0.000000 0.000000 0.000000 -0.025171 0.000000
# 6 0.000000 0.000000 0.000000 0.000000 0.000000 0.060219
#
#
# Mechanical properties :
#
#
# Convention : Reuss Voigt Hill
#
# Bulk Modulus (GPa) = 28.43735 56.26930 42.35333
# Shear Modulus (GPa) = 23.53932 13.28867 18.41400
#
# Velocity S-wave (km/s) = 3.57248 2.68420 3.15971
# Velocity P-wave (km/s) = 5.69519 6.33363 6.02287
#
# Compressibility (1/GPa) = 0.03516502
#
# Stress axis : x y z
#
# Youngs Moduli (GPa) = 21.94171 32.31747 94.15786
#
# Poissons Ratio (x) = 0.52221 -0.15882
# Poissons Ratio (y) = 0.35455 1.08422
# Poissons Ratio (z) = -0.03701 0.37213
#
# Static dielectric constant tensor:
#      x y z
#    x 1.645470 0.000000 0.000000 
#    y 0.000000 1.637500 0.000000 
#    z 0.000000 0.000000 1.636350 
# 
# From -- ./inp_files/5100.got.cif
#   From: 2010.05.17/outbox.cif.g08.bks.cpg/sg49_3_cif.got.tgz:5100.got - 2010.06.03 21:02:19.
