data_PCOD9392782
_publ_section_title
;
Structure prediction by ZEFSAII (Michael W. Deem and Ramdas Pophale) SiO2 
 PCOD9392782
Probable space group: P C C M
;
_chemical_formula_sum "Si O2"
_cell_formula_units_Z 64
_cell_length_a 20.176289
_cell_length_b 20.497368
_cell_length_c 9.025272
_cell_angle_alpha 90.000000
_cell_angle_beta 90.000000
_cell_angle_gamma 90.000000
_cell_volume 3732.498894
_symmetry_space_group_name_H-M "P C C M"
_symmetry_group_IT_number 49
_symmetry_cell_setting 'orthorhombic'
loop_
_space_group_symop_operation_xyz
x,y,z
-x,-y,z
x,-y,1/2-z
-x,y,1/2-z
-x,-y,-z
x,y,-z
-x,y,1/2+z
x,-y,1/2+z
loop_
_atom_site_type_symbol
_atom_site_label
_atom_site_fract_x
_atom_site_fract_y
_atom_site_fract_z
Si Si1 0.428101 0.685513 0.823934
Si Si2 0.934061 0.242060 0.169853
Si Si3 0.797357 0.610374 0.174899
Si Si4 0.932133 0.401307 0.829092
Si Si5 0.429640 0.070449 0.177724
Si Si6 0.209646 0.247879 0.679332
Si Si7 0.346737 0.818905 0.175603
Si Si8 0.649592 0.566558 0.175295
O O1 0.500000 0.686938 0.750000
O O2 0.391320 0.754440 0.801267
O O3 0.384911 0.628273 0.751204
O O4 0.433476 0.674577 0.000000
O O5 0.932853 0.321575 0.175262
O O6 0.862117 0.220855 0.227404
O O7 0.000000 0.219617 0.250000
O O8 0.938895 0.222580 0.000000
O O9 0.863219 0.581030 0.249983
O O10 0.783856 0.681537 0.245692
O O11 0.729045 0.571941 0.196060
O O12 0.810126 0.617297 0.000000
O O13 0.000000 0.422652 0.750000
O O14 0.931689 0.421755 0.000000
O O15 0.500000 0.091279 0.250000
O O16 0.375304 0.122750 0.227307
O O17 0.415039 0.000000 0.250000
O O18 0.435522 0.065697 0.000000
O O19 0.207860 0.257579 0.500000
O O20 0.271784 0.202290 0.712483
O O21 0.350026 0.835528 0.000000
O O22 0.625665 0.500000 0.250000
O O23 0.636254 0.566896 0.000000
#
# Coordination Sequence:
#
# PCOD9392782 Si02
#       8
#     8   8   8   8   8   8   8   8
#     4  11  23  39  60  82 107 135 169 213 265 319
#     4   8  14  23  37  60  93 131 168 204 245 295
#     4  10  19  31  49  73 100 129 166 212 259 313
#     4   9  16  26  43  67  96 129 165 205 252 307
#     4  11  22  37  57  80 110 146 184 221 260 308
#     4   9  17  30  48  71 101 138 174 211 259 309
#     4  10  20  35  56  82 111 143 178 218 263 311
#     4  11  24  40  58  78 101 131 172 218 267 323
#
# _framework density 17.14669
#
# number of rings (size 3 to 8) (size 9 to 14) (size 15 to 20)
#    0.000    2.125    1.250    4.125    0.000    7.250 
#    0.000    1.250    0.000    0.375    0.000    2.625 
#    0.000    0.500    0.000    5.750    0.000    1.875 
#
# Total GULP energy -357197.320872 kJ/mol
# GULP energy per Si atom -5581.208139 kJ/mol
# Density = 1.710766 g / cm^3
# Si number density = 17.146690 Si / 1000 Ang^3
#
#
#
# Elastic Constant Matrix: (Units=GPa)
#
#
# Indices 1 2 3 4 5 6 
#
# 1 125.1465 42.5137 73.4741 0.0000 0.0000 0.0000
# 2 42.5137 52.9656 42.9269 0.0000 0.0000 0.0000
# 3 73.4741 42.9269 96.3756 0.0000 0.0000 0.0000
# 4 0.0000 0.0000 0.0000 15.6237 0.0000 0.0000
# 5 0.0000 0.0000 0.0000 0.0000 32.0091 0.0000
# 6 0.0000 0.0000 0.0000 0.0000 0.0000 217.4089
#
#
#
# Elastic Compliance Matrix: (Units=1/GPa)
#
#
# Indices 1 2 3 4 5 6 
#
# 1 0.015083 -0.004362 -0.009556 0.000000 0.000000 0.000000
# 2 -0.004362 0.030807 -0.010397 0.000000 0.000000 0.000000
# 3 -0.009556 -0.010397 0.022292 0.000000 0.000000 0.000000
# 4 0.000000 0.000000 0.000000 0.064005 0.000000 0.000000
# 5 0.000000 0.000000 0.000000 0.000000 0.031241 0.000000
# 6 0.000000 0.000000 0.000000 0.000000 0.000000 0.004600
#
#
# Mechanical properties :
#
#
# Convention : Reuss Voigt Hill
#
# Bulk Modulus (GPa) = 51.14175 65.81302 58.47738
# Shear Modulus (GPa) = 22.40398 60.71320 41.55859
#
# Velocity S-wave (km/s) = 3.61862 5.95693 4.92846
# Velocity P-wave (km/s) = 6.88113 9.26169 8.15871
#
# Compressibility (1/GPa) = 0.01955350
#
# Stress axis : x y z
#
# Youngs Moduli (GPa) = 66.30160 32.45972 44.85897
#
# Poissons Ratio (x) = 0.14158 0.42867
# Poissons Ratio (y) = 0.28918 0.46639
# Poissons Ratio (z) = 0.63357 0.33748
#
# Static dielectric constant tensor:
#      x y z
#    x 1.602510 0.000000 0.000000 
#    y 0.000000 1.557070 0.000000 
#    z 0.000000 0.000000 1.577320 
# 
# From -- ./inp_files/5329.got.cif
#   From: 2010.05.17/outbox.cif.g08.bks.cpg/sg49_3_cif.got.tgz:5329.got - 2010.06.03 21:02:19.
