data_PCOD9392325
_publ_section_title
;
Structure prediction by ZEFSAII (Michael W. Deem and Ramdas Pophale) SiO2 
 PCOD9392325
Probable space group: P C C M
;
_chemical_formula_sum "Si O2"
_cell_formula_units_Z 58
_cell_length_a 14.502330
_cell_length_b 25.956041
_cell_length_c 9.107490
_cell_angle_alpha 90.000000
_cell_angle_beta 90.000000
_cell_angle_gamma 90.000000
_cell_volume 3428.269365
_symmetry_space_group_name_H-M "P C C M"
_symmetry_group_IT_number 49
_symmetry_cell_setting 'orthorhombic'
loop_
_space_group_symop_operation_xyz
x,y,z
-x,-y,z
x,-y,1/2-z
-x,y,1/2-z
-x,-y,-z
x,y,-z
-x,y,1/2+z
x,-y,1/2+z
loop_
_atom_site_type_symbol
_atom_site_label
_atom_site_fract_x
_atom_site_fract_y
_atom_site_fract_z
Si Si1 0.901365 0.652397 0.826211
Si Si2 0.898728 0.854305 0.675270
Si Si3 0.596506 0.405053 0.824685
Si Si4 0.404931 0.717765 0.825821
Si Si5 0.177537 0.049905 0.164633
Si Si6 0.000000 0.000000 0.250000
Si Si7 0.777543 0.448448 0.674212
Si Si8 0.796066 0.746500 0.324228
O O1 0.844728 0.599903 0.802635
O O2 0.845454 0.699791 0.757594
O O3 0.000000 0.649280 0.750000
O O4 0.912331 0.660331 0.000000
O O5 0.908880 0.861768 0.500000
O O6 0.831310 0.898452 0.740418
O O7 0.850468 0.799314 0.703042
O O8 0.000000 0.855390 0.750000
O O9 0.500000 0.419922 0.750000
O O10 0.609223 0.343508 0.797579
O O11 0.680655 0.434579 0.750326
O O12 0.594302 0.413204 0.000000
O O13 0.500000 0.733741 0.750000
O O14 0.311689 0.746833 0.779652
O O15 0.416055 0.723896 0.000000
O O16 0.069473 0.033672 0.156016
O O17 0.219032 0.000000 0.250000
O O18 0.213821 0.056689 0.000000
O O19 0.814423 0.500000 0.750000
O O20 0.765269 0.455919 0.500000
O O21 0.798211 0.736725 0.500000
#
# Coordination Sequence:
#
# PCOD9392325 Si02
#       8
#     8   8   8   8   8   2   8   8
#     4  11  24  40  59  79 102 134 173 214 256 306
#     4  11  21  31  46  69 102 139 179 217 254 298
#     4  10  19  34  58  83 110 137 165 203 253 310
#     4   9  18  33  55  80 105 134 166 203 251 304
#     4  10  18  28  45  65  93 132 177 219 260 301
#     4   8  18  24  42  60  86 124 176 212 256 292
#     4  11  24  40  58  81 105 133 171 212 257 307
#     4  10  21  37  55  78 107 139 172 211 258 306
#
# _framework density 16.918157000000001
#
# number of rings (size 3 to 8) (size 9 to 14) (size 15 to 20)
#    0.414    1.379    2.069    2.690    0.000    5.517 
#    0.000    2.759    0.000    0.000    0.000    0.000 
#    0.000    0.552    0.000    6.345    0.000    1.931 
#
# Total GULP energy -323449.789921 kJ/mol
# GULP energy per Si atom -5576.720516 kJ/mol
# Density = 1.687965 g / cm^3
# Si number density = 16.918157 Si / 1000 Ang^3
#
#
#
# Elastic Constant Matrix: (Units=GPa)
#
#
# Indices 1 2 3 4 5 6 
#
# 1 85.9257 44.9905 48.4192 0.0000 0.0000 0.0000
# 2 44.9905 109.4414 73.7346 0.0000 0.0000 0.0000
# 3 48.4192 73.7346 92.2897 0.0000 0.0000 0.0000
# 4 0.0000 0.0000 0.0000 -12.5598 0.0000 0.0000
# 5 0.0000 0.0000 0.0000 0.0000 22.5878 0.0000
# 6 0.0000 0.0000 0.0000 0.0000 0.0000 36.8744
#
#
#
# Elastic Compliance Matrix: (Units=1/GPa)
#
#
# Indices 1 2 3 4 5 6 
#
# 1 0.016740 -0.002089 -0.007114 0.000000 0.000000 0.000000
# 2 -0.002089 0.020050 -0.014923 0.000000 0.000000 0.000000
# 3 -0.007114 -0.014923 0.026490 0.000000 0.000000 0.000000
# 4 0.000000 0.000000 0.000000 -0.079619 0.000000 0.000000
# 5 0.000000 0.000000 0.000000 0.000000 0.044272 0.000000
# 6 0.000000 0.000000 0.000000 0.000000 0.000000 0.027119
#
#
# Mechanical properties :
#
#
# Convention : Reuss Voigt Hill
#
# Bulk Modulus (GPa) = 66.53660 69.10503 67.82082
# Shear Modulus (GPa) = 46.16196 17.41466 31.78831
#
# Velocity S-wave (km/s) = 5.22921 3.21182 4.33938
# Velocity P-wave (km/s) = 8.71054 7.39525 8.07970
#
# Compressibility (1/GPa) = 0.01502932
#
# Stress axis : x y z
#
# Youngs Moduli (GPa) = 59.73591 49.87424 37.74951
#
# Poissons Ratio (x) = 0.10419 0.26854
# Poissons Ratio (y) = 0.12480 0.56334
# Poissons Ratio (z) = 0.42494 0.74428
#
# Static dielectric constant tensor:
#      x y z
#    x 1.550160 0.000000 0.000000 
#    y 0.000000 1.591230 0.000000 
#    z 0.000000 0.000000 1.583030 
# 
# From -- ./inp_files/4270.got.cif
#   From: 2010.05.17/outbox.cif.g08.bks.cpg/sg49_3_cif.got.tgz:4270.got - 2010.06.03 21:02:19.
