data_PCOD9392077
_publ_section_title
;
Structure prediction by ZEFSAII (Michael W. Deem and Ramdas Pophale) SiO2 
 PCOD9392077
Probable space group: P C C M
;
_chemical_formula_sum "Si O2"
_cell_formula_units_Z 64
_cell_length_a 24.423298
_cell_length_b 9.280423
_cell_length_c 15.118338
_cell_angle_alpha 90.000000
_cell_angle_beta 90.000000
_cell_angle_gamma 90.000000
_cell_volume 3426.700365
_symmetry_space_group_name_H-M "P C C M"
_symmetry_group_IT_number 49
_symmetry_cell_setting 'orthorhombic'
loop_
_space_group_symop_operation_xyz
x,y,z
-x,-y,z
x,-y,1/2-z
-x,y,1/2-z
-x,-y,-z
x,y,-z
-x,y,1/2+z
x,-y,1/2+z
loop_
_atom_site_type_symbol
_atom_site_label
_atom_site_fract_x
_atom_site_fract_y
_atom_site_fract_z
Si Si1 0.748907 0.685258 0.894003
Si Si2 0.141466 0.279950 0.404976
Si Si3 0.634940 0.837050 0.104751
Si Si4 0.941390 0.448335 0.400592
Si Si5 0.268751 0.369731 0.601453
Si Si6 0.435033 0.329216 0.250991
Si Si7 0.365902 0.173799 0.393691
Si Si8 0.144348 0.670585 0.719642
O O1 0.698427 0.792365 0.883442
O O2 0.727557 0.529286 0.860262
O O3 0.803422 0.715389 0.838277
O O4 0.762360 0.675508 0.000000
O O5 0.134291 0.201964 0.500000
O O6 0.099708 0.415089 0.407809
O O7 0.205011 0.328914 0.401570
O O8 0.134774 0.227997 0.304604
O O9 0.596073 0.745084 0.168612
O O10 0.630238 0.005373 0.126966
O O11 0.622267 0.814854 0.000000
O O12 0.950049 0.392124 0.500000
O O13 0.909896 0.337398 0.339145
O O14 0.000000 0.500000 0.365881
O O15 0.286811 0.388205 0.500000
O O16 0.308017 0.245193 0.636592
O O17 0.424746 0.500000 0.250000
O O18 0.500000 0.304471 0.250000
O O19 0.410960 0.261261 0.340343
O O20 0.371512 0.185229 0.500000
O O21 0.153148 0.500000 0.750000
#
# Coordination Sequence:
#
# PCOD9392077 Si02
#       8
#     8   8   8   8   8   8   8   8
#     4  10  18  30  49  75 105 136 176 226 275 330
#     4   9  17  27  38  62  94 130 177 225 271 326
#     4  10  23  40  59  86 119 152 188 232 287 344
#     4   9  16  26  39  59  96 139 178 226 283 339
#     4   9  16  29  50  73 102 137 178 224 272 327
#     4  11  25  43  64  89 116 148 190 235 278 334
#     4  10  22  40  61  86 116 153 190 231 286 344
#     4  10  17  24  41  65  92 134 176 221 273 334
#
# _framework density 18.676859
#
# number of rings (size 3 to 8) (size 9 to 14) (size 15 to 20)
#    0.000    2.250    2.500    1.500    1.750    5.750 
#    0.000    2.500    0.000    0.000    0.000    0.000 
#    0.000    1.000    0.000   16.250    0.000   13.000 
#
# Total GULP energy -356358.808741 kJ/mol
# GULP energy per Si atom -5568.106387 kJ/mol
# Density = 1.863435 g / cm^3
# Si number density = 18.676859 Si / 1000 Ang^3
#
#
#
# Elastic Constant Matrix: (Units=GPa)
#
#
# Indices 1 2 3 4 5 6 
#
# 1 120.0683 52.8388 54.0322 0.0000 0.0000 0.0000
# 2 52.8388 58.2348 35.1375 0.0000 0.0000 0.0000
# 3 54.0322 35.1375 109.4912 0.0000 0.0000 0.0000
# 4 0.0000 0.0000 0.0000 17.1709 0.0000 0.0000
# 5 0.0000 0.0000 0.0000 0.0000 22.7842 0.0000
# 6 0.0000 0.0000 0.0000 0.0000 0.0000 -6.9041
#
#
#
# Elastic Compliance Matrix: (Units=1/GPa)
#
#
# Indices 1 2 3 4 5 6 
#
# 1 0.015022 -0.011356 -0.003769 0.000000 0.000000 0.000000
# 2 -0.011356 0.029880 -0.003985 0.000000 0.000000 0.000000
# 3 -0.003769 -0.003985 0.012272 0.000000 0.000000 0.000000
# 4 0.000000 0.000000 0.000000 0.058238 0.000000 0.000000
# 5 0.000000 0.000000 0.000000 0.000000 0.043890 0.000000
# 6 0.000000 0.000000 0.000000 0.000000 0.000000 -0.144841
#
#
# Mechanical properties :
#
#
# Convention : Reuss Voigt Hill
#
# Bulk Modulus (GPa) = 52.75841 63.53458 58.14649
# Shear Modulus (GPa) = 84.74709 16.32925 50.53817
#
# Velocity S-wave (km/s) = 6.74344 2.96007 5.20749
# Velocity P-wave (km/s) = 9.43087 6.76567 8.20718
#
# Compressibility (1/GPa) = 0.01895433
#
# Stress axis : x y z
#
# Youngs Moduli (GPa) = 66.56833 33.46693 81.48738
#
# Poissons Ratio (x) = 0.38006 0.30711
# Poissons Ratio (y) = 0.75596 0.32472
# Poissons Ratio (z) = 0.25088 0.13336
#
# Static dielectric constant tensor:
#      x y z
#    x 1.630260 0.000000 0.000000 
#    y 0.000000 1.631800 0.000000 
#    z 0.000000 0.000000 1.742290 
# 
# From -- ./inp_files/14529.got.cif
#   From: 2010.05.17/outbox.cif.g08.bks.cpg/sg49_8_cif.got.tgz:14529.got - 2010.06.03 21:02:19.
