data_PCOD9392783
_publ_section_title
;
Structure prediction by ZEFSAII (Michael W. Deem and Ramdas Pophale) SiO2 
 PCOD9392783
Probable space group: P C C M
;
_chemical_formula_sum "Si O2"
_cell_formula_units_Z 42
_cell_length_a 20.002033
_cell_length_b 13.943769
_cell_length_c 9.168832
_cell_angle_alpha 90.000000
_cell_angle_beta 90.000000
_cell_angle_gamma 90.000000
_cell_volume 2557.221423
_symmetry_space_group_name_H-M "P C C M"
_symmetry_group_IT_number 49
_symmetry_cell_setting 'orthorhombic'
loop_
_space_group_symop_operation_xyz
x,y,z
-x,-y,z
x,-y,1/2-z
-x,y,1/2-z
-x,-y,-z
x,y,-z
-x,y,1/2+z
x,-y,1/2+z
loop_
_atom_site_type_symbol
_atom_site_label
_atom_site_fract_x
_atom_site_fract_y
_atom_site_fract_z
Si Si1 0.429059 0.708975 0.827008
Si Si2 0.692374 0.599493 0.826751
Si Si3 0.653502 0.099733 0.827435
Si Si4 0.131175 0.092605 0.664966
Si Si5 0.225792 0.211068 0.172143
Si Si6 0.000000 0.000000 0.750000
O O1 0.500000 0.696590 0.750000
O O2 0.373873 0.642400 0.749477
O O3 0.403058 0.818491 0.809881
O O4 0.432338 0.688311 0.000000
O O5 0.709631 0.500000 0.750000
O O6 0.749453 0.680278 0.807313
O O7 0.681359 0.587284 0.000000
O O8 0.719148 0.144879 0.752010
O O9 0.636511 0.000000 0.750000
O O10 0.664559 0.085415 0.000000
O O11 0.154896 0.097426 0.500000
O O12 0.155552 0.183982 0.754622
O O13 0.160165 0.000000 0.750000
O O14 0.052047 0.068698 0.666482
O O15 0.224683 0.190349 0.000000
#
# Coordination Sequence:
#
# PCOD9392783 Si02
#       6
#     8   8   8   8   8   2
#     4  10  21  36  53  73  98 129 166 210 258 312
#     4  10  21  37  56  77 100 127 163 212 261 310
#     4  10  20  33  49  70  98 132 170 209 251 298
#     4  10  19  31  49  73 107 143 175 206 240 285
#     4  10  20  33  51  74 101 133 169 208 252 298
#     4   8  22  32  50  76 112 148 180 204 242 276
#
# _framework density 16.424078000000002
#
# number of rings (size 3 to 8) (size 9 to 14) (size 15 to 20)
#    0.571    1.524    0.000    3.714    0.000    5.333 
#    0.000    3.810    0.000    0.000    0.000    0.667 
#    0.000    4.571    0.000    0.000    0.000    0.000 
#
# Total GULP energy -234086.240760 kJ/mol
# GULP energy per Si atom -5573.481923 kJ/mol
# Density = 1.638670 g / cm^3
# Si number density = 16.424078 Si / 1000 Ang^3
#
#
#
# Elastic Constant Matrix: (Units=GPa)
#
#
# Indices 1 2 3 4 5 6 
#
# 1 76.7646 33.7982 47.6210 0.0000 0.0000 0.0000
# 2 33.7982 89.4297 73.3356 0.0000 0.0000 0.0000
# 3 47.6210 73.3356 143.8514 0.0000 0.0000 0.0000
# 4 0.0000 0.0000 0.0000 29.4250 0.0000 0.0000
# 5 0.0000 0.0000 0.0000 0.0000 22.9978 0.0000
# 6 0.0000 0.0000 0.0000 0.0000 0.0000 15.2502
#
#
#
# Elastic Compliance Matrix: (Units=1/GPa)
#
#
# Indices 1 2 3 4 5 6 
#
# 1 0.016875 -0.003087 -0.004013 0.000000 0.000000 0.000000
# 2 -0.003087 0.019780 -0.009062 0.000000 0.000000 0.000000
# 3 -0.004013 -0.009062 0.012900 0.000000 0.000000 0.000000
# 4 0.000000 0.000000 0.000000 0.033985 0.000000 0.000000
# 5 0.000000 0.000000 0.000000 0.000000 0.043482 0.000000
# 6 0.000000 0.000000 0.000000 0.000000 0.000000 0.065573
#
#
# Mechanical properties :
#
#
# Convention : Reuss Voigt Hill
#
# Bulk Modulus (GPa) = 58.03304 68.83949 63.43626
# Shear Modulus (GPa) = 21.67679 23.88733 22.78206
#
# Velocity S-wave (km/s) = 3.63687 3.81781 3.72844
# Velocity P-wave (km/s) = 7.28331 7.83830 7.56590
#
# Compressibility (1/GPa) = 0.01723156
#
# Stress axis : x y z
#
# Youngs Moduli (GPa) = 59.25822 50.55710 77.52184
#
# Poissons Ratio (x) = 0.15608 0.31106
# Poissons Ratio (y) = 0.18294 0.70248
# Poissons Ratio (z) = 0.23778 0.45813
#
# Static dielectric constant tensor:
#      x y z
#    x 1.563210 0.000000 0.000000 
#    y 0.000000 1.547030 0.000000 
#    z 0.000000 0.000000 1.550280 
# 
# From -- ./inp_files/6302.got.cif
#   From: 2010.05.17/outbox.cif.g08.bks.cpg/sg49_4_cif.got.tgz:6302.got - 2010.06.03 21:02:19.
