data_PCOD9392464
_publ_section_title
;
Structure prediction by ZEFSAII (Michael W. Deem and Ramdas Pophale) SiO2 
 PCOD9392464
Probable space group: P C C M
;
_chemical_formula_sum "Si O2"
_cell_formula_units_Z 48
_cell_length_a 11.393555
_cell_length_b 12.028866
_cell_length_c 14.603150
_cell_angle_alpha 90.000000
_cell_angle_beta 90.000000
_cell_angle_gamma 90.000000
_cell_volume 2001.384289
_symmetry_space_group_name_H-M "P C C M"
_symmetry_group_IT_number 49
_symmetry_cell_setting 'orthorhombic'
loop_
_space_group_symop_operation_xyz
x,y,z
-x,-y,z
x,-y,1/2-z
-x,y,1/2-z
-x,-y,-z
x,y,-z
-x,y,1/2+z
x,-y,1/2+z
loop_
_atom_site_type_symbol
_atom_site_label
_atom_site_fract_x
_atom_site_fract_y
_atom_site_fract_z
Si Si1 0.372391 0.286118 0.783558
Si Si2 0.236500 0.287934 0.597180
Si Si3 0.124694 0.959806 0.356630
Si Si4 0.024880 0.276069 0.857518
Si Si5 0.809643 0.463364 0.648177
Si Si6 0.620783 0.043798 0.644917
O O1 0.500000 0.324395 0.750000
O O2 0.302091 0.254548 0.690104
O O3 0.300645 0.382275 0.834417
O O4 0.385048 0.176911 0.845288
O O5 0.290745 0.254750 0.500000
O O6 0.101498 0.248866 0.601397
O O7 0.225640 0.422567 0.600852
O O8 0.252407 0.991603 0.394083
O O9 0.112910 0.826921 0.364305
O O10 0.124126 0.000000 0.250000
O O11 0.000000 0.000000 0.395312
O O12 0.000000 0.290200 0.750000
O O13 0.087352 0.387306 0.892487
O O14 0.848657 0.500000 0.750000
O O15 0.500000 0.000000 0.603286
O O16 0.621618 0.000000 0.750000
#
# Coordination Sequence:
#
# PCOD9392464 Si02
#       6
#     8   8   8   8   8   8
#     4  11  21  38  63  94 122 164 217 269 306 369
#     4  11  26  41  60  90 132 171 203 258 333 389
#     4  10  19  27  50  92 130 159 196 272 323 355
#     4  12  18  34  60  92 124 163 214 259 309 378
#     4  10  21  34  57  87 122 162 218 260 306 367
#     4  10  18  31  56  97 129 148 204 269 314 363
#
# _framework density 23.9834
#
# number of rings (size 3 to 8) (size 9 to 14) (size 15 to 20)
#    0.000    1.333    8.333    0.500    2.333    4.333 
#    0.000    1.667    0.000    1.000    0.000    0.000 
#    0.000    0.000    0.000    0.000    0.000    0.000 
#
# Total GULP energy -268360.832802 kJ/mol
# GULP energy per Si atom -5590.850683 kJ/mol
# Density = 2.392881 g / cm^3
# Si number density = 23.983400 Si / 1000 Ang^3
#
#
#
# Elastic Constant Matrix: (Units=GPa)
#
#
# Indices 1 2 3 4 5 6 
#
# 1 209.1725 29.3511 12.6828 0.0000 0.0000 0.0000
# 2 29.3511 104.9346 -1.2348 0.0000 0.0000 0.0000
# 3 12.6828 -1.2348 90.9548 0.0000 0.0000 0.0000
# 4 0.0000 0.0000 0.0000 -7.9580 0.0000 0.0000
# 5 0.0000 0.0000 0.0000 0.0000 -9.5076 0.0000
# 6 0.0000 0.0000 0.0000 0.0000 0.0000 44.5544
#
#
#
# Elastic Compliance Matrix: (Units=1/GPa)
#
#
# Indices 1 2 3 4 5 6 
#
# 1 0.005023 -0.001413 -0.000720 0.000000 0.000000 0.000000
# 2 -0.001413 0.009929 0.000332 0.000000 0.000000 0.000000
# 3 -0.000720 0.000332 0.011099 0.000000 0.000000 0.000000
# 4 0.000000 0.000000 0.000000 -0.125660 0.000000 0.000000
# 5 0.000000 0.000000 0.000000 0.000000 -0.105179 0.000000
# 6 0.000000 0.000000 0.000000 0.000000 0.000000 0.022444
#
#
# Mechanical properties :
#
#
# Convention : Reuss Voigt Hill
#
# Bulk Modulus (GPa) = 44.54556 54.07332 49.30944
# Shear Modulus (GPa) = -29.19560 29.70196 0.25318
#
# Velocity S-wave (km/s) = -3.49280 3.52296 0.32526
# Velocity P-wave (km/s) = 1.53218 6.25647 4.55472
#
# Compressibility (1/GPa) = 0.02244893
#
# Stress axis : x y z
#
# Youngs Moduli (GPa) = 199.09628 100.71526 90.09563
#
# Poissons Ratio (x) = 0.14235 0.06483
# Poissons Ratio (y) = 0.28139 -0.02990
# Poissons Ratio (z) = 0.14326 -0.03343
#
# Static dielectric constant tensor:
#      x y z
#    x 1.923240 0.000000 0.000000 
#    y 0.000000 1.956590 0.000000 
#    z 0.000000 0.000000 1.849450 
# 
# From -- ./inp_files/17072.got.cif
#   From: 2010.05.17/outbox.cif.g08.bks.cpg/sg49_9_cif.got.tgz:17072.got - 2010.06.03 21:02:19.
