data_PCOD9392039
_publ_section_title
;
Structure prediction by ZEFSAII (Michael W. Deem and Ramdas Pophale) SiO2 
 PCOD9392039
Probable space group: P C C M
;
_chemical_formula_sum "Si O2"
_cell_formula_units_Z 40
_cell_length_a 26.972875
_cell_length_b 9.232389
_cell_length_c 8.563571
_cell_angle_alpha 90.000000
_cell_angle_beta 90.000000
_cell_angle_gamma 90.000000
_cell_volume 2132.535342
_symmetry_space_group_name_H-M "P C C M"
_symmetry_group_IT_number 49
_symmetry_cell_setting 'orthorhombic'
loop_
_space_group_symop_operation_xyz
x,y,z
-x,-y,z
x,-y,1/2-z
-x,y,1/2-z
-x,-y,-z
x,y,-z
-x,y,1/2+z
x,-y,1/2+z
loop_
_atom_site_type_symbol
_atom_site_label
_atom_site_fract_x
_atom_site_fract_y
_atom_site_fract_z
Si Si1 0.345943 0.834302 0.186721
Si Si2 0.448620 0.166049 0.813397
Si Si3 0.242035 0.835557 0.313061
Si Si4 0.147514 0.662630 0.187048
Si Si5 0.053382 0.163625 0.812823
O O1 0.397156 0.767865 0.250935
O O2 0.294179 0.772320 0.249532
O O3 0.345450 0.000000 0.250000
O O4 0.346547 0.836220 0.000000
O O5 0.500000 0.231965 0.750000
O O6 0.448471 0.000000 0.750000
O O7 0.448825 0.162884 0.000000
O O8 0.243142 0.838788 0.500000
O O9 0.195443 0.746371 0.251689
O O10 0.237493 0.000000 0.250000
O O11 0.148410 0.500000 0.250000
O O12 0.098225 0.740998 0.249368
O O13 0.147959 0.664938 0.000000
O O14 0.000000 0.215393 0.750000
O O15 0.059824 0.000000 0.750000
O O16 0.053121 0.162039 0.000000
#
# Coordination Sequence:
#
# PCOD9392039 Si02
#       5
#     8   8   8   8   8
#     4  10  17  27  42  64  92 127 169 216 264 318
#     4  10  16  23  34  53  83 122 163 207 258 318
#     4  11  21  36  56  80 107 142 183 228 274 325
#     4  12  25  42  60  84 114 148 185 228 276 328
#     4  11  22  40  64  92 120 152 188 228 270 319
#
# _framework density 18.757017000000001
#
# number of rings (size 3 to 8) (size 9 to 14) (size 15 to 20)
#    0.000    1.200    0.000   13.200    0.000    0.400 
#    0.000    2.000    0.000    0.000    0.000    0.000 
#    0.000    0.800    0.000    8.000    0.000    7.800 
#
# Total GULP energy -223475.069761 kJ/mol
# GULP energy per Si atom -5586.876744 kJ/mol
# Density = 1.871433 g / cm^3
# Si number density = 18.757017 Si / 1000 Ang^3
#
#
#
# Elastic Constant Matrix: (Units=GPa)
#
#
# Indices 1 2 3 4 5 6 
#
# 1 241.8625 70.8747 103.7264 0.0000 0.0000 0.0000
# 2 70.8747 45.1131 37.7404 0.0000 0.0000 0.0000
# 3 103.7264 37.7404 251.0182 0.0000 0.0000 0.0000
# 4 0.0000 0.0000 0.0000 21.8545 0.0000 0.0000
# 5 0.0000 0.0000 0.0000 0.0000 42.1438 0.0000
# 6 0.0000 0.0000 0.0000 0.0000 0.0000 -8.6054
#
#
#
# Elastic Compliance Matrix: (Units=1/GPa)
#
#
# Indices 1 2 3 4 5 6 
#
# 1 0.008229 -0.011535 -0.001666 0.000000 0.000000 0.000000
# 2 -0.011535 0.041523 -0.001477 0.000000 0.000000 0.000000
# 3 -0.001666 -0.001477 0.004894 0.000000 0.000000 0.000000
# 4 0.000000 0.000000 0.000000 0.045757 0.000000 0.000000
# 5 0.000000 0.000000 0.000000 0.000000 0.023728 0.000000
# 6 0.000000 0.000000 0.000000 0.000000 0.000000 -0.116207
#
#
# Mechanical properties :
#
#
# Convention : Reuss Voigt Hill
#
# Bulk Modulus (GPa) = 39.53863 106.96409 73.25136
# Shear Modulus (GPa) = 109.38313 32.78874 71.08593
#
# Velocity S-wave (km/s) = 7.64477 4.18554 6.16284
# Velocity P-wave (km/s) = 9.95231 8.97264 9.47514
#
# Compressibility (1/GPa) = 0.02529172
#
# Stress axis : x y z
#
# Youngs Moduli (GPa) = 121.51782 24.08301 204.31760
#
# Poissons Ratio (x) = 0.27779 0.34046
# Poissons Ratio (y) = 1.40165 0.30170
# Poissons Ratio (z) = 0.20249 0.03556
#
# Static dielectric constant tensor:
#      x y z
#    x 1.707860 0.000000 0.000000 
#    y 0.000000 1.585330 0.000000 
#    z 0.000000 0.000000 1.618220 
# 
# From -- ./inp_files/6670.got.cif
#   From: 2010.05.17/outbox.cif.g08.bks.cpg/sg49_4_cif.got.tgz:6670.got - 2010.06.03 21:02:19.
