data_PCOD9392718
_publ_section_title
;
Structure prediction by ZEFSAII (Michael W. Deem and Ramdas Pophale) SiO2 
 PCOD9392718
Probable space group: P C C M
;
_chemical_formula_sum "Si O2"
_cell_formula_units_Z 64
_cell_length_a 20.203197
_cell_length_b 19.977567
_cell_length_c 8.713366
_cell_angle_alpha 90.000000
_cell_angle_beta 90.000000
_cell_angle_gamma 90.000000
_cell_volume 3516.807940
_symmetry_space_group_name_H-M "P C C M"
_symmetry_group_IT_number 49
_symmetry_cell_setting 'orthorhombic'
loop_
_space_group_symop_operation_xyz
x,y,z
-x,-y,z
x,-y,1/2-z
-x,y,1/2-z
-x,-y,-z
x,y,-z
-x,y,1/2+z
x,-y,1/2+z
loop_
_atom_site_type_symbol
_atom_site_label
_atom_site_fract_x
_atom_site_fract_y
_atom_site_fract_z
Si Si1 0.426511 0.671759 0.184965
Si Si2 0.822971 0.066673 0.319256
Si Si3 0.933008 0.144687 0.173653
Si Si4 0.331003 0.785748 0.316252
Si Si5 0.686390 0.573039 0.683433
Si Si6 0.067915 0.694950 0.827063
Si Si7 0.676928 0.929120 0.682451
Si Si8 0.782570 0.304781 0.186694
O O1 0.500000 0.669546 0.250000
O O2 0.385621 0.733944 0.254005
O O3 0.383975 0.605900 0.227828
O O4 0.426883 0.677391 0.000000
O O5 0.810177 0.061001 0.500000
O O6 0.871395 0.126517 0.279133
O O7 0.754425 0.072793 0.228732
O O8 0.856108 0.000000 0.250000
O O9 0.938630 0.224618 0.164810
O O10 0.000000 0.118130 0.250000
O O11 0.923411 0.119450 0.000000
O O12 0.328764 0.786395 0.500000
O O13 0.348177 0.859808 0.254825
O O14 0.260384 0.757038 0.253602
O O15 0.696976 0.500000 0.750000
O O16 0.687669 0.568335 0.500000
O O17 0.741351 0.628382 0.726144
O O18 0.141699 0.686271 0.758653
O O19 0.000000 0.670032 0.750000
O O20 0.070037 0.667732 0.000000
O O21 0.669143 0.928918 0.500000
O O22 0.651157 0.000000 0.750000
O O23 0.783687 0.296454 0.000000
#
# Coordination Sequence:
#
# PCOD9392718 Si02
#       8
#     8   8   8   8   8   8   8   8
#     4  10  21  38  58  84 116 151 185 222 263 311
#     4  11  21  33  47  65  88 118 158 205 257 318
#     4  10  19  31  45  63  86 117 154 200 257 319
#     4  11  21  34  55  83 110 142 182 225 270 323
#     4   9  19  34  54  80 113 148 185 222 264 313
#     4   9  18  31  49  70  96 126 163 212 268 321
#     4  11  21  35  53  75 103 135 172 219 270 320
#     4   9  18  34  53  76 106 143 180 223 275 327
#
# _framework density 18.198319999999999
#
# number of rings (size 3 to 8) (size 9 to 14) (size 15 to 20)
#    0.000    2.000    0.000    6.375    0.000    5.000 
#    0.000    2.500    0.000    0.750    0.000    5.250 
#    0.000    0.000    0.000    0.000    0.000    0.000 
#
# Total GULP energy -356895.825124 kJ/mol
# GULP energy per Si atom -5576.497268 kJ/mol
# Density = 1.815690 g / cm^3
# Si number density = 18.198320 Si / 1000 Ang^3
#
#
#
# Elastic Constant Matrix: (Units=GPa)
#
#
# Indices 1 2 3 4 5 6 
#
# 1 85.9617 13.3127 26.3822 0.0000 0.0000 0.0000
# 2 13.3127 88.1445 31.0629 0.0000 0.0000 0.0000
# 3 26.3822 31.0629 90.8708 0.0000 0.0000 0.0000
# 4 0.0000 0.0000 0.0000 54.9504 0.0000 0.0000
# 5 0.0000 0.0000 0.0000 0.0000 26.3948 0.0000
# 6 0.0000 0.0000 0.0000 0.0000 0.0000 10.6766
#
#
#
# Elastic Compliance Matrix: (Units=1/GPa)
#
#
# Indices 1 2 3 4 5 6 
#
# 1 0.012810 -0.000710 -0.003477 0.000000 0.000000 0.000000
# 2 -0.000710 0.012938 -0.004217 0.000000 0.000000 0.000000
# 3 -0.003477 -0.004217 0.013455 0.000000 0.000000 0.000000
# 4 0.000000 0.000000 0.000000 0.018198 0.000000 0.000000
# 5 0.000000 0.000000 0.000000 0.000000 0.037886 0.000000
# 6 0.000000 0.000000 0.000000 0.000000 0.000000 0.093662
#
#
# Mechanical properties :
#
#
# Convention : Reuss Voigt Hill
#
# Bulk Modulus (GPa) = 44.64704 45.16585 44.90645
# Shear Modulus (GPa) = 23.44974 31.35231 27.40103
#
# Velocity S-wave (km/s) = 3.59356 4.15518 3.88453
# Velocity P-wave (km/s) = 6.46568 6.92050 6.69695
#
# Compressibility (1/GPa) = 0.02239790
#
# Stress axis : x y z
#
# Youngs Moduli (GPa) = 78.06436 77.29052 74.31966
#
# Poissons Ratio (x) = 0.05484 0.25837
# Poissons Ratio (y) = 0.05539 0.31339
# Poissons Ratio (z) = 0.27139 0.32591
#
# Static dielectric constant tensor:
#      x y z
#    x 1.631800 0.000000 0.000000 
#    y 0.000000 1.655660 0.000000 
#    z 0.000000 0.000000 1.630100 
# 
# From -- ./inp_files/6016.got.cif
#   From: 2010.05.17/outbox.cif.g08.bks.cpg/sg49_4_cif.got.tgz:6016.got - 2010.06.03 21:02:19.
