data_PCOD9392287
_publ_section_title
;
Structure prediction by ZEFSAII (Michael W. Deem and Ramdas Pophale) SiO2 
 PCOD9392287
Probable space group: P C C M
;
_chemical_formula_sum "Si O2"
_cell_formula_units_Z 64
_cell_length_a 18.677091
_cell_length_b 27.488689
_cell_length_c 8.868418
_cell_angle_alpha 90.000000
_cell_angle_beta 90.000000
_cell_angle_gamma 90.000000
_cell_volume 4553.123364
_symmetry_space_group_name_H-M "P C C M"
_symmetry_group_IT_number 49
_symmetry_cell_setting 'orthorhombic'
loop_
_space_group_symop_operation_xyz
x,y,z
-x,-y,z
x,-y,1/2-z
-x,y,1/2-z
-x,-y,-z
x,y,-z
-x,y,1/2+z
x,-y,1/2+z
loop_
_atom_site_type_symbol
_atom_site_label
_atom_site_fract_x
_atom_site_fract_y
_atom_site_fract_z
Si Si1 0.795371 0.799838 0.673189
Si Si2 0.419930 0.451520 0.180572
Si Si3 0.579266 0.656007 0.181374
Si Si4 0.704983 0.099296 0.172547
Si Si5 0.664285 0.248464 0.681891
Si Si6 0.077422 0.146732 0.819822
Si Si7 0.848458 0.051374 0.182362
Si Si8 0.422093 0.150805 0.820718
O O1 0.813139 0.788501 0.500000
O O2 0.749674 0.850122 0.672959
O O3 0.741404 0.761161 0.745284
O O4 0.865720 0.812419 0.768003
O O5 0.384983 0.500000 0.250000
O O6 0.500000 0.449979 0.250000
O O7 0.390275 0.397832 0.217630
O O8 0.423984 0.456567 0.000000
O O9 0.500000 0.660820 0.250000
O O10 0.628456 0.700921 0.229323
O O11 0.572163 0.658268 0.000000
O O12 0.764840 0.060965 0.224513
O O13 0.634502 0.109925 0.268135
O O14 0.684700 0.088534 0.000000
O O15 0.671100 0.247655 0.500000
O O16 0.612305 0.203195 0.724042
O O17 0.106169 0.095717 0.750988
O O18 0.000000 0.156591 0.750000
O O19 0.074587 0.143415 0.000000
O O20 0.871784 0.000000 0.250000
O O21 0.853308 0.052539 0.000000
O O22 0.500000 0.144874 0.750000
O O23 0.427902 0.150276 0.000000
#
# Coordination Sequence:
#
# PCOD9392287 Si02
#       8
#     8   8   8   8   8   8   8   8
#     4   9  17  30  46  64  84 108 136 164 195 236
#     4   9  15  23  34  47  65  94 132 176 219 260
#     4   9  17  26  36  52  76 104 138 179 222 260
#     4   8  16  30  45  60  81 105 131 160 191 232
#     4   9  17  28  40  57  80 107 136 167 205 250
#     4  11  21  34  51  70  92 115 138 165 193 226
#     4  10  20  34  51  71  91 112 136 163 196 235
#     4  10  18  26  40  59  79 102 130 163 202 243
#
# _framework density 14.056285000000001
#
# number of rings (size 3 to 8) (size 9 to 14) (size 15 to 20)
#    0.000    2.625    0.000    4.125    0.000    5.250 
#    0.000    1.250    0.000    0.375    0.000    2.625 
#    0.000    0.000    0.000    0.000    0.000    0.625 
#
# Total GULP energy -356471.284516 kJ/mol
# GULP energy per Si atom -5569.863821 kJ/mol
# Density = 1.402429 g / cm^3
# Si number density = 14.056285 Si / 1000 Ang^3
#
#
#
# Elastic Constant Matrix: (Units=GPa)
#
#
# Indices 1 2 3 4 5 6 
#
# 1 89.5340 29.1428 40.3978 0.0000 0.0000 0.0000
# 2 29.1428 54.8042 17.6716 0.0000 0.0000 0.0000
# 3 40.3978 17.6716 58.1354 0.0000 0.0000 0.0000
# 4 0.0000 0.0000 0.0000 17.9138 0.0000 0.0000
# 5 0.0000 0.0000 0.0000 0.0000 21.8505 0.0000
# 6 0.0000 0.0000 0.0000 0.0000 0.0000 10.7613
#
#
#
# Elastic Compliance Matrix: (Units=1/GPa)
#
#
# Indices 1 2 3 4 5 6 
#
# 1 0.017950 -0.006123 -0.010612 0.000000 0.000000 0.000000
# 2 -0.006123 0.022318 -0.002529 0.000000 0.000000 0.000000
# 3 -0.010612 -0.002529 0.025344 0.000000 0.000000 0.000000
# 4 0.000000 0.000000 0.000000 0.055823 0.000000 0.000000
# 5 0.000000 0.000000 0.000000 0.000000 0.045765 0.000000
# 6 0.000000 0.000000 0.000000 0.000000 0.000000 0.092926
#
#
# Mechanical properties :
#
#
# Convention : Reuss Voigt Hill
#
# Bulk Modulus (GPa) = 36.92258 41.87759 39.40008
# Shear Modulus (GPa) = 16.25040 17.78921 17.01980
#
# Velocity S-wave (km/s) = 3.40383 3.56134 3.48348
# Velocity P-wave (km/s) = 6.46318 6.83874 6.65361
#
# Compressibility (1/GPa) = 0.02708370
#
# Stress axis : x y z
#
# Youngs Moduli (GPa) = 55.70940 44.80593 39.45659
#
# Poissons Ratio (x) = 0.27436 0.41872
# Poissons Ratio (y) = 0.34113 0.09979
# Poissons Ratio (z) = 0.59120 0.11332
#
# Static dielectric constant tensor:
#      x y z
#    x 1.446280 0.000000 0.000000 
#    y 0.000000 1.481190 0.000000 
#    z 0.000000 0.000000 1.472970 
# 
# From -- ./inp_files/5452.got.cif
#   From: 2010.05.17/outbox.cif.g08.bks.cpg/sg49_3_cif.got.tgz:5452.got - 2010.06.03 21:02:19.
