data_PCOD9392901
_publ_section_title
;
Structure prediction by ZEFSAII (Michael W. Deem and Ramdas Pophale) SiO2 
 PCOD9392901
Probable space group: P C C M
;
_chemical_formula_sum "Si O2"
_cell_formula_units_Z 64
_cell_length_a 25.360711
_cell_length_b 15.440631
_cell_length_c 8.749276
_cell_angle_alpha 90.000000
_cell_angle_beta 90.000000
_cell_angle_gamma 90.000000
_cell_volume 3426.088571
_symmetry_space_group_name_H-M "P C C M"
_symmetry_group_IT_number 49
_symmetry_cell_setting 'orthorhombic'
loop_
_space_group_symop_operation_xyz
x,y,z
-x,-y,z
x,-y,1/2-z
-x,y,1/2-z
-x,-y,-z
x,y,-z
-x,y,1/2+z
x,-y,1/2+z
loop_
_atom_site_type_symbol
_atom_site_label
_atom_site_fract_x
_atom_site_fract_y
_atom_site_fract_z
Si Si1 0.320206 0.587899 0.182866
Si Si2 0.793111 0.371057 0.677434
Si Si3 0.653543 0.781450 0.683730
Si Si4 0.094706 0.590785 0.818443
Si Si5 0.055814 0.230054 0.182520
Si Si6 0.557482 0.905517 0.683664
Si Si7 0.764325 0.169368 0.676027
Si Si8 0.863612 0.907757 0.319153
O O1 0.344562 0.500000 0.250000
O O2 0.261444 0.595560 0.252462
O O3 0.348032 0.679117 0.223362
O O4 0.317146 0.581758 0.000000
O O5 0.798852 0.398036 0.500000
O O6 0.843603 0.399923 0.772901
O O7 0.787916 0.266905 0.680946
O O8 0.660423 0.786479 0.500000
O O9 0.601509 0.834843 0.725076
O O10 0.705141 0.822327 0.761806
O O11 0.075433 0.500000 0.750000
O O12 0.066852 0.673318 0.743185
O O13 0.088478 0.592695 0.000000
O O14 0.101312 0.167045 0.243269
O O15 0.000000 0.200474 0.250000
O O16 0.055290 0.230054 0.000000
O O17 0.500000 0.883428 0.750000
O O18 0.554306 0.911183 0.500000
O O19 0.571784 0.000000 0.750000
O O20 0.764854 0.140264 0.500000
O O21 0.802886 0.111068 0.776029
O O22 0.870657 0.906421 0.500000
O O23 0.879127 0.000000 0.250000
#
# Coordination Sequence:
#
# PCOD9392901 Si02
#       8
#     8   8   8   8   8   8   8   8
#     4  10  19  32  50  76 112 152 195 239 286 340
#     4  10  19  33  54  81 115 153 193 236 283 343
#     4   9  20  36  55  81 117 158 197 238 290 350
#     4  12  24  39  61  89 119 156 195 240 293 349
#     4  12  26  47  69  92 119 151 194 243 296 355
#     4  10  20  36  58  84 113 149 192 242 294 348
#     4  10  20  35  58  87 121 156 194 238 288 346
#     4  12  25  43  67  93 122 157 195 240 295 352
#
# _framework density 18.680194
#
# number of rings (size 3 to 8) (size 9 to 14) (size 15 to 20)
#    0.000    1.375    1.250    5.625    0.000    3.500 
#    0.000    3.750    0.000    0.375    0.000    2.625 
#    0.000    0.000    0.000    0.000    0.000    0.000 
#
# Total GULP energy -357806.855036 kJ/mol
# GULP energy per Si atom -5590.732110 kJ/mol
# Density = 1.863768 g / cm^3
# Si number density = 18.680194 Si / 1000 Ang^3
#
#
#
# Elastic Constant Matrix: (Units=GPa)
#
#
# Indices 1 2 3 4 5 6 
#
# 1 87.6765 54.9975 41.7465 0.0000 0.0000 0.0000
# 2 54.9975 99.7492 53.7964 0.0000 0.0000 0.0000
# 3 41.7465 53.7964 140.5522 0.0000 0.0000 0.0000
# 4 0.0000 0.0000 0.0000 32.3015 0.0000 0.0000
# 5 0.0000 0.0000 0.0000 0.0000 20.8616 0.0000
# 6 0.0000 0.0000 0.0000 0.0000 0.0000 -3.7357
#
#
#
# Elastic Compliance Matrix: (Units=1/GPa)
#
#
# Indices 1 2 3 4 5 6 
#
# 1 0.017843 -0.008795 -0.001933 0.000000 0.000000 0.000000
# 2 -0.008795 0.016968 -0.003882 0.000000 0.000000 0.000000
# 3 -0.001933 -0.003882 0.009175 0.000000 0.000000 0.000000
# 4 0.000000 0.000000 0.000000 0.030958 0.000000 0.000000
# 5 0.000000 0.000000 0.000000 0.000000 0.047935 0.000000
# 6 0.000000 0.000000 0.000000 0.000000 0.000000 -0.267684
#
#
# Mechanical properties :
#
#
# Convention : Reuss Voigt Hill
#
# Bulk Modulus (GPa) = 67.72939 69.89543 68.81241
# Shear Modulus (GPa) = -45.18295 21.71462 -11.73416
#
# Velocity S-wave (km/s) = -4.92343 3.41316 -2.50903
# Velocity P-wave (km/s) = 2.00396 7.28224 5.34073
#
# Compressibility (1/GPa) = 0.01476464
#
# Stress axis : x y z
#
# Youngs Moduli (GPa) = 56.04368 58.93351 108.99227
#
# Poissons Ratio (x) = 0.51834 0.21072
# Poissons Ratio (y) = 0.49292 0.42313
# Poissons Ratio (z) = 0.10835 0.22879
#
# Static dielectric constant tensor:
#      x y z
#    x 1.629200 0.000000 0.000000 
#    y 0.000000 1.685150 0.000000 
#    z 0.000000 0.000000 1.624310 
# 
# From -- ./inp_files/6503.got.cif
#   From: 2010.05.17/outbox.cif.g08.bks.cpg/sg49_4_cif.got.tgz:6503.got - 2010.06.03 21:02:19.
