data_PCOD9392218
_publ_section_title
;
Structure prediction by ZEFSAII (Michael W. Deem and Ramdas Pophale) SiO2 
 PCOD9392218
Probable space group: P C C M
;
_chemical_formula_sum "Si O2"
_cell_formula_units_Z 56
_cell_length_a 19.066526
_cell_length_b 19.848098
_cell_length_c 8.429577
_cell_angle_alpha 90.000000
_cell_angle_beta 90.000000
_cell_angle_gamma 90.000000
_cell_volume 3190.040874
_symmetry_space_group_name_H-M "P C C M"
_symmetry_group_IT_number 49
_symmetry_cell_setting 'orthorhombic'
loop_
_space_group_symop_operation_xyz
x,y,z
-x,-y,z
x,-y,1/2-z
-x,y,1/2-z
-x,-y,-z
x,y,-z
-x,y,1/2+z
x,-y,1/2+z
loop_
_atom_site_type_symbol
_atom_site_label
_atom_site_fract_x
_atom_site_fract_y
_atom_site_fract_z
Si Si1 0.207048 0.206784 0.692957
Si Si2 0.314231 0.572367 0.190150
Si Si3 0.423882 0.150479 0.308805
Si Si4 0.283353 0.074755 0.691361
Si Si5 0.845920 0.572487 0.810816
Si Si6 0.078115 0.705312 0.190432
Si Si7 0.348992 0.283422 0.307027
O O1 0.206252 0.206386 0.500000
O O2 0.227652 0.131554 0.744586
O O3 0.134120 0.238513 0.746698
O O4 0.272134 0.255017 0.738457
O O5 0.340216 0.500000 0.250000
O O6 0.233493 0.580012 0.245803
O O7 0.355140 0.639341 0.245759
O O8 0.314117 0.571205 0.000000
O O9 0.500000 0.130101 0.250000
O O10 0.423885 0.150606 0.500000
O O11 0.360135 0.102055 0.257421
O O12 0.403965 0.226551 0.254276
O O13 0.283206 0.074601 0.500000
O O14 0.269759 0.000000 0.750000
O O15 0.872012 0.500000 0.750000
O O16 0.892991 0.633616 0.750085
O O17 0.843505 0.572274 0.000000
O O18 0.000000 0.717625 0.250000
O O19 0.078495 0.704576 0.000000
O O20 0.350914 0.283733 0.500000
#
# Coordination Sequence:
#
# PCOD9392218 Si02
#       7
#     8   8   8   8   8   8   8
#     4   8  15  31  53  71  93 128 165 197 241 296
#     4  10  17  28  47  70  95 125 163 208 257 296
#     4   9  18  32  50  73 102 134 167 197 237 289
#     4   9  18  33  54  78 102 132 165 197 237 288
#     4  11  21  33  48  70  99 132 168 206 252 300
#     4  11  21  35  53  73  98 130 167 207 254 300
#     4   8  14  28  50  69  89 127 168 200 241 294
#
# _framework density 17.554634
#
# number of rings (size 3 to 8) (size 9 to 14) (size 15 to 20)
#    0.000    2.571    1.429    4.714    0.000    1.143 
#    0.000    5.714    0.000    0.857    0.000    6.000 
#    0.000    0.000    0.000    0.000    0.000    0.000 
#
# Total GULP energy -312178.186163 kJ/mol
# GULP energy per Si atom -5574.610467 kJ/mol
# Density = 1.751468 g / cm^3
# Si number density = 17.554634 Si / 1000 Ang^3
#
#
#
# Elastic Constant Matrix: (Units=GPa)
#
#
# Indices 1 2 3 4 5 6 
#
# 1 50.4053 38.2410 7.3909 0.0000 0.0000 0.0000
# 2 38.2410 149.5966 18.4918 0.0000 0.0000 0.0000
# 3 7.3909 18.4918 36.0837 0.0000 0.0000 0.0000
# 4 0.0000 0.0000 0.0000 31.0967 0.0000 0.0000
# 5 0.0000 0.0000 0.0000 0.0000 -223.7482 0.0000
# 6 0.0000 0.0000 0.0000 0.0000 0.0000 18.4271
#
#
#
# Elastic Compliance Matrix: (Units=1/GPa)
#
#
# Indices 1 2 3 4 5 6 
#
# 1 0.024740 -0.006083 -0.001950 0.000000 0.000000 0.000000
# 2 -0.006083 0.008633 -0.003178 0.000000 0.000000 0.000000
# 3 -0.001950 -0.003178 0.029741 0.000000 0.000000 0.000000
# 4 0.000000 0.000000 0.000000 0.032158 0.000000 0.000000
# 5 0.000000 0.000000 0.000000 0.000000 -0.004469 0.000000
# 6 0.000000 0.000000 0.000000 0.000000 0.000000 0.054268
#
#
# Mechanical properties :
#
#
# Convention : Reuss Voigt Hill
#
# Bulk Modulus (GPa) = 24.57492 40.48145 32.52819
# Shear Modulus (GPa) = 27.61564 -23.38076 2.11744
#
# Velocity S-wave (km/s) = 3.97057 -3.65346 1.09946
# Velocity P-wave (km/s) = 5.92031 2.30506 4.49240
#
# Compressibility (1/GPa) = 0.04069189
#
# Stress axis : x y z
#
# Youngs Moduli (GPa) = 40.41993 115.84113 33.62322
#
# Poissons Ratio (x) = 0.70469 0.06556
# Poissons Ratio (y) = 0.24588 0.10685
# Poissons Ratio (z) = 0.07882 0.36813
#
# Static dielectric constant tensor:
#      x y z
#    x 1.578850 0.000000 0.000000 
#    y 0.000000 1.613910 0.000000 
#    z 0.000000 0.000000 1.606970 
# 
# From -- ./inp_files/5180.got.cif
#   From: 2010.05.17/outbox.cif.g08.bks.cpg/sg49_3_cif.got.tgz:5180.got - 2010.06.03 21:02:19.
