data_PCOD9392113
_publ_section_title
;
Structure prediction by ZEFSAII (Michael W. Deem and Ramdas Pophale) SiO2 
 PCOD9392113
Probable space group: P C C M
;
_chemical_formula_sum "Si O2"
_cell_formula_units_Z 48
_cell_length_a 24.581422
_cell_length_b 13.790946
_cell_length_c 8.621357
_cell_angle_alpha 90.000000
_cell_angle_beta 90.000000
_cell_angle_gamma 90.000000
_cell_volume 2922.649191
_symmetry_space_group_name_H-M "P C C M"
_symmetry_group_IT_number 49
_symmetry_cell_setting 'orthorhombic'
loop_
_space_group_symop_operation_xyz
x,y,z
-x,-y,z
x,-y,1/2-z
-x,y,1/2-z
-x,-y,-z
x,y,-z
-x,y,1/2+z
x,-y,1/2+z
loop_
_atom_site_type_symbol
_atom_site_label
_atom_site_fract_x
_atom_site_fract_y
_atom_site_fract_z
Si Si1 0.169373 0.890524 0.685122
Si Si2 0.722226 0.203587 0.186647
Si Si3 0.610072 0.895676 0.685789
Si Si4 0.558863 0.692594 0.686721
Si Si5 0.668252 0.395414 0.685355
Si Si6 0.943953 0.110429 0.185358
O O1 0.165683 0.894650 0.500000
O O2 0.221920 0.831789 0.739415
O O3 0.113036 0.848006 0.753533
O O4 0.175312 0.000000 0.750000
O O5 0.671803 0.133202 0.232546
O O6 0.704989 0.309738 0.244281
O O7 0.725963 0.202452 0.000000
O O8 0.608983 0.900269 0.500000
O O9 0.572813 0.804319 0.732340
O O10 0.594199 0.000000 0.750000
O O11 0.500000 0.665518 0.750000
O O12 0.560859 0.685971 0.500000
O O13 0.607039 0.628478 0.757602
O O14 0.684331 0.500000 0.750000
O O15 0.670466 0.393492 0.500000
O O16 0.000000 0.155053 0.250000
O O17 0.943339 0.000000 0.250000
O O18 0.945022 0.108290 0.000000
#
# Coordination Sequence:
#
# PCOD9392113 Si02
#       6
#     8   8   8   8   8   8
#     4  11  20  30  45  69  99 135 173 208 245 288
#     4  10  20  35  51  72  99 127 161 203 243 288
#     4   9  19  32  48  68  95 127 160 194 233 277
#     4  10  21  37  53  74  99 125 158 198 237 283
#     4  11  22  38  58  78  98 124 153 191 242 296
#     4  10  17  27  41  60  89 128 170 211 248 286
#
# _framework density 16.423456999999999
#
# number of rings (size 3 to 8) (size 9 to 14) (size 15 to 20)
#    0.000    1.833    0.000    8.500    0.000    6.000 
#    0.000    3.333    0.000    0.000    0.000    0.000 
#    0.000    0.667    0.000    6.667    0.000    4.000 
#
# Total GULP energy -267963.025295 kJ/mol
# GULP energy per Si atom -5582.563027 kJ/mol
# Density = 1.638608 g / cm^3
# Si number density = 16.423457 Si / 1000 Ang^3
#
#
#
# Elastic Constant Matrix: (Units=GPa)
#
#
# Indices 1 2 3 4 5 6 
#
# 1 111.2655 9.9057 36.1477 0.0000 0.0000 0.0000
# 2 9.9057 52.1363 11.9204 0.0000 0.0000 0.0000
# 3 36.1477 11.9204 113.4594 0.0000 0.0000 0.0000
# 4 0.0000 0.0000 0.0000 23.6803 0.0000 0.0000
# 5 0.0000 0.0000 0.0000 0.0000 26.5488 0.0000
# 6 0.0000 0.0000 0.0000 0.0000 0.0000 8.0015
#
#
#
# Elastic Compliance Matrix: (Units=1/GPa)
#
#
# Indices 1 2 3 4 5 6 
#
# 1 0.010099 -0.001212 -0.003090 0.000000 0.000000 0.000000
# 2 -0.001212 0.019798 -0.001694 0.000000 0.000000 0.000000
# 3 -0.003090 -0.001694 0.009976 0.000000 0.000000 0.000000
# 4 0.000000 0.000000 0.000000 0.042229 0.000000 0.000000
# 5 0.000000 0.000000 0.000000 0.000000 0.037667 0.000000
# 6 0.000000 0.000000 0.000000 0.000000 0.000000 0.124976
#
#
# Mechanical properties :
#
#
# Convention : Reuss Voigt Hill
#
# Bulk Modulus (GPa) = 35.86677 43.64545 39.75611
# Shear Modulus (GPa) = 18.79470 26.23859 22.51665
#
# Velocity S-wave (km/s) = 3.38654 4.00137 3.70673
# Velocity P-wave (km/s) = 6.09735 6.92681 6.52527
#
# Compressibility (1/GPa) = 0.02788096
#
# Stress axis : x y z
#
# Youngs Moduli (GPa) = 99.01575 50.50990 100.23830
#
# Poissons Ratio (x) = 0.06123 0.30976
# Poissons Ratio (y) = 0.12004 0.16979
# Poissons Ratio (z) = 0.30598 0.08555
#
# Static dielectric constant tensor:
#      x y z
#    x 1.578280 0.000000 0.000000 
#    y 0.000000 1.541020 0.000000 
#    z 0.000000 0.000000 1.545810 
# 
# From -- ./inp_files/2882.got.cif
#   From: 2010.05.17/outbox.cif.g08.bks.cpg/sg49_2_cif.got.tgz:2882.got - 2010.06.03 21:02:19.
