data_PCOD9392428
_publ_section_title
;
Structure prediction by ZEFSAII (Michael W. Deem and Ramdas Pophale) SiO2 
 PCOD9392428
Probable space group: P C C M
;
_chemical_formula_sum "Si O2"
_cell_formula_units_Z 64
_cell_length_a 12.069130
_cell_length_b 17.644986
_cell_length_c 16.229456
_cell_angle_alpha 90.000000
_cell_angle_beta 90.000000
_cell_angle_gamma 90.000000
_cell_volume 3456.218943
_symmetry_space_group_name_H-M "P C C M"
_symmetry_group_IT_number 49
_symmetry_cell_setting 'orthorhombic'
loop_
_space_group_symop_operation_xyz
x,y,z
-x,-y,z
x,-y,1/2-z
-x,y,1/2-z
-x,-y,-z
x,y,-z
-x,y,1/2+z
x,-y,1/2+z
loop_
_atom_site_type_symbol
_atom_site_label
_atom_site_fract_x
_atom_site_fract_y
_atom_site_fract_z
Si Si1 0.155917 0.188304 0.841998
Si Si2 0.075297 0.234154 0.402821
Si Si3 0.871468 0.024311 0.408958
Si Si4 0.370037 0.728724 0.400251
Si Si5 0.776905 0.889401 0.671259
Si Si6 0.724890 0.672010 0.594400
Si Si7 0.424674 0.175578 0.405916
Si Si8 0.480465 0.586430 0.898783
O O1 0.146224 0.113801 0.899677
O O2 0.251296 0.247596 0.865957
O O3 0.185660 0.151058 0.754692
O O4 0.035978 0.226264 0.851028
O O5 0.050294 0.245511 0.500000
O O6 0.147815 0.157261 0.394853
O O7 0.158035 0.300277 0.371135
O O8 0.832584 0.001722 0.500000
O O9 0.807693 0.976232 0.340913
O O10 0.000000 0.000000 0.401240
O O11 0.365174 0.727370 0.500000
O O12 0.455562 0.796265 0.377190
O O13 0.427064 0.649036 0.373937
O O14 0.647993 0.877504 0.651628
O O15 0.747699 0.648807 0.500000
O O16 0.647956 0.747051 0.591060
O O17 0.641155 0.611756 0.632499
O O18 0.431925 0.146685 0.500000
O O19 0.500000 0.500000 0.875016
O O20 0.477743 0.589966 0.000000
#
# Coordination Sequence:
#
# PCOD9392428 Si02
#       8
#     8   8   8   8   8   8   8   8
#     4  12  23  32  48  76 108 137 167 218 282 325
#     4  10  18  31  49  69  97 135 177 214 257 316
#     4  11  22  36  54  72  97 137 179 221 268 319
#     4   9  18  33  51  75 108 141 174 214 264 326
#     4  11  21  33  51  74  99 129 174 225 263 307
#     4   7  12  23  43  71  97 125 167 212 246 294
#     4   8  15  31  53  71  93 131 173 211 256 313
#     4   8  13  25  50  81 107 133 171 222 269 303
#
# _framework density 18.517346
#
# number of rings (size 3 to 8) (size 9 to 14) (size 15 to 20)
#    0.000    2.500    1.250    5.250    0.000    1.000 
#    0.000    0.625    0.000    4.500    0.000   20.125 
#    0.000    6.000    0.000    0.375    0.000    0.125 
#
# Total GULP energy -356470.070194 kJ/mol
# GULP energy per Si atom -5569.844847 kJ/mol
# Density = 1.847520 g / cm^3
# Si number density = 18.517346 Si / 1000 Ang^3
#
#
#
# Elastic Constant Matrix: (Units=GPa)
#
#
# Indices 1 2 3 4 5 6 
#
# 1 113.3684 56.4422 8.4564 0.0000 0.0000 0.0000
# 2 56.4422 91.3305 17.2385 0.0000 0.0000 0.0000
# 3 8.4564 17.2385 38.0846 0.0000 0.0000 0.0000
# 4 0.0000 0.0000 0.0000 10.0203 0.0000 0.0000
# 5 0.0000 0.0000 0.0000 0.0000 -9.1094 0.0000
# 6 0.0000 0.0000 0.0000 0.0000 0.0000 24.2201
#
#
#
# Elastic Compliance Matrix: (Units=1/GPa)
#
#
# Indices 1 2 3 4 5 6 
#
# 1 0.012763 -0.008040 0.000805 0.000000 0.000000 0.000000
# 2 -0.008040 0.017036 -0.005926 0.000000 0.000000 0.000000
# 3 0.000805 -0.005926 0.028761 0.000000 0.000000 0.000000
# 4 0.000000 0.000000 0.000000 0.099797 0.000000 0.000000
# 5 0.000000 0.000000 0.000000 0.000000 -0.109777 0.000000
# 6 0.000000 0.000000 0.000000 0.000000 0.000000 0.041288
#
#
# Mechanical properties :
#
#
# Convention : Reuss Voigt Hill
#
# Bulk Modulus (GPa) = 31.01821 45.22863 38.12342
# Shear Modulus (GPa) = 39.38954 15.73596 27.56275
#
# Velocity S-wave (km/s) = 4.61713 2.91829 3.86227
# Velocity P-wave (km/s) = 6.72392 5.98609 6.36570
#
# Compressibility (1/GPa) = 0.03223913
#
# Stress axis : x y z
#
# Youngs Moduli (GPa) = 78.34850 58.69792 34.76941
#
# Poissons Ratio (x) = 0.47192 -0.02799
# Poissons Ratio (y) = 0.62991 0.20605
# Poissons Ratio (z) = -0.06308 0.34785
#
# Static dielectric constant tensor:
#      x y z
#    x 1.655190 0.000000 0.000000 
#    y 0.000000 1.653510 0.000000 
#    z 0.000000 0.000000 1.692560 
# 
# From -- ./inp_files/17390.got.cif
#   From: 2010.05.17/outbox.cif.g08.bks.cpg/sg49_9_cif.got.tgz:17390.got - 2010.06.03 21:02:19.
