data_PCOD9392523
_publ_section_title
;
Structure prediction by ZEFSAII (Michael W. Deem and Ramdas Pophale) SiO2 
 PCOD9392523
Probable space group: P C C M
;
_chemical_formula_sum "Si O2"
_cell_formula_units_Z 56
_cell_length_a 20.897976
_cell_length_b 15.686686
_cell_length_c 8.578672
_cell_angle_alpha 90.000000
_cell_angle_beta 90.000000
_cell_angle_gamma 90.000000
_cell_volume 2812.260148
_symmetry_space_group_name_H-M "P C C M"
_symmetry_group_IT_number 49
_symmetry_cell_setting 'orthorhombic'
loop_
_space_group_symop_operation_xyz
x,y,z
-x,-y,z
x,-y,1/2-z
-x,y,1/2-z
-x,-y,-z
x,y,-z
-x,y,1/2+z
x,-y,1/2+z
loop_
_atom_site_type_symbol
_atom_site_label
_atom_site_fract_x
_atom_site_fract_y
_atom_site_fract_z
Si Si1 0.930201 0.770930 0.686858
Si Si2 0.567140 0.773350 0.186548
Si Si3 0.296944 0.173322 0.183632
Si Si4 0.169846 0.908333 0.687677
Si Si5 0.600688 0.410532 0.182448
Si Si6 0.125011 0.411687 0.686750
Si Si7 0.735489 0.372180 0.317729
O O1 0.929092 0.776420 0.500000
O O2 0.877336 0.834529 0.754899
O O3 0.913189 0.673511 0.731690
O O4 0.000000 0.793308 0.750000
O O5 0.500000 0.806461 0.250000
O O6 0.630919 0.821316 0.248044
O O7 0.574207 0.674131 0.234950
O O8 0.567552 0.776848 0.000000
O O9 0.241870 0.112481 0.248166
O O10 0.269503 0.269565 0.193955
O O11 0.303297 0.153279 0.000000
O O12 0.170529 0.907965 0.500000
O O13 0.149191 0.000000 0.750000
O O14 0.576697 0.500000 0.250000
O O15 0.676912 0.407064 0.216396
O O16 0.587623 0.405328 0.000000
O O17 0.096817 0.500000 0.750000
O O18 0.129497 0.415143 0.500000
O O19 0.196053 0.401915 0.758049
O O20 0.726030 0.394929 0.500000
#
# Coordination Sequence:
#
# PCOD9392523 Si02
#       7
#     8   8   8   8   8   8   8
#     4  11  25  44  65  92 125 165 207 255 305 366
#     4  10  20  36  55  81 111 151 198 243 299 362
#     4   8  17  34  59  85 116 154 193 239 297 356
#     4  11  22  41  68  99 128 160 198 249 307 370
#     4  11  21  33  48  72 106 148 195 251 304 357
#     4  11  23  37  57  86 120 160 209 256 304 359
#     4  10  18  33  55  80 111 152 198 248 304 358
#
# _framework density 19.912808999999999
#
# number of rings (size 3 to 8) (size 9 to 14) (size 15 to 20)
#    0.000    1.714    1.429    4.714    0.000    2.571 
#    0.000    6.429    0.000    0.429    0.000    3.000 
#    0.000    0.000    0.000    0.000    0.000    0.000 
#
# Total GULP energy -312869.450428 kJ/mol
# GULP energy per Si atom -5586.954472 kJ/mol
# Density = 1.986749 g / cm^3
# Si number density = 19.912809 Si / 1000 Ang^3
#
#
#
# Elastic Constant Matrix: (Units=GPa)
#
#
# Indices 1 2 3 4 5 6 
#
# 1 117.7270 42.0989 23.0543 0.0000 0.0000 0.0000
# 2 42.0989 83.1492 25.6565 0.0000 0.0000 0.0000
# 3 23.0543 25.6565 66.3454 0.0000 0.0000 0.0000
# 4 0.0000 0.0000 0.0000 17.3109 0.0000 0.0000
# 5 0.0000 0.0000 0.0000 0.0000 22.3943 0.0000
# 6 0.0000 0.0000 0.0000 0.0000 0.0000 2.9025
#
#
#
# Elastic Compliance Matrix: (Units=1/GPa)
#
#
# Indices 1 2 3 4 5 6 
#
# 1 0.010562 -0.004786 -0.001819 0.000000 0.000000 0.000000
# 2 -0.004786 0.015825 -0.004457 0.000000 0.000000 0.000000
# 3 -0.001819 -0.004457 0.017428 0.000000 0.000000 0.000000
# 4 0.000000 0.000000 0.000000 0.057767 0.000000 0.000000
# 5 0.000000 0.000000 0.000000 0.000000 0.044654 0.000000
# 6 0.000000 0.000000 0.000000 0.000000 0.000000 0.344527
#
#
# Mechanical properties :
#
#
# Convention : Reuss Voigt Hill
#
# Bulk Modulus (GPa) = 46.10190 49.87124 47.98657
# Shear Modulus (GPa) = 9.61321 20.28233 14.94777
#
# Velocity S-wave (km/s) = 2.19957 3.19495 2.74279
# Velocity P-wave (km/s) = 5.44546 6.22169 5.84647
#
# Compressibility (1/GPa) = 0.02169108
#
# Stress axis : x y z
#
# Youngs Moduli (GPa) = 94.67852 63.19120 57.37821
#
# Poissons Ratio (x) = 0.30245 0.10439
# Poissons Ratio (y) = 0.45316 0.25571
# Poissons Ratio (z) = 0.17225 0.28161
#
# Static dielectric constant tensor:
#      x y z
#    x 1.721390 0.000000 0.000000 
#    y 0.000000 1.702740 0.000000 
#    z 0.000000 0.000000 1.671250 
# 
# From -- ./inp_files/5777.got.cif
#   From: 2010.05.17/outbox.cif.g08.bks.cpg/sg49_3_cif.got.tgz:5777.got - 2010.06.03 21:02:19.
