data_PCOD9392772
_publ_section_title
;
Structure prediction by ZEFSAII (Michael W. Deem and Ramdas Pophale) SiO2 
 PCOD9392772
Probable space group: P C C M
;
_chemical_formula_sum "Si O2"
_cell_formula_units_Z 64
_cell_length_a 23.367070
_cell_length_b 19.034535
_cell_length_c 8.652390
_cell_angle_alpha 90.000000
_cell_angle_beta 90.000000
_cell_angle_gamma 90.000000
_cell_volume 3848.421374
_symmetry_space_group_name_H-M "P C C M"
_symmetry_group_IT_number 49
_symmetry_cell_setting 'orthorhombic'
loop_
_space_group_symop_operation_xyz
x,y,z
-x,-y,z
x,-y,1/2-z
-x,y,1/2-z
-x,-y,-z
x,y,-z
-x,y,1/2+z
x,-y,1/2+z
loop_
_atom_site_type_symbol
_atom_site_label
_atom_site_fract_x
_atom_site_fract_y
_atom_site_fract_z
Si Si1 0.564148 0.424945 0.684060
Si Si2 0.650908 0.315791 0.180651
Si Si3 0.252740 0.785052 0.813142
Si Si4 0.736472 0.575717 0.179401
Si Si5 0.815254 0.925656 0.684722
Si Si6 0.061523 0.880872 0.316476
Si Si7 0.943861 0.725244 0.320890
Si Si8 0.836373 0.325702 0.324107
O O1 0.587994 0.500000 0.750000
O O2 0.500000 0.419478 0.750000
O O3 0.563018 0.430826 0.500000
O O4 0.598942 0.354927 0.732589
O O5 0.682767 0.242317 0.226820
O O6 0.701162 0.371509 0.213700
O O7 0.636428 0.311452 0.000000
O O8 0.229544 0.863066 0.777019
O O9 0.208606 0.734403 0.724888
O O10 0.247204 0.775375 0.000000
O O11 0.730631 0.500000 0.250000
O O12 0.801424 0.602436 0.181408
O O13 0.716437 0.579957 0.000000
O O14 0.820018 0.927994 0.500000
O O15 0.879459 0.912215 0.749913
O O16 0.795138 0.000000 0.750000
O O17 0.060840 0.889471 0.500000
O O18 0.064292 0.798691 0.269362
O O19 0.000000 0.906988 0.250000
O O20 0.951459 0.741933 0.500000
O O21 0.888717 0.678929 0.291029
O O22 0.000000 0.690792 0.250000
O O23 0.855744 0.312958 0.500000
#
# Coordination Sequence:
#
# PCOD9392772 Si02
#       8
#     8   8   8   8   8   8   8   8
#     4  11  21  34  51  75 108 147 183 217 249 291
#     4  10  19  33  52  74 100 135 172 211 248 285
#     4   9  19  34  52  71  96 127 165 204 245 292
#     4  10  20  32  47  70  97 126 160 200 241 289
#     4  11  22  36  52  73  99 131 165 203 251 305
#     4  11  21  34  51  71  94 124 158 200 245 299
#     4  11  20  31  48  69  91 116 149 190 237 290
#     4  10  19  31  49  70  92 118 153 194 241 288
#
# _framework density 16.630195000000001
#
# number of rings (size 3 to 8) (size 9 to 14) (size 15 to 20)
#    0.000    1.625    1.250    6.375    0.000    2.750 
#    0.000    1.250    0.000    0.375    0.000    2.625 
#    0.000    0.500    0.000    5.750    0.000    1.750 
#
# Total GULP energy -356805.783070 kJ/mol
# GULP energy per Si atom -5575.090360 kJ/mol
# Density = 1.659234 g / cm^3
# Si number density = 16.630195 Si / 1000 Ang^3
#
#
#
# Elastic Constant Matrix: (Units=GPa)
#
#
# Indices 1 2 3 4 5 6 
#
# 1 75.8518 38.5650 31.0092 0.0000 0.0000 0.0000
# 2 38.5650 70.4522 22.1048 0.0000 0.0000 0.0000
# 3 31.0092 22.1048 82.0795 0.0000 0.0000 0.0000
# 4 0.0000 0.0000 0.0000 18.9995 0.0000 0.0000
# 5 0.0000 0.0000 0.0000 0.0000 24.0805 0.0000
# 6 0.0000 0.0000 0.0000 0.0000 0.0000 10.9863
#
#
#
# Elastic Compliance Matrix: (Units=1/GPa)
#
#
# Indices 1 2 3 4 5 6 
#
# 1 0.020007 -0.009372 -0.005034 0.000000 0.000000 0.000000
# 2 -0.009372 0.019894 -0.001817 0.000000 0.000000 0.000000
# 3 -0.005034 -0.001817 0.014575 0.000000 0.000000 0.000000
# 4 0.000000 0.000000 0.000000 0.052633 0.000000 0.000000
# 5 0.000000 0.000000 0.000000 0.000000 0.041527 0.000000
# 6 0.000000 0.000000 0.000000 0.000000 0.000000 0.091023
#
#
# Mechanical properties :
#
#
# Convention : Reuss Voigt Hill
#
# Bulk Modulus (GPa) = 45.39532 45.74906 45.57219
# Shear Modulus (GPa) = 17.89240 19.92689 18.90965
#
# Velocity S-wave (km/s) = 3.28365 3.46531 3.37570
# Velocity P-wave (km/s) = 6.46008 6.60155 6.53120
#
# Compressibility (1/GPa) = 0.02202870
#
# Stress axis : x y z
#
# Youngs Moduli (GPa) = 49.98336 50.26585 68.61224
#
# Poissons Ratio (x) = 0.47109 0.34543
# Poissons Ratio (y) = 0.46844 0.12467
# Poissons Ratio (z) = 0.25164 0.09134
#
# Static dielectric constant tensor:
#      x y z
#    x 1.607140 0.000000 0.000000 
#    y 0.000000 1.579500 0.000000 
#    z 0.000000 0.000000 1.208730 
# 
# From -- ./inp_files/5385.got.cif
#   From: 2010.05.17/outbox.cif.g08.bks.cpg/sg49_3_cif.got.tgz:5385.got - 2010.06.03 21:02:19.
