data_PCOD9392656
_publ_section_title
;
Structure prediction by ZEFSAII (Michael W. Deem and Ramdas Pophale) SiO2 
 PCOD9392656
Probable space group: P C C M
;
_chemical_formula_sum "Si O2"
_cell_formula_units_Z 56
_cell_length_a 21.887358
_cell_length_b 18.712087
_cell_length_c 8.914882
_cell_angle_alpha 90.000000
_cell_angle_beta 90.000000
_cell_angle_gamma 90.000000
_cell_volume 3651.162554
_symmetry_space_group_name_H-M "P C C M"
_symmetry_group_IT_number 49
_symmetry_cell_setting 'orthorhombic'
loop_
_space_group_symop_operation_xyz
x,y,z
-x,-y,z
x,-y,1/2-z
-x,y,1/2-z
-x,-y,-z
x,y,-z
-x,y,1/2+z
x,-y,1/2+z
loop_
_atom_site_type_symbol
_atom_site_label
_atom_site_fract_x
_atom_site_fract_y
_atom_site_fract_z
Si Si1 0.685760 0.577298 0.178218
Si Si2 0.936760 0.921544 0.320429
Si Si3 0.563438 0.336297 0.679644
Si Si4 0.693983 0.921875 0.820260
Si Si5 0.374032 0.205391 0.673060
Si Si6 0.810774 0.156405 0.819026
Si Si7 0.248295 0.297436 0.328401
O O1 0.692862 0.500000 0.250000
O O2 0.620181 0.612296 0.221408
O O3 0.737142 0.633263 0.231781
O O4 0.686875 0.571506 0.000000
O O5 0.943022 0.927894 0.500000
O O6 0.877751 0.873578 0.287426
O O7 0.000000 0.893902 0.250000
O O8 0.926766 0.000000 0.250000
O O9 0.500000 0.361531 0.750000
O O10 0.559608 0.333353 0.500000
O O11 0.578933 0.257768 0.744622
O O12 0.642608 0.867232 0.758788
O O13 0.758931 0.890185 0.762851
O O14 0.685952 0.000000 0.750000
O O15 0.693343 0.924448 0.000000
O O16 0.391283 0.192447 0.500000
O O17 0.310598 0.250402 0.672145
O O18 0.801560 0.239548 0.776724
O O19 0.799942 0.151600 0.000000
O O20 0.235805 0.318651 0.500000
#
# Coordination Sequence:
#
# PCOD9392656 Si02
#       7
#     8   8   8   8   8   8   8
#     4  10  20  32  47  68  94 121 148 178 217 263
#     4  10  19  30  43  61  89 125 163 197 232 269
#     4  10  20  33  49  69  90 117 152 184 216 259
#     4  11  20  29  44  66  90 115 146 186 230 274
#     4   9  17  31  48  65  87 114 144 182 226 268
#     4   9  18  31  46  65  89 119 154 191 229 270
#     4   8  15  29  47  65  87 114 144 180 223 266
#
# _framework density 15.337581
#
# number of rings (size 3 to 8) (size 9 to 14) (size 15 to 20)
#    0.000    2.429    0.000    4.714    0.000    7.714 
#    0.000    1.429    0.000    0.429    0.000    3.000 
#    0.000    0.571    0.000    6.571    0.000    2.000 
#
# Total GULP energy -312193.042286 kJ/mol
# GULP energy per Si atom -5574.875755 kJ/mol
# Density = 1.530267 g / cm^3
# Si number density = 15.337581 Si / 1000 Ang^3
#
#
#
# Elastic Constant Matrix: (Units=GPa)
#
#
# Indices 1 2 3 4 5 6 
#
# 1 40.5396 30.4025 17.7317 0.0000 0.0000 0.0000
# 2 30.4025 117.8815 49.7504 0.0000 0.0000 0.0000
# 3 17.7317 49.7504 68.6086 0.0000 0.0000 0.0000
# 4 0.0000 0.0000 0.0000 23.5985 0.0000 0.0000
# 5 0.0000 0.0000 0.0000 0.0000 14.0065 0.0000
# 6 0.0000 0.0000 0.0000 0.0000 0.0000 16.5673
#
#
#
# Elastic Compliance Matrix: (Units=1/GPa)
#
#
# Indices 1 2 3 4 5 6 
#
# 1 0.031062 -0.006662 -0.003197 0.000000 0.000000 0.000000
# 2 -0.006662 0.013653 -0.008178 0.000000 0.000000 0.000000
# 3 -0.003197 -0.008178 0.021332 0.000000 0.000000 0.000000
# 4 0.000000 0.000000 0.000000 0.042376 0.000000 0.000000
# 5 0.000000 0.000000 0.000000 0.000000 0.071396 0.000000
# 6 0.000000 0.000000 0.000000 0.000000 0.000000 0.060360
#
#
# Mechanical properties :
#
#
# Convention : Reuss Voigt Hill
#
# Bulk Modulus (GPa) = 33.36446 46.97768 40.17107
# Shear Modulus (GPa) = 17.46769 19.44412 18.45590
#
# Velocity S-wave (km/s) = 3.37839 3.56440 3.47264
# Velocity P-wave (km/s) = 6.08430 6.90185 6.50593
#
# Compressibility (1/GPa) = 0.02997201
#
# Stress axis : x y z
#
# Youngs Moduli (GPa) = 32.19408 73.24521 46.87762
#
# Poissons Ratio (x) = 0.48794 0.14988
# Poissons Ratio (y) = 0.21447 0.38338
# Poissons Ratio (z) = 0.10293 0.59903
#
# Static dielectric constant tensor:
#      x y z
#    x 1.505810 0.000000 0.000000 
#    y 0.000000 1.504910 0.000000 
#    z 0.000000 0.000000 1.514900 
# 
# From -- ./inp_files/5888.got.cif
#   From: 2010.05.17/outbox.cif.g08.bks.cpg/sg49_3_cif.got.tgz:5888.got - 2010.06.03 21:02:19.
