data_PCOD9392915
_publ_section_title
;
Structure prediction by ZEFSAII (Michael W. Deem and Ramdas Pophale) SiO2 
 PCOD9392915
Probable space group: P C C M
;
_chemical_formula_sum "Si O2"
_cell_formula_units_Z 64
_cell_length_a 21.098415
_cell_length_b 20.051804
_cell_length_c 8.701833
_cell_angle_alpha 90.000000
_cell_angle_beta 90.000000
_cell_angle_gamma 90.000000
_cell_volume 3681.408627
_symmetry_space_group_name_H-M "P C C M"
_symmetry_group_IT_number 49
_symmetry_cell_setting 'orthorhombic'
loop_
_space_group_symop_operation_xyz
x,y,z
-x,-y,z
x,-y,1/2-z
-x,y,1/2-z
-x,-y,-z
x,y,-z
-x,y,1/2+z
x,-y,1/2+z
loop_
_atom_site_type_symbol
_atom_site_label
_atom_site_fract_x
_atom_site_fract_y
_atom_site_fract_z
Si Si1 0.933960 0.708225 0.182784
Si Si2 0.377984 0.929622 0.315579
Si Si3 0.743832 0.430963 0.316403
Si Si4 0.114178 0.429050 0.683584
Si Si5 0.764055 0.930177 0.683939
Si Si6 0.184092 0.212338 0.683174
Si Si7 0.432756 0.211388 0.815098
Si Si8 0.693949 0.287403 0.315355
O O1 0.922432 0.634434 0.251177
O O2 0.875119 0.753665 0.234228
O O3 0.000000 0.734334 0.250000
O O4 0.936577 0.704108 0.000000
O O5 0.376548 0.932822 0.500000
O O6 0.306046 0.920681 0.255336
O O7 0.417519 0.864840 0.267355
O O8 0.401779 0.000000 0.250000
O O9 0.717379 0.500000 0.250000
O O10 0.752968 0.436660 0.500000
O O11 0.812814 0.421490 0.239283
O O12 0.702043 0.365903 0.284768
O O13 0.091497 0.500000 0.750000
O O14 0.111649 0.429996 0.500000
O O15 0.757459 0.934913 0.500000
O O16 0.806021 0.865636 0.720423
O O17 0.788968 0.000000 0.750000
O O18 0.176452 0.219538 0.500000
O O19 0.248235 0.249419 0.735028
O O20 0.500000 0.233060 0.750000
O O21 0.373169 0.256698 0.767034
O O22 0.435249 0.212692 0.000000
O O23 0.700349 0.277597 0.500000
#
# Coordination Sequence:
#
# PCOD9392915 Si02
#       8
#     8   8   8   8   8   8   8   8
#     4  12  25  41  59  82 114 152 190 232 281 331
#     4  10  19  32  51  75 107 145 184 224 271 326
#     4  10  19  32  54  82 111 144 181 227 281 330
#     4  11  21  35  55  82 115 151 191 229 273 329
#     4  10  20  33  54  84 114 144 182 227 276 327
#     4  11  22  36  58  87 113 144 187 232 276 330
#     4  10  22  37  53  76 107 146 187 231 280 334
#     4  10  20  36  57  80 109 146 186 227 280 335
#
# _framework density 17.384650000000001
#
# number of rings (size 3 to 8) (size 9 to 14) (size 15 to 20)
#    0.000    1.500    2.500    5.250    0.000    4.000 
#    0.000    2.500    0.000    0.750    0.000    5.250 
#    0.000    0.000    0.000    0.000    0.000    0.000 
#
# Total GULP energy -357547.654373 kJ/mol
# GULP energy per Si atom -5586.682100 kJ/mol
# Density = 1.734508 g / cm^3
# Si number density = 17.384650 Si / 1000 Ang^3
#
#
#
# Elastic Constant Matrix: (Units=GPa)
#
#
# Indices 1 2 3 4 5 6 
#
# 1 106.5332 56.5044 40.3229 0.0000 0.0000 0.0000
# 2 56.5044 111.8293 52.0880 0.0000 0.0000 0.0000
# 3 40.3229 52.0880 88.3564 0.0000 0.0000 0.0000
# 4 0.0000 0.0000 0.0000 30.1357 0.0000 0.0000
# 5 0.0000 0.0000 0.0000 0.0000 23.7092 0.0000
# 6 0.0000 0.0000 0.0000 0.0000 0.0000 17.9550
#
#
#
# Elastic Compliance Matrix: (Units=1/GPa)
#
#
# Indices 1 2 3 4 5 6 
#
# 1 0.013347 -0.005386 -0.002916 0.000000 0.000000 0.000000
# 2 -0.005386 0.014500 -0.006090 0.000000 0.000000 0.000000
# 3 -0.002916 -0.006090 0.016239 0.000000 0.000000 0.000000
# 4 0.000000 0.000000 0.000000 0.033183 0.000000 0.000000
# 5 0.000000 0.000000 0.000000 0.000000 0.042178 0.000000
# 6 0.000000 0.000000 0.000000 0.000000 0.000000 0.055695
#
#
# Mechanical properties :
#
#
# Convention : Reuss Voigt Hill
#
# Bulk Modulus (GPa) = 65.35125 67.17219 66.26172
# Shear Modulus (GPa) = 23.92034 24.88020 24.40027
#
# Velocity S-wave (km/s) = 3.71340 3.78717 3.75047
# Velocity P-wave (km/s) = 7.48724 7.60567 7.54669
#
# Compressibility (1/GPa) = 0.01530193
#
# Stress axis : x y z
#
# Youngs Moduli (GPa) = 74.92325 68.96478 61.57986
#
# Poissons Ratio (x) = 0.37141 0.17958
# Poissons Ratio (y) = 0.40350 0.37504
# Poissons Ratio (z) = 0.21849 0.42002
#
# Static dielectric constant tensor:
#      x y z
#    x 1.571030 0.000000 0.000000 
#    y 0.000000 1.607630 0.000000 
#    z 0.000000 0.000000 1.576120 
# 
# From -- ./inp_files/5282.got.cif
#   From: 2010.05.17/outbox.cif.g08.bks.cpg/sg49_3_cif.got.tgz:5282.got - 2010.06.03 21:02:19.
