data_PCOD9392663
_publ_section_title
;
Structure prediction by ZEFSAII (Michael W. Deem and Ramdas Pophale) SiO2 
 PCOD9392663
Probable space group: P C C M
;
_chemical_formula_sum "Si O2"
_cell_formula_units_Z 64
_cell_length_a 14.523694
_cell_length_b 7.977882
_cell_length_c 31.214946
_cell_angle_alpha 90.000000
_cell_angle_beta 90.000000
_cell_angle_gamma 90.000000
_cell_volume 3616.823256
_symmetry_space_group_name_H-M "P C C M"
_symmetry_group_IT_number 49
_symmetry_cell_setting 'orthorhombic'
loop_
_space_group_symop_operation_xyz
x,y,z
-x,-y,z
x,-y,1/2-z
-x,y,1/2-z
-x,-y,-z
x,y,-z
-x,y,1/2+z
x,-y,1/2+z
loop_
_atom_site_type_symbol
_atom_site_label
_atom_site_fract_x
_atom_site_fract_y
_atom_site_fract_z
Si Si1 0.032563 0.185413 0.314597
Si Si2 0.710107 0.686151 0.176328
Si Si3 0.511422 0.802851 0.201269
Si Si4 0.803470 0.196060 0.239067
Si Si5 0.996573 0.296493 0.952244
Si Si6 0.325074 0.703491 0.838484
Si Si7 0.120486 0.327294 0.872979
Si Si8 0.157521 0.275756 0.390146
O O1 0.097454 0.257795 0.277570
O O2 0.102623 0.168789 0.354813
O O3 0.948706 0.291782 0.333565
O O4 0.000000 0.000000 0.302748
O O5 0.612777 0.772890 0.183071
O O6 0.765551 0.705597 0.220463
O O7 0.688352 0.493851 0.167342
O O8 0.780387 0.747179 0.139574
O O9 0.500000 0.730282 0.250000
O O10 0.431864 0.740809 0.169157
O O11 0.500000 0.000000 0.205273
O O12 0.729317 0.212491 0.201095
O O13 0.811104 0.000000 0.250000
O O14 0.895414 0.246270 0.934614
O O15 0.000000 0.500000 0.954147
O O16 0.071304 0.254718 0.915392
O O17 0.014904 0.232521 0.000000
O O18 0.265829 0.749814 0.881008
O O19 0.134078 0.527800 0.879090
#
# Coordination Sequence:
#
# PCOD9392663 Si02
#       8
#     8   8   8   8   8   8   8   8
#     4  10  19  30  44  62  88 127 160 192 230 269
#     4  11  21  32  49  67  89 123 159 198 238 280
#     4  11  22  35  51  68  90 118 158 209 246 278
#     4  11  21  31  43  62  89 121 164 200 232 270
#     4   8  13  26  51  77 100 126 151 181 226 278
#     4  10  20  34  49  67  89 121 158 200 241 277
#     4   9  18  32  47  69  97 122 156 193 229 274
#     4   8  17  32  49  69  96 121 154 195 228 277
#
# _framework density 17.695086
#
# number of rings (size 3 to 8) (size 9 to 14) (size 15 to 20)
#    0.000    2.250    1.250    3.375    0.000    3.250 
#    0.000    1.250    0.000   19.500    0.000    0.875 
#    0.000    7.000    0.000    0.000    0.000    0.000 
#
# Total GULP energy -356799.158780 kJ/mol
# GULP energy per Si atom -5574.986856 kJ/mol
# Density = 1.765481 g / cm^3
# Si number density = 17.695086 Si / 1000 Ang^3
#
#
#
# Elastic Constant Matrix: (Units=GPa)
#
#
# Indices 1 2 3 4 5 6 
#
# 1 155.6418 16.1818 68.9644 0.0000 0.0000 0.0000
# 2 16.1818 17.7842 9.3878 0.0000 0.0000 0.0000
# 3 68.9644 9.3878 88.2719 0.0000 0.0000 0.0000
# 4 0.0000 0.0000 0.0000 -7.5258 0.0000 0.0000
# 5 0.0000 0.0000 0.0000 0.0000 16.3508 0.0000
# 6 0.0000 0.0000 0.0000 0.0000 0.0000 23.0882
#
#
#
# Elastic Compliance Matrix: (Units=1/GPa)
#
#
# Indices 1 2 3 4 5 6 
#
# 1 0.010299 -0.005428 -0.007469 0.000000 0.000000 0.000000
# 2 -0.005428 0.062435 -0.002399 0.000000 0.000000 0.000000
# 3 -0.007469 -0.002399 0.017419 0.000000 0.000000 0.000000
# 4 0.000000 0.000000 0.000000 -0.132876 0.000000 0.000000
# 5 0.000000 0.000000 0.000000 0.000000 0.061159 0.000000
# 6 0.000000 0.000000 0.000000 0.000000 0.000000 0.043312
#
#
# Mechanical properties :
#
#
# Convention : Reuss Voigt Hill
#
# Bulk Modulus (GPa) = 16.78959 50.08509 33.43734
# Shear Modulus (GPa) = 44.56532 17.52690 31.04611
#
# Velocity S-wave (km/s) = 5.02392 3.15063 4.19322
# Velocity P-wave (km/s) = 6.56978 6.44990 6.51012
#
# Compressibility (1/GPa) = 0.05956072
#
# Stress axis : x y z
#
# Youngs Moduli (GPa) = 97.09860 16.01654 57.40856
#
# Poissons Ratio (x) = 0.08694 0.42878
# Poissons Ratio (y) = 0.52708 0.13773
# Poissons Ratio (z) = 0.72522 0.03843
#
# Static dielectric constant tensor:
#      x y z
#    x 1.666000 0.000000 0.000000 
#    y 0.000000 1.634550 0.000000 
#    z 0.000000 0.000000 1.617340 
# 
# From -- ./inp_files/26824.got.cif
#   From: 2010.05.17/outbox.cif.g08.bks.cpg/sg49_14_cif.got.tgz:26824.got - 2010.06.03 21:02:19.
