data_PCOD9392298
_publ_section_title
;
Structure prediction by ZEFSAII (Michael W. Deem and Ramdas Pophale) SiO2 
 PCOD9392298
Probable space group: P C C M
;
_chemical_formula_sum "Si O2"
_cell_formula_units_Z 56
_cell_length_a 21.914754
_cell_length_b 18.948726
_cell_length_c 8.902169
_cell_angle_alpha 90.000000
_cell_angle_beta 90.000000
_cell_angle_gamma 90.000000
_cell_volume 3696.685045
_symmetry_space_group_name_H-M "P C C M"
_symmetry_group_IT_number 49
_symmetry_cell_setting 'orthorhombic'
loop_
_space_group_symop_operation_xyz
x,y,z
-x,-y,z
x,-y,1/2-z
-x,y,1/2-z
-x,-y,-z
x,y,-z
-x,y,1/2+z
x,-y,1/2+z
loop_
_atom_site_type_symbol
_atom_site_label
_atom_site_fract_x
_atom_site_fract_y
_atom_site_fract_z
Si Si1 0.936155 0.422427 0.819524
Si Si2 0.697216 0.424046 0.678310
Si Si3 0.249204 0.204365 0.322325
Si Si4 0.637511 0.716164 0.179183
Si Si5 0.812379 0.657345 0.319435
Si Si6 0.689775 0.076692 0.320112
Si Si7 0.436490 0.153273 0.821482
O O1 0.925333 0.500000 0.750000
O O2 0.878490 0.373544 0.782733
O O3 0.000000 0.396741 0.750000
O O4 0.941428 0.428039 0.000000
O O5 0.686921 0.500000 0.750000
O O6 0.703725 0.431742 0.500000
O O7 0.643114 0.367078 0.707306
O O8 0.759288 0.388785 0.742084
O O9 0.246964 0.191339 0.500000
O O10 0.309429 0.248739 0.277594
O O11 0.196369 0.260036 0.279668
O O12 0.258668 0.131169 0.236526
O O13 0.578707 0.764098 0.210991
O O14 0.651242 0.726780 0.000000
O O15 0.803637 0.651842 0.500000
O O16 0.690663 0.073687 0.500000
O O17 0.623412 0.108980 0.273690
O O18 0.697252 0.000000 0.250000
O O19 0.500000 0.131198 0.750000
O O20 0.441458 0.145551 0.000000
#
# Coordination Sequence:
#
# PCOD9392298 Si02
#       7
#     8   8   8   8   8   8   8
#     4  10  19  30  42  59  86 121 157 190 221 254
#     4  10  18  27  42  62  84 108 138 177 221 263
#     4   9  16  28  46  66  86 110 140 175 213 254
#     4   8  16  30  43  58  82 110 137 171 213 257
#     4   9  18  30  44  63  87 114 147 182 216 256
#     4  10  20  33  47  66  92 118 141 169 206 250
#     4   9  18  31  46  63  83 108 141 174 206 247
#
# _framework density 15.148707999999999
#
# number of rings (size 3 to 8) (size 9 to 14) (size 15 to 20)
#    0.000    2.714    0.000    3.429    0.000    6.571 
#    0.000    1.429    0.000    0.429    0.000    3.000 
#    0.000    0.571    0.000    6.571    0.000    2.000 
#
# Total GULP energy -311750.289850 kJ/mol
# GULP energy per Si atom -5566.969462 kJ/mol
# Density = 1.511423 g / cm^3
# Si number density = 15.148708 Si / 1000 Ang^3
#
#
#
# Elastic Constant Matrix: (Units=GPa)
#
#
# Indices 1 2 3 4 5 6 
#
# 1 38.0092 27.9391 16.3383 0.0000 0.0000 0.0000
# 2 27.9391 120.4940 38.0990 0.0000 0.0000 0.0000
# 3 16.3383 38.0990 34.1675 0.0000 0.0000 0.0000
# 4 0.0000 0.0000 0.0000 23.0024 0.0000 0.0000
# 5 0.0000 0.0000 0.0000 0.0000 17.0338 0.0000
# 6 0.0000 0.0000 0.0000 0.0000 0.0000 16.5705
#
#
#
# Elastic Compliance Matrix: (Units=1/GPa)
#
#
# Indices 1 2 3 4 5 6 
#
# 1 0.034500 -0.004299 -0.011704 0.000000 0.000000 0.000000
# 2 -0.004299 0.013354 -0.012835 0.000000 0.000000 0.000000
# 3 -0.011704 -0.012835 0.049176 0.000000 0.000000 0.000000
# 4 0.000000 0.000000 0.000000 0.043474 0.000000 0.000000
# 5 0.000000 0.000000 0.000000 0.000000 0.058707 0.000000
# 6 0.000000 0.000000 0.000000 0.000000 0.000000 0.060348
#
#
# Mechanical properties :
#
#
# Convention : Reuss Voigt Hill
#
# Bulk Modulus (GPa) = 25.40983 39.71372 32.56178
# Shear Modulus (GPa) = 15.13528 18.67429 16.90479
#
# Velocity S-wave (km/s) = 3.16431 3.51484 3.34417
# Velocity P-wave (km/s) = 5.49185 6.53796 6.03761
#
# Compressibility (1/GPa) = 0.03935484
#
# Stress axis : x y z
#
# Youngs Moduli (GPa) = 28.98528 74.88185 20.33506
#
# Poissons Ratio (x) = 0.32192 0.23800
# Poissons Ratio (y) = 0.12461 0.26101
# Poissons Ratio (z) = 0.33923 0.96113
#
# Static dielectric constant tensor:
#      x y z
#    x 1.488850 0.000000 0.000000 
#    y 0.000000 1.528210 0.000000 
#    z 0.000000 0.000000 1.509820 
# 
# From -- ./inp_files/5183.got.cif
#   From: 2010.05.17/outbox.cif.g08.bks.cpg/sg49_3_cif.got.tgz:5183.got - 2010.06.03 21:02:19.
