data_PCOD9392868
_publ_section_title
;
Structure prediction by ZEFSAII (Michael W. Deem and Ramdas Pophale) SiO2 
 PCOD9392868
Probable space group: P C C M
;
_chemical_formula_sum "Si O2"
_cell_formula_units_Z 64
_cell_length_a 28.608894
_cell_length_b 14.639479
_cell_length_c 8.859469
_cell_angle_alpha 90.000000
_cell_angle_beta 90.000000
_cell_angle_gamma 90.000000
_cell_volume 3710.516631
_symmetry_space_group_name_H-M "P C C M"
_symmetry_group_IT_number 49
_symmetry_cell_setting 'orthorhombic'
loop_
_space_group_symop_operation_xyz
x,y,z
-x,-y,z
x,-y,1/2-z
-x,y,1/2-z
-x,-y,-z
x,y,-z
-x,y,1/2+z
x,-y,1/2+z
loop_
_atom_site_type_symbol
_atom_site_label
_atom_site_fract_x
_atom_site_fract_y
_atom_site_fract_z
Si Si1 0.050172 0.100756 0.181724
Si Si2 0.674068 0.908091 0.320068
Si Si3 0.863147 0.205196 0.181654
Si Si4 0.169975 0.591767 0.821308
Si Si5 0.735774 0.643727 0.830110
Si Si6 0.450848 0.399383 0.681297
Si Si7 0.769261 0.854473 0.171473
Si Si8 0.356709 0.294391 0.681142
O O1 0.090829 0.166961 0.239265
O O2 0.000000 0.128894 0.250000
O O3 0.059622 0.000000 0.250000
O O4 0.048261 0.096521 0.000000
O O5 0.673623 0.914385 0.500000
O O6 0.727351 0.901184 0.261401
O O7 0.649746 0.812202 0.275444
O O8 0.652937 0.000000 0.250000
O O9 0.853981 0.311887 0.221445
O O10 0.818417 0.148545 0.242444
O O11 0.865941 0.197654 0.000000
O O12 0.149189 0.500000 0.750000
O O13 0.223805 0.598545 0.768196
O O14 0.168270 0.584540 0.000000
O O15 0.752344 0.749241 0.838089
O O16 0.684624 0.647334 0.757646
O O17 0.734910 0.606145 0.000000
O O18 0.442531 0.500000 0.750000
O O19 0.500000 0.366554 0.750000
O O20 0.454664 0.406159 0.500000
O O21 0.407210 0.334751 0.718940
O O22 0.773884 0.889683 0.000000
O O23 0.350374 0.299383 0.500000
#
# Coordination Sequence:
#
# PCOD9392868 Si02
#       8
#     8   8   8   8   8   8   8   8
#     4  11  22  38  59  82 107 134 166 209 258 311
#     4  10  19  32  49  71 100 135 171 208 247 292
#     4  10  20  35  54  78 106 138 174 214 258 304
#     4  10  20  33  51  74 106 143 178 214 253 298
#     4   9  17  29  47  70  98 130 168 208 246 289
#     4  10  20  35  54  76  99 125 157 199 249 302
#     4   9  17  30  47  70  98 131 169 207 245 290
#     4   9  19  34  51  71 100 134 167 203 249 300
#
# _framework density 17.248272
#
# number of rings (size 3 to 8) (size 9 to 14) (size 15 to 20)
#    0.000    2.250    0.000    4.125    0.000    7.000 
#    0.000    3.750    0.000    0.750    0.000    5.250 
#    0.000    0.000    0.000    0.000    0.000    0.000 
#
# Total GULP energy -357031.706331 kJ/mol
# GULP energy per Si atom -5578.620411 kJ/mol
# Density = 1.720901 g / cm^3
# Si number density = 17.248272 Si / 1000 Ang^3
#
#
#
# Elastic Constant Matrix: (Units=GPa)
#
#
# Indices 1 2 3 4 5 6 
#
# 1 137.3887 65.7172 58.9809 0.0000 0.0000 0.0000
# 2 65.7172 78.0447 41.4329 0.0000 0.0000 0.0000
# 3 58.9809 41.4329 87.0113 0.0000 0.0000 0.0000
# 4 0.0000 0.0000 0.0000 26.3235 0.0000 0.0000
# 5 0.0000 0.0000 0.0000 0.0000 24.9170 0.0000
# 6 0.0000 0.0000 0.0000 0.0000 0.0000 20.8640
#
#
#
# Elastic Compliance Matrix: (Units=1/GPa)
#
#
# Indices 1 2 3 4 5 6 
#
# 1 0.013675 -0.008825 -0.005068 0.000000 0.000000 0.000000
# 2 -0.008825 0.022843 -0.004895 0.000000 0.000000 0.000000
# 3 -0.005068 -0.004895 0.017259 0.000000 0.000000 0.000000
# 4 0.000000 0.000000 0.000000 0.037989 0.000000 0.000000
# 5 0.000000 0.000000 0.000000 0.000000 0.040133 0.000000
# 6 0.000000 0.000000 0.000000 0.000000 0.000000 0.047929
#
#
# Mechanical properties :
#
#
# Convention : Reuss Voigt Hill
#
# Bulk Modulus (GPa) = 61.72273 70.52294 66.12283
# Shear Modulus (GPa) = 22.44110 23.50848 22.97479
#
# Velocity S-wave (km/s) = 3.61094 3.69582 3.65362
# Velocity P-wave (km/s) = 7.29710 7.69336 7.49785
#
# Compressibility (1/GPa) = 0.01620149
#
# Stress axis : x y z
#
# Youngs Moduli (GPa) = 73.12402 43.77703 57.94095
#
# Poissons Ratio (x) = 0.38633 0.29363
# Poissons Ratio (y) = 0.64532 0.28364
# Poissons Ratio (z) = 0.37057 0.21430
#
# Static dielectric constant tensor:
#      x y z
#    x 1.557950 0.000000 0.000000 
#    y 0.000000 1.618690 0.000000 
#    z 0.000000 0.000000 1.588070 
# 
# From -- ./inp_files/6565.got.cif
#   From: 2010.05.17/outbox.cif.g08.bks.cpg/sg49_4_cif.got.tgz:6565.got - 2010.06.03 21:02:19.
