data_PCOD9392869
_publ_section_title
;
Structure prediction by ZEFSAII (Michael W. Deem and Ramdas Pophale) SiO2 
 PCOD9392869
Probable space group: P C C M
;
_chemical_formula_sum "Si O2"
_cell_formula_units_Z 40
_cell_length_a 22.682344
_cell_length_b 5.252656
_cell_length_c 14.641190
_cell_angle_alpha 90.000000
_cell_angle_beta 90.000000
_cell_angle_gamma 90.000000
_cell_volume 1744.388716
_symmetry_space_group_name_H-M "P C C M"
_symmetry_group_IT_number 49
_symmetry_cell_setting 'orthorhombic'
loop_
_space_group_symop_operation_xyz
x,y,z
-x,-y,z
x,-y,1/2-z
-x,y,1/2-z
-x,-y,-z
x,y,-z
-x,y,1/2+z
x,-y,1/2+z
loop_
_atom_site_type_symbol
_atom_site_label
_atom_site_fract_x
_atom_site_fract_y
_atom_site_fract_z
Si Si1 0.727162 0.478392 0.861528
Si Si2 0.137811 0.493148 0.638810
Si Si3 0.067996 0.001471 0.861494
Si Si4 0.534091 0.245811 0.609720
Si Si5 0.664598 0.031127 0.641732
O O1 0.724334 0.500000 0.750000
O O2 0.794779 0.438987 0.887923
O O3 0.709131 0.757542 0.894359
O O4 0.682503 0.252106 0.891847
O O5 0.138429 0.500000 0.750000
O O6 0.107236 0.756594 0.610084
O O7 0.098307 0.258256 0.609108
O O8 0.067794 0.000000 0.750000
O O9 0.000000 0.000000 0.890330
O O10 0.500000 0.500000 0.643200
O O11 0.529113 0.256121 0.500000
O O12 0.601679 0.169742 0.627958
O O13 0.500000 0.000000 0.644502
O O14 0.670926 0.000000 0.750000
#
# Coordination Sequence:
#
# PCOD9392869 Si02
#       5
#     8   8   8   8   8
#     4   9  17  28  43  63  88 117 152 193 236 280
#     4   9  15  23  34  49  73 107 145 186 228 268
#     4   9  15  21  30  46  70 104 149 192 223 260
#     4  10  21  37  55  74  98 128 160 193 235 291
#     4  10  19  32  49  71  95 120 155 197 234 276
#
# _framework density 22.930668000000001
#
# number of rings (size 3 to 8) (size 9 to 14) (size 15 to 20)
#    0.000    2.600    0.000    3.000    0.000    7.600 
#    0.000    1.000    0.000    0.000    0.000    0.000 
#    0.000    0.000    0.000    0.000    0.000   70.000 
#
# Total GULP energy -223171.109656 kJ/mol
# GULP energy per Si atom -5579.277741 kJ/mol
# Density = 2.287848 g / cm^3
# Si number density = 22.930668 Si / 1000 Ang^3
#
#
#
# Elastic Constant Matrix: (Units=GPa)
#
#
# Indices 1 2 3 4 5 6 
#
# 1 159.8576 86.6519 -2.8885 0.0000 0.0000 0.0000
# 2 86.6519 217.9894 12.0378 0.0000 0.0000 0.0000
# 3 -2.8885 12.0378 92.4249 0.0000 0.0000 0.0000
# 4 0.0000 0.0000 0.0000 -39.5800 0.0000 0.0000
# 5 0.0000 0.0000 0.0000 0.0000 23.7277 0.0000
# 6 0.0000 0.0000 0.0000 0.0000 0.0000 49.8935
#
#
#
# Elastic Compliance Matrix: (Units=1/GPa)
#
#
# Indices 1 2 3 4 5 6 
#
# 1 0.008015 -0.003223 0.000670 0.000000 0.000000 0.000000
# 2 -0.003223 0.005917 -0.000871 0.000000 0.000000 0.000000
# 3 0.000670 -0.000871 0.010954 0.000000 0.000000 0.000000
# 4 0.000000 0.000000 0.000000 -0.025265 0.000000 0.000000
# 5 0.000000 0.000000 0.000000 0.000000 0.042145 0.000000
# 6 0.000000 0.000000 0.000000 0.000000 0.000000 0.020043
#
#
# Mechanical properties :
#
#
# Convention : Reuss Voigt Hill
#
# Bulk Modulus (GPa) = 55.44048 73.54157 64.49103
# Shear Modulus (GPa) = 66.96316 31.77296 49.36806
#
# Velocity S-wave (km/s) = 5.40979 3.72642 4.64500
# Velocity P-wave (km/s) = 7.95305 7.11729 7.54675
#
# Compressibility (1/GPa) = 0.01803736
#
# Stress axis : x y z
#
# Youngs Moduli (GPa) = 124.77130 169.01583 91.29066
#
# Poissons Ratio (x) = 0.54472 -0.06119
# Poissons Ratio (y) = 0.40212 0.07954
# Poissons Ratio (z) = -0.08363 0.14727
#
# Static dielectric constant tensor:
#      x y z
#    x 1.886620 0.000000 0.000000 
#    y 0.000000 1.812410 0.000000 
#    z 0.000000 0.000000 1.923560 
# 
# From -- ./inp_files/20972.got.cif
#   From: 2010.05.17/outbox.cif.g08.bks.cpg/sg49_11_cif.got.tgz:20972.got - 2010.06.03 21:02:19.
