data_PCOD9392969
_publ_section_title
;
Structure prediction by ZEFSAII (Michael W. Deem and Ramdas Pophale) SiO2 
 PCOD9392969
Probable space group: P C C M
;
_chemical_formula_sum "Si O2"
_cell_formula_units_Z 56
_cell_length_a 33.497557
_cell_length_b 5.293855
_cell_length_c 14.547248
_cell_angle_alpha 90.000000
_cell_angle_beta 90.000000
_cell_angle_gamma 90.000000
_cell_volume 2579.681084
_symmetry_space_group_name_H-M "P C C M"
_symmetry_group_IT_number 49
_symmetry_cell_setting 'orthorhombic'
loop_
_space_group_symop_operation_xyz
x,y,z
-x,-y,z
x,-y,1/2-z
-x,y,1/2-z
-x,-y,-z
x,y,-z
-x,y,1/2+z
x,-y,1/2+z
loop_
_atom_site_type_symbol
_atom_site_label
_atom_site_fract_x
_atom_site_fract_y
_atom_site_fract_z
Si Si1 0.956279 0.604864 0.887622
Si Si2 0.737812 0.250944 0.812812
Si Si3 0.609153 0.175513 0.387627
Si Si4 0.090285 0.887737 0.890235
Si Si5 0.824530 0.245230 0.188088
Si Si6 0.652301 0.325567 0.890961
Si Si7 0.482493 0.750321 0.646579
O O1 0.928955 0.372893 0.858532
O O2 0.000000 0.500000 0.860214
O O3 0.935165 0.867405 0.856117
O O4 0.957696 0.622797 0.000000
O O5 0.736737 0.500000 0.750000
O O6 0.781452 0.270249 0.861361
O O7 0.698340 0.262757 0.873333
O O8 0.735213 0.000000 0.750000
O O9 0.607920 0.171580 0.500000
O O10 0.638956 0.398873 0.356877
O O11 0.564980 0.238651 0.353713
O O12 0.624790 0.902984 0.355623
O O13 0.136668 0.844591 0.867618
O O14 0.086472 0.899963 0.000000
O O15 0.831488 0.500000 0.250000
O O16 0.817963 0.000000 0.250000
O O17 0.646100 0.332886 0.000000
O O18 0.500000 0.500000 0.602484
O O19 0.500000 0.750031 0.750000
O O20 0.500000 0.000000 0.601835
#
# Coordination Sequence:
#
# PCOD9392969 Si02
#       7
#     8   8   8   8   8   8   8
#     4   9  17  30  50  78 112 143 180 238 290 329
#     4  10  21  39  57  86 113 147 189 227 278 340
#     4  10  21  38  59  82 111 147 183 222 277 335
#     4  10  19  32  54  83 107 141 196 235 274 337
#     4  10  21  37  57  77 115 152 184 230 286 345
#     4  10  21  39  60  86 116 146 183 230 282 336
#     4  10  21  38  53  78 112 141 182 227 267 319
#
# _framework density 21.708110000000001
#
# number of rings (size 3 to 8) (size 9 to 14) (size 15 to 20)
#    0.000    2.143    0.000    3.000    0.000    2.857 
#   15.429    0.000    0.000   16.714    0.000    0.000 
#    0.000    0.000    0.000    0.000    0.000    0.000 
#
# Total GULP energy -312321.758914 kJ/mol
# GULP energy per Si atom -5577.174266 kJ/mol
# Density = 2.165870 g / cm^3
# Si number density = 21.708110 Si / 1000 Ang^3
#
#
#
# Elastic Constant Matrix: (Units=GPa)
#
#
# Indices 1 2 3 4 5 6 
#
# 1 134.7558 37.1170 -10.4006 0.0000 0.0000 0.0000
# 2 37.1170 177.5890 9.2703 0.0000 0.0000 0.0000
# 3 -10.4006 9.2703 38.3454 0.0000 0.0000 0.0000
# 4 0.0000 0.0000 0.0000 6.7619 0.0000 0.0000
# 5 0.0000 0.0000 0.0000 0.0000 15.6071 0.0000
# 6 0.0000 0.0000 0.0000 0.0000 0.0000 43.6958
#
#
#
# Elastic Compliance Matrix: (Units=1/GPa)
#
#
# Indices 1 2 3 4 5 6 
#
# 1 0.008132 -0.001838 0.002650 0.000000 0.000000 0.000000
# 2 -0.001838 0.006118 -0.001978 0.000000 0.000000 0.000000
# 3 0.002650 -0.001978 0.027276 0.000000 0.000000 0.000000
# 4 0.000000 0.000000 0.000000 0.147888 0.000000 0.000000
# 5 0.000000 0.000000 0.000000 0.000000 0.064073 0.000000
# 6 0.000000 0.000000 0.000000 0.000000 0.000000 0.022885
#
#
# Mechanical properties :
#
#
# Convention : Reuss Voigt Hill
#
# Bulk Modulus (GPa) = 25.51395 46.96263 36.23829
# Shear Modulus (GPa) = 17.13688 34.19318 25.66503
#
# Velocity S-wave (km/s) = 2.81272 3.97310 3.44216
# Velocity P-wave (km/s) = 4.72517 6.53667 5.70330
#
# Compressibility (1/GPa) = 0.03919425
#
# Stress axis : x y z
#
# Youngs Moduli (GPa) = 122.97751 163.44306 36.66277
#
# Poissons Ratio (x) = 0.30039 -0.09715
# Poissons Ratio (y) = 0.22602 0.07251
# Poissons Ratio (z) = -0.32587 0.32323
#
# Static dielectric constant tensor:
#      x y z
#    x 1.880660 0.000000 0.000000 
#    y 0.000000 1.754850 0.000000 
#    z 0.000000 0.000000 1.796050 
# 
# From -- ./inp_files/14616.got.cif
#   From: 2010.05.17/outbox.cif.g08.bks.cpg/sg49_8_cif.got.tgz:14616.got - 2010.06.03 21:02:19.
