data_PCOD9392692
_publ_section_title
;
Structure prediction by ZEFSAII (Michael W. Deem and Ramdas Pophale) SiO2 
 PCOD9392692
Probable space group: P C C M
;
_chemical_formula_sum "Si O2"
_cell_formula_units_Z 64
_cell_length_a 14.960081
_cell_length_b 24.689637
_cell_length_c 8.910200
_cell_angle_alpha 90.000000
_cell_angle_beta 90.000000
_cell_angle_gamma 90.000000
_cell_volume 3291.062289
_symmetry_space_group_name_H-M "P C C M"
_symmetry_group_IT_number 49
_symmetry_cell_setting 'orthorhombic'
loop_
_space_group_symop_operation_xyz
x,y,z
-x,-y,z
x,-y,1/2-z
-x,y,1/2-z
-x,-y,-z
x,y,-z
-x,y,1/2+z
x,-y,1/2+z
loop_
_atom_site_type_symbol
_atom_site_label
_atom_site_fract_x
_atom_site_fract_y
_atom_site_fract_z
Si Si1 0.844404 0.674304 0.818517
Si Si2 0.858232 0.555870 0.173265
Si Si3 0.409968 0.778732 0.827446
Si Si4 0.273151 0.852757 0.678871
Si Si5 0.639328 0.554855 0.172115
Si Si6 0.906438 0.793883 0.180868
Si Si7 0.346929 0.660715 0.171006
Si Si8 0.403569 0.940406 0.818974
O O1 0.884024 0.615864 0.765921
O O2 0.886544 0.731507 0.769209
O O3 0.742469 0.674290 0.763074
O O4 0.845826 0.672868 0.000000
O O5 0.888002 0.500000 0.250000
O O6 0.748936 0.555696 0.178443
O O7 0.885430 0.553282 0.000000
O O8 0.500000 0.797680 0.750000
O O9 0.330072 0.800397 0.726446
O O10 0.406523 0.714005 0.829448
O O11 0.402123 0.797864 0.000000
O O12 0.277252 0.861978 0.500000
O O13 0.172597 0.835680 0.721898
O O14 0.324077 0.901068 0.764439
O O15 0.609812 0.500000 0.250000
O O16 0.609236 0.608243 0.257538
O O17 0.612676 0.556351 0.000000
O O18 0.000000 0.810791 0.250000
O O19 0.910359 0.792758 0.000000
O O20 0.320506 0.648212 0.000000
O O21 0.500000 0.923038 0.750000
O O22 0.387731 0.000000 0.750000
O O23 0.409176 0.942223 0.000000
#
# Coordination Sequence:
#
# PCOD9392692 Si02
#       8
#     8   8   8   8   8   8   8   8
#     4   9  17  32  50  71 100 141 182 229 291 354
#     4   8  14  23  39  63  93 124 166 215 272 342
#     4  11  23  36  53  80 113 151 191 235 285 345
#     4  11  22  39  62  88 121 161 202 245 294 347
#     4   9  16  26  42  64  92 127 169 218 273 336
#     4  10  22  38  59  84 114 152 198 249 304 358
#     4  10  19  30  47  72 101 134 176 226 280 340
#     4  11  22  39  64  97 136 174 211 248 288 338
#
# _framework density 19.446608999999999
#
# number of rings (size 3 to 8) (size 9 to 14) (size 15 to 20)
#    0.000    2.125    1.250    4.125    0.000    6.000 
#    0.000    0.000    0.000    1.125    0.000    7.875 
#    0.000    0.000    0.000    0.000    0.000    0.000 
#
# Total GULP energy -357122.096005 kJ/mol
# GULP energy per Si atom -5580.032750 kJ/mol
# Density = 1.940235 g / cm^3
# Si number density = 19.446609 Si / 1000 Ang^3
#
#
#
# Elastic Constant Matrix: (Units=GPa)
#
#
# Indices 1 2 3 4 5 6 
#
# 1 104.1700 44.3334 29.9457 0.0000 0.0000 0.0000
# 2 44.3334 138.4478 49.6006 0.0000 0.0000 0.0000
# 3 29.9457 49.6006 56.5546 0.0000 0.0000 0.0000
# 4 0.0000 0.0000 0.0000 27.0992 0.0000 0.0000
# 5 0.0000 0.0000 0.0000 0.0000 15.0079 0.0000
# 6 0.0000 0.0000 0.0000 0.0000 0.0000 -4.5341
#
#
#
# Elastic Compliance Matrix: (Units=1/GPa)
#
#
# Indices 1 2 3 4 5 6 
#
# 1 0.011782 -0.002242 -0.004272 0.000000 0.000000 0.000000
# 2 -0.002242 0.010959 -0.008424 0.000000 0.000000 0.000000
# 3 -0.004272 -0.008424 0.027332 0.000000 0.000000 0.000000
# 4 0.000000 0.000000 0.000000 0.036901 0.000000 0.000000
# 5 0.000000 0.000000 0.000000 0.000000 0.066632 0.000000
# 6 0.000000 0.000000 0.000000 0.000000 0.000000 -0.220552
#
#
# Mechanical properties :
#
#
# Convention : Reuss Voigt Hill
#
# Bulk Modulus (GPa) = 49.51365 60.77022 55.14193
# Shear Modulus (GPa) = -164.81894 19.20078 -72.80908
#
# Velocity S-wave (km/s) = -9.21621 3.14564 -6.12550
# Velocity P-wave (km/s) = 9.36669 6.67166 4.64886
#
# Compressibility (1/GPa) = 0.02019645
#
# Stress axis : x y z
#
# Youngs Moduli (GPa) = 84.87473 91.24886 36.58663
#
# Poissons Ratio (x) = 0.20461 0.15630
# Poissons Ratio (y) = 0.19032 0.30821
# Poissons Ratio (z) = 0.36259 0.76870
#
# Static dielectric constant tensor:
#      x y z
#    x 1.726940 0.000000 0.000000 
#    y 0.000000 1.711290 0.000000 
#    z 0.000000 0.000000 1.662160 
# 
# From -- ./inp_files/4356.got.cif
#   From: 2010.05.17/outbox.cif.g08.bks.cpg/sg49_3_cif.got.tgz:4356.got - 2010.06.03 21:02:19.
