data_PCOD9392992
_publ_section_title
;
Structure prediction by ZEFSAII (Michael W. Deem and Ramdas Pophale) SiO2 
 PCOD9392992
Probable space group: P C C M
;
_chemical_formula_sum "Si O2"
_cell_formula_units_Z 64
_cell_length_a 14.588864
_cell_length_b 12.399944
_cell_length_c 17.792386
_cell_angle_alpha 90.000000
_cell_angle_beta 90.000000
_cell_angle_gamma 90.000000
_cell_volume 3218.662139
_symmetry_space_group_name_H-M "P C C M"
_symmetry_group_IT_number 49
_symmetry_cell_setting 'orthorhombic'
loop_
_space_group_symop_operation_xyz
x,y,z
-x,-y,z
x,-y,1/2-z
-x,y,1/2-z
-x,-y,-z
x,y,-z
-x,y,1/2+z
x,-y,1/2+z
loop_
_atom_site_type_symbol
_atom_site_label
_atom_site_fract_x
_atom_site_fract_y
_atom_site_fract_z
Si Si1 0.265585 0.002183 0.340832
Si Si2 0.788079 0.373715 0.085059
Si Si3 0.078033 0.089692 0.412298
Si Si4 0.248117 0.225681 0.799986
Si Si5 0.357907 0.781915 0.848507
Si Si6 0.280856 0.390001 0.083035
Si Si7 0.917814 0.720880 0.698498
Si Si8 0.505799 0.623962 0.087499
O O1 0.273546 0.874408 0.353939
O O2 0.255634 0.000000 0.250000
O O3 0.174159 0.044603 0.380688
O O4 0.346216 0.088598 0.358588
O O5 0.721432 0.273156 0.100982
O O6 0.728392 0.481837 0.091878
O O7 0.863823 0.368002 0.150016
O O8 0.824427 0.369378 0.000000
O O9 0.088304 0.116860 0.500000
O O10 0.050099 0.192440 0.363131
O O11 0.000000 0.000000 0.404542
O O12 0.327902 0.239529 0.737821
O O13 0.231718 0.329717 0.850240
O O14 0.155842 0.215792 0.750756
O O15 0.448805 0.715949 0.869631
O O16 0.386253 0.353832 0.087155
O O17 0.244602 0.363388 0.000000
O O18 0.000000 0.681675 0.750000
O O19 0.500000 0.500000 0.116628
O O20 0.473205 0.621804 0.000000
#
# Coordination Sequence:
#
# PCOD9392992 Si02
#       8
#     8   8   8   8   8   8   8   8
#     4  10  19  37  57  83 123 170 203 247 308 366
#     4  10  19  37  61  86 120 157 202 260 315 371
#     4  11  22  33  56  93 123 157 208 260 310 373
#     4  10  22  39  58  84 122 170 211 246 315 369
#     4  10  19  32  60  94 117 157 203 249 305 381
#     4  10  22  40  61  83 120 161 200 256 315 377
#     4  11  22  37  61  89 122 164 205 270 316 376
#     4  10  19  35  60  92 123 153 192 251 321 373
#
# _framework density 19.884036999999999
#
# number of rings (size 3 to 8) (size 9 to 14) (size 15 to 20)
#    0.000    1.750    5.000    1.500    0.000    3.500 
#    0.000    3.750    0.000    5.250    0.000    0.000 
#    0.000    0.000    0.000    0.000    0.000    0.000 
#
# Total GULP energy -356811.860755 kJ/mol
# GULP energy per Si atom -5575.185324 kJ/mol
# Density = 1.983878 g / cm^3
# Si number density = 19.884037 Si / 1000 Ang^3
#
#
#
# Elastic Constant Matrix: (Units=GPa)
#
#
# Indices 1 2 3 4 5 6 
#
# 1 73.1833 30.9926 39.7708 0.0000 0.0000 0.0000
# 2 30.9926 83.1593 35.6878 0.0000 0.0000 0.0000
# 3 39.7708 35.6878 74.2263 0.0000 0.0000 0.0000
# 4 0.0000 0.0000 0.0000 28.4972 0.0000 0.0000
# 5 0.0000 0.0000 0.0000 0.0000 22.6574 0.0000
# 6 0.0000 0.0000 0.0000 0.0000 0.0000 28.5561
#
#
#
# Elastic Compliance Matrix: (Units=1/GPa)
#
#
# Indices 1 2 3 4 5 6 
#
# 1 0.020105 -0.003616 -0.009034 0.000000 0.000000 0.000000
# 2 -0.003616 0.015802 -0.005660 0.000000 0.000000 0.000000
# 3 -0.009034 -0.005660 0.021034 0.000000 0.000000 0.000000
# 4 0.000000 0.000000 0.000000 0.035091 0.000000 0.000000
# 5 0.000000 0.000000 0.000000 0.000000 0.044136 0.000000
# 6 0.000000 0.000000 0.000000 0.000000 0.000000 0.035019
#
#
# Mechanical properties :
#
#
# Convention : Reuss Voigt Hill
#
# Bulk Modulus (GPa) = 49.20983 49.27460 49.24221
# Shear Modulus (GPa) = 23.30138 24.21665 23.75901
#
# Velocity S-wave (km/s) = 3.42696 3.49362 3.46045
# Velocity P-wave (km/s) = 6.36089 6.41160 6.38629
#
# Compressibility (1/GPa) = 0.02032114
#
# Stress axis : x y z
#
# Youngs Moduli (GPa) = 49.73887 63.28413 47.54229
#
# Poissons Ratio (x) = 0.22884 0.42948
# Poissons Ratio (y) = 0.17986 0.26909
# Poissons Ratio (z) = 0.44933 0.35818
#
# Static dielectric constant tensor:
#      x y z
#    x 1.716250 0.000000 0.000000 
#    y 0.000000 1.750400 0.000000 
#    z 0.000000 0.000000 1.708150 
# 
# From -- ./inp_files/17928.got.cif
#   From: 2010.05.17/outbox.cif.g08.bks.cpg/sg49_9_cif.got.tgz:17928.got - 2010.06.03 21:02:19.
