data_PCOD9392764
_publ_section_title
;
Structure prediction by ZEFSAII (Michael W. Deem and Ramdas Pophale) SiO2 
 PCOD9392764
Probable space group: P C C M
;
_chemical_formula_sum "Si O2"
_cell_formula_units_Z 56
_cell_length_a 20.851531
_cell_length_b 15.896507
_cell_length_c 8.484519
_cell_angle_alpha 90.000000
_cell_angle_beta 90.000000
_cell_angle_gamma 90.000000
_cell_volume 2812.333889
_symmetry_space_group_name_H-M "P C C M"
_symmetry_group_IT_number 49
_symmetry_cell_setting 'orthorhombic'
loop_
_space_group_symop_operation_xyz
x,y,z
-x,-y,z
x,-y,1/2-z
-x,y,1/2-z
-x,-y,-z
x,y,-z
-x,y,1/2+z
x,-y,1/2+z
loop_
_atom_site_type_symbol
_atom_site_label
_atom_site_fract_x
_atom_site_fract_y
_atom_site_fract_z
Si Si1 0.066756 0.269811 0.686507
Si Si2 0.896993 0.912766 0.811159
Si Si3 0.673142 0.590857 0.190470
Si Si4 0.569226 0.270999 0.690302
Si Si5 0.798581 0.321805 0.310809
Si Si6 0.383982 0.911542 0.690501
Si Si7 0.757227 0.867472 0.190114
O O1 0.064472 0.264776 0.500000
O O2 0.073207 0.174725 0.753891
O O3 0.130781 0.319276 0.738039
O O4 0.000000 0.306203 0.750000
O O5 0.822946 0.908605 0.751979
O O6 0.925441 0.000000 0.750000
O O7 0.898024 0.912436 0.000000
O O8 0.652332 0.500000 0.250000
O O9 0.625053 0.665073 0.242273
O O10 0.746106 0.610713 0.242956
O O11 0.673413 0.591785 0.000000
O O12 0.500000 0.298729 0.750000
O O13 0.570015 0.270561 0.500000
O O14 0.582183 0.174776 0.742571
O O15 0.806112 0.326952 0.500000
O O16 0.765583 0.231396 0.276831
O O17 0.384151 0.912519 0.500000
O O18 0.310022 0.902916 0.748396
O O19 0.411001 0.000000 0.750000
O O20 0.756356 0.875927 0.000000
#
# Coordination Sequence:
#
# PCOD9392764 Si02
#       7
#     8   8   8   8   8   8   8
#     4  11  22  36  54  79 110 148 193 236 286 347
#     4  10  19  31  48  72 105 145 190 242 297 348
#     4  10  21  39  65  93 121 153 190 236 293 355
#     4  10  22  40  60  82 117 160 198 240 293 349
#     4   9  17  35  60  83 111 149 187 230 288 345
#     4  10  19  33  53  78 109 150 197 241 289 341
#     4   8  14  28  51  74 102 140 184 232 284 340
#
# _framework density 19.912289000000001
#
# number of rings (size 3 to 8) (size 9 to 14) (size 15 to 20)
#    0.000    2.286    1.429    3.000    0.000    2.571 
#    0.000    7.143    0.000    0.429    0.000    3.000 
#    0.000    0.000    0.000    0.000    0.000    0.000 
#
# Total GULP energy -312493.486389 kJ/mol
# GULP energy per Si atom -5580.240828 kJ/mol
# Density = 1.986697 g / cm^3
# Si number density = 19.912289 Si / 1000 Ang^3
#
#
#
# Elastic Constant Matrix: (Units=GPa)
#
#
# Indices 1 2 3 4 5 6 
#
# 1 125.7220 42.9203 24.5835 0.0000 0.0000 0.0000
# 2 42.9203 89.3654 15.7848 0.0000 0.0000 0.0000
# 3 24.5835 15.7848 40.4434 0.0000 0.0000 0.0000
# 4 0.0000 0.0000 0.0000 22.7390 0.0000 0.0000
# 5 0.0000 0.0000 0.0000 0.0000 26.3896 0.0000
# 6 0.0000 0.0000 0.0000 0.0000 0.0000 -79.8272
#
#
#
# Elastic Compliance Matrix: (Units=1/GPa)
#
#
# Indices 1 2 3 4 5 6 
#
# 1 0.010264 -0.004111 -0.004634 0.000000 0.000000 0.000000
# 2 -0.004111 0.013665 -0.002835 0.000000 0.000000 0.000000
# 3 -0.004634 -0.002835 0.028649 0.000000 0.000000 0.000000
# 4 0.000000 0.000000 0.000000 0.043977 0.000000 0.000000
# 5 0.000000 0.000000 0.000000 0.000000 0.037894 0.000000
# 6 0.000000 0.000000 0.000000 0.000000 0.000000 -0.012527
#
#
# Mechanical properties :
#
#
# Convention : Reuss Voigt Hill
#
# Bulk Modulus (GPa) = 33.99237 46.90090 40.44664
# Shear Modulus (GPa) = 32.28150 5.34310 18.81230
#
# Velocity S-wave (km/s) = 4.03076 1.63986 3.07703
# Velocity P-wave (km/s) = 6.22662 5.21444 5.74288
#
# Compressibility (1/GPa) = 0.02941837
#
# Stress axis : x y z
#
# Youngs Moduli (GPa) = 97.43126 73.17947 34.90497
#
# Poissons Ratio (x) = 0.30083 0.16176
# Poissons Ratio (y) = 0.40052 0.09894
# Poissons Ratio (z) = 0.45153 0.20743
#
# Static dielectric constant tensor:
#      x y z
#    x 1.729900 0.000000 0.000000 
#    y 0.000000 1.701220 0.000000 
#    z 0.000000 0.000000 1.681600 
# 
# From -- ./inp_files/5801.got.cif
#   From: 2010.05.17/outbox.cif.g08.bks.cpg/sg49_3_cif.got.tgz:5801.got - 2010.06.03 21:02:19.
