data_PCOD9392495
_publ_section_title
;
Structure prediction by ZEFSAII (Michael W. Deem and Ramdas Pophale) SiO2 
 PCOD9392495
Probable space group: P C C M
;
_chemical_formula_sum "Si O2"
_cell_formula_units_Z 56
_cell_length_a 19.397605
_cell_length_b 18.840806
_cell_length_c 8.963623
_cell_angle_alpha 90.000000
_cell_angle_beta 90.000000
_cell_angle_gamma 90.000000
_cell_volume 3275.904039
_symmetry_space_group_name_H-M "P C C M"
_symmetry_group_IT_number 49
_symmetry_cell_setting 'orthorhombic'
loop_
_space_group_symop_operation_xyz
x,y,z
-x,-y,z
x,-y,1/2-z
-x,y,1/2-z
-x,-y,-z
x,y,-z
-x,y,1/2+z
x,-y,1/2+z
loop_
_atom_site_type_symbol
_atom_site_label
_atom_site_fract_x
_atom_site_fract_y
_atom_site_fract_z
Si Si1 0.786347 0.149014 0.177544
Si Si2 0.791749 0.424404 0.820746
Si Si3 0.425594 0.215178 0.177670
Si Si4 0.658982 0.073761 0.678549
Si Si5 0.072927 0.187254 0.823128
Si Si6 0.698907 0.708781 0.677080
Si Si7 0.927084 0.642510 0.822812
O O1 0.733383 0.094993 0.254505
O O2 0.862142 0.149437 0.247214
O O3 0.752803 0.226968 0.204651
O O4 0.788670 0.137324 0.000000
O O5 0.774817 0.500000 0.750000
O O6 0.735196 0.364687 0.781740
O O7 0.864473 0.397663 0.755384
O O8 0.796120 0.428833 0.000000
O O9 0.500000 0.223573 0.250000
O O10 0.392532 0.138361 0.216931
O O11 0.370486 0.272292 0.236416
O O12 0.430813 0.219155 0.000000
O O13 0.663199 0.068354 0.500000
O O14 0.636061 0.000000 0.750000
O O15 0.081269 0.272473 0.800069
O O16 0.000000 0.167112 0.750000
O O17 0.071881 0.174437 0.000000
O O18 0.684713 0.708567 0.500000
O O19 0.000000 0.622132 0.750000
O O20 0.927463 0.628990 0.000000
#
# Coordination Sequence:
#
# PCOD9392495 Si02
#       7
#     8   8   8   8   8   8   8
#     4  10  18  32  54  77 103 138 178 222 267 313
#     4  11  22  36  53  76 105 140 180 223 272 324
#     4  10  21  36  58  85 113 142 176 212 255 307
#     4  10  21  36  54  81 113 147 180 213 254 306
#     4  10  19  30  48  74 103 135 176 225 273 319
#     4   9  19  35  55  77 105 137 175 218 262 313
#     4  10  20  33  50  72 102 139 178 224 273 324
#
# _framework density 17.094518000000001
#
# number of rings (size 3 to 8) (size 9 to 14) (size 15 to 20)
#    0.000    2.000    1.429    2.571    0.000    5.143 
#    0.000    2.857    0.000    0.857    0.000    6.000 
#    0.000    0.000    0.000    0.000    0.000    0.000 
#
# Total GULP energy -312702.861455 kJ/mol
# GULP energy per Si atom -5583.979669 kJ/mol
# Density = 1.705561 g / cm^3
# Si number density = 17.094518 Si / 1000 Ang^3
#
#
#
# Elastic Constant Matrix: (Units=GPa)
#
#
# Indices 1 2 3 4 5 6 
#
# 1 141.4397 46.2688 59.0985 0.0000 0.0000 0.0000
# 2 46.2688 62.5882 34.2072 0.0000 0.0000 0.0000
# 3 59.0985 34.2072 59.4001 0.0000 0.0000 0.0000
# 4 0.0000 0.0000 0.0000 24.7546 0.0000 0.0000
# 5 0.0000 0.0000 0.0000 0.0000 30.5030 0.0000
# 6 0.0000 0.0000 0.0000 0.0000 0.0000 12.1244
#
#
#
# Elastic Compliance Matrix: (Units=1/GPa)
#
#
# Indices 1 2 3 4 5 6 
#
# 1 0.012634 -0.003604 -0.010494 0.000000 0.000000 0.000000
# 2 -0.003604 0.024344 -0.010433 0.000000 0.000000 0.000000
# 3 -0.010494 -0.010433 0.033284 0.000000 0.000000 0.000000
# 4 0.000000 0.000000 0.000000 0.040397 0.000000 0.000000
# 5 0.000000 0.000000 0.000000 0.000000 0.032784 0.000000
# 6 0.000000 0.000000 0.000000 0.000000 0.000000 0.082479
#
#
# Mechanical properties :
#
#
# Convention : Reuss Voigt Hill
#
# Bulk Modulus (GPa) = 47.17243 60.28634 53.72938
# Shear Modulus (GPa) = 17.72724 21.73327 19.73025
#
# Velocity S-wave (km/s) = 3.22376 3.56948 3.40102
# Velocity P-wave (km/s) = 6.44297 7.23404 6.84993
#
# Compressibility (1/GPa) = 0.02119882
#
# Stress axis : x y z
#
# Youngs Moduli (GPa) = 79.15073 41.07753 30.04407
#
# Poissons Ratio (x) = 0.14805 0.31529
# Poissons Ratio (y) = 0.28528 0.31346
# Poissons Ratio (z) = 0.83064 0.42858
#
# Static dielectric constant tensor:
#      x y z
#    x 1.549310 0.000000 0.000000 
#    y 0.000000 1.573900 0.000000 
#    z 0.000000 0.000000 1.563190 
# 
# From -- ./inp_files/4054.got.cif
#   From: 2010.05.17/outbox.cif.g08.bks.cpg/sg49_3_cif.got.tgz:4054.got - 2010.06.03 21:02:19.
