data_PCOD9392301
_publ_section_title
;
Structure prediction by ZEFSAII (Michael W. Deem and Ramdas Pophale) SiO2 
 PCOD9392301
Probable space group: P C C M
;
_chemical_formula_sum "Si O2"
_cell_formula_units_Z 52
_cell_length_a 25.225432
_cell_length_b 5.279233
_cell_length_c 20.717392
_cell_angle_alpha 90.000000
_cell_angle_beta 90.000000
_cell_angle_gamma 90.000000
_cell_volume 2758.954423
_symmetry_space_group_name_H-M "P C C M"
_symmetry_group_IT_number 49
_symmetry_cell_setting 'orthorhombic'
loop_
_space_group_symop_operation_xyz
x,y,z
-x,-y,z
x,-y,1/2-z
-x,y,1/2-z
-x,-y,-z
x,y,-z
-x,y,1/2+z
x,-y,1/2+z
loop_
_atom_site_type_symbol
_atom_site_label
_atom_site_fract_x
_atom_site_fract_y
_atom_site_fract_z
Si Si1 0.938417 0.497404 0.171026
Si Si2 0.349215 0.105759 0.889154
Si Si3 0.687036 0.000000 0.250000
Si Si4 0.782013 0.690769 0.304310
Si Si5 0.283708 0.401694 0.573647
Si Si6 0.530364 0.246214 0.422251
Si Si7 0.117156 0.999563 0.824623
O O1 0.937257 0.500000 0.250000
O O2 0.911733 0.241955 0.145678
O O3 0.000000 0.500000 0.152734
O O4 0.903259 0.735990 0.148537
O O5 0.345230 0.089293 0.811676
O O6 0.313393 0.332636 0.916260
O O7 0.408395 0.189301 0.907404
O O8 0.324436 0.835925 0.913189
O O9 0.727526 0.782579 0.272292
O O10 0.806602 0.500000 0.250000
O O11 0.763394 0.591271 0.373670
O O12 0.821078 0.925039 0.319782
O O13 0.265329 0.377283 0.500000
O O14 0.500000 0.500000 0.398734
O O15 0.526312 0.253715 0.500000
O O16 0.500000 0.000000 0.397479
O O17 0.099111 0.000000 0.750000
#
# Coordination Sequence:
#
# PCOD9392301 Si02
#       7
#     8   8   4   8   8   8   8
#     4   9  17  28  41  65 100 138 178 221 272 327
#     4  11  22  39  60  83 114 147 194 235 292 349
#     4  10  22  36  57  80 111 152 192 230 280 344
#     4  11  20  35  53  80 114 148 193 234 280 345
#     4  11  23  37  58  84 115 152 193 243 290 342
#     4  10  20  35  57  83 109 139 179 230 283 336
#     4  10  18  27  46  69  98 140 180 220 267 333
#
# _framework density 18.847719999999999
#
# number of rings (size 3 to 8) (size 9 to 14) (size 15 to 20)
#    0.000    1.692    2.308    4.154    0.000    3.077 
#    0.000    0.385    0.000    0.923    0.000    0.000 
#    0.000    3.692    0.000    0.000    0.000   27.846 
#
# Total GULP energy -289711.889071 kJ/mol
# GULP energy per Si atom -5571.382482 kJ/mol
# Density = 1.880482 g / cm^3
# Si number density = 18.847720 Si / 1000 Ang^3
#
#
#
# Elastic Constant Matrix: (Units=GPa)
#
#
# Indices 1 2 3 4 5 6 
#
# 1 70.2529 44.7856 6.4412 0.0000 0.0000 0.0000
# 2 44.7856 130.4113 19.0208 0.0000 0.0000 0.0000
# 3 6.4412 19.0208 75.1094 0.0000 0.0000 0.0000
# 4 0.0000 0.0000 0.0000 12.8184 0.0000 0.0000
# 5 0.0000 0.0000 0.0000 0.0000 -1.1429 0.0000
# 6 0.0000 0.0000 0.0000 0.0000 0.0000 28.0927
#
#
#
# Elastic Compliance Matrix: (Units=1/GPa)
#
#
# Indices 1 2 3 4 5 6 
#
# 1 0.018224 -0.006262 0.000023 0.000000 0.000000 0.000000
# 2 -0.006262 0.010114 -0.002024 0.000000 0.000000 0.000000
# 3 0.000023 -0.002024 0.013825 0.000000 0.000000 0.000000
# 4 0.000000 0.000000 0.000000 0.078013 0.000000 0.000000
# 5 0.000000 0.000000 0.000000 0.000000 -0.874982 0.000000
# 6 0.000000 0.000000 0.000000 0.000000 0.000000 0.035596
#
#
# Mechanical properties :
#
#
# Convention : Reuss Voigt Hill
#
# Bulk Modulus (GPa) = 39.00753 46.25208 42.62980
# Shear Modulus (GPa) = -7.20317 21.65537 7.22610
#
# Velocity S-wave (km/s) = -1.95706 3.39332 1.96017
# Velocity P-wave (km/s) = 3.95403 6.32028 5.27163
#
# Compressibility (1/GPa) = 0.02563608
#
# Stress axis : x y z
#
# Youngs Moduli (GPa) = 54.87259 98.87578 72.33500
#
# Poissons Ratio (x) = 0.61914 -0.00166
# Poissons Ratio (y) = 0.34360 0.14642
# Poissons Ratio (z) = -0.00126 0.20015
#
# Static dielectric constant tensor:
#      x y z
#    x 1.948140 0.000000 0.000000 
#    y 0.000000 1.715740 0.000000 
#    z 0.000000 0.000000 1.642330 
# 
# From -- ./inp_files/21188.got.cif
#   From: 2010.05.17/outbox.cif.g08.bks.cpg/sg49_11_cif.got.tgz:21188.got - 2010.06.03 21:02:19.
