data_PCOD9392319
_publ_section_title
;
Structure prediction by ZEFSAII (Michael W. Deem and Ramdas Pophale) SiO2 
 PCOD9392319
Probable space group: P C C M
;
_chemical_formula_sum "Si O2"
_cell_formula_units_Z 56
_cell_length_a 22.123156
_cell_length_b 19.028843
_cell_length_c 8.594627
_cell_angle_alpha 90.000000
_cell_angle_beta 90.000000
_cell_angle_gamma 90.000000
_cell_volume 3618.149420
_symmetry_space_group_name_H-M "P C C M"
_symmetry_group_IT_number 49
_symmetry_cell_setting 'orthorhombic'
loop_
_space_group_symop_operation_xyz
x,y,z
-x,-y,z
x,-y,1/2-z
-x,y,1/2-z
-x,-y,-z
x,y,-z
-x,y,1/2+z
x,-y,1/2+z
loop_
_atom_site_type_symbol
_atom_site_label
_atom_site_fract_x
_atom_site_fract_y
_atom_site_fract_z
Si Si1 0.934949 0.421005 0.812587
Si Si2 0.693707 0.421492 0.813135
Si Si3 0.249654 0.206126 0.314234
Si Si4 0.635041 0.708889 0.186945
Si Si5 0.815960 0.660525 0.310880
Si Si6 0.686114 0.077970 0.313967
Si Si7 0.435423 0.158718 0.813539
O O1 0.925559 0.500000 0.750000
O O2 0.878933 0.373025 0.760254
O O3 0.000000 0.396772 0.750000
O O4 0.936517 0.423044 0.000000
O O5 0.688722 0.500000 0.750000
O O6 0.641415 0.369885 0.749215
O O7 0.758420 0.387366 0.762788
O O8 0.692146 0.421315 0.000000
O O9 0.247893 0.198934 0.500000
O O10 0.308583 0.250514 0.263946
O O11 0.195963 0.258649 0.263391
O O12 0.260675 0.130314 0.240299
O O13 0.579099 0.759708 0.227500
O O14 0.641524 0.709148 0.000000
O O15 0.815496 0.659850 0.500000
O O16 0.685090 0.077075 0.500000
O O17 0.621809 0.111870 0.259955
O O18 0.692770 0.000000 0.250000
O O19 0.500000 0.136258 0.750000
O O20 0.436722 0.154295 0.000000
#
# Coordination Sequence:
#
# PCOD9392319 Si02
#       7
#     8   8   8   8   8   8   8
#     4  10  18  29  41  58  86 121 157 191 222 257
#     4  10  18  28  43  64  85 110 141 179 225 268
#     4   9  16  29  47  66  86 113 144 178 218 260
#     4   9  17  30  44  62  86 111 139 176 216 260
#     4   8  16  28  43  62  86 114 148 183 218 258
#     4  10  20  33  47  68  94 120 144 173 211 255
#     4   9  19  32  47  65  86 112 145 176 208 249
#
# _framework density 15.477525999999999
#
# number of rings (size 3 to 8) (size 9 to 14) (size 15 to 20)
#    0.000    2.714    0.000    4.714    0.000    3.714 
#    0.000    9.286    0.000    0.429    0.000    3.000 
#    0.000    0.571    0.000    6.571    0.000    2.000 
#
# Total GULP energy -311804.268412 kJ/mol
# GULP energy per Si atom -5567.933364 kJ/mol
# Density = 1.544230 g / cm^3
# Si number density = 15.477526 Si / 1000 Ang^3
#
#
#
# Elastic Constant Matrix: (Units=GPa)
#
#
# Indices 1 2 3 4 5 6 
#
# 1 44.3309 36.6322 13.4579 0.0000 0.0000 0.0000
# 2 36.6322 129.7571 27.5741 0.0000 0.0000 0.0000
# 3 13.4579 27.5741 38.9655 0.0000 0.0000 0.0000
# 4 0.0000 0.0000 0.0000 18.1970 0.0000 0.0000
# 5 0.0000 0.0000 0.0000 0.0000 14.9756 0.0000
# 6 0.0000 0.0000 0.0000 0.0000 0.0000 26.4447
#
#
#
# Elastic Compliance Matrix: (Units=1/GPa)
#
#
# Indices 1 2 3 4 5 6 
#
# 1 0.030287 -0.007448 -0.005190 0.000000 0.000000 0.000000
# 2 -0.007448 0.010902 -0.005143 0.000000 0.000000 0.000000
# 3 -0.005190 -0.005143 0.031096 0.000000 0.000000 0.000000
# 4 0.000000 0.000000 0.000000 0.054954 0.000000 0.000000
# 5 0.000000 0.000000 0.000000 0.000000 0.066775 0.000000
# 6 0.000000 0.000000 0.000000 0.000000 0.000000 0.037815
#
#
# Mechanical properties :
#
#
# Convention : Reuss Voigt Hill
#
# Bulk Modulus (GPa) = 27.23016 40.93132 34.08074
# Shear Modulus (GPa) = 17.88063 20.94940 19.41501
#
# Velocity S-wave (km/s) = 3.40260 3.68304 3.54559
# Velocity P-wave (km/s) = 5.75052 6.67753 6.23129
#
# Compressibility (1/GPa) = 0.03672399
#
# Stress axis : x y z
#
# Youngs Moduli (GPa) = 33.01693 91.72538 32.15883
#
# Poissons Ratio (x) = 0.68313 0.16692
# Poissons Ratio (y) = 0.24590 0.16538
# Poissons Ratio (z) = 0.17137 0.47172
#
# Static dielectric constant tensor:
#      x y z
#    x 1.512620 0.000000 0.000000 
#    y 0.000000 1.401310 0.000000 
#    z 0.000000 0.000000 1.523800 
# 
# From -- ./inp_files/5201.got.cif
#   From: 2010.05.17/outbox.cif.g08.bks.cpg/sg49_3_cif.got.tgz:5201.got - 2010.06.03 21:02:19.
