data_PCOD9392478
_publ_section_title
;
Structure prediction by ZEFSAII (Michael W. Deem and Ramdas Pophale) SiO2 
 PCOD9392478
Probable space group: P C C M
;
_chemical_formula_sum "Si O2"
_cell_formula_units_Z 64
_cell_length_a 13.238891
_cell_length_b 7.519303
_cell_length_c 30.699734
_cell_angle_alpha 90.000000
_cell_angle_beta 90.000000
_cell_angle_gamma 90.000000
_cell_volume 3056.073568
_symmetry_space_group_name_H-M "P C C M"
_symmetry_group_IT_number 49
_symmetry_cell_setting 'orthorhombic'
loop_
_space_group_symop_operation_xyz
x,y,z
-x,-y,z
x,-y,1/2-z
-x,y,1/2-z
-x,-y,-z
x,y,-z
-x,y,1/2+z
x,-y,1/2+z
loop_
_atom_site_type_symbol
_atom_site_label
_atom_site_fract_x
_atom_site_fract_y
_atom_site_fract_z
Si Si1 0.076109 0.737058 0.928840
Si Si2 0.878480 0.292073 0.749249
Si Si3 0.643013 0.416965 0.450599
Si Si4 0.137381 0.659713 0.570515
Si Si5 0.782743 0.205677 0.343047
Si Si6 0.297088 0.174079 0.449443
Si Si7 0.098845 0.879629 0.162343
Si Si8 0.592147 0.880880 0.889957
O O1 0.101925 0.536586 0.942300
O O2 0.174896 0.839399 0.945169
O O3 0.072920 0.744439 0.875921
O O4 0.959822 0.780866 0.940819
O O5 0.859004 0.500000 0.750000
O O6 0.823071 0.225643 0.705930
O O7 0.851630 0.202232 0.794820
O O8 0.000000 0.266703 0.750000
O O9 0.606202 0.418747 0.500000
O O10 0.752427 0.316092 0.449686
O O11 0.669031 0.621563 0.437042
O O12 0.572978 0.294344 0.419975
O O13 0.162735 0.664887 0.622476
O O14 0.664306 0.197675 0.352113
O O15 0.822076 0.014251 0.357827
O O16 0.324355 0.151094 0.500000
O O17 0.350890 0.025450 0.420534
O O18 0.000000 0.000000 0.172360
O O19 0.500000 0.000000 0.872961
#
# Coordination Sequence:
#
# PCOD9392478 Si02
#       8
#     8   8   8   8   8   8   8   8
#     4  10  18  32  51  80 118 160 192 225 274 351
#     4  11  22  34  54  88 125 157 184 216 270 343
#     4   9  20  37  57  85 120 151 193 250 302 351
#     4   9  18  31  52  77 117 160 192 223 280 347
#     4  11  21  36  55  82 117 148 189 240 282 335
#     4  10  21  37  58  87 118 153 196 246 299 351
#     4  12  20  31  54  82 117 152 189 224 276 330
#     4  11  24  42  63  84 110 150 203 252 305 351
#
# _framework density 20.941903
#
# number of rings (size 3 to 8) (size 9 to 14) (size 15 to 20)
#    0.000    1.625    3.750    1.500    0.000    4.000 
#    0.000    3.750    0.000    4.125    0.000    0.875 
#    0.000    0.000    0.000    0.000    0.000    0.000 
#
# Total GULP energy -356689.368608 kJ/mol
# GULP energy per Si atom -5573.271384 kJ/mol
# Density = 2.089424 g / cm^3
# Si number density = 20.941903 Si / 1000 Ang^3
#
#
#
# Elastic Constant Matrix: (Units=GPa)
#
#
# Indices 1 2 3 4 5 6 
#
# 1 75.4616 6.4162 10.6148 0.0000 0.0000 0.0000
# 2 6.4162 64.4093 14.3236 0.0000 0.0000 0.0000
# 3 10.6148 14.3236 83.3046 0.0000 0.0000 0.0000
# 4 0.0000 0.0000 0.0000 19.1910 0.0000 0.0000
# 5 0.0000 0.0000 0.0000 0.0000 -0.8444 0.0000
# 6 0.0000 0.0000 0.0000 0.0000 0.0000 26.6975
#
#
#
# Elastic Compliance Matrix: (Units=1/GPa)
#
#
# Indices 1 2 3 4 5 6 
#
# 1 0.013556 -0.001005 -0.001555 0.000000 0.000000 0.000000
# 2 -0.001005 0.016217 -0.002660 0.000000 0.000000 0.000000
# 3 -0.001555 -0.002660 0.012660 0.000000 0.000000 0.000000
# 4 0.000000 0.000000 0.000000 0.052108 0.000000 0.000000
# 5 0.000000 0.000000 0.000000 0.000000 -1.184225 0.000000
# 6 0.000000 0.000000 0.000000 0.000000 0.000000 0.037457
#
#
# Mechanical properties :
#
#
# Convention : Reuss Voigt Hill
#
# Bulk Modulus (GPa) = 31.25625 31.76496 31.51061
# Shear Modulus (GPa) = -4.84908 21.79686 8.47389
#
# Velocity S-wave (km/s) = -1.52332 3.22968 2.01374
# Velocity P-wave (km/s) = 3.44436 5.39526 4.52617
#
# Compressibility (1/GPa) = 0.03199360
#
# Stress axis : x y z
#
# Youngs Moduli (GPa) = 73.76880 61.66198 78.99098
#
# Poissons Ratio (x) = 0.06195 0.12280
# Poissons Ratio (y) = 0.07411 0.21015
# Poissons Ratio (z) = 0.11468 0.16405
#
# Static dielectric constant tensor:
#      x y z
#    x 1.847110 0.000000 0.000000 
#    y 0.000000 1.798660 0.000000 
#    z 0.000000 0.000000 1.785380 
# 
# From -- ./inp_files/26662.got.cif
#   From: 2010.05.17/outbox.cif.g08.bks.cpg/sg49_14_cif.got.tgz:26662.got - 2010.06.03 21:02:19.
