data_PCOD9392255
_publ_section_title
;
Structure prediction by ZEFSAII (Michael W. Deem and Ramdas Pophale) SiO2 
 PCOD9392255
Probable space group: P C C M
;
_chemical_formula_sum "Si O2"
_cell_formula_units_Z 48
_cell_length_a 18.935371
_cell_length_b 14.408086
_cell_length_c 8.870249
_cell_angle_alpha 90.000000
_cell_angle_beta 90.000000
_cell_angle_gamma 90.000000
_cell_volume 2420.003098
_symmetry_space_group_name_H-M "P C C M"
_symmetry_group_IT_number 49
_symmetry_cell_setting 'orthorhombic'
loop_
_space_group_symop_operation_xyz
x,y,z
-x,-y,z
x,-y,1/2-z
-x,y,1/2-z
-x,-y,-z
x,y,-z
-x,y,1/2+z
x,-y,1/2+z
loop_
_atom_site_type_symbol
_atom_site_label
_atom_site_fract_x
_atom_site_fract_y
_atom_site_fract_z
Si Si1 0.711314 0.600432 0.322887
Si Si2 0.813763 0.251968 0.327557
Si Si3 0.925077 0.896592 0.816529
Si Si4 0.925840 0.412961 0.670305
Si Si5 0.420425 0.093676 0.181152
Si Si6 0.577004 0.716326 0.679225
O O1 0.724757 0.500000 0.250000
O O2 0.725394 0.592414 0.500000
O O3 0.755986 0.688211 0.261073
O O4 0.630043 0.631196 0.299068
O O5 0.788958 0.236698 0.500000
O O6 0.853746 0.159333 0.272245
O O7 0.879187 0.322935 0.329084
O O8 0.000000 0.858418 0.750000
O O9 0.919867 0.000000 0.750000
O O10 0.929473 0.896283 0.000000
O O11 0.889345 0.500000 0.750000
O O12 0.938038 0.440253 0.500000
O O13 0.000000 0.396913 0.750000
O O14 0.500000 0.095202 0.250000
O O15 0.391205 0.191350 0.240945
O O16 0.386891 0.000000 0.250000
O O17 0.422285 0.089633 0.000000
O O18 0.500000 0.699132 0.750000
O O19 0.569902 0.734655 0.500000
#
# Coordination Sequence:
#
# PCOD9392255 Si02
#       6
#     8   8   8   8   8   8
#     4  11  25  42  62  85 113 148 190 238 294 357
#     4  10  22  38  57  81 112 149 191 233 282 338
#     4  10  20  36  59  89 122 159 200 244 288 337
#     4  10  19  31  48  74 105 139 178 222 267 318
#     4  10  17  28  50  80 113 147 178 218 269 327
#     4  10  21  38  59  86 114 147 192 242 296 357
#
# _framework density 19.834683999999999
#
# number of rings (size 3 to 8) (size 9 to 14) (size 15 to 20)
#    0.000    1.833    0.000    7.000    0.000    7.000 
#    0.000    2.500    0.000    2.000    0.000    0.000 
#    0.000    0.000    0.000    0.000    0.000    0.000 
#
# Total GULP energy -267634.934062 kJ/mol
# GULP energy per Si atom -5575.727793 kJ/mol
# Density = 1.978954 g / cm^3
# Si number density = 19.834684 Si / 1000 Ang^3
#
#
#
# Elastic Constant Matrix: (Units=GPa)
#
#
# Indices 1 2 3 4 5 6 
#
# 1 77.1641 45.4918 50.3402 0.0000 0.0000 0.0000
# 2 45.4918 91.7104 44.2801 0.0000 0.0000 0.0000
# 3 50.3402 44.2801 129.4851 0.0000 0.0000 0.0000
# 4 0.0000 0.0000 0.0000 58.9967 0.0000 0.0000
# 5 0.0000 0.0000 0.0000 0.0000 8.8064 0.0000
# 6 0.0000 0.0000 0.0000 0.0000 0.0000 74.2632
#
#
#
# Elastic Compliance Matrix: (Units=1/GPa)
#
#
# Indices 1 2 3 4 5 6 
#
# 1 0.021209 -0.007832 -0.005567 0.000000 0.000000 0.000000
# 2 -0.007832 0.015953 -0.002410 0.000000 0.000000 0.000000
# 3 -0.005567 -0.002410 0.010711 0.000000 0.000000 0.000000
# 4 0.000000 0.000000 0.000000 0.016950 0.000000 0.000000
# 5 0.000000 0.000000 0.000000 0.000000 0.113553 0.000000
# 6 0.000000 0.000000 0.000000 0.000000 0.000000 0.013466
#
#
# Mechanical properties :
#
#
# Convention : Reuss Voigt Hill
#
# Bulk Modulus (GPa) = 61.52499 64.28708 62.90604
# Shear Modulus (GPa) = 21.84558 38.96310 30.40434
#
# Velocity S-wave (km/s) = 3.32231 4.43695 3.91946
# Velocity P-wave (km/s) = 6.76781 7.66359 7.22958
#
# Compressibility (1/GPa) = 0.01625356
#
# Stress axis : x y z
#
# Youngs Moduli (GPa) = 47.15041 62.68462 93.35832
#
# Poissons Ratio (x) = 0.49098 0.51971
# Poissons Ratio (y) = 0.36931 0.22503
# Poissons Ratio (z) = 0.26248 0.15109
#
# Static dielectric constant tensor:
#      x y z
#    x 1.720850 0.000000 0.000000 
#    y 0.000000 1.755210 0.000000 
#    z 0.000000 0.000000 1.690700 
# 
# From -- ./inp_files/4876.got.cif
#   From: 2010.05.17/outbox.cif.g08.bks.cpg/sg49_3_cif.got.tgz:4876.got - 2010.06.03 21:02:19.
