data_PCOD9392787
_publ_section_title
;
Structure prediction by ZEFSAII (Michael W. Deem and Ramdas Pophale) SiO2 
 PCOD9392787
Probable space group: P C C M
;
_chemical_formula_sum "Si O2"
_cell_formula_units_Z 42
_cell_length_a 20.067431
_cell_length_b 14.237632
_cell_length_c 8.932896
_cell_angle_alpha 90.000000
_cell_angle_beta 90.000000
_cell_angle_gamma 90.000000
_cell_volume 2552.241815
_symmetry_space_group_name_H-M "P C C M"
_symmetry_group_IT_number 49
_symmetry_cell_setting 'orthorhombic'
loop_
_space_group_symop_operation_xyz
x,y,z
-x,-y,z
x,-y,1/2-z
-x,y,1/2-z
-x,-y,-z
x,y,-z
-x,y,1/2+z
x,-y,1/2+z
loop_
_atom_site_type_symbol
_atom_site_label
_atom_site_fract_x
_atom_site_fract_y
_atom_site_fract_z
Si Si1 0.429159 0.269027 0.180566
Si Si2 0.696965 0.601431 0.821478
Si Si3 0.652953 0.103182 0.819666
Si Si4 0.131040 0.092518 0.668615
Si Si5 0.224876 0.217516 0.179277
Si Si6 0.000000 0.000000 0.750000
O O1 0.500000 0.295081 0.250000
O O2 0.372698 0.346726 0.216463
O O3 0.404071 0.172260 0.255392
O O4 0.432159 0.259270 0.000000
O O5 0.703313 0.500000 0.750000
O O6 0.754428 0.676461 0.780289
O O7 0.698432 0.591111 0.000000
O O8 0.721109 0.150412 0.759105
O O9 0.646263 0.000000 0.750000
O O10 0.652008 0.100449 0.000000
O O11 0.155344 0.100501 0.500000
O O12 0.153721 0.181727 0.763330
O O13 0.052341 0.067954 0.667117
O O14 0.160377 0.000000 0.750000
O O15 0.230668 0.207272 0.000000
#
# Coordination Sequence:
#
# PCOD9392787 Si02
#       6
#     8   8   8   8   8   2
#     4  10  21  37  53  74 100 129 167 210 259 312
#     4   9  20  36  54  75 100 128 164 213 262 309
#     4  11  21  34  51  72  99 133 171 211 254 302
#     4  10  19  31  49  74 107 144 176 207 243 289
#     4  10  20  34  51  74 103 135 171 212 254 300
#     4   8  22  32  50  76 116 144 184 204 246 280
#
# _framework density 16.456122000000001
#
# number of rings (size 3 to 8) (size 9 to 14) (size 15 to 20)
#    0.571    1.524    0.000    5.429    0.000    5.333 
#    0.000    3.810    0.000    0.000    0.000    0.667 
#    0.000    4.571    0.000    0.000    0.000    0.000 
#
# Total GULP energy -233999.994153 kJ/mol
# GULP energy per Si atom -5571.428432 kJ/mol
# Density = 1.641867 g / cm^3
# Si number density = 16.456122 Si / 1000 Ang^3
#
#
#
# Elastic Constant Matrix: (Units=GPa)
#
#
# Indices 1 2 3 4 5 6 
#
# 1 73.9156 48.3423 31.2144 0.0000 0.0000 0.0000
# 2 48.3423 148.0895 56.9865 0.0000 0.0000 0.0000
# 3 31.2144 56.9865 106.5123 0.0000 0.0000 0.0000
# 4 0.0000 0.0000 0.0000 30.4996 0.0000 0.0000
# 5 0.0000 0.0000 0.0000 0.0000 23.7646 0.0000
# 6 0.0000 0.0000 0.0000 0.0000 0.0000 15.0558
#
#
#
# Elastic Compliance Matrix: (Units=1/GPa)
#
#
# Indices 1 2 3 4 5 6 
#
# 1 0.017776 -0.004783 -0.002651 0.000000 0.000000 0.000000
# 2 -0.004783 0.009790 -0.003836 0.000000 0.000000 0.000000
# 3 -0.002651 -0.003836 0.012218 0.000000 0.000000 0.000000
# 4 0.000000 0.000000 0.000000 0.032787 0.000000 0.000000
# 5 0.000000 0.000000 0.000000 0.000000 0.042079 0.000000
# 6 0.000000 0.000000 0.000000 0.000000 0.000000 0.066419
#
#
# Mechanical properties :
#
#
# Convention : Reuss Voigt Hill
#
# Bulk Modulus (GPa) = 57.98819 66.84488 62.41654
# Shear Modulus (GPa) = 23.88246 26.66229 25.27238
#
# Velocity S-wave (km/s) = 3.81370 4.02954 3.92311
# Velocity P-wave (km/s) = 7.39642 7.89670 7.65065
#
# Compressibility (1/GPa) = 0.01724489
#
# Stress axis : x y z
#
# Youngs Moduli (GPa) = 56.25428 102.14198 81.84726
#
# Poissons Ratio (x) = 0.48854 0.21694
# Poissons Ratio (y) = 0.26906 0.31399
# Poissons Ratio (z) = 0.14910 0.39185
#
# Static dielectric constant tensor:
#      x y z
#    x 1.593580 0.000000 0.000000 
#    y 0.000000 1.540070 0.000000 
#    z 0.000000 0.000000 1.560720 
# 
# From -- ./inp_files/6303.got.cif
#   From: 2010.05.17/outbox.cif.g08.bks.cpg/sg49_4_cif.got.tgz:6303.got - 2010.06.03 21:02:19.
