data_PCOD9392328
_publ_section_title
;
Structure prediction by ZEFSAII (Michael W. Deem and Ramdas Pophale) SiO2 
 PCOD9392328
Probable space group: P C C M
;
_chemical_formula_sum "Si O2"
_cell_formula_units_Z 48
_cell_length_a 12.984473
_cell_length_b 22.916479
_cell_length_c 9.700438
_cell_angle_alpha 90.000000
_cell_angle_beta 90.000000
_cell_angle_gamma 90.000000
_cell_volume 2886.446838
_symmetry_space_group_name_H-M "P C C M"
_symmetry_group_IT_number 49
_symmetry_cell_setting 'orthorhombic'
loop_
_space_group_symop_operation_xyz
x,y,z
-x,-y,z
x,-y,1/2-z
-x,y,1/2-z
-x,-y,-z
x,y,-z
-x,y,1/2+z
x,-y,1/2+z
loop_
_atom_site_type_symbol
_atom_site_label
_atom_site_fract_x
_atom_site_fract_y
_atom_site_fract_z
Si Si1 0.378000 0.561208 0.500000
Si Si2 0.595330 0.881616 0.337808
Si Si3 0.182477 0.059086 0.663969
Si Si4 0.315421 0.776301 0.339442
Si Si5 0.624228 0.647262 0.241687
Si Si6 0.907058 0.833635 0.837444
Si Si7 0.371964 0.571672 0.000000
O O1 0.347433 0.600411 0.372860
O O2 0.336612 0.495428 0.500000
O O3 0.503429 0.562682 0.500000
O O4 0.500000 0.906495 0.250000
O O5 0.570593 0.873259 0.500000
O O6 0.697375 0.921510 0.330617
O O7 0.624877 0.821167 0.260439
O O8 0.154802 0.055120 0.500000
O O9 0.121049 0.108573 0.748692
O O10 0.168309 0.000000 0.750000
O O11 0.349979 0.781552 0.500000
O O12 0.331281 0.710602 0.288822
O O13 0.196063 0.794943 0.335209
O O14 0.500000 0.654417 0.250000
O O15 0.657938 0.612636 0.375195
O O16 0.000000 0.805964 0.750000
O O17 0.931259 0.845055 0.000000
#
# Coordination Sequence:
#
# PCOD9392328 Si02
#       7
#     4   8   8   8   8   8   4
#     4   9  16  30  42  60 101 139 176 207 241 285
#     4  10  21  34  51  73 103 139 174 211 248 288
#     4  10  21  37  56  80 105 134 169 206 246 297
#     4  10  20  34  51  72 101 132 168 210 256 305
#     4  10  18  28  45  69 100 138 173 207 243 287
#     4  10  21  38  58  78 101 129 159 206 262 311
#     4   9  18  26  42  68  95 139 176 207 243 281
#
# _framework density 16.629442000000001
#
# number of rings (size 3 to 8) (size 9 to 14) (size 15 to 20)
#    0.000    2.167    0.833    2.500    1.167    5.333 
#    0.000    3.333    0.000    0.000    0.000    0.000 
#    0.000    4.000    0.000    0.000    0.000    0.000 
#
# Total GULP energy -267392.687083 kJ/mol
# GULP energy per Si atom -5570.680981 kJ/mol
# Density = 1.659159 g / cm^3
# Si number density = 16.629442 Si / 1000 Ang^3
#
#
#
# Elastic Constant Matrix: (Units=GPa)
#
#
# Indices 1 2 3 4 5 6 
#
# 1 42.7262 -0.0300 24.2551 0.0000 0.0000 0.0000
# 2 -0.0300 94.0008 42.5851 0.0000 0.0000 0.0000
# 3 24.2551 42.5851 164.1127 0.0000 0.0000 0.0000
# 4 0.0000 0.0000 0.0000 16.6016 0.0000 0.0000
# 5 0.0000 0.0000 0.0000 0.0000 24.1168 0.0000
# 6 0.0000 0.0000 0.0000 0.0000 0.0000 4.3645
#
#
#
# Elastic Compliance Matrix: (Units=1/GPa)
#
#
# Indices 1 2 3 4 5 6 
#
# 1 0.025867 0.001972 -0.004335 0.000000 0.000000 0.000000
# 2 0.001972 0.012206 -0.003459 0.000000 0.000000 0.000000
# 3 -0.004335 -0.003459 0.007632 0.000000 0.000000 0.000000
# 4 0.000000 0.000000 0.000000 0.060235 0.000000 0.000000
# 5 0.000000 0.000000 0.000000 0.000000 0.041465 0.000000
# 6 0.000000 0.000000 0.000000 0.000000 0.000000 0.229122
#
#
# Mechanical properties :
#
#
# Convention : Reuss Voigt Hill
#
# Bulk Modulus (GPa) = 29.35871 48.27334 38.81603
# Shear Modulus (GPa) = 12.51492 24.61854 18.56673
#
# Velocity S-wave (km/s) = 2.74629 3.85180 3.34503
# Velocity P-wave (km/s) = 5.26774 6.99097 6.18962
#
# Compressibility (1/GPa) = 0.03406144
#
# Stress axis : x y z
#
# Youngs Moduli (GPa) = 38.65928 81.92882 131.03573
#
# Poissons Ratio (x) = -0.16156 0.56800
# Poissons Ratio (y) = -0.07624 0.45321
# Poissons Ratio (z) = 0.16758 0.28337
#
# Static dielectric constant tensor:
#      x y z
#    x 1.578540 0.000000 0.000000 
#    y 0.000000 1.531520 0.000000 
#    z 0.000000 0.000000 1.539610 
# 
# From -- ./inp_files/4177.got.cif
#   From: 2010.05.17/outbox.cif.g08.bks.cpg/sg49_3_cif.got.tgz:4177.got - 2010.06.03 21:02:19.
