data_PCOD9392968
_publ_section_title
;
Structure prediction by ZEFSAII (Michael W. Deem and Ramdas Pophale) SiO2 
 PCOD9392968
Probable space group: P C C M
;
_chemical_formula_sum "Si O2"
_cell_formula_units_Z 56
_cell_length_a 15.612165
_cell_length_b 20.515554
_cell_length_c 8.713940
_cell_angle_alpha 90.000000
_cell_angle_beta 90.000000
_cell_angle_gamma 90.000000
_cell_volume 2791.007136
_symmetry_space_group_name_H-M "P C C M"
_symmetry_group_IT_number 49
_symmetry_cell_setting 'orthorhombic'
loop_
_space_group_symop_operation_xyz
x,y,z
-x,-y,z
x,-y,1/2-z
-x,y,1/2-z
-x,-y,-z
x,y,-z
-x,y,1/2+z
x,-y,1/2+z
loop_
_atom_site_type_symbol
_atom_site_label
_atom_site_fract_x
_atom_site_fract_y
_atom_site_fract_z
Si Si1 0.409772 0.332149 0.817624
Si Si2 0.277568 0.932368 0.815752
Si Si3 0.909182 0.610572 0.181720
Si Si4 0.728745 0.569174 0.682971
Si Si5 0.855208 0.758370 0.182340
Si Si6 0.328432 0.789600 0.816455
Si Si7 0.086789 0.892162 0.184007
O O1 0.500000 0.355343 0.750000
O O2 0.332284 0.374752 0.749842
O O3 0.394964 0.257497 0.765721
O O4 0.409092 0.336724 0.000000
O O5 0.325696 0.865738 0.769427
O O6 0.177363 0.924165 0.769094
O O7 0.311330 0.000000 0.750000
O O8 0.279178 0.934651 0.000000
O O9 0.826287 0.580207 0.262281
O O10 0.899064 0.688673 0.204863
O O11 0.000000 0.589155 0.250000
O O12 0.905613 0.597320 0.000000
O O13 0.699446 0.500000 0.750000
O O14 0.724842 0.569633 0.500000
O O15 0.764671 0.761739 0.269358
O O16 0.906888 0.819045 0.249509
O O17 0.841351 0.767137 0.000000
O O18 0.338630 0.785843 0.000000
O O19 0.000000 0.922425 0.250000
O O20 0.083224 0.890608 0.000000
#
# Coordination Sequence:
#
# PCOD9392968 Si02
#       7
#     8   8   8   8   8   8   8
#     4  12  25  44  71 104 134 166 209 255 313 379
#     4   9  20  35  53  79 113 156 204 251 307 373
#     4  11  23  38  59  90 126 168 220 268 317 374
#     4  12  26  46  70  96 132 173 213 263 317 375
#     4  10  19  32  54  82 115 155 203 256 312 371
#     4  10  20  37  61  90 124 161 203 254 311 368
#     4  10  20  32  46  70 106 148 200 258 314 372
#
# _framework density 20.064442
#
# number of rings (size 3 to 8) (size 9 to 14) (size 15 to 20)
#    0.000    1.429    1.429    5.571    0.000    7.143 
#    0.000    4.286    0.000    0.429    0.000    3.000 
#    0.000    0.000    0.000    0.000    0.000    0.000 
#
# Total GULP energy -313035.187507 kJ/mol
# GULP energy per Si atom -5589.914063 kJ/mol
# Density = 2.001877 g / cm^3
# Si number density = 20.064442 Si / 1000 Ang^3
#
#
#
# Elastic Constant Matrix: (Units=GPa)
#
#
# Indices 1 2 3 4 5 6 
#
# 1 81.3994 34.9474 33.9474 0.0000 0.0000 0.0000
# 2 34.9474 113.3417 52.2451 0.0000 0.0000 0.0000
# 3 33.9474 52.2451 113.9967 0.0000 0.0000 0.0000
# 4 0.0000 0.0000 0.0000 29.0169 0.0000 0.0000
# 5 0.0000 0.0000 0.0000 0.0000 30.3063 0.0000
# 6 0.0000 0.0000 0.0000 0.0000 0.0000 3.5842
#
#
#
# Elastic Compliance Matrix: (Units=1/GPa)
#
#
# Indices 1 2 3 4 5 6 
#
# 1 0.014907 -0.003233 -0.002957 0.000000 0.000000 0.000000
# 2 -0.003233 0.011887 -0.004485 0.000000 0.000000 0.000000
# 3 -0.002957 -0.004485 0.011708 0.000000 0.000000 0.000000
# 4 0.000000 0.000000 0.000000 0.034463 0.000000 0.000000
# 5 0.000000 0.000000 0.000000 0.000000 0.032996 0.000000
# 6 0.000000 0.000000 0.000000 0.000000 0.000000 0.279002
#
#
# Mechanical properties :
#
#
# Convention : Reuss Voigt Hill
#
# Bulk Modulus (GPa) = 58.30550 61.22418 59.76484
# Shear Modulus (GPa) = 12.13502 25.08801 18.61151
#
# Velocity S-wave (km/s) = 2.46194 3.53990 3.04894
# Velocity P-wave (km/s) = 6.09949 6.87661 6.49968
#
# Compressibility (1/GPa) = 0.01715104
#
# Stress axis : x y z
#
# Youngs Moduli (GPa) = 67.08479 84.12413 85.40855
#
# Poissons Ratio (x) = 0.27198 0.25258
# Poissons Ratio (y) = 0.21689 0.38307
# Poissons Ratio (z) = 0.19839 0.37731
#
# Static dielectric constant tensor:
#      x y z
#    x 1.680040 0.000000 0.000000 
#    y 0.000000 1.742040 0.000000 
#    z 0.000000 0.000000 1.666280 
# 
# From -- ./inp_files/4069.got.cif
#   From: 2010.05.17/outbox.cif.g08.bks.cpg/sg49_3_cif.got.tgz:4069.got - 2010.06.03 21:02:19.
