data_PCOD9392503
_publ_section_title
;
Structure prediction by ZEFSAII (Michael W. Deem and Ramdas Pophale) SiO2 
 PCOD9392503
Probable space group: P C C M
;
_chemical_formula_sum "Si O2"
_cell_formula_units_Z 48
_cell_length_a 17.225928
_cell_length_b 8.786763
_cell_length_c 17.272318
_cell_angle_alpha 90.000000
_cell_angle_beta 90.000000
_cell_angle_gamma 90.000000
_cell_volume 2614.340588
_symmetry_space_group_name_H-M "P C C M"
_symmetry_group_IT_number 49
_symmetry_cell_setting 'orthorhombic'
loop_
_space_group_symop_operation_xyz
x,y,z
-x,-y,z
x,-y,1/2-z
-x,y,1/2-z
-x,-y,-z
x,y,-z
-x,y,1/2+z
x,-y,1/2+z
loop_
_atom_site_type_symbol
_atom_site_label
_atom_site_fract_x
_atom_site_fract_y
_atom_site_fract_z
Si Si1 0.408777 0.675920 0.263739
Si Si2 0.295213 0.099518 0.674034
Si Si3 0.999299 0.684858 0.911533
Si Si4 0.843255 0.691751 0.332712
Si Si5 0.328337 0.803189 0.410544
Si Si6 0.167987 0.338622 0.852612
O O1 0.388150 0.500000 0.250000
O O2 0.500000 0.697151 0.250000
O O3 0.358340 0.782018 0.206892
O O4 0.385810 0.720825 0.350829
O O5 0.221926 0.190270 0.641184
O O6 0.271557 0.000000 0.750000
O O7 0.328473 0.980609 0.612757
O O8 0.069864 0.737109 0.857435
O O9 0.000000 0.500000 0.907799
O O10 0.912747 0.726346 0.885409
O O11 0.013555 0.730645 0.000000
O O12 0.834143 0.682892 0.239940
O O13 0.828889 0.521410 0.365282
O O14 0.345870 0.778447 0.500000
O O15 0.242470 0.739833 0.389955
#
# Coordination Sequence:
#
# PCOD9392503 Si02
#       6
#     8   8   8   8   8   8
#     4  10  21  42  69  92 115 152 191 236 287 350
#     4  10  20  36  57  83 117 155 191 229 282 357
#     4   9  18  30  47  77 115 151 192 250 303 335
#     4  10  18  32  57  82 108 153 205 246 285 354
#     4  11  23  38  60  90 125 156 192 239 293 345
#     4  10  18  33  57  83 112 149 204 247 295 341
#
# _framework density 18.36027
#
# number of rings (size 3 to 8) (size 9 to 14) (size 15 to 20)
#    0.000    2.000    3.333    2.000    0.000    6.333 
#    0.000    6.667    0.000    2.000    0.000    0.000 
#    0.000    0.000    0.000    0.000    0.000    0.000 
#
# Total GULP energy -267893.020425 kJ/mol
# GULP energy per Si atom -5581.104592 kJ/mol
# Density = 1.831848 g / cm^3
# Si number density = 18.360270 Si / 1000 Ang^3
#
#
#
# Elastic Constant Matrix: (Units=GPa)
#
#
# Indices 1 2 3 4 5 6 
#
# 1 102.8122 63.1689 49.8521 0.0000 0.0000 0.0000
# 2 63.1689 89.5282 38.2967 0.0000 0.0000 0.0000
# 3 49.8521 38.2967 97.9762 0.0000 0.0000 0.0000
# 4 0.0000 0.0000 0.0000 9.7567 0.0000 0.0000
# 5 0.0000 0.0000 0.0000 0.0000 -0.8854 0.0000
# 6 0.0000 0.0000 0.0000 0.0000 0.0000 -24.7382
#
#
#
# Elastic Compliance Matrix: (Units=1/GPa)
#
#
# Indices 1 2 3 4 5 6 
#
# 1 0.019285 -0.011299 -0.005396 0.000000 0.000000 0.000000
# 2 -0.011299 0.020032 -0.002081 0.000000 0.000000 0.000000
# 3 -0.005396 -0.002081 0.013766 0.000000 0.000000 0.000000
# 4 0.000000 0.000000 0.000000 0.102494 0.000000 0.000000
# 5 0.000000 0.000000 0.000000 0.000000 -1.129390 0.000000
# 6 0.000000 0.000000 0.000000 0.000000 0.000000 -0.040423
#
#
# Mechanical properties :
#
#
# Convention : Reuss Voigt Hill
#
# Bulk Modulus (GPa) = 64.38832 65.88355 65.13594
# Shear Modulus (GPa) = -5.14664 6.09320 0.47328
#
# Velocity S-wave (km/s) = -1.67607 1.82370 0.50827
# Velocity P-wave (km/s) = 5.60356 6.35580 5.99150
#
# Compressibility (1/GPa) = 0.01553077
#
# Stress axis : x y z
#
# Youngs Moduli (GPa) = 51.85343 49.92002 72.64457
#
# Poissons Ratio (x) = 0.56404 0.39200
# Poissons Ratio (y) = 0.58588 0.15118
# Poissons Ratio (z) = 0.27981 0.10388
#
# Static dielectric constant tensor:
#      x y z
#    x 1.626370 0.000000 0.000000 
#    y 0.000000 1.652280 0.000000 
#    z 0.000000 0.000000 1.617420 
# 
# From -- ./inp_files/13995.got.cif
#   From: 2010.05.17/outbox.cif.g08.bks.cpg/sg49_7_cif.got.tgz:13995.got - 2010.06.03 21:02:19.
