data_PCOD9392354
_publ_section_title
;
Structure prediction by ZEFSAII (Michael W. Deem and Ramdas Pophale) SiO2 
 PCOD9392354
Probable space group: P C C M
;
_chemical_formula_sum "Si O2"
_cell_formula_units_Z 56
_cell_length_a 21.758645
_cell_length_b 18.999214
_cell_length_c 8.712039
_cell_angle_alpha 90.000000
_cell_angle_beta 90.000000
_cell_angle_gamma 90.000000
_cell_volume 3601.532117
_symmetry_space_group_name_H-M "P C C M"
_symmetry_group_IT_number 49
_symmetry_cell_setting 'orthorhombic'
loop_
_space_group_symop_operation_xyz
x,y,z
-x,-y,z
x,-y,1/2-z
-x,y,1/2-z
-x,-y,-z
x,y,-z
-x,y,1/2+z
x,-y,1/2+z
loop_
_atom_site_type_symbol
_atom_site_label
_atom_site_fract_x
_atom_site_fract_y
_atom_site_fract_z
Si Si1 0.932887 0.422413 0.183913
Si Si2 0.302619 0.422583 0.183488
Si Si3 0.636442 0.285273 0.314555
Si Si4 0.435258 0.846435 0.683251
Si Si5 0.308041 0.077790 0.184614
Si Si6 0.820779 0.335916 0.684473
Si Si7 0.755532 0.207644 0.182225
O O1 0.917959 0.500000 0.250000
O O2 0.881064 0.369242 0.241648
O O3 0.000000 0.403819 0.250000
O O4 0.934988 0.425489 0.000000
O O5 0.308595 0.500000 0.250000
O O6 0.357104 0.367446 0.224594
O O7 0.238167 0.384924 0.228510
O O8 0.301633 0.428406 0.000000
O O9 0.646427 0.279215 0.500000
O O10 0.578903 0.235658 0.276934
O O11 0.693175 0.248330 0.230032
O O12 0.500000 0.869880 0.750000
O O13 0.438549 0.851409 0.500000
O O14 0.375298 0.891132 0.731980
O O15 0.256075 0.130534 0.248478
O O16 0.301141 0.000000 0.250000
O O17 0.306059 0.078197 0.000000
O O18 0.824631 0.336128 0.500000
O O19 0.807427 0.257129 0.743617
O O20 0.762350 0.204641 0.000000
#
# Coordination Sequence:
#
# PCOD9392354 Si02
#       7
#     8   8   8   8   8   8   8
#     4  11  21  33  47  66  94 131 170 206 243 282
#     4   9  17  27  42  62  85 110 141 182 230 274
#     4   8  16  31  44  58  84 116 143 178 227 274
#     4   9  18  31  47  64  85 113 148 184 221 266
#     4  10  20  34  49  68  95 124 148 179 222 270
#     4  10  19  32  47  65  92 125 157 194 233 273
#     4  10  18  29  47  70  91 116 150 187 225 272
#
# _framework density 15.548939000000001
#
# number of rings (size 3 to 8) (size 9 to 14) (size 15 to 20)
#    0.000    2.429    0.000    6.000    0.000    7.143 
#    0.000    1.429    0.000    0.429    0.000    3.000 
#    0.000    0.571    0.000    5.714    0.000    3.429 
#
# Total GULP energy -311978.698949 kJ/mol
# GULP energy per Si atom -5571.048196 kJ/mol
# Density = 1.551355 g / cm^3
# Si number density = 15.548939 Si / 1000 Ang^3
#
#
#
# Elastic Constant Matrix: (Units=GPa)
#
#
# Indices 1 2 3 4 5 6 
#
# 1 49.5017 36.6946 23.9198 0.0000 0.0000 0.0000
# 2 36.6946 129.6096 37.2935 0.0000 0.0000 0.0000
# 3 23.9198 37.2935 60.8890 0.0000 0.0000 0.0000
# 4 0.0000 0.0000 0.0000 27.7458 0.0000 0.0000
# 5 0.0000 0.0000 0.0000 0.0000 14.4904 0.0000
# 6 0.0000 0.0000 0.0000 0.0000 0.0000 17.3743
#
#
#
# Elastic Compliance Matrix: (Units=1/GPa)
#
#
# Indices 1 2 3 4 5 6 
#
# 1 0.028127 -0.005807 -0.007492 0.000000 0.000000 0.000000
# 2 -0.005807 0.010565 -0.004190 0.000000 0.000000 0.000000
# 3 -0.007492 -0.004190 0.021933 0.000000 0.000000 0.000000
# 4 0.000000 0.000000 0.000000 0.036041 0.000000 0.000000
# 5 0.000000 0.000000 0.000000 0.000000 0.069011 0.000000
# 6 0.000000 0.000000 0.000000 0.000000 0.000000 0.057556
#
#
# Mechanical properties :
#
#
# Convention : Reuss Voigt Hill
#
# Bulk Modulus (GPa) = 38.99280 48.42402 43.70841
# Shear Modulus (GPa) = 18.74339 21.39493 20.06916
#
# Velocity S-wave (km/s) = 3.47572 3.71344 3.59654
# Velocity P-wave (km/s) = 6.42179 7.04249 6.73929
#
# Compressibility (1/GPa) = 0.02564576
#
# Stress axis : x y z
#
# Youngs Moduli (GPa) = 35.55362 94.65122 45.59391
#
# Poissons Ratio (x) = 0.54966 0.34161
# Poissons Ratio (y) = 0.20647 0.19102
# Poissons Ratio (z) = 0.26638 0.39655
#
# Static dielectric constant tensor:
#      x y z
#    x 1.513400 0.000000 0.000000 
#    y 0.000000 1.543610 0.000000 
#    z 0.000000 0.000000 1.520620 
# 
# From -- ./inp_files/5159.got.cif
#   From: 2010.05.17/outbox.cif.g08.bks.cpg/sg49_3_cif.got.tgz:5159.got - 2010.06.03 21:02:19.
