data_PCOD9392144
_publ_section_title
;
Structure prediction by ZEFSAII (Michael W. Deem and Ramdas Pophale) SiO2 
 PCOD9392144
Probable space group: P C C M
;
_chemical_formula_sum "Si O2"
_cell_formula_units_Z 64
_cell_length_a 27.599057
_cell_length_b 14.269859
_cell_length_c 8.883248
_cell_angle_alpha 90.000000
_cell_angle_beta 90.000000
_cell_angle_gamma 90.000000
_cell_volume 3498.530884
_symmetry_space_group_name_H-M "P C C M"
_symmetry_group_IT_number 49
_symmetry_cell_setting 'orthorhombic'
loop_
_space_group_symop_operation_xyz
x,y,z
-x,-y,z
x,-y,1/2-z
-x,y,1/2-z
-x,-y,-z
x,y,-z
-x,y,1/2+z
x,-y,1/2+z
loop_
_atom_site_type_symbol
_atom_site_label
_atom_site_fract_x
_atom_site_fract_y
_atom_site_fract_z
Si Si1 0.549147 0.894211 0.181025
Si Si2 0.353676 0.102755 0.679498
Si Si3 0.241577 0.594229 0.824711
Si Si4 0.950431 0.632413 0.672295
Si Si5 0.249634 0.805476 0.820268
Si Si6 0.050932 0.138778 0.328344
Si Si7 0.145835 0.373634 0.831917
Si Si8 0.151576 0.147020 0.829842
O O1 0.500000 0.851078 0.250000
O O2 0.599552 0.851072 0.240348
O O3 0.550172 0.000000 0.250000
O O4 0.547239 0.897889 0.000000
O O5 0.362558 0.097899 0.500000
O O6 0.301845 0.149700 0.705440
O O7 0.349532 0.000000 0.750000
O O8 0.261922 0.500000 0.750000
O O9 0.254339 0.697743 0.763263
O O10 0.184172 0.594633 0.791771
O O11 0.252597 0.591664 0.000000
O O12 0.945839 0.600893 0.500000
O O13 0.949376 0.746937 0.668982
O O14 0.907103 0.600805 0.778305
O O15 0.000000 0.605224 0.750000
O O16 0.204001 0.861547 0.750336
O O17 0.240365 0.800650 0.000000
O O18 0.051065 0.105097 0.500000
O O19 0.102036 0.112696 0.249421
O O20 0.000000 0.111308 0.250000
O O21 0.146600 0.260318 0.835793
O O22 0.158509 0.406632 0.000000
O O23 0.153825 0.110349 0.000000
#
# Coordination Sequence:
#
# PCOD9392144 Si02
#       8
#     8   8   8   8   8   8   8   8
#     4  10  17  27  44  68  99 136 174 209 240 274
#     4  10  19  32  49  72 102 137 172 205 239 279
#     4  10  19  32  48  66  86 113 149 191 236 281
#     4   9  15  22  33  50  71  97 128 166 210 261
#     4   9  19  33  48  66  94 128 160 195 240 288
#     4   9  15  22  33  50  75 104 137 177 225 277
#     4   9  16  26  39  56  76 101 134 175 220 269
#     4   9  16  25  39  58  81 109 145 186 230 278
#
# _framework density 18.293392999999998
#
# number of rings (size 3 to 8) (size 9 to 14) (size 15 to 20)
#    0.000    2.625    0.000    4.500    0.000    7.500 
#    0.000    0.000    0.000    0.375    0.000    2.625 
#    0.000    1.000    0.000   11.000    0.000    9.625 
#
# Total GULP energy -356775.949999 kJ/mol
# GULP energy per Si atom -5574.624219 kJ/mol
# Density = 1.825176 g / cm^3
# Si number density = 18.293393 Si / 1000 Ang^3
#
#
#
# Elastic Constant Matrix: (Units=GPa)
#
#
# Indices 1 2 3 4 5 6 
#
# 1 139.9658 20.0522 64.3995 0.0000 0.0000 0.0000
# 2 20.0522 36.4722 10.0635 0.0000 0.0000 0.0000
# 3 64.3995 10.0635 104.8349 0.0000 0.0000 0.0000
# 4 0.0000 0.0000 0.0000 2.9544 0.0000 0.0000
# 5 0.0000 0.0000 0.0000 0.0000 106.1298 0.0000
# 6 0.0000 0.0000 0.0000 0.0000 0.0000 -55.7746
#
#
#
# Elastic Compliance Matrix: (Units=1/GPa)
#
#
# Indices 1 2 3 4 5 6 
#
# 1 0.010528 -0.004113 -0.006072 0.000000 0.000000 0.000000
# 2 -0.004113 0.029771 -0.000331 0.000000 0.000000 0.000000
# 3 -0.006072 -0.000331 0.013301 0.000000 0.000000 0.000000
# 4 0.000000 0.000000 0.000000 0.338476 0.000000 0.000000
# 5 0.000000 0.000000 0.000000 0.000000 0.009422 0.000000
# 6 0.000000 0.000000 0.000000 0.000000 0.000000 -0.017929
#
#
# Mechanical properties :
#
#
# Convention : Reuss Voigt Hill
#
# Bulk Modulus (GPa) = 30.70643 52.25593 41.48118
# Shear Modulus (GPa) = 12.03495 23.11242 17.57369
#
# Velocity S-wave (km/s) = 2.56771 3.55833 3.10281
# Velocity P-wave (km/s) = 5.06091 6.74609 5.96333
#
# Compressibility (1/GPa) = 0.03256647
#
# Stress axis : x y z
#
# Youngs Moduli (GPa) = 94.98724 33.59008 75.18324
#
# Poissons Ratio (x) = 0.13814 0.45654
# Poissons Ratio (y) = 0.39064 0.02492
# Poissons Ratio (z) = 0.57680 0.01113
#
# Static dielectric constant tensor:
#      x y z
#    x 1.664860 0.000000 0.000000 
#    y 0.000000 1.709820 0.000000 
#    z 0.000000 0.000000 1.636220 
# 
# From -- ./inp_files/7046.got.cif
#   From: 2010.05.17/outbox.cif.g08.bks.cpg/sg49_4_cif.got.tgz:7046.got - 2010.06.03 21:02:19.
