data_PCOD9392413
_publ_section_title
;
Structure prediction by ZEFSAII (Michael W. Deem and Ramdas Pophale) SiO2 
 PCOD9392413
Probable space group: P C C M
;
_chemical_formula_sum "Si O2"
_cell_formula_units_Z 32
_cell_length_a 8.226389
_cell_length_b 10.689056
_cell_length_c 19.269612
_cell_angle_alpha 90.000000
_cell_angle_beta 90.000000
_cell_angle_gamma 90.000000
_cell_volume 1694.421933
_symmetry_space_group_name_H-M "P C C M"
_symmetry_group_IT_number 49
_symmetry_cell_setting 'orthorhombic'
loop_
_space_group_symop_operation_xyz
x,y,z
-x,-y,z
x,-y,1/2-z
-x,y,1/2-z
-x,-y,-z
x,y,-z
-x,y,1/2+z
x,-y,1/2+z
loop_
_atom_site_type_symbol
_atom_site_label
_atom_site_fract_x
_atom_site_fract_y
_atom_site_fract_z
Si Si1 0.577282 0.639771 0.421851
Si Si2 0.823176 0.117654 0.285907
Si Si3 0.688045 0.630833 0.726344
Si Si4 0.634978 0.107788 0.419630
O O1 0.500000 0.500000 0.417006
O O2 0.645677 0.651892 0.500000
O O3 0.696170 0.648037 0.356390
O O4 0.450227 0.754953 0.413454
O O5 0.755343 0.250579 0.265015
O O6 0.786843 0.100220 0.367252
O O7 0.000000 0.118640 0.250000
O O8 0.734393 0.000000 0.250000
O O9 0.764144 0.500000 0.750000
O O10 0.500000 0.625938 0.750000
O O11 0.681961 0.090959 0.500000
O O12 0.500000 0.000000 0.403674
#
# Coordination Sequence:
#
# PCOD9392413 Si02
#       4
#     8   8   8   8
#     4  10  18  30  51  82 111 136 177 234 281 322
#     4  11  24  38  54  83 115 150 187 226 287 345
#     4  11  19  34  57  84 109 143 192 237 280 334
#     4  10  20  35  58  85 110 146 191 238 287 335
#
# _framework density 18.885497000000001
#
# number of rings (size 3 to 8) (size 9 to 14) (size 15 to 20)
#    0.000    1.500    5.000    1.500    0.000    0.500 
#    0.000    3.750    0.000    0.000    0.000    8.750 
#    0.000    0.000    0.000    0.000    0.000    0.000 
#
# Total GULP energy -178177.891249 kJ/mol
# GULP energy per Si atom -5568.059102 kJ/mol
# Density = 1.884251 g / cm^3
# Si number density = 18.885497 Si / 1000 Ang^3
#
#
#
# Elastic Constant Matrix: (Units=GPa)
#
#
# Indices 1 2 3 4 5 6 
#
# 1 45.8789 29.5260 41.2941 0.0000 0.0000 0.0000
# 2 29.5260 139.8979 21.3519 0.0000 0.0000 0.0000
# 3 41.2941 21.3519 178.2910 0.0000 0.0000 0.0000
# 4 0.0000 0.0000 0.0000 27.9306 0.0000 0.0000
# 5 0.0000 0.0000 0.0000 0.0000 24.0882 0.0000
# 6 0.0000 0.0000 0.0000 0.0000 0.0000 11.6876
#
#
#
# Elastic Compliance Matrix: (Units=1/GPa)
#
#
# Indices 1 2 3 4 5 6 
#
# 1 0.031333 -0.005608 -0.006585 0.000000 0.000000 0.000000
# 2 -0.005608 0.008285 0.000307 0.000000 0.000000 0.000000
# 3 -0.006585 0.000307 0.007097 0.000000 0.000000 0.000000
# 4 0.000000 0.000000 0.000000 0.035803 0.000000 0.000000
# 5 0.000000 0.000000 0.000000 0.000000 0.041514 0.000000
# 6 0.000000 0.000000 0.000000 0.000000 0.000000 0.085561
#
#
# Mechanical properties :
#
#
# Convention : Reuss Voigt Hill
#
# Bulk Modulus (GPa) = 43.58858 60.93464 52.26161
# Shear Modulus (GPa) = 20.74574 30.86768 25.80671
#
# Velocity S-wave (km/s) = 3.31796 4.04724 3.70061
# Velocity P-wave (km/s) = 6.14891 7.36040 6.78176
#
# Compressibility (1/GPa) = 0.02294179
#
# Stress axis : x y z
#
# Youngs Moduli (GPa) = 31.91544 120.70281 140.89782
#
# Poissons Ratio (x) = 0.67688 0.92787
# Poissons Ratio (y) = 0.17898 -0.04321
# Poissons Ratio (z) = 0.21018 -0.03701
#
# Static dielectric constant tensor:
#      x y z
#    x 1.631650 0.000000 0.000000 
#    y 0.000000 1.715070 0.000000 
#    z 0.000000 0.000000 1.685420 
# 
# From -- ./inp_files/15883.got.cif
#   From: 2010.05.17/outbox.cif.g08.bks.cpg/sg49_8_cif.got.tgz:15883.got - 2010.06.03 21:02:19.
