data_PCOD9392773
_publ_section_title
;
Structure prediction by ZEFSAII (Michael W. Deem and Ramdas Pophale) SiO2 
 PCOD9392773
Probable space group: P C C M
;
_chemical_formula_sum "Si O2"
_cell_formula_units_Z 64
_cell_length_a 19.487878
_cell_length_b 23.984049
_cell_length_c 8.698954
_cell_angle_alpha 90.000000
_cell_angle_beta 90.000000
_cell_angle_gamma 90.000000
_cell_volume 4065.875623
_symmetry_space_group_name_H-M "P C C M"
_symmetry_group_IT_number 49
_symmetry_cell_setting 'orthorhombic'
loop_
_space_group_symop_operation_xyz
x,y,z
-x,-y,z
x,-y,1/2-z
-x,y,1/2-z
-x,-y,-z
x,y,-z
-x,y,1/2+z
x,-y,1/2+z
loop_
_atom_site_type_symbol
_atom_site_label
_atom_site_fract_x
_atom_site_fract_y
_atom_site_fract_z
Si Si1 0.573895 0.244173 0.816641
Si Si2 0.791357 0.164450 0.814877
Si Si3 0.160530 0.338262 0.314835
Si Si4 0.712158 0.060637 0.683314
Si Si5 0.074830 0.561717 0.315705
Si Si6 0.924716 0.771838 0.684048
Si Si7 0.426099 0.111392 0.683566
Si Si8 0.284618 0.726916 0.683597
O O1 0.500000 0.260635 0.750000
O O2 0.582197 0.177683 0.784244
O O3 0.637184 0.275906 0.739673
O O4 0.575432 0.251102 0.000000
O O5 0.764274 0.106973 0.747463
O O6 0.869367 0.180813 0.772975
O O7 0.745201 0.214869 0.749883
O O8 0.784878 0.164325 0.000000
O O9 0.162099 0.341502 0.500000
O O10 0.130492 0.394310 0.243180
O O11 0.109445 0.287250 0.270064
O O12 0.234861 0.320395 0.252166
O O13 0.713776 0.059954 0.500000
O O14 0.636554 0.078959 0.740206
O O15 0.728024 0.000000 0.750000
O O16 0.088562 0.500000 0.250000
O O17 0.071994 0.560206 0.500000
O O18 0.000000 0.578590 0.250000
O O19 0.929123 0.771408 0.500000
O O20 0.000000 0.779105 0.750000
O O21 0.500000 0.094360 0.750000
O O22 0.424539 0.103736 0.500000
O O23 0.280754 0.727227 0.500000
#
# Coordination Sequence:
#
# PCOD9392773 Si02
#       8
#     8   8   8   8   8   8   8   8
#     4  10  19  31  49  71 100 133 165 203 246 296
#     4  10  20  36  52  71  98 127 158 197 244 295
#     4  10  20  34  50  73 105 139 174 216 256 293
#     4  12  24  37  54  73  94 123 159 199 243 294
#     4  11  21  34  51  73 103 143 185 221 258 301
#     4   9  19  32  51  75 101 128 157 196 244 293
#     4  10  20  34  52  72  98 127 160 199 239 287
#     4  11  20  31  50  75 101 132 168 206 251 302
#
# _framework density 15.740767
#
# number of rings (size 3 to 8) (size 9 to 14) (size 15 to 20)
#    0.000    1.625    1.250    6.375    0.000    5.250 
#    0.000    1.250    0.000    0.375    0.000    2.625 
#    0.000    0.500    0.000    5.000    0.000    3.000 
#
# Total GULP energy -357463.957206 kJ/mol
# GULP energy per Si atom -5585.374331 kJ/mol
# Density = 1.570494 g / cm^3
# Si number density = 15.740767 Si / 1000 Ang^3
#
#
#
# Elastic Constant Matrix: (Units=GPa)
#
#
# Indices 1 2 3 4 5 6 
#
# 1 127.1011 56.9889 51.4244 0.0000 0.0000 0.0000
# 2 56.9889 82.0980 45.6170 0.0000 0.0000 0.0000
# 3 51.4244 45.6170 102.7326 0.0000 0.0000 0.0000
# 4 0.0000 0.0000 0.0000 23.3870 0.0000 0.0000
# 5 0.0000 0.0000 0.0000 0.0000 31.0912 0.0000
# 6 0.0000 0.0000 0.0000 0.0000 0.0000 25.1165
#
#
#
# Elastic Compliance Matrix: (Units=1/GPa)
#
#
# Indices 1 2 3 4 5 6 
#
# 1 0.012122 -0.006695 -0.003095 0.000000 0.000000 0.000000
# 2 -0.006695 0.019867 -0.005471 0.000000 0.000000 0.000000
# 3 -0.003095 -0.005471 0.013712 0.000000 0.000000 0.000000
# 4 0.000000 0.000000 0.000000 0.042759 0.000000 0.000000
# 5 0.000000 0.000000 0.000000 0.000000 0.032163 0.000000
# 6 0.000000 0.000000 0.000000 0.000000 0.000000 0.039814
#
#
# Mechanical properties :
#
#
# Convention : Reuss Voigt Hill
#
# Bulk Modulus (GPa) = 65.87279 68.88802 67.38041
# Shear Modulus (GPa) = 25.50767 26.44571 25.97669
#
# Velocity S-wave (km/s) = 4.02989 4.10332 4.06677
# Velocity P-wave (km/s) = 7.97451 8.14302 8.05920
#
# Compressibility (1/GPa) = 0.01518077
#
# Stress axis : x y z
#
# Youngs Moduli (GPa) = 82.49672 50.33352 72.92621
#
# Poissons Ratio (x) = 0.33696 0.22571
# Poissons Ratio (y) = 0.55229 0.39896
# Poissons Ratio (z) = 0.25533 0.27536
#
# Static dielectric constant tensor:
#      x y z
#    x 1.525000 0.000000 0.000000 
#    y 0.000000 1.507450 0.000000 
#    z 0.000000 0.000000 1.521420 
# 
# From -- ./inp_files/5433.got.cif
#   From: 2010.05.17/outbox.cif.g08.bks.cpg/sg49_3_cif.got.tgz:5433.got - 2010.06.03 21:02:19.
