data_PCOD9392359
_publ_section_title
;
Structure prediction by ZEFSAII (Michael W. Deem and Ramdas Pophale) SiO2 
 PCOD9392359
Probable space group: P C C M
;
_chemical_formula_sum "Si O2"
_cell_formula_units_Z 56
_cell_length_a 18.799728
_cell_length_b 19.512691
_cell_length_c 8.853584
_cell_angle_alpha 90.000000
_cell_angle_beta 90.000000
_cell_angle_gamma 90.000000
_cell_volume 3247.789288
_symmetry_space_group_name_H-M "P C C M"
_symmetry_group_IT_number 49
_symmetry_cell_setting 'orthorhombic'
loop_
_space_group_symop_operation_xyz
x,y,z
-x,-y,z
x,-y,1/2-z
-x,y,1/2-z
-x,-y,-z
x,y,-z
-x,y,1/2+z
x,-y,1/2+z
loop_
_atom_site_type_symbol
_atom_site_label
_atom_site_fract_x
_atom_site_fract_y
_atom_site_fract_z
Si Si1 0.347634 0.570601 0.680953
Si Si2 0.189404 0.571266 0.818220
Si Si3 0.577300 0.286621 0.680583
Si Si4 0.705135 0.202142 0.819872
Si Si5 0.781313 0.925251 0.818626
Si Si6 0.852630 0.280273 0.179937
Si Si7 0.074422 0.152741 0.820325
O O1 0.376908 0.500000 0.750000
O O2 0.340544 0.564412 0.500000
O O3 0.269284 0.579786 0.752975
O O4 0.395230 0.636469 0.716192
O O5 0.161482 0.500000 0.750000
O O6 0.146126 0.639841 0.777644
O O7 0.193380 0.566937 0.000000
O O8 0.500000 0.275443 0.750000
O O9 0.575191 0.279620 0.500000
O O10 0.635322 0.235105 0.748691
O O11 0.725849 0.129599 0.747339
O O12 0.772824 0.251955 0.789537
O O13 0.697973 0.196008 0.000000
O O14 0.859519 0.895845 0.775914
O O15 0.771123 0.000000 0.750000
O O16 0.776814 0.926876 0.000000
O O17 0.905353 0.228943 0.263894
O O18 0.864649 0.274419 0.000000
O O19 0.000000 0.130690 0.750000
O O20 0.069221 0.152647 0.000000
#
# Coordination Sequence:
#
# PCOD9392359 Si02
#       7
#     8   8   8   8   8   8   8
#     4  10  20  32  48  70 100 137 177 223 272 323
#     4  10  18  29  47  73 101 133 173 221 271 318
#     4  11  23  36  52  75 104 141 182 226 273 323
#     4  10  19  35  57  79 106 138 175 221 265 313
#     4  10  21  37  58  86 114 144 178 212 254 305
#     4   9  18  32  52  75 102 137 177 218 264 314
#     4  10  21  35  54  80 112 145 178 213 254 307
#
# _framework density 17.242498000000001
#
# number of rings (size 3 to 8) (size 9 to 14) (size 15 to 20)
#    0.000    2.000    1.429    3.429    0.000    5.714 
#    0.000    2.857    0.000    0.857    0.000    6.000 
#    0.000    0.000    0.000    0.000    0.000    0.000 
#
# Total GULP energy -312628.741569 kJ/mol
# GULP energy per Si atom -5582.656099 kJ/mol
# Density = 1.720325 g / cm^3
# Si number density = 17.242498 Si / 1000 Ang^3
#
#
#
# Elastic Constant Matrix: (Units=GPa)
#
#
# Indices 1 2 3 4 5 6 
#
# 1 58.8953 42.0224 29.5705 0.0000 0.0000 0.0000
# 2 42.0224 145.7565 51.5972 0.0000 0.0000 0.0000
# 3 29.5705 51.5972 55.2724 0.0000 0.0000 0.0000
# 4 0.0000 0.0000 0.0000 26.6257 0.0000 0.0000
# 5 0.0000 0.0000 0.0000 0.0000 24.6878 0.0000
# 6 0.0000 0.0000 0.0000 0.0000 0.0000 12.4103
#
#
#
# Elastic Compliance Matrix: (Units=1/GPa)
#
#
# Indices 1 2 3 4 5 6 
#
# 1 0.024423 -0.003608 -0.009698 0.000000 0.000000 0.000000
# 2 -0.003608 0.010780 -0.008133 0.000000 0.000000 0.000000
# 3 -0.009698 -0.008133 0.030873 0.000000 0.000000 0.000000
# 4 0.000000 0.000000 0.000000 0.037558 0.000000 0.000000
# 5 0.000000 0.000000 0.000000 0.000000 0.040506 0.000000
# 6 0.000000 0.000000 0.000000 0.000000 0.000000 0.080578
#
#
# Mechanical properties :
#
#
# Convention : Reuss Voigt Hill
#
# Bulk Modulus (GPa) = 43.10774 56.25606 49.68190
# Shear Modulus (GPa) = 18.16017 21.86036 20.01027
#
# Velocity S-wave (km/s) = 3.24886 3.56451 3.41034
# Velocity P-wave (km/s) = 6.25528 7.04544 6.66209
#
# Compressibility (1/GPa) = 0.02319769
#
# Stress axis : x y z
#
# Youngs Moduli (GPa) = 40.94507 92.76413 32.39128
#
# Poissons Ratio (x) = 0.33472 0.31412
# Poissons Ratio (y) = 0.14774 0.26343
# Poissons Ratio (z) = 0.39708 0.75443
#
# Static dielectric constant tensor:
#      x y z
#    x 1.558010 0.000000 0.000000 
#    y 0.000000 1.585250 0.000000 
#    z 0.000000 0.000000 1.571680 
# 
# From -- ./inp_files/5196.got.cif
#   From: 2010.05.17/outbox.cif.g08.bks.cpg/sg49_3_cif.got.tgz:5196.got - 2010.06.03 21:02:19.
