data_PCOD9392932
_publ_section_title
;
Structure prediction by ZEFSAII (Michael W. Deem and Ramdas Pophale) SiO2 
 PCOD9392932
Probable space group: P C C M
;
_chemical_formula_sum "Si O2"
_cell_formula_units_Z 64
_cell_length_a 17.782551
_cell_length_b 20.930718
_cell_length_c 9.102164
_cell_angle_alpha 90.000000
_cell_angle_beta 90.000000
_cell_angle_gamma 90.000000
_cell_volume 3387.839643
_symmetry_space_group_name_H-M "P C C M"
_symmetry_group_IT_number 49
_symmetry_cell_setting 'orthorhombic'
loop_
_space_group_symop_operation_xyz
x,y,z
-x,-y,z
x,-y,1/2-z
-x,y,1/2-z
-x,-y,-z
x,y,-z
-x,y,1/2+z
x,-y,1/2+z
loop_
_atom_site_type_symbol
_atom_site_label
_atom_site_fract_x
_atom_site_fract_y
_atom_site_fract_z
Si Si1 0.692118 0.933335 0.825423
Si Si2 0.368323 0.701120 0.823596
Si Si3 0.576608 0.841212 0.325484
Si Si4 0.795725 0.435504 0.830467
Si Si5 0.871665 0.065661 0.674069
Si Si6 0.076299 0.204128 0.176963
Si Si7 0.387826 0.563630 0.832472
Si Si8 0.793565 0.304216 0.676154
O O1 0.646315 0.877094 0.748768
O O2 0.781776 0.926427 0.803295
O O3 0.669462 0.000000 0.750000
O O4 0.677979 0.934504 0.000000
O O5 0.414496 0.765360 0.800113
O O6 0.405540 0.634371 0.771930
O O7 0.288121 0.709203 0.744880
O O8 0.355692 0.694136 0.000000
O O9 0.500000 0.863906 0.250000
O O10 0.575684 0.852667 0.500000
O O11 0.820854 0.500000 0.750000
O O12 0.703969 0.436634 0.830571
O O13 0.818672 0.372017 0.743615
O O14 0.819555 0.433461 0.000000
O O15 0.884384 0.059684 0.500000
O O16 0.909258 0.131148 0.726817
O O17 0.896054 0.000000 0.750000
O O18 0.147224 0.248795 0.213342
O O19 0.000000 0.228152 0.250000
O O20 0.069484 0.203856 0.000000
O O21 0.412560 0.500000 0.750000
O O22 0.413736 0.559524 0.000000
O O23 0.787393 0.308767 0.500000
#
# Coordination Sequence:
#
# PCOD9392932 Si02
#       8
#     8   8   8   8   8   8   8   8
#     4  10  20  37  60  84 109 136 169 211 258 309
#     4   9  19  34  52  75 104 137 174 216 262 314
#     4  11  23  38  55  77 106 140 177 217 262 311
#     4   9  16  27  45  72 104 135 169 211 261 313
#     4   9  19  36  57  81 107 135 170 212 257 307
#     4  10  22  37  52  74 105 140 176 214 257 307
#     4   8  14  25  42  68  99 128 161 204 251 299
#     4  10  19  32  52  77 104 135 174 219 265 312
#
# _framework density 18.891095
#
# number of rings (size 3 to 8) (size 9 to 14) (size 15 to 20)
#    0.000    2.500    0.000    3.000    0.000    7.500 
#    0.000    2.500    0.000    0.750    0.000    5.250 
#    0.000    0.000    0.000    0.000    0.000    0.000 
#
# Total GULP energy -357136.304111 kJ/mol
# GULP energy per Si atom -5580.254752 kJ/mol
# Density = 1.884810 g / cm^3
# Si number density = 18.891095 Si / 1000 Ang^3
#
#
#
# Elastic Constant Matrix: (Units=GPa)
#
#
# Indices 1 2 3 4 5 6 
#
# 1 48.8141 26.4057 29.6270 0.0000 0.0000 0.0000
# 2 26.4057 96.6296 38.7008 0.0000 0.0000 0.0000
# 3 29.6270 38.7008 51.9895 0.0000 0.0000 0.0000
# 4 0.0000 0.0000 0.0000 34.1958 0.0000 0.0000
# 5 0.0000 0.0000 0.0000 0.0000 10.1381 0.0000
# 6 0.0000 0.0000 0.0000 0.0000 0.0000 -29.1623
#
#
#
# Elastic Compliance Matrix: (Units=1/GPa)
#
#
# Indices 1 2 3 4 5 6 
#
# 1 0.031594 -0.002027 -0.016495 0.000000 0.000000 0.000000
# 2 -0.002027 0.014875 -0.009918 0.000000 0.000000 0.000000
# 3 -0.016495 -0.009918 0.036017 0.000000 0.000000 0.000000
# 4 0.000000 0.000000 0.000000 0.029243 0.000000 0.000000
# 5 0.000000 0.000000 0.000000 0.000000 0.098638 0.000000
# 6 0.000000 0.000000 0.000000 0.000000 0.000000 -0.034291
#
#
# Mechanical properties :
#
#
# Convention : Reuss Voigt Hill
#
# Bulk Modulus (GPa) = 39.05316 42.98893 41.02104
# Shear Modulus (GPa) = 20.70459 9.88096 15.29277
#
# Velocity S-wave (km/s) = 3.31418 2.28951 2.84830
# Velocity P-wave (km/s) = 5.94665 5.45845 5.70778
#
# Compressibility (1/GPa) = 0.02560612
#
# Stress axis : x y z
#
# Youngs Moduli (GPa) = 31.65155 67.22787 27.76438
#
# Poissons Ratio (x) = 0.13628 0.45798
# Poissons Ratio (y) = 0.06416 0.27535
# Poissons Ratio (z) = 0.52210 0.66674
#
# Static dielectric constant tensor:
#      x y z
#    x 1.625510 0.000000 0.000000 
#    y 0.000000 1.673720 0.000000 
#    z 0.000000 0.000000 1.635470 
# 
# From -- ./inp_files/5246.got.cif
#   From: 2010.05.17/outbox.cif.g08.bks.cpg/sg49_3_cif.got.tgz:5246.got - 2010.06.03 21:02:19.
