data_PCOD9392806
_publ_section_title
;
Structure prediction by ZEFSAII (Michael W. Deem and Ramdas Pophale) SiO2 
 PCOD9392806
Probable space group: P C C M
;
_chemical_formula_sum "Si O2"
_cell_formula_units_Z 58
_cell_length_a 19.407150
_cell_length_b 17.089701
_cell_length_c 7.746272
_cell_angle_alpha 90.000000
_cell_angle_beta 90.000000
_cell_angle_gamma 90.000000
_cell_volume 2569.147091
_symmetry_space_group_name_H-M "P C C M"
_symmetry_group_IT_number 49
_symmetry_cell_setting 'orthorhombic'
loop_
_space_group_symop_operation_xyz
x,y,z
-x,-y,z
x,-y,1/2-z
-x,y,1/2-z
-x,-y,-z
x,y,-z
-x,y,1/2+z
x,-y,1/2+z
loop_
_atom_site_type_symbol
_atom_site_label
_atom_site_fract_x
_atom_site_fract_y
_atom_site_fract_z
Si Si1 0.573502 0.796401 0.794583
Si Si2 0.000000 0.500000 0.750000
Si Si3 0.827570 0.911469 0.694404
Si Si4 0.719876 0.209015 0.201346
Si Si5 0.078190 0.218444 0.796118
Si Si6 0.875911 0.610395 0.787192
Si Si7 0.575152 0.615910 0.792479
Si Si8 0.276139 0.611087 0.299654
O O1 0.500000 0.833155 0.750000
O O2 0.643740 0.827581 0.715658
O O3 0.571283 0.706094 0.730283
O O4 0.580908 0.795259 0.000000
O O5 0.939839 0.564178 0.701236
O O6 0.802161 0.917381 0.500000
O O7 0.772576 0.853222 0.781998
O O8 0.896180 0.860012 0.705482
O O9 0.836477 0.000000 0.750000
O O10 0.721533 0.293696 0.291959
O O11 0.735651 0.225161 0.000000
O O12 0.118277 0.297457 0.747374
O O13 0.000000 0.234077 0.750000
O O14 0.085903 0.207184 0.000000
O O15 0.798784 0.586687 0.729014
O O16 0.883210 0.601480 0.000000
O O17 0.500000 0.581933 0.750000
O O18 0.649325 0.585866 0.723813
O O19 0.580323 0.615395 0.000000
O O20 0.274746 0.587379 0.500000
#
# Coordination Sequence:
#
# PCOD9392806 Si02
#       8
#     8   2   8   8   8   8   8   8
#     4   9  16  26  43  69 104 146 190 238 291 345
#     4  12  22  40  60  94 124 152 194 240 298 348
#     4  11  24  40  59  86 115 150 195 246 298 354
#     4  10  19  31  50  78 109 143 189 241 292 346
#     4  11  22  40  64  88 116 152 191 238 290 349
#     4  10  21  37  59  85 118 157 197 236 287 351
#     4   8  14  23  40  67 103 139 179 228 276 330
#     4   9  17  32  52  76 107 152 196 231 284 350
#
# _framework density 22.575585
#
# number of rings (size 3 to 8) (size 9 to 14) (size 15 to 20)
#    0.000    2.207    2.069    2.690    0.000    5.241 
#    0.000    2.759    0.000    0.414    0.000    3.379 
#    0.000    3.310    0.000    0.000    0.000    0.000 
#
# Total GULP energy -323111.302085 kJ/mol
# GULP energy per Si atom -5570.884519 kJ/mol
# Density = 2.252420 g / cm^3
# Si number density = 22.575585 Si / 1000 Ang^3
#
#
#
# Elastic Constant Matrix: (Units=GPa)
#
#
# Indices 1 2 3 4 5 6 
#
# 1 201.1350 20.7996 -1.4473 0.0000 0.0000 0.0000
# 2 20.7996 112.6585 4.3926 0.0000 0.0000 0.0000
# 3 -1.4473 4.3926 46.6484 0.0000 0.0000 0.0000
# 4 0.0000 0.0000 0.0000 19.7586 0.0000 0.0000
# 5 0.0000 0.0000 0.0000 0.0000 15.1057 0.0000
# 6 0.0000 0.0000 0.0000 0.0000 0.0000 -5.3640
#
#
#
# Elastic Compliance Matrix: (Units=1/GPa)
#
#
# Indices 1 2 3 4 5 6 
#
# 1 0.005071 -0.000946 0.000246 0.000000 0.000000 0.000000
# 2 -0.000946 0.009086 -0.000885 0.000000 0.000000 0.000000
# 3 0.000246 -0.000885 0.021528 0.000000 0.000000 0.000000
# 4 0.000000 0.000000 0.000000 0.050611 0.000000 0.000000
# 5 0.000000 0.000000 0.000000 0.000000 0.066200 0.000000
# 6 0.000000 0.000000 0.000000 0.000000 0.000000 -0.186426
#
#
# Mechanical properties :
#
#
# Convention : Reuss Voigt Hill
#
# Bulk Modulus (GPa) = 30.75403 45.32576 38.03990
# Shear Modulus (GPa) = -250.96675 28.34651 -111.31012
#
# Velocity S-wave (km/s) = -10.55503 3.54733 -7.02941
# Velocity P-wave (km/s) = 11.61433 6.07445 6.99977
#
# Compressibility (1/GPa) = 0.03251606
#
# Stress axis : x y z
#
# Youngs Moduli (GPa) = 197.18518 110.06517 46.45132
#
# Poissons Ratio (x) = 0.10411 -0.01145
# Poissons Ratio (y) = 0.18652 0.04110
# Poissons Ratio (z) = -0.04859 0.09739
#
# Static dielectric constant tensor:
#      x y z
#    x 1.899790 0.000000 0.000000 
#    y 0.000000 1.845040 0.000000 
#    z 0.000000 0.000000 1.822010 
# 
# From -- ./inp_files/5085.got.cif
#   From: 2010.05.17/outbox.cif.g08.bks.cpg/sg49_3_cif.got.tgz:5085.got - 2010.06.03 21:02:19.
