data_PCOD9392310
_publ_section_title
;
Structure prediction by ZEFSAII (Michael W. Deem and Ramdas Pophale) SiO2 
 PCOD9392310
Probable space group: P C C M
;
_chemical_formula_sum "Si O2"
_cell_formula_units_Z 64
_cell_length_a 27.092577
_cell_length_b 18.861102
_cell_length_c 8.846475
_cell_angle_alpha 90.000000
_cell_angle_beta 90.000000
_cell_angle_gamma 90.000000
_cell_volume 4520.512085
_symmetry_space_group_name_H-M "P C C M"
_symmetry_group_IT_number 49
_symmetry_cell_setting 'orthorhombic'
loop_
_space_group_symop_operation_xyz
x,y,z
-x,-y,z
x,-y,1/2-z
-x,y,1/2-z
-x,-y,-z
x,y,-z
-x,y,1/2+z
x,-y,1/2+z
loop_
_atom_site_type_symbol
_atom_site_label
_atom_site_fract_x
_atom_site_fract_y
_atom_site_fract_z
Si Si1 0.748770 0.922207 0.681530
Si Si2 0.649902 0.838309 0.680969
Si Si3 0.242270 0.577834 0.682830
Si Si4 0.052580 0.422672 0.680913
Si Si5 0.802566 0.794832 0.825033
Si Si6 0.698472 0.709393 0.173957
Si Si7 0.552371 0.921521 0.317230
Si Si8 0.150426 0.336654 0.319173
O O1 0.749940 0.924963 0.500000
O O2 0.695709 0.888601 0.729559
O O3 0.790304 0.868030 0.741593
O O4 0.754097 0.000000 0.750000
O O5 0.650812 0.837538 0.500000
O O6 0.660820 0.759226 0.738024
O O7 0.597938 0.871649 0.728238
O O8 0.248094 0.500000 0.750000
O O9 0.240342 0.576620 0.500000
O O10 0.286689 0.631168 0.729065
O O11 0.191791 0.612693 0.744636
O O12 0.064319 0.500000 0.750000
O O13 0.048205 0.429417 0.500000
O O14 0.096827 0.368822 0.715113
O O15 0.000000 0.400705 0.750000
O O16 0.750782 0.751320 0.821424
O O17 0.840781 0.742182 0.744562
O O18 0.815456 0.806450 0.000000
O O19 0.682794 0.704761 0.000000
O O20 0.500000 0.897129 0.250000
O O21 0.549747 0.925518 0.500000
O O22 0.561069 0.000000 0.250000
O O23 0.157579 0.336721 0.500000
#
# Coordination Sequence:
#
# PCOD9392310 Si02
#       8
#     8   8   8   8   8   8   8   8
#     4  10  18  28  42  61  85 112 141 174 208 246
#     4   9  18  29  42  59  80 108 141 172 206 245
#     4  10  19  29  42  62  85 112 142 172 205 245
#     4  10  20  31  44  61  83 110 142 177 212 246
#     4   9  17  29  43  60  82 109 139 172 207 247
#     4   8  16  28  41  58  80 105 136 169 203 242
#     4  10  19  30  42  59  81 107 139 173 207 242
#     4  10  19  30  44  62  83 111 143 175 210 249
#
# _framework density 14.157686999999999
#
# number of rings (size 3 to 8) (size 9 to 14) (size 15 to 20)
#    0.000    2.500    0.000    4.500    0.000    8.000 
#    0.000    0.000    0.000    0.000    0.000    0.000 
#    0.000    1.000    0.000   10.750    0.000    6.875 
#
# Total GULP energy -356643.215270 kJ/mol
# GULP energy per Si atom -5572.550239 kJ/mol
# Density = 1.412546 g / cm^3
# Si number density = 14.157687 Si / 1000 Ang^3
#
#
#
# Elastic Constant Matrix: (Units=GPa)
#
#
# Indices 1 2 3 4 5 6 
#
# 1 92.5606 64.4245 42.1042 0.0000 0.0000 0.0000
# 2 64.4245 124.0076 46.3534 0.0000 0.0000 0.0000
# 3 42.1042 46.3534 59.1118 0.0000 0.0000 0.0000
# 4 0.0000 0.0000 0.0000 26.7813 0.0000 0.0000
# 5 0.0000 0.0000 0.0000 0.0000 9.7103 0.0000
# 6 0.0000 0.0000 0.0000 0.0000 0.0000 26.6069
#
#
#
# Elastic Compliance Matrix: (Units=1/GPa)
#
#
# Indices 1 2 3 4 5 6 
#
# 1 0.019487 -0.006982 -0.008405 0.000000 0.000000 0.000000
# 2 -0.006982 0.013909 -0.005934 0.000000 0.000000 0.000000
# 3 -0.008405 -0.005934 0.027557 0.000000 0.000000 0.000000
# 4 0.000000 0.000000 0.000000 0.037339 0.000000 0.000000
# 5 0.000000 0.000000 0.000000 0.000000 0.102983 0.000000
# 6 0.000000 0.000000 0.000000 0.000000 0.000000 0.037584
#
#
# Mechanical properties :
#
#
# Convention : Reuss Voigt Hill
#
# Bulk Modulus (GPa) = 54.61182 64.60489 59.60836
# Shear Modulus (GPa) = 17.38492 20.80625 19.09558
#
# Velocity S-wave (km/s) = 3.50801 3.83771 3.67656
# Velocity P-wave (km/s) = 7.42064 8.08509 7.75998
#
# Compressibility (1/GPa) = 0.01831105
#
# Stress axis : x y z
#
# Youngs Moduli (GPa) = 51.31733 71.89346 36.28826
#
# Poissons Ratio (x) = 0.50196 0.30500
# Poissons Ratio (y) = 0.35830 0.21534
# Poissons Ratio (z) = 0.43132 0.42663
#
# Static dielectric constant tensor:
#      x y z
#    x 1.454880 0.000000 0.000000 
#    y 0.000000 1.461290 0.000000 
#    z 0.000000 0.000000 1.478210 
# 
# From -- ./inp_files/6795.got.cif
#   From: 2010.05.17/outbox.cif.g08.bks.cpg/sg49_4_cif.got.tgz:6795.got - 2010.06.03 21:02:19.
