data_PCOD9392429
_publ_section_title
;
Structure prediction by ZEFSAII (Michael W. Deem and Ramdas Pophale) SiO2 
 PCOD9392429
Probable space group: P C C M
;
_chemical_formula_sum "Si O2"
_cell_formula_units_Z 64
_cell_length_a 24.209947
_cell_length_b 19.585171
_cell_length_c 8.618422
_cell_angle_alpha 90.000000
_cell_angle_beta 90.000000
_cell_angle_gamma 90.000000
_cell_volume 4086.476087
_symmetry_space_group_name_H-M "P C C M"
_symmetry_group_IT_number 49
_symmetry_cell_setting 'orthorhombic'
loop_
_space_group_symop_operation_xyz
x,y,z
-x,-y,z
x,-y,1/2-z
-x,y,1/2-z
-x,-y,-z
x,y,-z
-x,y,1/2+z
x,-y,1/2+z
loop_
_atom_site_type_symbol
_atom_site_label
_atom_site_fract_x
_atom_site_fract_y
_atom_site_fract_z
Si Si1 0.560588 0.716342 0.313159
Si Si2 0.259660 0.427818 0.686639
Si Si3 0.723547 0.075973 0.814472
Si Si4 0.663997 0.796495 0.814408
Si Si5 0.388315 0.572396 0.813371
Si Si6 0.830072 0.845915 0.813868
Si Si7 0.059536 0.076134 0.185886
Si Si8 0.228532 0.280536 0.313351
O O1 0.500000 0.731465 0.250000
O O2 0.561712 0.719214 0.500000
O O3 0.606293 0.767451 0.245935
O O4 0.578276 0.639329 0.264402
O O5 0.239047 0.500000 0.750000
O O6 0.259653 0.430261 0.500000
O O7 0.324030 0.420230 0.736612
O O8 0.227078 0.359801 0.734055
O O9 0.666832 0.205737 0.500000
O O10 0.678224 0.127721 0.745136
O O11 0.782526 0.106727 0.760335
O O12 0.717352 0.000000 0.750000
O O13 0.721050 0.923420 0.500000
O O14 0.712815 0.749546 0.743720
O O15 0.409171 0.500000 0.750000
O O16 0.388970 0.569844 0.000000
O O17 0.890005 0.874653 0.770433
O O18 0.817289 0.769432 0.757101
O O19 0.824234 0.849038 0.000000
O O20 0.000000 0.098234 0.250000
O O21 0.070281 0.000000 0.250000
O O22 0.056714 0.072381 0.000000
O O23 0.227060 0.276216 0.500000
#
# Coordination Sequence:
#
# PCOD9392429 Si02
#       8
#     8   8   8   8   8   8   8   8
#     4  11  22  37  52  70  94 122 157 198 238 285
#     4   9  17  29  45  67  93 125 159 193 236 286
#     4  11  21  34  53  76 101 128 156 195 239 285
#     4  11  21  34  52  73  95 123 156 192 238 290
#     4   9  18  32  48  66  93 122 156 195 233 281
#     4  10  20  32  47  73 102 131 167 205 241 283
#     4  10  20  32  48  68  97 134 174 209 240 280
#     4  10  18  31  49  70  97 128 160 199 243 287
#
# _framework density 15.661415
#
# number of rings (size 3 to 8) (size 9 to 14) (size 15 to 20)
#    0.000    1.875    1.250    6.000    0.000    5.250 
#    0.000    1.250    0.000    0.375    0.000    2.625 
#    0.000    0.500    0.000    5.500    0.000    4.000 
#
# Total GULP energy -357208.829823 kJ/mol
# GULP energy per Si atom -5581.387966 kJ/mol
# Density = 1.562577 g / cm^3
# Si number density = 15.661415 Si / 1000 Ang^3
#
#
#
# Elastic Constant Matrix: (Units=GPa)
#
#
# Indices 1 2 3 4 5 6 
#
# 1 107.6398 66.6315 33.5543 0.0000 0.0000 0.0000
# 2 66.6315 129.7515 29.9586 0.0000 0.0000 0.0000
# 3 33.5543 29.9586 58.4574 0.0000 0.0000 0.0000
# 4 0.0000 0.0000 0.0000 27.1847 0.0000 0.0000
# 5 0.0000 0.0000 0.0000 0.0000 26.6593 0.0000
# 6 0.0000 0.0000 0.0000 0.0000 0.0000 25.9110
#
#
#
# Elastic Compliance Matrix: (Units=1/GPa)
#
#
# Indices 1 2 3 4 5 6 
#
# 1 0.014922 -0.006448 -0.005260 0.000000 0.000000 0.000000
# 2 -0.006448 0.011528 -0.002207 0.000000 0.000000 0.000000
# 3 -0.005260 -0.002207 0.021257 0.000000 0.000000 0.000000
# 4 0.000000 0.000000 0.000000 0.036785 0.000000 0.000000
# 5 0.000000 0.000000 0.000000 0.000000 0.037510 0.000000
# 6 0.000000 0.000000 0.000000 0.000000 0.000000 0.038594
#
#
# Mechanical properties :
#
#
# Convention : Reuss Voigt Hill
#
# Bulk Modulus (GPa) = 50.31212 61.79306 56.05259
# Shear Modulus (GPa) = 25.63429 26.99796 26.31612
#
# Velocity S-wave (km/s) = 4.05010 4.15643 4.10361
# Velocity P-wave (km/s) = 7.35294 7.91049 7.63681
#
# Compressibility (1/GPa) = 0.01987593
#
# Stress axis : x y z
#
# Youngs Moduli (GPa) = 67.01700 86.74644 47.04380
#
# Poissons Ratio (x) = 0.55935 0.24747
# Poissons Ratio (y) = 0.43213 0.10381
# Poissons Ratio (z) = 0.35253 0.19142
#
# Static dielectric constant tensor:
#      x y z
#    x 1.502560 0.000000 0.000000 
#    y 0.000000 1.528820 0.000000 
#    z 0.000000 0.000000 1.499440 
# 
# From -- ./inp_files/5398.got.cif
#   From: 2010.05.17/outbox.cif.g08.bks.cpg/sg49_3_cif.got.tgz:5398.got - 2010.06.03 21:02:19.
