data_PCOD9392441
_publ_section_title
;
Structure prediction by ZEFSAII (Michael W. Deem and Ramdas Pophale) SiO2 
 PCOD9392441
Probable space group: P C C M
;
_chemical_formula_sum "Si O2"
_cell_formula_units_Z 64
_cell_length_a 17.201735
_cell_length_b 13.241797
_cell_length_c 15.139361
_cell_angle_alpha 90.000000
_cell_angle_beta 90.000000
_cell_angle_gamma 90.000000
_cell_volume 3448.472155
_symmetry_space_group_name_H-M "P C C M"
_symmetry_group_IT_number 49
_symmetry_cell_setting 'orthorhombic'
loop_
_space_group_symop_operation_xyz
x,y,z
-x,-y,z
x,-y,1/2-z
-x,y,1/2-z
-x,-y,-z
x,y,-z
-x,y,1/2+z
x,-y,1/2+z
loop_
_atom_site_type_symbol
_atom_site_label
_atom_site_fract_x
_atom_site_fract_y
_atom_site_fract_z
Si Si1 0.655691 0.420435 0.672808
Si Si2 0.805263 0.695583 0.238474
Si Si3 0.106724 0.598293 0.102150
Si Si4 0.586522 0.202631 0.104070
Si Si5 0.072376 0.639500 0.397656
Si Si6 0.302681 0.115011 0.750000
Si Si7 0.406027 0.788481 0.395916
Si Si8 0.568931 0.571619 0.401380
O O1 0.632225 0.500000 0.750000
O O2 0.739490 0.376251 0.694950
O O3 0.604551 0.322457 0.648192
O O4 0.643853 0.499653 0.594249
O O5 0.834425 0.644909 0.328437
O O6 0.876817 0.701668 0.170852
O O7 0.765577 0.802945 0.254968
O O8 0.096870 0.477961 0.114579
O O9 0.020130 0.643163 0.117276
O O10 0.128041 0.616238 0.000000
O O11 0.639651 0.137065 0.167904
O O12 0.495304 0.177405 0.111484
O O13 0.590838 0.319762 0.137233
O O14 0.608716 0.196327 0.000000
O O15 0.087590 0.665873 0.500000
O O16 0.350527 0.139726 0.839449
O O17 0.276464 0.000000 0.750000
O O18 0.386107 0.782480 0.500000
O O19 0.500000 0.500000 0.364492
O O20 0.540363 0.598985 0.500000
#
# Coordination Sequence:
#
# PCOD9392441 Si02
#       8
#     8   8   8   8   8   8   8   8
#     4  11  21  31  47  80 117 154 187 222 273 336
#     4  11  22  36  54  80 111 151 190 229 278 333
#     4   9  18  34  58  89 124 155 180 210 257 327
#     4  10  21  38  59  82 107 141 191 244 297 356
#     4   9  18  33  58  92 124 152 178 210 259 330
#     4  11  26  43  56  77 108 144 194 253 308 350
#     4  10  21  39  60  80 104 141 193 250 302 351
#     4  10  18  31  51  75 108 146 178 219 278 346
#
# _framework density 18.558945000000001
#
# number of rings (size 3 to 8) (size 9 to 14) (size 15 to 20)
#    0.000    1.875    1.250    4.500    0.000    5.750 
#    0.000    5.000    0.000    1.500    0.000    1.750 
#    0.000    0.000    0.000    0.000    0.000    0.000 
#
# Total GULP energy -357071.048820 kJ/mol
# GULP energy per Si atom -5579.235138 kJ/mol
# Density = 1.851670 g / cm^3
# Si number density = 18.558945 Si / 1000 Ang^3
#
#
#
# Elastic Constant Matrix: (Units=GPa)
#
#
# Indices 1 2 3 4 5 6 
#
# 1 59.5495 16.0893 39.1612 0.0000 0.0000 0.0000
# 2 16.0893 47.0620 13.5125 0.0000 0.0000 0.0000
# 3 39.1612 13.5125 90.3211 0.0000 0.0000 0.0000
# 4 0.0000 0.0000 0.0000 9.4566 0.0000 0.0000
# 5 0.0000 0.0000 0.0000 0.0000 10.0382 0.0000
# 6 0.0000 0.0000 0.0000 0.0000 0.0000 16.6355
#
#
#
# Elastic Compliance Matrix: (Units=1/GPa)
#
#
# Indices 1 2 3 4 5 6 
#
# 1 0.024847 -0.005644 -0.009929 0.000000 0.000000 0.000000
# 2 -0.005644 0.023484 -0.001066 0.000000 0.000000 0.000000
# 3 -0.009929 -0.001066 0.015536 0.000000 0.000000 0.000000
# 4 0.000000 0.000000 0.000000 0.105747 0.000000 0.000000
# 5 0.000000 0.000000 0.000000 0.000000 0.099619 0.000000
# 6 0.000000 0.000000 0.000000 0.000000 0.000000 0.060113
#
#
# Mechanical properties :
#
#
# Convention : Reuss Voigt Hill
#
# Bulk Modulus (GPa) = 32.69102 37.16209 34.92655
# Shear Modulus (GPa) = 13.41129 15.77068 14.59099
#
# Velocity S-wave (km/s) = 2.69110 2.91823 2.80696
# Velocity P-wave (km/s) = 5.22580 5.60554 5.41899
#
# Compressibility (1/GPa) = 0.03058944
#
# Stress axis : x y z
#
# Youngs Moduli (GPa) = 40.24622 42.58181 64.36646
#
# Poissons Ratio (x) = 0.24032 0.63908
# Poissons Ratio (y) = 0.22714 0.06864
# Poissons Ratio (z) = 0.39960 0.04541
#
# Static dielectric constant tensor:
#      x y z
#    x 1.662250 0.000000 0.000000 
#    y 0.000000 1.633690 0.000000 
#    z 0.000000 0.000000 1.805380 
# 
# From -- ./inp_files/14169.got.cif
#   From: 2010.05.17/outbox.cif.g08.bks.cpg/sg49_8_cif.got.tgz:14169.got - 2010.06.03 21:02:19.
