data_PCOD9392443
_publ_section_title
;
Structure prediction by ZEFSAII (Michael W. Deem and Ramdas Pophale) SiO2 
 PCOD9392443
Probable space group: P C C M
;
_chemical_formula_sum "Si O2"
_cell_formula_units_Z 58
_cell_length_a 18.723819
_cell_length_b 18.374534
_cell_length_c 9.023508
_cell_angle_alpha 90.000000
_cell_angle_beta 90.000000
_cell_angle_gamma 90.000000
_cell_volume 3104.460766
_symmetry_space_group_name_H-M "P C C M"
_symmetry_group_IT_number 49
_symmetry_cell_setting 'orthorhombic'
loop_
_space_group_symop_operation_xyz
x,y,z
-x,-y,z
x,-y,1/2-z
-x,y,1/2-z
-x,-y,-z
x,y,-z
-x,y,1/2+z
x,-y,1/2+z
loop_
_atom_site_type_symbol
_atom_site_label
_atom_site_fract_x
_atom_site_fract_y
_atom_site_fract_z
Si Si1 0.297164 0.704843 0.333292
Si Si2 0.076244 0.837220 0.680493
Si Si3 0.765301 0.864517 0.175803
Si Si4 0.623261 0.892297 0.668919
Si Si5 0.813466 0.575182 0.170845
Si Si6 0.926473 0.676981 0.677412
Si Si7 0.500000 0.000000 0.250000
Si Si8 0.429790 0.737247 0.826455
O O1 0.326475 0.717082 0.500000
O O2 0.252705 0.778525 0.296508
O O3 0.249874 0.633486 0.336276
O O4 0.359540 0.694097 0.216306
O O5 0.070748 0.834723 0.500000
O O6 0.151541 0.877436 0.719892
O O7 0.086328 0.755747 0.745969
O O8 0.000000 0.863458 0.750000
O O9 0.698001 0.907095 0.247264
O O10 0.761993 0.876310 0.000000
O O11 0.644611 0.878050 0.500000
O O12 0.589031 0.818340 0.733440
O O13 0.557951 0.948962 0.668736
O O14 0.794555 0.500000 0.250000
O O15 0.870287 0.617425 0.271594
O O16 0.838004 0.563508 0.000000
O O17 0.929954 0.685439 0.500000
O O18 0.000000 0.651923 0.750000
O O19 0.500000 0.708416 0.750000
O O20 0.441436 0.742258 0.000000
#
# Coordination Sequence:
#
# PCOD9392443 Si02
#       8
#     8   8   8   8   8   8   2   8
#     4   9  18  34  53  72 101 136 169 218 268 316
#     4  10  18  31  51  79 109 142 179 226 282 328
#     4   9  18  34  54  76 107 144 182 223 272 317
#     4  10  22  35  53  80 111 150 189 221 252 307
#     4  11  22  37  53  73 100 133 175 219 271 332
#     4  11  21  33  50  72 100 137 177 221 271 324
#     4  12  22  40  56  82 124 160 182 214 262 304
#     4  10  19  33  53  80 106 134 176 217 258 308
#
# _framework density 18.682794000000001
#
# number of rings (size 3 to 8) (size 9 to 14) (size 15 to 20)
#    0.000    1.931    2.069    3.517    0.000    4.138 
#    0.000    1.379    0.000    0.414    0.000    3.379 
#    0.000    3.310    0.000    0.000    0.000    0.000 
#
# Total GULP energy -322974.949330 kJ/mol
# GULP energy per Si atom -5568.533609 kJ/mol
# Density = 1.864027 g / cm^3
# Si number density = 18.682794 Si / 1000 Ang^3
#
#
#
# Elastic Constant Matrix: (Units=GPa)
#
#
# Indices 1 2 3 4 5 6 
#
# 1 133.0330 22.5162 49.3748 0.0000 0.0000 0.0000
# 2 22.5162 25.0499 6.9848 0.0000 0.0000 0.0000
# 3 49.3748 6.9848 81.0372 0.0000 0.0000 0.0000
# 4 0.0000 0.0000 0.0000 -22.7940 0.0000 0.0000
# 5 0.0000 0.0000 0.0000 0.0000 27.7206 0.0000
# 6 0.0000 0.0000 0.0000 0.0000 0.0000 15.2968
#
#
#
# Elastic Compliance Matrix: (Units=1/GPa)
#
#
# Indices 1 2 3 4 5 6 
#
# 1 0.011197 -0.008363 -0.006101 0.000000 0.000000 0.000000
# 2 -0.008363 0.047150 0.001032 0.000000 0.000000 0.000000
# 3 -0.006101 0.001032 0.015969 0.000000 0.000000 0.000000
# 4 0.000000 0.000000 0.000000 -0.043871 0.000000 0.000000
# 5 0.000000 0.000000 0.000000 0.000000 0.036074 0.000000
# 6 0.000000 0.000000 0.000000 0.000000 0.000000 0.065373
#
#
# Mechanical properties :
#
#
# Convention : Reuss Voigt Hill
#
# Bulk Modulus (GPa) = 21.07497 44.09686 32.58592
# Shear Modulus (GPa) = 28.64118 14.72762 21.68440
#
# Velocity S-wave (km/s) = 3.91963 2.81071 3.41054
# Velocity P-wave (km/s) = 5.63823 5.84702 5.74357
#
# Compressibility (1/GPa) = 0.04744964
#
# Stress axis : x y z
#
# Youngs Moduli (GPa) = 89.31066 21.20898 62.62323
#
# Poissons Ratio (x) = 0.17737 0.38208
# Poissons Ratio (y) = 0.74691 -0.06460
# Poissons Ratio (z) = 0.54491 -0.02188
#
# Static dielectric constant tensor:
#      x y z
#    x 1.715880 0.000000 0.000000 
#    y 0.000000 1.647670 0.000000 
#    z 0.000000 0.000000 1.666850 
# 
# From -- ./inp_files/5087.got.cif
#   From: 2010.05.17/outbox.cif.g08.bks.cpg/sg49_3_cif.got.tgz:5087.got - 2010.06.03 21:02:19.
