data_PCOD9392510
_publ_section_title
;
Structure prediction by ZEFSAII (Michael W. Deem and Ramdas Pophale) SiO2 
 PCOD9392510
Probable space group: P C C M
;
_chemical_formula_sum "Si O2"
_cell_formula_units_Z 64
_cell_length_a 20.664521
_cell_length_b 20.523671
_cell_length_c 8.529726
_cell_angle_alpha 90.000000
_cell_angle_beta 90.000000
_cell_angle_gamma 90.000000
_cell_volume 3617.557706
_symmetry_space_group_name_H-M "P C C M"
_symmetry_group_IT_number 49
_symmetry_cell_setting 'orthorhombic'
loop_
_space_group_symop_operation_xyz
x,y,z
-x,-y,z
x,-y,1/2-z
-x,y,1/2-z
-x,-y,-z
x,y,-z
-x,y,1/2+z
x,-y,1/2+z
loop_
_atom_site_type_symbol
_atom_site_label
_atom_site_fract_x
_atom_site_fract_y
_atom_site_fract_z
Si Si1 0.239050 0.399221 0.815426
Si Si2 0.068196 0.290605 0.187253
Si Si3 0.429331 0.926828 0.311281
Si Si4 0.431642 0.701979 0.687974
Si Si5 0.102620 0.431245 0.683289
Si Si6 0.379884 0.567806 0.813535
Si Si7 0.332290 0.185276 0.808750
Si Si8 0.205652 0.752029 0.686616
O O1 0.229274 0.586054 0.500000
O O2 0.179705 0.427653 0.716906
O O3 0.308103 0.423915 0.759047
O O4 0.234967 0.320846 0.797787
O O5 0.075475 0.366581 0.234304
O O6 0.132449 0.253569 0.249329
O O7 0.000000 0.265690 0.250000
O O8 0.068706 0.287453 0.000000
O O9 0.500000 0.905165 0.250000
O O10 0.431531 0.927334 0.500000
O O11 0.372196 0.878301 0.259181
O O12 0.418934 0.000000 0.250000
O O13 0.500000 0.727154 0.750000
O O14 0.432195 0.697352 0.500000
O O15 0.418861 0.631060 0.759050
O O16 0.375243 0.751917 0.734326
O O17 0.078831 0.500000 0.750000
O O18 0.089262 0.427297 0.500000
O O19 0.407654 0.500000 0.750000
O O20 0.375722 0.565838 0.000000
O O21 0.259125 0.197648 0.750927
O O22 0.330003 0.183884 0.000000
O O23 0.199772 0.764203 0.500000
#
# Coordination Sequence:
#
# PCOD9392510 Si02
#       8
#     8   8   8   8   8   8   8   8
#     4  10  18  33  53  72  96 125 159 206 262 316
#     4  10  20  34  52  72  98 130 163 204 260 318
#     4  10  19  32  52  78 114 152 186 216 252 300
#     4  11  22  38  56  75  99 127 165 213 264 316
#     4  11  21  33  48  69  95 123 163 207 255 316
#     4  12  24  37  52  71  93 124 165 212 268 321
#     4   9  17  32  56  81 104 137 176 215 255 302
#     4   8  15  30  53  76  97 126 165 206 251 302
#
# _framework density 17.691493000000001
#
# number of rings (size 3 to 8) (size 9 to 14) (size 15 to 20)
#    0.000    1.875    1.250    5.625    0.000    0.500 
#    0.000    4.375    0.000    0.000    0.000    0.000 
#    0.000    0.500    0.000    6.250    0.000    0.000 
#
# Total GULP energy -357355.709674 kJ/mol
# GULP energy per Si atom -5583.682964 kJ/mol
# Density = 1.765123 g / cm^3
# Si number density = 17.691493 Si / 1000 Ang^3
#
#
#
# Elastic Constant Matrix: (Units=GPa)
#
#
# Indices 1 2 3 4 5 6 
#
# 1 130.3284 50.8470 13.4140 0.0000 0.0000 0.0000
# 2 50.8470 71.4635 15.5475 0.0000 0.0000 0.0000
# 3 13.4140 15.5475 53.6923 0.0000 0.0000 0.0000
# 4 0.0000 0.0000 0.0000 11.1856 0.0000 0.0000
# 5 0.0000 0.0000 0.0000 0.0000 6.8247 0.0000
# 6 0.0000 0.0000 0.0000 0.0000 0.0000 57.9733
#
#
#
# Elastic Compliance Matrix: (Units=1/GPa)
#
#
# Indices 1 2 3 4 5 6 
#
# 1 0.010634 -0.007458 -0.000497 0.000000 0.000000 0.000000
# 2 -0.007458 0.020164 -0.003976 0.000000 0.000000 0.000000
# 3 -0.000497 -0.003976 0.019900 0.000000 0.000000 0.000000
# 4 0.000000 0.000000 0.000000 0.089401 0.000000 0.000000
# 5 0.000000 0.000000 0.000000 0.000000 0.146527 0.000000
# 6 0.000000 0.000000 0.000000 0.000000 0.000000 0.017249
#
#
# Mechanical properties :
#
#
# Convention : Reuss Voigt Hill
#
# Bulk Modulus (GPa) = 37.26220 46.12237 41.69229
# Shear Modulus (GPa) = 14.85081 26.90842 20.87962
#
# Velocity S-wave (km/s) = 2.90044 3.90421 3.43914
# Velocity P-wave (km/s) = 5.68548 6.81548 6.27596
#
# Compressibility (1/GPa) = 0.02683685
#
# Stress axis : x y z
#
# Youngs Moduli (GPa) = 94.04026 49.59219 50.25109
#
# Poissons Ratio (x) = 0.36985 0.02498
# Poissons Ratio (y) = 0.70134 0.19979
# Poissons Ratio (z) = 0.04675 0.19717
#
# Static dielectric constant tensor:
#      x y z
#    x 1.619100 0.000000 0.000000 
#    y 0.000000 1.595010 0.000000 
#    z 0.000000 0.000000 1.598750 
# 
# From -- ./inp_files/5995.got.cif
#   From: 2010.05.17/outbox.cif.g08.bks.cpg/sg49_3_cif.got.tgz:5995.got - 2010.06.03 21:02:19.
