data_PCOD9392018
_publ_section_title
;
Structure prediction by ZEFSAII (Michael W. Deem and Ramdas Pophale) SiO2 
 PCOD9392018
Probable space group: P C C M
;
_chemical_formula_sum "Si O2"
_cell_formula_units_Z 40
_cell_length_a 27.048267
_cell_length_b 9.354953
_cell_length_c 8.696052
_cell_angle_alpha 90.000000
_cell_angle_beta 90.000000
_cell_angle_gamma 90.000000
_cell_volume 2200.407835
_symmetry_space_group_name_H-M "P C C M"
_symmetry_group_IT_number 49
_symmetry_cell_setting 'orthorhombic'
loop_
_space_group_symop_operation_xyz
x,y,z
-x,-y,z
x,-y,1/2-z
-x,y,1/2-z
-x,-y,-z
x,y,-z
-x,y,1/2+z
x,-y,1/2+z
loop_
_atom_site_type_symbol
_atom_site_label
_atom_site_fract_x
_atom_site_fract_y
_atom_site_fract_z
Si Si1 0.351363 0.158724 0.315680
Si Si2 0.949366 0.662762 0.683673
Si Si3 0.260958 0.660736 0.315838
Si Si4 0.552495 0.659324 0.315461
Si Si5 0.151207 0.338572 0.815905
O O1 0.349091 0.154946 0.500000
O O2 0.304191 0.243909 0.252756
O O3 0.401505 0.241949 0.271054
O O4 0.351944 0.000000 0.250000
O O5 0.948571 0.500000 0.750000
O O6 0.951049 0.657321 0.500000
O O7 0.897698 0.729406 0.741214
O O8 0.000000 0.728413 0.750000
O O9 0.264778 0.500000 0.250000
O O10 0.265290 0.653363 0.500000
O O11 0.205797 0.720681 0.280192
O O12 0.560254 0.500000 0.250000
O O13 0.500000 0.711624 0.250000
O O14 0.549584 0.651745 0.500000
O O15 0.153424 0.500000 0.750000
O O16 0.144939 0.343846 0.000000
#
# Coordination Sequence:
#
# PCOD9392018 Si02
#       5
#     8   8   8   8   8
#     4  11  24  39  56  79 108 141 177 217 264 313
#     4  10  16  22  33  51  80 118 157 198 246 301
#     4  10  20  34  54  77 103 136 175 218 263 312
#     4  10  21  37  59  85 110 140 175 214 256 304
#     4   9  16  26  40  61  88 120 160 204 249 300
#
# _framework density 18.178447999999999
#
# number of rings (size 3 to 8) (size 9 to 14) (size 15 to 20)
#    0.000    2.000    0.000    7.200    0.000    7.600 
#    0.000    2.000    0.000    0.000    0.000    0.000 
#    0.000    0.800    0.000    8.400    0.000    6.200 
#
# Total GULP energy -223140.139834 kJ/mol
# GULP energy per Si atom -5578.503496 kJ/mol
# Density = 1.813707 g / cm^3
# Si number density = 18.178448 Si / 1000 Ang^3
#
#
#
# Elastic Constant Matrix: (Units=GPa)
#
#
# Indices 1 2 3 4 5 6 
#
# 1 231.8382 74.8518 84.0828 0.0000 0.0000 0.0000
# 2 74.8518 50.0566 29.0746 0.0000 0.0000 0.0000
# 3 84.0828 29.0746 101.7298 0.0000 0.0000 0.0000
# 4 0.0000 0.0000 0.0000 15.5088 0.0000 0.0000
# 5 0.0000 0.0000 0.0000 0.0000 40.7546 0.0000
# 6 0.0000 0.0000 0.0000 0.0000 0.0000 -5.8964
#
#
#
# Elastic Compliance Matrix: (Units=1/GPa)
#
#
# Indices 1 2 3 4 5 6 
#
# 1 0.009953 -0.012116 -0.004763 0.000000 0.000000 0.000000
# 2 -0.012116 0.038703 -0.001047 0.000000 0.000000 0.000000
# 3 -0.004763 -0.001047 0.014066 0.000000 0.000000 0.000000
# 4 0.000000 0.000000 0.000000 0.064480 0.000000 0.000000
# 5 0.000000 0.000000 0.000000 0.000000 0.024537 0.000000
# 6 0.000000 0.000000 0.000000 0.000000 0.000000 -0.169596
#
#
# Mechanical properties :
#
#
# Convention : Reuss Voigt Hill
#
# Bulk Modulus (GPa) = 37.21759 84.40479 60.81119
# Shear Modulus (GPa) = 185.50909 23.11443 104.31176
#
# Velocity S-wave (km/s) = 10.11289 3.56972 7.58332
# Velocity P-wave (km/s) = 12.52512 7.97010 10.49764
#
# Compressibility (1/GPa) = 0.02686901
#
# Stress axis : x y z
#
# Youngs Moduli (GPa) = 100.47450 25.83763 71.09120
#
# Poissons Ratio (x) = 0.31305 0.33864
# Poissons Ratio (y) = 1.21735 0.07445
# Poissons Ratio (z) = 0.47861 0.02706
#
# Static dielectric constant tensor:
#      x y z
#    x 1.690810 0.000000 0.000000 
#    y 0.000000 1.571990 0.000000 
#    z 0.000000 0.000000 1.607230 
# 
# From -- ./inp_files/1924.got.cif
#   From: 2010.05.17/outbox.cif.g08.bks.cpg/sg49_1_cif.got.tgz:1924.got - 2010.06.03 21:02:19.
