data_PCOD9392246
_publ_section_title
;
Structure prediction by ZEFSAII (Michael W. Deem and Ramdas Pophale) SiO2 
 PCOD9392246
Probable space group: P C C M
;
_chemical_formula_sum "Si O2"
_cell_formula_units_Z 64
_cell_length_a 15.839073
_cell_length_b 8.567638
_cell_length_c 24.670017
_cell_angle_alpha 90.000000
_cell_angle_beta 90.000000
_cell_angle_gamma 90.000000
_cell_volume 3347.806264
_symmetry_space_group_name_H-M "P C C M"
_symmetry_group_IT_number 49
_symmetry_cell_setting 'orthorhombic'
loop_
_space_group_symop_operation_xyz
x,y,z
-x,-y,z
x,-y,1/2-z
-x,y,1/2-z
-x,-y,-z
x,y,-z
-x,y,1/2+z
x,-y,1/2+z
loop_
_atom_site_type_symbol
_atom_site_label
_atom_site_fract_x
_atom_site_fract_y
_atom_site_fract_z
Si Si1 0.254464 0.678724 0.245054
Si Si2 0.889667 0.162709 0.564400
Si Si3 0.739164 0.691491 0.133169
Si Si4 0.922167 0.793930 0.435829
Si Si5 0.589135 0.153550 0.222200
Si Si6 0.586409 0.798064 0.938774
Si Si7 0.403174 0.151835 0.595178
Si Si8 0.233979 0.677458 0.126670
O O1 0.226305 0.500000 0.250000
O O2 0.244723 0.748314 0.305076
O O3 0.353969 0.696643 0.233017
O O4 0.220027 0.745096 0.187947
O O5 0.879663 0.189204 0.500000
O O6 0.811543 0.233877 0.596056
O O7 0.980920 0.230629 0.581623
O O8 0.898027 0.976200 0.572300
O O9 0.648662 0.733094 0.107239
O O10 0.744550 0.504255 0.132858
O O11 0.919042 0.764497 0.500000
O O12 0.852079 0.695449 0.405724
O O13 0.500000 0.173693 0.250000
O O14 0.579778 0.123563 0.158826
O O15 0.629503 0.000000 0.250000
O O16 0.487318 0.764007 0.927350
O O17 0.599335 0.985572 0.934596
O O18 0.608351 0.746811 0.000000
O O19 0.312768 0.238749 0.596269
#
# Coordination Sequence:
#
# PCOD9392246 Si02
#       8
#     8   8   8   8   8   8   8   8
#     4   9  20  36  50  70 104 141 174 209 257 315
#     4   9  19  37  59  83 107 137 173 213 262 315
#     4  11  21  36  55  78 108 142 176 219 264 310
#     4   9  19  37  60  82 108 137 171 214 261 314
#     4  10  17  28  49  75  96 124 173 227 265 301
#     4  11  22  36  53  75 105 143 181 217 262 317
#     4  10  20  35  52  73 104 141 179 218 262 315
#     4  10  22  36  55  80 107 140 178 216 264 313
#
# _framework density 19.116997000000001
#
# number of rings (size 3 to 8) (size 9 to 14) (size 15 to 20)
#    0.000    2.125    0.000    5.625    0.000    5.250 
#    0.000    6.250    0.000    3.750    0.000    0.000 
#    0.000    0.000    0.000    0.000    0.000    0.000 
#
# Total GULP energy -356729.247669 kJ/mol
# GULP energy per Si atom -5573.894495 kJ/mol
# Density = 1.907349 g / cm^3
# Si number density = 19.116997 Si / 1000 Ang^3
#
#
#
# Elastic Constant Matrix: (Units=GPa)
#
#
# Indices 1 2 3 4 5 6 
#
# 1 58.5075 6.5610 14.6220 0.0000 0.0000 0.0000
# 2 6.5610 9.2135 5.6785 0.0000 0.0000 0.0000
# 3 14.6220 5.6785 66.9426 0.0000 0.0000 0.0000
# 4 0.0000 0.0000 0.0000 23.9952 0.0000 0.0000
# 5 0.0000 0.0000 0.0000 0.0000 56.8107 0.0000
# 6 0.0000 0.0000 0.0000 0.0000 0.0000 9.7204
#
#
#
# Elastic Compliance Matrix: (Units=1/GPa)
#
#
# Indices 1 2 3 4 5 6 
#
# 1 0.019204 -0.011702 -0.003202 0.000000 0.000000 0.000000
# 2 -0.011702 0.121654 -0.007763 0.000000 0.000000 0.000000
# 3 -0.003202 -0.007763 0.016296 0.000000 0.000000 0.000000
# 4 0.000000 0.000000 0.000000 0.041675 0.000000 0.000000
# 5 0.000000 0.000000 0.000000 0.000000 0.017602 0.000000
# 6 0.000000 0.000000 0.000000 0.000000 0.000000 0.102877
#
#
# Mechanical properties :
#
#
# Convention : Reuss Voigt Hill
#
# Bulk Modulus (GPa) = 8.94295 20.93184 14.93740
# Shear Modulus (GPa) = 12.44038 25.29207 18.86622
#
# Velocity S-wave (km/s) = 2.55375 3.64127 3.14488
# Velocity P-wave (km/s) = 3.65837 5.35272 4.58450
#
# Compressibility (1/GPa) = 0.11181989
#
# Stress axis : x y z
#
# Youngs Moduli (GPa) = 52.07158 8.22001 61.36429
#
# Poissons Ratio (x) = 0.09619 0.19649
# Poissons Ratio (y) = 0.60934 0.47640
# Poissons Ratio (z) = 0.16674 0.06382
#
# Static dielectric constant tensor:
#      x y z
#    x 1.647760 0.000000 0.000000 
#    y 0.000000 1.719610 0.000000 
#    z 0.000000 0.000000 1.698110 
# 
# From -- ./inp_files/23239.got.cif
#   From: 2010.05.17/outbox.cif.g08.bks.cpg/sg49_12_cif.got.tgz:23239.got - 2010.06.03 21:02:19.
