data_PCOD9392714
_publ_section_title
;
Structure prediction by ZEFSAII (Michael W. Deem and Ramdas Pophale) SiO2 
 PCOD9392714
Probable space group: P C C M
;
_chemical_formula_sum "Si O2"
_cell_formula_units_Z 64
_cell_length_a 23.618324
_cell_length_b 13.916306
_cell_length_c 8.919660
_cell_angle_alpha 90.000000
_cell_angle_beta 90.000000
_cell_angle_gamma 90.000000
_cell_volume 2931.712279
_symmetry_space_group_name_H-M "P C C M"
_symmetry_group_IT_number 49
_symmetry_cell_setting 'orthorhombic'
loop_
_space_group_symop_operation_xyz
x,y,z
-x,-y,z
x,-y,1/2-z
-x,y,1/2-z
-x,-y,-z
x,y,-z
-x,y,1/2+z
x,-y,1/2+z
loop_
_atom_site_type_symbol
_atom_site_label
_atom_site_fract_x
_atom_site_fract_y
_atom_site_fract_z
Si Si1 0.682691 0.333312 0.824964
Si Si2 0.290772 0.862588 0.674143
Si Si3 0.914811 0.597802 0.825256
Si Si4 0.058013 0.803339 0.181224
Si Si5 0.556469 0.694030 0.321522
Si Si6 0.416703 0.098054 0.181094
Si Si7 0.178185 0.855362 0.167730
Si Si8 0.195758 0.376067 0.665446
O O1 0.699003 0.249629 0.710185
O O2 0.617131 0.358942 0.794334
O O3 0.737986 0.400631 0.817699
O O4 0.682888 0.297622 0.000000
O O5 0.285747 0.879842 0.500000
O O6 0.350407 0.903601 0.726132
O O7 0.232747 0.894175 0.749079
O O8 0.936312 0.500000 0.750000
O O9 0.935296 0.693732 0.740569
O O10 0.846790 0.595984 0.796491
O O11 0.928514 0.603406 0.000000
O O12 0.114714 0.860131 0.231524
O O13 0.000000 0.842080 0.250000
O O14 0.057077 0.802346 0.000000
O O15 0.500000 0.649274 0.250000
O O16 0.549112 0.702341 0.500000
O O17 0.562079 0.801252 0.250273
O O18 0.440791 0.000000 0.250000
O O19 0.422450 0.099952 0.000000
O O20 0.190202 0.740209 0.159576
O O21 0.177268 0.894513 0.000000
O O22 0.175604 0.409317 0.500000
#
# Coordination Sequence:
#
# PCOD9392714 Si02
#       8
#     8   8   8   8   8   8   8   8
#     4   8  15  27  43  60  81 108 135 166 212 258
#     4   9  16  25  41  63  83 102 133 174 213 250
#     4  11  21  32  45  62  85 115 147 179 212 248
#     4  10  20  33  46  63  86 114 147 180 210 246
#     4  10  19  31  45  62  85 115 147 179 212 249
#     4  10  20  32  44  61  84 113 147 182 214 250
#     4   8  15  27  43  61  83 108 134 166 210 256
#     4   8  14  27  44  62  82 105 135 172 211 253
#
# _framework density 21.830247
#
# number of rings (size 3 to 8) (size 9 to 14) (size 15 to 20)
#    0.000    2.750    0.000    4.125    0.000    7.500 
#    0.000    2.500    0.000    0.000    0.000    0.000 
#    0.000    1.000    0.000   11.250    0.000    6.000 
#
# Total GULP energy -356670.698401 kJ/mol
# GULP energy per Si atom -5572.979663 kJ/mol
# Density = 2.178056 g / cm^3
# Si number density = 21.830247 Si / 1000 Ang^3
#
#
#
# Elastic Constant Matrix: (Units=GPa)
#
#
# Indices 1 2 3 4 5 6 
#
# 1 207.3349 -8.9438 30.7325 0.0000 0.0000 0.0000
# 2 -8.9438 15.1889 -1.9020 0.0000 0.0000 0.0000
# 3 30.7325 -1.9020 -60.5605 0.0000 0.0000 0.0000
# 4 0.0000 0.0000 0.0000 -1.4630 0.0000 0.0000
# 5 0.0000 0.0000 0.0000 0.0000 50.7626 0.0000
# 6 0.0000 0.0000 0.0000 0.0000 0.0000 -9.1026
#
#
#
# Elastic Compliance Matrix: (Units=1/GPa)
#
#
# Indices 1 2 3 4 5 6 
#
# 1 0.004619 0.003002 0.002250 0.000000 0.000000 0.000000
# 2 0.003002 0.067530 -0.000598 0.000000 0.000000 0.000000
# 3 0.002250 -0.000598 -0.015352 0.000000 0.000000 0.000000
# 4 0.000000 0.000000 0.000000 -0.683509 0.000000 0.000000
# 5 0.000000 0.000000 0.000000 0.000000 0.019700 0.000000
# 6 0.000000 0.000000 0.000000 0.000000 0.000000 -0.109859
#
#
# Mechanical properties :
#
#
# Convention : Reuss Voigt Hill
#
# Bulk Modulus (GPa) = 15.12756 22.41519 18.77138
# Shear Modulus (GPa) = -7.10082 17.51118 5.20518
#
# Velocity S-wave (km/s) = -1.80549 2.83530 1.54582
# Velocity P-wave (km/s) = 1.61192 4.58354 3.43563
#
# Compressibility (1/GPa) = 0.06610449
#
# Stress axis : x y z
#
# Youngs Moduli (GPa) = 216.49154 14.80824 -65.13828
#
# Poissons Ratio (x) = -0.04445 0.14655
# Poissons Ratio (y) = -0.64983 -0.03893
# Poissons Ratio (z) = -0.48706 0.00885
#
# Static dielectric constant tensor:
#      x y z
#    x 1.952290 0.000000 0.000000 
#    y 0.000000 1.849370 0.000000 
#    z 0.000000 0.000000 1.754970 
# 
# From -- ./inp_files/6603.got.cif
#   From: 2010.05.17/outbox.cif.g08.bks.cpg/sg49_4_cif.got.tgz:6603.got - 2010.06.03 21:02:19.
