data_PCOD9392519
_publ_section_title
;
Structure prediction by ZEFSAII (Michael W. Deem and Ramdas Pophale) SiO2 
 PCOD9392519
Probable space group: P C C M
;
_chemical_formula_sum "Si O2"
_cell_formula_units_Z 56
_cell_length_a 19.040279
_cell_length_b 19.583329
_cell_length_c 8.635062
_cell_angle_alpha 90.000000
_cell_angle_beta 90.000000
_cell_angle_gamma 90.000000
_cell_volume 3219.773252
_symmetry_space_group_name_H-M "P C C M"
_symmetry_group_IT_number 49
_symmetry_cell_setting 'orthorhombic'
loop_
_space_group_symop_operation_xyz
x,y,z
-x,-y,z
x,-y,1/2-z
-x,y,1/2-z
-x,-y,-z
x,y,-z
-x,y,1/2+z
x,-y,1/2+z
loop_
_atom_site_type_symbol
_atom_site_label
_atom_site_fract_x
_atom_site_fract_y
_atom_site_fract_z
Si Si1 0.708775 0.793887 0.812479
Si Si2 0.075885 0.845085 0.815288
Si Si3 0.813940 0.426434 0.185200
Si Si4 0.850644 0.715070 0.814189
Si Si5 0.422990 0.708538 0.314003
Si Si6 0.648311 0.573548 0.314499
Si Si7 0.209706 0.075217 0.813784
O O1 0.773475 0.744391 0.768611
O O2 0.635300 0.763237 0.758373
O O3 0.731056 0.869832 0.763848
O O4 0.706958 0.793851 0.000000
O O5 0.095196 0.768484 0.759229
O O6 0.136376 0.893981 0.747569
O O7 0.000000 0.864219 0.750000
O O8 0.076531 0.848192 0.000000
O O9 0.836493 0.500000 0.250000
O O10 0.854686 0.362131 0.255528
O O11 0.731018 0.418277 0.227170
O O12 0.819207 0.425999 0.000000
O O13 0.856307 0.717884 0.000000
O O14 0.500000 0.722529 0.250000
O O15 0.424565 0.708855 0.500000
O O16 0.395784 0.634929 0.257273
O O17 0.625678 0.500000 0.250000
O O18 0.642558 0.574540 0.500000
O O19 0.221704 0.000000 0.750000
O O20 0.207305 0.074052 0.000000
#
# Coordination Sequence:
#
# PCOD9392519 Si02
#       7
#     8   8   8   8   8   8   8
#     4   8  17  33  54  75 103 136 173 215 263 314
#     4  11  22  37  56  83 115 149 181 216 256 310
#     4  10  19  30  48  75 104 136 178 227 275 322
#     4  10  18  33  55  78 104 140 180 224 270 317
#     4  11  21  35  52  74 102 139 178 224 274 325
#     4  10  20  33  49  72 101 137 177 223 271 326
#     4  10  20  37  59  87 113 143 176 214 261 313
#
# _framework density 17.392529
#
# number of rings (size 3 to 8) (size 9 to 14) (size 15 to 20)
#    0.000    2.000    1.429    4.286    0.000    1.714 
#    0.000    5.000    0.000    0.857    0.000    6.000 
#    0.000    0.000    0.000    0.000    0.000    0.000 
#
# Total GULP energy -312612.318838 kJ/mol
# GULP energy per Si atom -5582.362836 kJ/mol
# Density = 1.735294 g / cm^3
# Si number density = 17.392529 Si / 1000 Ang^3
#
#
#
# Elastic Constant Matrix: (Units=GPa)
#
#
# Indices 1 2 3 4 5 6 
#
# 1 64.2018 46.2384 19.9202 0.0000 0.0000 0.0000
# 2 46.2384 146.8084 35.2089 0.0000 0.0000 0.0000
# 3 19.9202 35.2089 68.7073 0.0000 0.0000 0.0000
# 4 0.0000 0.0000 0.0000 27.2017 0.0000 0.0000
# 5 0.0000 0.0000 0.0000 0.0000 20.4239 0.0000
# 6 0.0000 0.0000 0.0000 0.0000 0.0000 16.5913
#
#
#
# Elastic Compliance Matrix: (Units=1/GPa)
#
#
# Indices 1 2 3 4 5 6 
#
# 1 0.020685 -0.005788 -0.003031 0.000000 0.000000 0.000000
# 2 -0.005788 0.009386 -0.003132 0.000000 0.000000 0.000000
# 3 -0.003031 -0.003132 0.017038 0.000000 0.000000 0.000000
# 4 0.000000 0.000000 0.000000 0.036762 0.000000 0.000000
# 5 0.000000 0.000000 0.000000 0.000000 0.048962 0.000000
# 6 0.000000 0.000000 0.000000 0.000000 0.000000 0.060273
#
#
# Mechanical properties :
#
#
# Convention : Reuss Voigt Hill
#
# Bulk Modulus (GPa) = 43.08983 53.60583 48.34783
# Shear Modulus (GPa) = 22.24766 24.73337 23.49052
#
# Velocity S-wave (km/s) = 3.58040 3.77512 3.67905
# Velocity P-wave (km/s) = 6.47465 7.06330 6.77537
#
# Compressibility (1/GPa) = 0.02320733
#
# Stress axis : x y z
#
# Youngs Moduli (GPa) = 48.34463 106.54658 58.69210
#
# Poissons Ratio (x) = 0.61668 0.17790
# Poissons Ratio (y) = 0.27981 0.18380
# Poissons Ratio (z) = 0.14654 0.33365
#
# Static dielectric constant tensor:
#      x y z
#    x 1.583670 0.000000 0.000000 
#    y 0.000000 1.583160 0.000000 
#    z 0.000000 0.000000 1.578370 
# 
# From -- ./inp_files/5197.got.cif
#   From: 2010.05.17/outbox.cif.g08.bks.cpg/sg49_3_cif.got.tgz:5197.got - 2010.06.03 21:02:19.
