data_PCOD9392115
_publ_section_title
;
Structure prediction by ZEFSAII (Michael W. Deem and Ramdas Pophale) SiO2 
 PCOD9392115
Probable space group: P C C M
;
_chemical_formula_sum "Si O2"
_cell_formula_units_Z 64
_cell_length_a 29.060629
_cell_length_b 15.173373
_cell_length_c 8.553241
_cell_angle_alpha 90.000000
_cell_angle_beta 90.000000
_cell_angle_gamma 90.000000
_cell_volume 3771.532489
_symmetry_space_group_name_H-M "P C C M"
_symmetry_group_IT_number 49
_symmetry_cell_setting 'orthorhombic'
loop_
_space_group_symop_operation_xyz
x,y,z
-x,-y,z
x,-y,1/2-z
-x,y,1/2-z
-x,-y,-z
x,y,-z
-x,y,1/2+z
x,-y,1/2+z
loop_
_atom_site_type_symbol
_atom_site_label
_atom_site_fract_x
_atom_site_fract_y
_atom_site_fract_z
Si Si1 0.644924 0.100123 0.188281
Si Si2 0.452465 0.899458 0.313352
Si Si3 0.188098 0.904905 0.188389
Si Si4 0.868935 0.597003 0.811841
Si Si5 0.048063 0.276743 0.186722
Si Si6 0.233544 0.403433 0.312473
Si Si7 0.081651 0.904853 0.187292
Si Si8 0.269582 0.220734 0.309543
O O1 0.595994 0.135955 0.250404
O O2 0.686346 0.163900 0.239365
O O3 0.651692 0.000000 0.250000
O O4 0.643556 0.096059 0.000000
O O5 0.500000 0.858494 0.250000
O O6 0.452995 0.900524 0.500000
O O7 0.452332 0.000000 0.250000
O O8 0.135198 0.892215 0.238344
O O9 0.223345 0.830217 0.241446
O O10 0.203632 0.000000 0.250000
O O11 0.188406 0.906608 0.000000
O O12 0.881427 0.500000 0.750000
O O13 0.907716 0.666478 0.762079
O O14 0.818366 0.616856 0.744761
O O15 0.866294 0.595572 0.000000
O O16 0.054049 0.177542 0.247729
O O17 0.000000 0.313657 0.250000
O O18 0.046990 0.276486 0.000000
O O19 0.246202 0.500000 0.250000
O O20 0.232901 0.406906 0.500000
O O21 0.265785 0.322450 0.260814
O O22 0.066426 0.000000 0.250000
O O23 0.079839 0.905300 0.000000
O O24 0.269783 0.220170 0.500000
#
# Coordination Sequence:
#
# PCOD9392115 Si02
#       8
#     8   8   8   8   8   8   8   8
#     4  10  18  29  43  64  95 131 167 203 240 282
#     4  10  17  27  42  61  86 122 166 209 247 284
#     4   9  17  30  47  69  94 124 157 189 224 269
#     4  10  21  37  57  80 102 125 153 190 233 284
#     4  11  24  39  55  76 100 124 155 191 233 282
#     4  10  19  34  54  75  97 125 160 197 235 281
#     4  10  20  35  55  75  98 127 161 198 235 274
#     4   9  18  30  46  67  96 130 160 190 234 284
#
# _framework density 16.969228999999999
#
# number of rings (size 3 to 8) (size 9 to 14) (size 15 to 20)
#    0.000    2.125    0.000    6.000    0.000    4.000 
#    0.000    6.875    0.000    0.000    0.000    0.000 
#    0.000    0.500    0.000    5.750    0.000    1.750 
#
# Total GULP energy -357133.531387 kJ/mol
# GULP energy per Si atom -5580.211428 kJ/mol
# Density = 1.693061 g / cm^3
# Si number density = 16.969229 Si / 1000 Ang^3
#
#
#
# Elastic Constant Matrix: (Units=GPa)
#
#
# Indices 1 2 3 4 5 6 
#
# 1 78.4608 60.0949 22.4930 0.0000 0.0000 0.0000
# 2 60.0949 94.9439 21.6735 0.0000 0.0000 0.0000
# 3 22.4930 21.6735 55.6816 0.0000 0.0000 0.0000
# 4 0.0000 0.0000 0.0000 11.1678 0.0000 0.0000
# 5 0.0000 0.0000 0.0000 0.0000 29.5287 0.0000
# 6 0.0000 0.0000 0.0000 0.0000 0.0000 16.1321
#
#
#
# Elastic Compliance Matrix: (Units=1/GPa)
#
#
# Indices 1 2 3 4 5 6 
#
# 1 0.025703 -0.015254 -0.004445 0.000000 0.000000 0.000000
# 2 -0.015254 0.020612 -0.001861 0.000000 0.000000 0.000000
# 3 -0.004445 -0.001861 0.020480 0.000000 0.000000 0.000000
# 4 0.000000 0.000000 0.000000 0.089543 0.000000 0.000000
# 5 0.000000 0.000000 0.000000 0.000000 0.033865 0.000000
# 6 0.000000 0.000000 0.000000 0.000000 0.000000 0.061988
#
#
# Mechanical properties :
#
#
# Convention : Reuss Voigt Hill
#
# Bulk Modulus (GPa) = 42.24114 48.62324 45.43219
# Shear Modulus (GPa) = 16.49056 19.68738 18.08897
#
# Velocity S-wave (km/s) = 3.12074 3.40984 3.26849
# Velocity P-wave (km/s) = 6.15891 6.64971 6.40901
#
# Compressibility (1/GPa) = 0.02367360
#
# Stress axis : x y z
#
# Youngs Moduli (GPa) = 38.90604 48.51452 48.82932
#
# Poissons Ratio (x) = 0.74004 0.21707
# Poissons Ratio (y) = 0.59347 0.09088
# Poissons Ratio (z) = 0.17296 0.09030
#
# Static dielectric constant tensor:
#      x y z
#    x 1.601560 0.000000 0.000000 
#    y 0.000000 1.569390 0.000000 
#    z 0.000000 0.000000 1.572080 
# 
# From -- ./inp_files/7067.got.cif
#   From: 2010.05.17/outbox.cif.g08.bks.cpg/sg49_4_cif.got.tgz:7067.got - 2010.06.03 21:02:19.
