data_PCOD9392136
_publ_section_title
;
Structure prediction by ZEFSAII (Michael W. Deem and Ramdas Pophale) SiO2 
 PCOD9392136
Probable space group: P C C M
;
_chemical_formula_sum "Si O2"
_cell_formula_units_Z 64
_cell_length_a 14.955382
_cell_length_b 21.909522
_cell_length_c 9.010447
_cell_angle_alpha 90.000000
_cell_angle_beta 90.000000
_cell_angle_gamma 90.000000
_cell_volume 2952.410558
_symmetry_space_group_name_H-M "P C C M"
_symmetry_group_IT_number 49
_symmetry_cell_setting 'orthorhombic'
loop_
_space_group_symop_operation_xyz
x,y,z
-x,-y,z
x,-y,1/2-z
-x,y,1/2-z
-x,-y,-z
x,y,-z
-x,y,1/2+z
x,-y,1/2+z
loop_
_atom_site_type_symbol
_atom_site_label
_atom_site_fract_x
_atom_site_fract_y
_atom_site_fract_z
Si Si1 0.598539 0.683361 0.319988
Si Si2 0.643537 0.180528 0.835884
Si Si3 0.139236 0.062147 0.169297
Si Si4 0.099652 0.439695 0.178377
Si Si5 0.641441 0.061516 0.667436
Si Si6 0.399104 0.561578 0.320030
Si Si7 0.145911 0.182574 0.334923
Si Si8 0.902276 0.305803 0.677214
O O1 0.500000 0.685763 0.250000
O O2 0.598012 0.675719 0.500000
O O3 0.636053 0.750014 0.281719
O O4 0.642349 0.624441 0.241719
O O5 0.609507 0.124779 0.738731
O O6 0.749069 0.169440 0.850173
O O7 0.601899 0.178691 0.000000
O O8 0.248876 0.062167 0.167658
O O9 0.108501 0.123515 0.251558
O O10 0.111935 0.000000 0.250000
O O11 0.108902 0.062401 0.000000
O O12 0.142679 0.500000 0.250000
O O13 0.139642 0.372604 0.210298
O O14 0.000000 0.437462 0.250000
O O15 0.093918 0.446715 0.000000
O O16 0.610759 0.058274 0.500000
O O17 0.614251 0.000000 0.750000
O O18 0.358583 0.500000 0.250000
O O19 0.500000 0.562494 0.250000
O O20 0.401647 0.559828 0.500000
O O21 0.106887 0.190202 0.500000
O O22 0.140038 0.245352 0.245234
O O23 0.907929 0.300625 0.500000
O O24 0.000000 0.307089 0.750000
#
# Coordination Sequence:
#
# PCOD9392136 Si02
#       8
#     8   8   8   8   8   8   8   8
#     4  10  19  32  49  71  98 127 159 197 239 286
#     4   9  19  33  49  70  98 128 159 195 238 285
#     4   9  16  27  44  68  95 123 156 197 237 277
#     4   9  16  26  43  66  92 119 152 192 233 273
#     4   9  16  26  44  68  94 122 156 196 237 278
#     4  10  17  27  44  67  93 121 155 196 238 281
#     4  10  19  32  50  72  97 128 161 196 238 283
#     4  10  20  33  49  72  99 128 160 197 238 283
#
# _framework density 21.677202999999999
#
# number of rings (size 3 to 8) (size 9 to 14) (size 15 to 20)
#    0.000    2.500    0.000    4.875    0.000    6.000 
#    0.000    0.000    0.000    1.500    0.000    7.000 
#    0.000    0.000    0.000    0.000    0.000    0.000 
#
# Total GULP energy -356914.522303 kJ/mol
# GULP energy per Si atom -5576.789411 kJ/mol
# Density = 2.162786 g / cm^3
# Si number density = 21.677203 Si / 1000 Ang^3
#
#
#
# Elastic Constant Matrix: (Units=GPa)
#
#
# Indices 1 2 3 4 5 6 
#
# 1 36.6262 7.2325 9.4327 0.0000 0.0000 0.0000
# 2 7.2325 256.4456 133.2376 0.0000 0.0000 0.0000
# 3 9.4327 133.2376 169.0613 0.0000 0.0000 0.0000
# 4 0.0000 0.0000 0.0000 41.4883 0.0000 0.0000
# 5 0.0000 0.0000 0.0000 0.0000 -4.5449 0.0000
# 6 0.0000 0.0000 0.0000 0.0000 0.0000 93.8075
#
#
#
# Elastic Compliance Matrix: (Units=1/GPa)
#
#
# Indices 1 2 3 4 5 6 
#
# 1 0.027701 0.000037 -0.001575 0.000000 0.000000 0.000000
# 2 0.000037 0.006603 -0.005206 0.000000 0.000000 0.000000
# 3 -0.001575 -0.005206 0.010106 0.000000 0.000000 0.000000
# 4 0.000000 0.000000 0.000000 0.024103 0.000000 0.000000
# 5 0.000000 0.000000 0.000000 0.000000 -0.220028 0.000000
# 6 0.000000 0.000000 0.000000 0.000000 0.000000 0.010660
#
#
# Mechanical properties :
#
#
# Convention : Reuss Voigt Hill
#
# Bulk Modulus (GPa) = 32.33896 84.65985 58.49941
# Shear Modulus (GPa) = -42.71334 46.96554 2.12610
#
# Velocity S-wave (km/s) = -4.44376 4.65971 0.99143
# Velocity P-wave (km/s) = 3.37322 8.25167 5.32501
#
# Compressibility (1/GPa) = 0.03092245
#
# Stress axis : x y z
#
# Youngs Moduli (GPa) = 36.09965 151.43974 98.95291
#
# Poissons Ratio (x) = -0.00558 0.15581
# Poissons Ratio (y) = -0.00133 0.51516
# Poissons Ratio (z) = 0.05684 0.78841
#
# Static dielectric constant tensor:
#      x y z
#    x 1.859330 0.000000 0.000000 
#    y 0.000000 1.857380 0.000000 
#    z 0.000000 0.000000 1.752070 
# 
# From -- ./inp_files/5998.got.cif
#   From: 2010.05.17/outbox.cif.g08.bks.cpg/sg49_3_cif.got.tgz:5998.got - 2010.06.03 21:02:19.
