data_PCOD9392683
_publ_section_title
;
Structure prediction by ZEFSAII (Michael W. Deem and Ramdas Pophale) SiO2 
 PCOD9392683
Probable space group: P C C M
;
_chemical_formula_sum "Si O2"
_cell_formula_units_Z 56
_cell_length_a 12.373857
_cell_length_b 12.210569
_cell_length_c 13.806264
_cell_angle_alpha 90.000000
_cell_angle_beta 90.000000
_cell_angle_gamma 90.000000
_cell_volume 2086.013758
_symmetry_space_group_name_H-M "P C C M"
_symmetry_group_IT_number 49
_symmetry_cell_setting 'orthorhombic'
loop_
_space_group_symop_operation_xyz
x,y,z
-x,-y,z
x,-y,1/2-z
-x,y,1/2-z
-x,-y,-z
x,y,-z
-x,y,1/2+z
x,-y,1/2+z
loop_
_atom_site_type_symbol
_atom_site_label
_atom_site_fract_x
_atom_site_fract_y
_atom_site_fract_z
Si Si1 0.499968 0.198119 0.616009
Si Si2 0.082105 0.690201 0.115128
Si Si3 0.319119 0.656075 0.118873
Si Si4 0.891687 0.948169 0.643618
Si Si5 0.374674 0.575833 0.384924
Si Si6 0.290537 0.898322 0.611957
Si Si7 0.156589 0.308292 0.883718
O O1 0.485797 0.181649 0.500000
O O2 0.380535 0.233016 0.650326
O O3 0.565045 0.311285 0.638707
O O4 0.586873 0.107575 0.651148
O O5 0.196181 0.646455 0.153934
O O6 0.093210 0.820296 0.130813
O O7 0.962373 0.661486 0.151948
O O8 0.083373 0.664548 0.000000
O O9 0.386514 0.548568 0.151405
O O10 0.317874 0.655850 0.000000
O O11 0.891860 0.000000 0.750000
O O12 0.774709 0.989248 0.608980
O O13 0.000000 0.000000 0.598176
O O14 0.394808 0.567860 0.500000
O O15 0.248589 0.602646 0.370073
O O16 0.304405 0.863776 0.500000
O O17 0.207805 0.806485 0.653344
O O18 0.142807 0.294274 0.000000
#
# Coordination Sequence:
#
# PCOD9392683 Si02
#       7
#     8   8   8   8   8   8   8
#     4   8  14  25  43  68  96 128 165 195 227 273
#     4  10  19  30  46  69 100 131 158 195 241 290
#     4   9  16  25  40  67 102 134 159 190 231 276
#     4  11  22  34  50  71  92 117 156 204 250 296
#     4   8  13  22  39  65 100 134 158 187 229 274
#     4   9  16  29  50  71  93 122 158 199 237 280
#     4   8  14  24  40  66  95 125 159 189 228 278
#
# _framework density 26.845459000000002
#
# number of rings (size 3 to 8) (size 9 to 14) (size 15 to 20)
#    0.000    3.000    1.429    2.571    0.000    2.857 
#    0.000    3.571    0.000    5.143    0.000    4.000 
#    0.000    4.571    0.000    0.000    0.000    0.000 
#
# Total GULP energy -312565.427169 kJ/mol
# GULP energy per Si atom -5581.525485 kJ/mol
# Density = 2.678436 g / cm^3
# Si number density = 26.845459 Si / 1000 Ang^3
#
#
#
# Elastic Constant Matrix: (Units=GPa)
#
#
# Indices 1 2 3 4 5 6 
#
# 1 130.7120 2.6946 -8.3469 0.0000 0.0000 0.0000
# 2 2.6946 31.2026 -28.6020 0.0000 0.0000 0.0000
# 3 -8.3469 -28.6020 91.3322 0.0000 0.0000 0.0000
# 4 0.0000 0.0000 0.0000 9.6315 0.0000 0.0000
# 5 0.0000 0.0000 0.0000 0.0000 2.4841 0.0000
# 6 0.0000 0.0000 0.0000 0.0000 0.0000 -17.6057
#
#
#
# Elastic Compliance Matrix: (Units=1/GPa)
#
#
# Indices 1 2 3 4 5 6 
#
# 1 0.007695 -0.000028 0.000695 0.000000 0.000000 0.000000
# 2 -0.000028 0.044953 0.014075 0.000000 0.000000 0.000000
# 3 0.000695 0.014075 0.015420 0.000000 0.000000 0.000000
# 4 0.000000 0.000000 0.000000 0.103826 0.000000 0.000000
# 5 0.000000 0.000000 0.000000 0.000000 0.402564 0.000000
# 6 0.000000 0.000000 0.000000 0.000000 0.000000 -0.056800
#
#
# Mechanical properties :
#
#
# Convention : Reuss Voigt Hill
#
# Bulk Modulus (GPa) = 10.25091 20.52645 15.38868
# Shear Modulus (GPa) = 9.60260 18.06873 13.83566
#
# Velocity S-wave (km/s) = 1.89335 2.59716 2.27267
# Velocity P-wave (km/s) = 2.93368 4.08123 3.55407
#
# Compressibility (1/GPa) = 0.09755234
#
# Stress axis : x y z
#
# Youngs Moduli (GPa) = 129.94884 22.24545 64.84934
#
# Poissons Ratio (x) = 0.00062 -0.04504
# Poissons Ratio (y) = 0.00362 -0.91276
# Poissons Ratio (z) = -0.09026 -0.31311
#
# Static dielectric constant tensor:
#      x y z
#    x 2.178300 0.000000 0.000000 
#    y 0.000000 2.188950 0.000000 
#    z 0.000000 0.000000 2.209980 
# 
# From -- ./inp_files/20482.got.cif
#   From: 2010.05.17/outbox.cif.g08.bks.cpg/sg49_11_cif.got.tgz:20482.got - 2010.06.03 21:02:19.
