data_PCOD9392340
_publ_section_title
;
Structure prediction by ZEFSAII (Michael W. Deem and Ramdas Pophale) SiO2 
 PCOD9392340
Probable space group: P C C M
;
_chemical_formula_sum "Si O2"
_cell_formula_units_Z 56
_cell_length_a 18.902228
_cell_length_b 21.430334
_cell_length_c 8.611685
_cell_angle_alpha 90.000000
_cell_angle_beta 90.000000
_cell_angle_gamma 90.000000
_cell_volume 3488.430483
_symmetry_space_group_name_H-M "P C C M"
_symmetry_group_IT_number 49
_symmetry_cell_setting 'orthorhombic'
loop_
_space_group_symop_operation_xyz
x,y,z
-x,-y,z
x,-y,1/2-z
-x,y,1/2-z
-x,-y,-z
x,y,-z
-x,y,1/2+z
x,-y,1/2+z
loop_
_atom_site_type_symbol
_atom_site_label
_atom_site_fract_x
_atom_site_fract_y
_atom_site_fract_z
Si Si1 0.289065 0.254594 0.678177
Si Si2 0.355257 0.934075 0.187773
Si Si3 0.422981 0.807661 0.685122
Si Si4 0.787557 0.880963 0.677647
Si Si5 0.921501 0.186888 0.188029
Si Si6 0.153203 0.311272 0.815309
Si Si7 0.079517 0.566876 0.814403
O O1 0.297577 0.274846 0.500000
O O2 0.363821 0.241256 0.757615
O O3 0.250336 0.186883 0.674124
O O4 0.234354 0.298248 0.768172
O O5 0.399755 0.875339 0.248312
O O6 0.273814 0.924238 0.246826
O O7 0.382039 0.000000 0.250000
O O8 0.355060 0.932533 0.000000
O O9 0.500000 0.792102 0.750000
O O10 0.423547 0.810580 0.500000
O O11 0.798547 0.901963 0.500000
O O12 0.864655 0.865339 0.744818
O O13 0.892903 0.253935 0.246160
O O14 0.000000 0.176231 0.250000
O O15 0.920467 0.187295 0.000000
O O16 0.125934 0.375720 0.744539
O O17 0.145178 0.311354 0.000000
O O18 0.104545 0.500000 0.750000
O O19 0.000000 0.575882 0.750000
O O20 0.077335 0.565303 0.000000
#
# Coordination Sequence:
#
# PCOD9392340 Si02
#       7
#     8   8   8   8   8   8   8
#     4   9  17  32  50  70  94 122 153 191 233 276
#     4  10  19  33  50  69  90 118 154 192 230 277
#     4  11  21  34  51  73  99 128 155 186 228 278
#     4   7  14  28  45  61  84 113 143 181 230 277
#     4  10  18  29  44  65  89 116 149 193 242 286
#     4  11  20  31  47  69  94 125 162 198 234 281
#     4  11  21  34  48  66  94 131 170 209 248 288
#
# _framework density 16.053063999999999
#
# number of rings (size 3 to 8) (size 9 to 14) (size 15 to 20)
#    0.000    2.143    0.000    7.714    0.000    0.286 
#    0.000    3.571    0.000    0.429    0.000    3.000 
#    0.000    0.571    0.000    5.714    0.000    3.429 
#
# Total GULP energy -312228.787564 kJ/mol
# GULP energy per Si atom -5575.514064 kJ/mol
# Density = 1.601653 g / cm^3
# Si number density = 16.053064 Si / 1000 Ang^3
#
#
#
# Elastic Constant Matrix: (Units=GPa)
#
#
# Indices 1 2 3 4 5 6 
#
# 1 104.8477 7.2109 26.7495 0.0000 0.0000 0.0000
# 2 7.2109 26.8690 8.4292 0.0000 0.0000 0.0000
# 3 26.7495 8.4292 109.0706 0.0000 0.0000 0.0000
# 4 0.0000 0.0000 0.0000 15.4841 0.0000 0.0000
# 5 0.0000 0.0000 0.0000 0.0000 24.7757 0.0000
# 6 0.0000 0.0000 0.0000 0.0000 0.0000 16.6230
#
#
#
# Elastic Compliance Matrix: (Units=1/GPa)
#
#
# Indices 1 2 3 4 5 6 
#
# 1 0.010280 -0.002017 -0.002365 0.000000 0.000000 0.000000
# 2 -0.002017 0.038538 -0.002484 0.000000 0.000000 0.000000
# 3 -0.002365 -0.002484 0.009940 0.000000 0.000000 0.000000
# 4 0.000000 0.000000 0.000000 0.064582 0.000000 0.000000
# 5 0.000000 0.000000 0.000000 0.000000 0.040362 0.000000
# 6 0.000000 0.000000 0.000000 0.000000 0.000000 0.060158
#
#
# Mechanical properties :
#
#
# Convention : Reuss Voigt Hill
#
# Bulk Modulus (GPa) = 22.20904 36.17405 29.19155
# Shear Modulus (GPa) = 19.79408 24.60306 22.19857
#
# Velocity S-wave (km/s) = 3.51528 3.91910 3.72267
# Velocity P-wave (km/s) = 5.50827 6.56217 6.05818
#
# Compressibility (1/GPa) = 0.04502671
#
# Stress axis : x y z
#
# Youngs Moduli (GPa) = 97.27823 25.94843 100.59959
#
# Poissons Ratio (x) = 0.05233 0.23794
# Poissons Ratio (y) = 0.19619 0.24986
# Poissons Ratio (z) = 0.23009 0.06445
#
# Static dielectric constant tensor:
#      x y z
#    x 1.557680 0.000000 0.000000 
#    y 0.000000 1.521110 0.000000 
#    z 0.000000 0.000000 1.540530 
# 
# From -- ./inp_files/5189.got.cif
#   From: 2010.05.17/outbox.cif.g08.bks.cpg/sg49_3_cif.got.tgz:5189.got - 2010.06.03 21:02:19.
