data_PCOD9392644
_publ_section_title
;
Structure prediction by ZEFSAII (Michael W. Deem and Ramdas Pophale) SiO2 
 PCOD9392644
Probable space group: P C C M
;
_chemical_formula_sum "Si O2"
_cell_formula_units_Z 48
_cell_length_a 8.807986
_cell_length_b 10.575639
_cell_length_c 22.805443
_cell_angle_alpha 90.000000
_cell_angle_beta 90.000000
_cell_angle_gamma 90.000000
_cell_volume 2124.328846
_symmetry_space_group_name_H-M "P C C M"
_symmetry_group_IT_number 49
_symmetry_cell_setting 'orthorhombic'
loop_
_space_group_symop_operation_xyz
x,y,z
-x,-y,z
x,-y,1/2-z
-x,y,1/2-z
-x,-y,-z
x,y,-z
-x,y,1/2+z
x,-y,1/2+z
loop_
_atom_site_type_symbol
_atom_site_label
_atom_site_fract_x
_atom_site_fract_y
_atom_site_fract_z
Si Si1 0.786743 0.415636 0.385797
Si Si2 0.955555 0.817532 0.931723
Si Si3 0.674302 0.651637 0.238808
Si Si4 0.646952 0.066565 0.433846
Si Si5 0.202508 0.698743 0.142422
Si Si6 0.508033 0.338673 0.935179
O O1 0.886029 0.324522 0.425692
O O2 0.741689 0.339591 0.326274
O O3 0.849884 0.553354 0.369216
O O4 0.624858 0.436558 0.417523
O O5 0.821273 0.914703 0.912976
O O6 0.100161 0.801618 0.889855
O O7 0.992348 0.841103 0.000000
O O8 0.672590 0.500000 0.250000
O O9 0.500000 0.693518 0.250000
O O10 0.779149 0.713874 0.288202
O O11 0.659683 0.010043 0.500000
O O12 0.590183 0.209783 0.439025
O O13 0.500000 0.000000 0.404179
O O14 0.368142 0.694173 0.113371
O O15 0.574261 0.358266 0.000000
#
# Coordination Sequence:
#
# PCOD9392644 Si02
#       6
#     8   8   8   8   8   8
#     4  10  19  32  48  67 101 148 183 212 258 325
#     4  10  21  33  47  74 106 136 173 216 276 343
#     4   9  17  31  48  67  95 138 188 223 250 301
#     4   8  16  34  54  68  92 132 173 215 266 334
#     4  11  20  30  47  72 107 139 172 227 272 309
#     4  10  19  29  47  75  99 132 181 220 269 334
#
# _framework density 22.595372000000001
#
# number of rings (size 3 to 8) (size 9 to 14) (size 15 to 20)
#    0.000    2.333    1.667    3.000    0.000    4.667 
#    0.000    3.333    0.000    4.000    0.000    9.333 
#    0.000    5.333    0.000    0.000    0.000    0.000 
#
# Total GULP energy -267557.530512 kJ/mol
# GULP energy per Si atom -5574.115219 kJ/mol
# Density = 2.254394 g / cm^3
# Si number density = 22.595372 Si / 1000 Ang^3
#
#
#
# Elastic Constant Matrix: (Units=GPa)
#
#
# Indices 1 2 3 4 5 6 
#
# 1 80.9817 24.6881 21.4690 0.0000 0.0000 0.0000
# 2 24.6881 51.4159 13.1982 0.0000 0.0000 0.0000
# 3 21.4690 13.1982 114.1849 0.0000 0.0000 0.0000
# 4 0.0000 0.0000 0.0000 -0.7934 0.0000 0.0000
# 5 0.0000 0.0000 0.0000 0.0000 3.2659 0.0000
# 6 0.0000 0.0000 0.0000 0.0000 0.0000 44.3160
#
#
#
# Elastic Compliance Matrix: (Units=1/GPa)
#
#
# Indices 1 2 3 4 5 6 
#
# 1 0.014912 -0.006637 -0.002037 0.000000 0.000000 0.000000
# 2 -0.006637 0.022998 -0.001410 0.000000 0.000000 0.000000
# 3 -0.002037 -0.001410 0.009304 0.000000 0.000000 0.000000
# 4 0.000000 0.000000 0.000000 -1.260407 0.000000 0.000000
# 5 0.000000 0.000000 0.000000 0.000000 0.306195 0.000000
# 6 0.000000 0.000000 0.000000 0.000000 0.000000 0.022565
#
#
# Mechanical properties :
#
#
# Convention : Reuss Voigt Hill
#
# Bulk Modulus (GPa) = 36.97500 40.58814 38.78157
# Shear Modulus (GPa) = -5.84625 21.83951 7.99663
#
# Velocity S-wave (km/s) = -1.61027 3.11231 1.88328
# Velocity P-wave (km/s) = 3.59753 5.56033 4.68292
#
# Compressibility (1/GPa) = 0.02704530
#
# Stress axis : x y z
#
# Youngs Moduli (GPa) = 67.06071 43.48149 107.48473
#
# Poissons Ratio (x) = 0.28860 0.21890
# Poissons Ratio (y) = 0.44511 0.15159
# Poissons Ratio (z) = 0.13657 0.06132
#
# Static dielectric constant tensor:
#      x y z
#    x 1.937990 0.000000 0.000000 
#    y 0.000000 1.898190 0.000000 
#    z 0.000000 0.000000 1.807020 
# 
# From -- ./inp_files/22375.got.cif
#   From: 2010.05.17/outbox.cif.g08.bks.cpg/sg49_12_cif.got.tgz:22375.got - 2010.06.03 21:02:19.
