data_PCOD9392949
_publ_section_title
;
Structure prediction by ZEFSAII (Michael W. Deem and Ramdas Pophale) SiO2 
 PCOD9392949
Probable space group: P C C M
;
_chemical_formula_sum "Si O2"
_cell_formula_units_Z 56
_cell_length_a 7.190010
_cell_length_b 15.137099
_cell_length_c 21.104849
_cell_angle_alpha 90.000000
_cell_angle_beta 90.000000
_cell_angle_gamma 90.000000
_cell_volume 2296.965091
_symmetry_space_group_name_H-M "P C C M"
_symmetry_group_IT_number 49
_symmetry_cell_setting 'orthorhombic'
loop_
_space_group_symop_operation_xyz
x,y,z
-x,-y,z
x,-y,1/2-z
-x,y,1/2-z
-x,-y,-z
x,y,-z
-x,y,1/2+z
x,-y,1/2+z
loop_
_atom_site_type_symbol
_atom_site_label
_atom_site_fract_x
_atom_site_fract_y
_atom_site_fract_z
Si Si1 0.163763 0.684263 0.390953
Si Si2 0.338702 0.850424 0.928481
Si Si3 0.274930 0.013431 0.676450
Si Si4 0.776288 0.396445 0.741999
Si Si5 0.795267 0.501463 0.929610
Si Si6 0.763089 0.883378 0.069625
Si Si7 0.282367 0.667565 0.127307
O O1 0.250148 0.654875 0.323617
O O2 0.244142 0.604283 0.432574
O O3 0.200727 0.780863 0.416766
O O4 0.939115 0.678885 0.386371
O O5 0.540652 0.893672 0.933918
O O6 0.369732 0.748403 0.909635
O O7 0.246547 0.897773 0.866904
O O8 0.254067 0.855905 0.000000
O O9 0.184059 0.939573 0.631032
O O10 0.500000 0.000000 0.679668
O O11 0.214269 0.000000 0.750000
O O12 0.718122 0.500000 0.750000
O O13 0.692538 0.337338 0.797859
O O14 0.000000 0.398652 0.750000
O O15 0.668132 0.431105 0.895389
O O16 0.000000 0.500000 0.896638
O O17 0.817969 0.465001 0.000000
O O18 0.836761 0.909452 0.000000
#
# Coordination Sequence:
#
# PCOD9392949 Si02
#       7
#     8   8   8   8   8   8   8
#     4  10  19  32  53  79 108 141 179 219 262 312
#     4  10  21  37  57  81 108 138 174 219 269 317
#     4   9  19  37  60  81 102 136 179 216 258 322
#     4   9  16  30  51  76 105 142 184 223 261 306
#     4   9  16  27  46  72 101 137 180 215 244 298
#     4  10  21  37  57  81 108 138 174 219 269 317
#     4  10  19  32  53  79 108 141 179 219 262 312
#
# _framework density 24.379995000000001
#
# number of rings (size 3 to 8) (size 9 to 14) (size 15 to 20)
#    0.000    2.429    1.429    1.286    2.000    3.429 
#    0.000    1.429    0.000    6.000    0.000    0.000 
#    0.000    0.000    0.000    0.000    0.000    0.000 
#
# Total GULP energy -312361.070644 kJ/mol
# GULP energy per Si atom -5577.876261 kJ/mol
# Density = 2.432451 g / cm^3
# Si number density = 24.379995 Si / 1000 Ang^3
#
#
#
# Elastic Constant Matrix: (Units=GPa)
#
#
# Indices 1 2 3 4 5 6 
#
# 1 72.1773 -9.2556 -1.2047 0.0000 0.0000 0.0000
# 2 -9.2556 139.8403 63.1645 0.0000 0.0000 0.0000
# 3 -1.2047 63.1645 225.0807 0.0000 0.0000 0.0000
# 4 0.0000 0.0000 0.0000 13.6829 0.0000 0.0000
# 5 0.0000 0.0000 0.0000 0.0000 -2.1948 0.0000
# 6 0.0000 0.0000 0.0000 0.0000 0.0000 20.0075
#
#
#
# Elastic Compliance Matrix: (Units=1/GPa)
#
#
# Indices 1 2 3 4 5 6 
#
# 1 0.013982 0.001021 -0.000212 0.000000 0.000000 0.000000
# 2 0.001021 0.008264 -0.002314 0.000000 0.000000 0.000000
# 3 -0.000212 -0.002314 0.005091 0.000000 0.000000 0.000000
# 4 0.000000 0.000000 0.000000 0.073084 0.000000 0.000000
# 5 0.000000 0.000000 0.000000 0.000000 -0.455617 0.000000
# 6 0.000000 0.000000 0.000000 0.000000 0.000000 0.049981
#
#
# Mechanical properties :
#
#
# Convention : Reuss Voigt Hill
#
# Bulk Modulus (GPa) = 41.10429 60.27851 50.69140
# Shear Modulus (GPa) = -17.00121 31.92538 7.46209
#
# Velocity S-wave (km/s) = -2.64359 3.62261 1.75140
# Velocity P-wave (km/s) = 2.75288 6.50200 4.99271
#
# Compressibility (1/GPa) = 0.02432836
#
# Stress axis : x y z
#
# Youngs Moduli (GPa) = 71.51963 121.01259 196.42615
#
# Poissons Ratio (x) = -0.12356 0.04158
# Poissons Ratio (y) = -0.07303 0.45444
# Poissons Ratio (z) = 0.01514 0.27997
#
# Static dielectric constant tensor:
#      x y z
#    x 2.028380 0.000000 0.000000 
#    y 0.000000 1.932620 0.000000 
#    z 0.000000 0.000000 1.961000 
# 
# From -- ./inp_files/19874.got.cif
#   From: 2010.05.17/outbox.cif.g08.bks.cpg/sg49_10_cif.got.tgz:19874.got - 2010.06.03 21:02:19.
