data_PCOD9392426
_publ_section_title
;
Structure prediction by ZEFSAII (Michael W. Deem and Ramdas Pophale) SiO2 
 PCOD9392426
Probable space group: P C C M
;
_chemical_formula_sum "Si O2"
_cell_formula_units_Z 64
_cell_length_a 20.287362
_cell_length_b 20.843835
_cell_length_c 9.030349
_cell_angle_alpha 90.000000
_cell_angle_beta 90.000000
_cell_angle_gamma 90.000000
_cell_volume 3818.631408
_symmetry_space_group_name_H-M "P C C M"
_symmetry_group_IT_number 49
_symmetry_cell_setting 'orthorhombic'
loop_
_space_group_symop_operation_xyz
x,y,z
-x,-y,z
x,-y,1/2-z
-x,y,1/2-z
-x,-y,-z
x,y,-z
-x,y,1/2+z
x,-y,1/2+z
loop_
_atom_site_type_symbol
_atom_site_label
_atom_site_fract_x
_atom_site_fract_y
_atom_site_fract_z
Si Si1 0.928322 0.308978 0.677735
Si Si2 0.565570 0.242478 0.169799
Si Si3 0.708255 0.249421 0.179054
Si Si4 0.432470 0.600880 0.171396
Si Si5 0.070446 0.931810 0.822176
Si Si6 0.151659 0.193959 0.676594
Si Si7 0.846588 0.564399 0.822871
Si Si8 0.702951 0.610332 0.822349
O O1 0.933311 0.306921 0.500000
O O2 0.890046 0.246786 0.736129
O O3 0.886614 0.372138 0.720678
O O4 0.000000 0.311420 0.750000
O O5 0.500000 0.220347 0.250000
O O6 0.637287 0.221562 0.226509
O O7 0.566710 0.320717 0.175989
O O8 0.560344 0.223578 0.000000
O O9 0.771466 0.205931 0.210380
O O10 0.714193 0.317933 0.259050
O O11 0.705067 0.260236 0.000000
O O12 0.500000 0.579451 0.250000
O O13 0.364501 0.583201 0.252704
O O14 0.431409 0.581247 0.000000
O O15 0.123336 0.876354 0.791074
O O16 0.000000 0.913420 0.750000
O O17 0.088495 0.000000 0.750000
O O18 0.063082 0.938264 0.000000
O O19 0.142944 0.204926 0.500000
O O20 0.873165 0.500000 0.750000
O O21 0.769676 0.573200 0.782299
O O22 0.850017 0.559130 0.000000
O O23 0.696473 0.612667 0.000000
#
# Coordination Sequence:
#
# PCOD9392426 Si02
#       8
#     8   8   8   8   8   8   8   8
#     4  11  23  39  56  79 103 128 163 205 255 307
#     4   8  14  23  36  58  90 125 159 193 232 282
#     4   9  17  29  46  69  97 130 166 202 247 297
#     4   9  16  26  42  67  94 126 161 198 244 296
#     4  10  20  34  52  75 103 137 174 208 247 295
#     4  10  20  34  54  79 105 136 171 209 251 299
#     4  10  23  39  55  74  97 126 165 208 256 309
#     4  10  18  31  48  70  97 125 160 205 249 299
#
# _framework density 16.759931000000002
#
# number of rings (size 3 to 8) (size 9 to 14) (size 15 to 20)
#    0.000    2.375    1.250    3.000    0.000    7.250 
#    0.000    1.250    0.000    0.375    0.000    2.625 
#    0.000    0.500    0.000    6.250    0.000    0.125 
#
# Total GULP energy -356961.005138 kJ/mol
# GULP energy per Si atom -5577.515705 kJ/mol
# Density = 1.672178 g / cm^3
# Si number density = 16.759931 Si / 1000 Ang^3
#
#
#
# Elastic Constant Matrix: (Units=GPa)
#
#
# Indices 1 2 3 4 5 6 
#
# 1 149.2262 58.6167 54.5896 0.0000 0.0000 0.0000
# 2 58.6167 74.0206 33.8813 0.0000 0.0000 0.0000
# 3 54.5896 33.8813 50.1691 0.0000 0.0000 0.0000
# 4 0.0000 0.0000 0.0000 15.0873 0.0000 0.0000
# 5 0.0000 0.0000 0.0000 0.0000 23.8627 0.0000
# 6 0.0000 0.0000 0.0000 0.0000 0.0000 -48.8337
#
#
#
# Elastic Compliance Matrix: (Units=1/GPa)
#
#
# Indices 1 2 3 4 5 6 
#
# 1 0.012411 -0.005278 -0.009939 0.000000 0.000000 0.000000
# 2 -0.005278 0.021799 -0.008979 0.000000 0.000000 0.000000
# 3 -0.009939 -0.008979 0.036812 0.000000 0.000000 0.000000
# 4 0.000000 0.000000 0.000000 0.066281 0.000000 0.000000
# 5 0.000000 0.000000 0.000000 0.000000 0.041906 0.000000
# 6 0.000000 0.000000 0.000000 0.000000 0.000000 -0.020478
#
#
# Mechanical properties :
#
#
# Convention : Reuss Voigt Hill
#
# Bulk Modulus (GPa) = 44.19175 63.06568 53.62872
# Shear Modulus (GPa) = 23.29185 6.44512 14.86849
#
# Velocity S-wave (km/s) = 3.73196 1.96314 2.98173
# Velocity P-wave (km/s) = 6.70781 6.54592 6.62736
#
# Compressibility (1/GPa) = 0.02262866
#
# Stress axis : x y z
#
# Youngs Moduli (GPa) = 80.57602 45.87271 27.16541
#
# Poissons Ratio (x) = 0.24213 0.27001
# Poissons Ratio (y) = 0.42531 0.24391
# Poissons Ratio (z) = 0.80088 0.41187
#
# Static dielectric constant tensor:
#      x y z
#    x 1.587110 0.000000 0.000000 
#    y 0.000000 1.543230 0.000000 
#    z 0.000000 0.000000 1.497200 
# 
# From -- ./inp_files/6010.got.cif
#   From: 2010.05.17/outbox.cif.g08.bks.cpg/sg49_4_cif.got.tgz:6010.got - 2010.06.03 21:02:19.
