data_PCOD9392842
_publ_section_title
;
Structure prediction by ZEFSAII (Michael W. Deem and Ramdas Pophale) SiO2 
 PCOD9392842
Probable space group: P C C M
;
_chemical_formula_sum "Si O2"
_cell_formula_units_Z 46
_cell_length_a 11.080568
_cell_length_b 7.394568
_cell_length_c 26.482224
_cell_angle_alpha 90.000000
_cell_angle_beta 90.000000
_cell_angle_gamma 90.000000
_cell_volume 2169.847865
_symmetry_space_group_name_H-M "P C C M"
_symmetry_group_IT_number 49
_symmetry_cell_setting 'orthorhombic'
loop_
_space_group_symop_operation_xyz
x,y,z
-x,-y,z
x,-y,1/2-z
-x,y,1/2-z
-x,-y,-z
x,y,-z
-x,y,1/2+z
x,-y,1/2+z
loop_
_atom_site_type_symbol
_atom_site_label
_atom_site_fract_x
_atom_site_fract_y
_atom_site_fract_z
Si Si1 0.381633 0.714263 0.609179
Si Si2 0.880298 0.720770 0.890628
Si Si3 0.617357 0.685166 0.657956
Si Si4 0.500000 0.500000 0.750000
Si Si5 0.142700 0.703674 0.112325
Si Si6 0.241841 0.224198 0.500000
Si Si7 0.883422 0.132625 0.500000
Si Si8 0.519640 0.215300 0.500000
O O1 0.251652 0.797283 0.623594
O O2 0.500703 0.788440 0.636769
O O3 0.376229 0.504203 0.626361
O O4 0.410370 0.726333 0.550146
O O5 0.873910 0.509502 0.877571
O O6 0.012708 0.790371 0.875243
O O7 0.883534 0.746040 0.950867
O O8 0.584270 0.622568 0.714217
O O9 0.745407 0.772533 0.645608
O O10 0.178362 0.721450 0.052891
O O11 0.380774 0.287232 0.500000
O O12 0.228246 0.006124 0.500000
O O13 0.000000 0.000000 0.500000
O O14 0.500000 0.000000 0.500000
#
# Coordination Sequence:
#
# PCOD9392842 Si02
#       8
#     8   8   8   2   8   4   4   4
#     4   9  18  31  47  68  96 130 167 194 242 289
#     4  10  19  32  46  64  95 136 174 210 231 287
#     4   9  18  33  54  77  93 125 155 204 261 310
#     4   8  16  32  56  80 102 116 148 206 272 328
#     4  10  19  32  50  70  96 131 174 205 244 287
#     4  12  21  30  45  67 103 141 178 211 229 291
#     4  12  21  31  41  64 104 150 184 194 245 270
#     4  12  22  30  42  67 107 140 170 209 231 278
#
# _framework density 21.199643999999999
#
# number of rings (size 3 to 8) (size 9 to 14) (size 15 to 20)
#    0.000    2.087    3.478    2.087    0.000    4.870 
#    0.000    0.000    0.000   18.783    0.000    9.739 
#    0.000    0.000    9.391    0.000    0.000    0.000 
#
# Total GULP energy -256427.441941 kJ/mol
# GULP energy per Si atom -5574.509607 kJ/mol
# Density = 2.115139 g / cm^3
# Si number density = 21.199644 Si / 1000 Ang^3
#
#
#
# Elastic Constant Matrix: (Units=GPa)
#
#
# Indices 1 2 3 4 5 6 
#
# 1 268.4498 8.2033 50.1389 0.0000 0.0000 0.0000
# 2 8.2033 59.2769 10.7826 0.0000 0.0000 0.0000
# 3 50.1389 10.7826 92.4717 0.0000 0.0000 0.0000
# 4 0.0000 0.0000 0.0000 28.0661 0.0000 0.0000
# 5 0.0000 0.0000 0.0000 0.0000 2.1002 0.0000
# 6 0.0000 0.0000 0.0000 0.0000 0.0000 9.1999
#
#
#
# Elastic Compliance Matrix: (Units=1/GPa)
#
#
# Indices 1 2 3 4 5 6 
#
# 1 0.004146 -0.000168 -0.002229 0.000000 0.000000 0.000000
# 2 -0.000168 0.017242 -0.001919 0.000000 0.000000 0.000000
# 3 -0.002229 -0.001919 0.012246 0.000000 0.000000 0.000000
# 4 0.000000 0.000000 0.000000 0.035630 0.000000 0.000000
# 5 0.000000 0.000000 0.000000 0.000000 0.476150 0.000000
# 6 0.000000 0.000000 0.000000 0.000000 0.000000 0.108696
#
#
# Mechanical properties :
#
#
# Convention : Reuss Voigt Hill
#
# Bulk Modulus (GPa) = 39.99580 62.04977 51.02279
# Shear Modulus (GPa) = 7.45070 31.27816 19.36443
#
# Velocity S-wave (km/s) = 1.87674 3.84527 3.02558
# Velocity P-wave (km/s) = 4.85834 7.00340 6.02707
#
# Compressibility (1/GPa) = 0.02500262
#
# Stress axis : x y z
#
# Youngs Moduli (GPa) = 241.16841 57.99660 81.65744
#
# Poissons Ratio (x) = 0.00977 0.18198
# Poissons Ratio (y) = 0.04062 0.15672
# Poissons Ratio (z) = 0.53747 0.11131
#
# Static dielectric constant tensor:
#      x y z
#    x 1.982960 0.000000 0.000000 
#    y 0.000000 1.841170 0.000000 
#    z 0.000000 0.000000 1.706350 
# 
# From -- ./inp_files/24791.got.cif
#   From: 2010.05.17/outbox.cif.g08.bks.cpg/sg49_13_cif.got.tgz:24791.got - 2010.06.03 21:02:19.
