data_PCOD9392253
_publ_section_title
;
Structure prediction by ZEFSAII (Michael W. Deem and Ramdas Pophale) SiO2 
 PCOD9392253
Probable space group: P C C M
;
_chemical_formula_sum "Si O2"
_cell_formula_units_Z 38
_cell_length_a 9.496874
_cell_length_b 23.067899
_cell_length_c 8.809209
_cell_angle_alpha 90.000000
_cell_angle_beta 90.000000
_cell_angle_gamma 90.000000
_cell_volume 1929.859229
_symmetry_space_group_name_H-M "P C C M"
_symmetry_group_IT_number 49
_symmetry_cell_setting 'orthorhombic'
loop_
_space_group_symop_operation_xyz
x,y,z
-x,-y,z
x,-y,1/2-z
-x,y,1/2-z
-x,-y,-z
x,y,-z
-x,y,1/2+z
x,-y,1/2+z
loop_
_atom_site_type_symbol
_atom_site_label
_atom_site_fract_x
_atom_site_fract_y
_atom_site_fract_z
Si Si1 0.000000 0.500000 0.000000
Si Si2 0.659505 0.059207 0.183338
Si Si3 0.341582 0.179881 0.816672
Si Si4 0.348848 0.379149 0.176638
Si Si5 0.843881 0.716187 0.317949
Si Si6 0.779685 0.500000 0.250000
O O1 0.887492 0.477430 0.126137
O O2 0.500000 0.059541 0.250000
O O3 0.718261 0.119261 0.249495
O O4 0.724987 0.000000 0.250000
O O5 0.656989 0.058702 0.000000
O O6 0.500000 0.187025 0.750000
O O7 0.247170 0.232117 0.755784
O O8 0.347235 0.177992 0.000000
O O9 0.500000 0.367729 0.250000
O O10 0.232441 0.342641 0.265711
O O11 0.312148 0.447069 0.188226
O O12 0.347806 0.361985 0.000000
O O13 0.846202 0.721023 0.500000
O O14 0.000000 0.717648 0.250000
#
# Coordination Sequence:
#
# PCOD9392253 Si02
#       6
#     2   8   8   8   8   4
#     4  10  24  42  66 102 128 170 202 258 298 378
#     4  10  17  28  49  82 120 160 204 252 307 363
#     4  11  21  38  61  89 125 163 206 256 311 365
#     4  12  27  45  68  96 129 164 207 257 313 368
#     4  12  27  45  67  91 122 161 207 255 309 373
#     4  11  25  42  70  94 134 164 212 250 314 362
#
# _framework density 19.690553000000001
#
# number of rings (size 3 to 8) (size 9 to 14) (size 15 to 20)
#    0.000    0.842    1.053    9.158    5.895    0.842 
#    0.000    0.000    0.000    0.632    0.000    4.421 
#    0.000    0.000    0.000    0.000    0.000    0.000 
#
# Total GULP energy -211715.414455 kJ/mol
# GULP energy per Si atom -5571.458275 kJ/mol
# Density = 1.964574 g / cm^3
# Si number density = 19.690553 Si / 1000 Ang^3
#
#
#
# Elastic Constant Matrix: (Units=GPa)
#
#
# Indices 1 2 3 4 5 6 
#
# 1 98.3614 43.6844 47.1344 0.0000 0.0000 0.0000
# 2 43.6844 134.5732 45.2992 0.0000 0.0000 0.0000
# 3 47.1344 45.2992 231.7704 0.0000 0.0000 0.0000
# 4 0.0000 0.0000 0.0000 35.1506 0.0000 0.0000
# 5 0.0000 0.0000 0.0000 0.0000 23.2850 0.0000
# 6 0.0000 0.0000 0.0000 0.0000 0.0000 -12.0008
#
#
#
# Elastic Compliance Matrix: (Units=1/GPa)
#
#
# Indices 1 2 3 4 5 6 
#
# 1 0.012607 -0.003457 -0.001888 0.000000 0.000000 0.000000
# 2 -0.003457 0.008902 -0.001037 0.000000 0.000000 0.000000
# 3 -0.001888 -0.001037 0.004901 0.000000 0.000000 0.000000
# 4 0.000000 0.000000 0.000000 0.028449 0.000000 0.000000
# 5 0.000000 0.000000 0.000000 0.000000 0.042946 0.000000
# 6 0.000000 0.000000 0.000000 0.000000 0.000000 -0.083328
#
#
# Mechanical properties :
#
#
# Convention : Reuss Voigt Hill
#
# Bulk Modulus (GPa) = 73.27970 81.88236 77.58103
# Shear Modulus (GPa) = 157.28504 31.19278 94.23891
#
# Velocity S-wave (km/s) = 8.94717 3.98446 6.92559
# Velocity P-wave (km/s) = 12.00134 7.92734 10.17042
#
# Compressibility (1/GPa) = 0.01364634
#
# Stress axis : x y z
#
# Youngs Moduli (GPa) = 79.32367 112.33390 204.02899
#
# Poissons Ratio (x) = 0.38830 0.38524
# Poissons Ratio (y) = 0.27420 0.21156
# Poissons Ratio (z) = 0.14978 0.11648
#
# Static dielectric constant tensor:
#      x y z
#    x 1.672070 0.000000 0.000000 
#    y 0.000000 1.763900 0.000000 
#    z 0.000000 0.000000 1.668370 
# 
# From -- ./inp_files/1765.got.cif
#   From: 2010.05.17/outbox.cif.g08.bks.cpg/sg49_1_cif.got.tgz:1765.got - 2010.06.03 21:02:19.
