data_PCOD9392881
_publ_section_title
;
Structure prediction by ZEFSAII (Michael W. Deem and Ramdas Pophale) SiO2 
 PCOD9392881
Probable space group: P C C M
;
_chemical_formula_sum "Si O2"
_cell_formula_units_Z 48
_cell_length_a 13.383044
_cell_length_b 18.168815
_cell_length_c 8.957666
_cell_angle_alpha 90.000000
_cell_angle_beta 90.000000
_cell_angle_gamma 90.000000
_cell_volume 2178.092772
_symmetry_space_group_name_H-M "P C C M"
_symmetry_group_IT_number 49
_symmetry_cell_setting 'orthorhombic'
loop_
_space_group_symop_operation_xyz
x,y,z
-x,-y,z
x,-y,1/2-z
-x,y,1/2-z
-x,-y,-z
x,y,-z
-x,y,1/2+z
x,-y,1/2+z
loop_
_atom_site_type_symbol
_atom_site_label
_atom_site_fract_x
_atom_site_fract_y
_atom_site_fract_z
Si Si1 0.857951 0.264661 0.326510
Si Si2 0.675811 0.073273 0.176543
Si Si3 0.659109 0.234188 0.171339
Si Si4 0.099443 0.115491 0.324008
Si Si5 0.400241 0.603832 0.170207
Si Si6 0.814229 0.574365 0.821230
O O1 0.883862 0.252142 0.500000
O O2 0.739974 0.252457 0.297838
O O3 0.900245 0.201962 0.219553
O O4 0.873460 0.350040 0.285425
O O5 0.622154 0.151754 0.203121
O O6 0.792124 0.085458 0.227339
O O7 0.634314 0.000000 0.250000
O O8 0.677742 0.061229 0.000000
O O9 0.593252 0.306811 0.165167
O O10 0.703603 0.229239 0.000000
O O11 0.093480 0.105958 0.500000
O O12 0.000000 0.083469 0.250000
O O13 0.500000 0.577970 0.250000
O O14 0.297867 0.583750 0.254563
O O15 0.393191 0.577125 0.000000
O O16 0.856708 0.500000 0.750000
O O17 0.809082 0.568874 0.000000
#
# Coordination Sequence:
#
# PCOD9392881 Si02
#       6
#     8   8   8   8   8   8
#     4   9  17  30  49  71  93 120 158 197 231 274
#     4   9  18  31  47  69  95 124 157 193 235 281
#     4   8  16  31  48  66  91 124 159 194 233 278
#     4  10  20  33  49  70  97 127 159 194 235 281
#     4  10  19  32  50  71  97 126 158 197 239 283
#     4  10  20  33  50  73  99 127 159 193 233 281
#
# _framework density 22.03763
#
# number of rings (size 3 to 8) (size 9 to 14) (size 15 to 20)
#    0.000    2.667    0.000    3.000    0.000    6.667 
#    0.000    3.333    0.000    1.000    0.000    7.000 
#    0.000    0.000    0.000    0.000    0.000    0.000 
#
# Total GULP energy -267587.472707 kJ/mol
# GULP energy per Si atom -5574.739015 kJ/mol
# Density = 2.198747 g / cm^3
# Si number density = 22.037630 Si / 1000 Ang^3
#
#
#
# Elastic Constant Matrix: (Units=GPa)
#
#
# Indices 1 2 3 4 5 6 
#
# 1 35.0029 -8.6422 8.7776 0.0000 0.0000 0.0000
# 2 -8.6422 171.8894 28.8378 0.0000 0.0000 0.0000
# 3 8.7776 28.8378 50.2904 0.0000 0.0000 0.0000
# 4 0.0000 0.0000 0.0000 19.9882 0.0000 0.0000
# 5 0.0000 0.0000 0.0000 0.0000 4.5816 0.0000
# 6 0.0000 0.0000 0.0000 0.0000 0.0000 -4.0644
#
#
#
# Elastic Compliance Matrix: (Units=1/GPa)
#
#
# Indices 1 2 3 4 5 6 
#
# 1 0.030991 0.002728 -0.006974 0.000000 0.000000 0.000000
# 2 0.002728 0.006677 -0.004305 0.000000 0.000000 0.000000
# 3 -0.006974 -0.004305 0.023570 0.000000 0.000000 0.000000
# 4 0.000000 0.000000 0.000000 0.050029 0.000000 0.000000
# 5 0.000000 0.000000 0.000000 0.000000 0.218264 0.000000
# 6 0.000000 0.000000 0.000000 0.000000 0.000000 -0.246041
#
#
# Mechanical properties :
#
#
# Convention : Reuss Voigt Hill
#
# Bulk Modulus (GPa) = 22.65625 35.01434 28.83530
# Shear Modulus (GPa) = 43.36345 19.31506 31.33925
#
# Velocity S-wave (km/s) = 4.44069 2.96372 3.77514
# Velocity P-wave (km/s) = 6.04946 5.25684 5.66703
#
# Compressibility (1/GPa) = 0.04413792
#
# Stress axis : x y z
#
# Youngs Moduli (GPa) = 32.26701 149.76561 42.42640
#
# Poissons Ratio (x) = -0.40858 0.29586
# Poissons Ratio (y) = -0.08803 0.18264
# Poissons Ratio (z) = 0.22502 0.64474
#
# Static dielectric constant tensor:
#      x y z
#    x 1.855910 0.000000 0.000000 
#    y 0.000000 1.867670 0.000000 
#    z 0.000000 0.000000 1.757750 
# 
# From -- ./inp_files/3682.got.cif
#   From: 2010.05.17/outbox.cif.g08.bks.cpg/sg49_2_cif.got.tgz:3682.got - 2010.06.03 21:02:19.
