data_PCOD9392239
_publ_section_title
;
Structure prediction by ZEFSAII (Michael W. Deem and Ramdas Pophale) SiO2 
 PCOD9392239
Probable space group: P C C M
;
_chemical_formula_sum "Si O2"
_cell_formula_units_Z 64
_cell_length_a 29.173621
_cell_length_b 14.289443
_cell_length_c 8.703703
_cell_angle_alpha 90.000000
_cell_angle_beta 90.000000
_cell_angle_gamma 90.000000
_cell_volume 3628.354398
_symmetry_space_group_name_H-M "P C C M"
_symmetry_group_IT_number 49
_symmetry_cell_setting 'orthorhombic'
loop_
_space_group_symop_operation_xyz
x,y,z
-x,-y,z
x,-y,1/2-z
-x,y,1/2-z
-x,-y,-z
x,y,-z
-x,y,1/2+z
x,-y,1/2+z
loop_
_atom_site_type_symbol
_atom_site_label
_atom_site_fract_x
_atom_site_fract_y
_atom_site_fract_z
Si Si1 0.862559 0.222731 0.685053
Si Si2 0.723163 0.724199 0.685174
Si Si3 0.812777 0.396089 0.183543
Si Si4 0.949998 0.897051 0.815136
Si Si5 0.773180 0.896496 0.816447
Si Si6 0.447970 0.094932 0.183962
Si Si7 0.638722 0.399457 0.184637
Si Si8 0.449059 0.709883 0.184536
O O1 0.861295 0.231225 0.500000
O O2 0.850825 0.323142 0.756425
O O3 0.910820 0.176762 0.729125
O O4 0.821664 0.151292 0.730512
O O5 0.723418 0.733511 0.500000
O O6 0.764206 0.652317 0.727600
O O7 0.734955 0.824063 0.757369
O O8 0.675435 0.678303 0.734546
O O9 0.816763 0.500000 0.250000
O O10 0.814546 0.400786 0.000000
O O11 0.000000 0.872339 0.750000
O O12 0.938360 0.000000 0.750000
O O13 0.951994 0.902626 0.000000
O O14 0.768740 0.000000 0.750000
O O15 0.772063 0.900960 0.000000
O O16 0.500000 0.095492 0.250000
O O17 0.429546 0.192625 0.247767
O O18 0.426080 0.000000 0.250000
O O19 0.448989 0.093048 0.000000
O O20 0.650957 0.500000 0.250000
O O21 0.587248 0.369572 0.227539
O O22 0.640756 0.403378 0.000000
O O23 0.500000 0.694079 0.250000
O O24 0.451975 0.717836 0.000000
#
# Coordination Sequence:
#
# PCOD9392239 Si02
#       8
#     8   8   8   8   8   8   8   8
#     4   9  19  33  49  72 103 137 175 214 256 302
#     4   9  19  36  54  76 103 133 167 204 246 296
#     4  10  19  31  52  77 102 130 164 208 256 303
#     4  10  19  31  48  71 101 137 174 216 258 304
#     4  10  19  32  52  78 107 140 172 207 249 299
#     4  10  17  28  48  73  99 127 157 193 234 280
#     4  10  22  38  57  77 101 131 165 205 249 296
#     4  10  20  35  53  76 103 132 165 204 245 289
#
# _framework density 17.638850000000001
#
# number of rings (size 3 to 8) (size 9 to 14) (size 15 to 20)
#    0.000    2.250    0.000    4.875    0.000    3.750 
#    0.000    1.875    0.000    0.375    0.000    2.625 
#    0.000    0.000    0.000    0.000    0.000    0.000 
#
# Total GULP energy -357057.064629 kJ/mol
# GULP energy per Si atom -5579.016635 kJ/mol
# Density = 1.759870 g / cm^3
# Si number density = 17.638850 Si / 1000 Ang^3
#
#
#
# Elastic Constant Matrix: (Units=GPa)
#
#
# Indices 1 2 3 4 5 6 
#
# 1 88.0276 60.7291 30.1453 0.0000 0.0000 0.0000
# 2 60.7291 146.3794 38.8564 0.0000 0.0000 0.0000
# 3 30.1453 38.8564 53.1110 0.0000 0.0000 0.0000
# 4 0.0000 0.0000 0.0000 34.5977 0.0000 0.0000
# 5 0.0000 0.0000 0.0000 0.0000 24.0484 0.0000
# 6 0.0000 0.0000 0.0000 0.0000 0.0000 25.1762
#
#
#
# Elastic Compliance Matrix: (Units=1/GPa)
#
#
# Indices 1 2 3 4 5 6 
#
# 1 0.017171 -0.005630 -0.005627 0.000000 0.000000 0.000000
# 2 -0.005630 0.010324 -0.004358 0.000000 0.000000 0.000000
# 3 -0.005627 -0.004358 0.025210 0.000000 0.000000 0.000000
# 4 0.000000 0.000000 0.000000 0.028904 0.000000 0.000000
# 5 0.000000 0.000000 0.000000 0.000000 0.041583 0.000000
# 6 0.000000 0.000000 0.000000 0.000000 0.000000 0.039720
#
#
# Mechanical properties :
#
#
# Convention : Reuss Voigt Hill
#
# Bulk Modulus (GPa) = 46.56358 60.77553 53.66955
# Shear Modulus (GPa) = 24.83843 27.28361 26.06102
#
# Velocity S-wave (km/s) = 3.75662 3.93719 3.84797
# Velocity P-wave (km/s) = 6.72844 7.42960 7.08770
#
# Compressibility (1/GPa) = 0.02147601
#
# Stress axis : x y z
#
# Youngs Moduli (GPa) = 58.23656 96.86068 39.66609
#
# Poissons Ratio (x) = 0.54535 0.22321
# Poissons Ratio (y) = 0.32788 0.17285
# Poissons Ratio (z) = 0.32771 0.42207
#
# Static dielectric constant tensor:
#      x y z
#    x 1.614330 0.000000 0.000000 
#    y 0.000000 1.602980 0.000000 
#    z 0.000000 0.000000 1.593560 
# 
# From -- ./inp_files/6997.got.cif
#   From: 2010.05.17/outbox.cif.g08.bks.cpg/sg49_4_cif.got.tgz:6997.got - 2010.06.03 21:02:19.
