data_PCOD9392164
_publ_section_title
;
Structure prediction by ZEFSAII (Michael W. Deem and Ramdas Pophale) SiO2 
 PCOD9392164
Probable space group: P C C M
;
_chemical_formula_sum "Si O2"
_cell_formula_units_Z 40
_cell_length_a 26.681757
_cell_length_b 9.325914
_cell_length_c 8.594802
_cell_angle_alpha 90.000000
_cell_angle_beta 90.000000
_cell_angle_gamma 90.000000
_cell_volume 2138.659804
_symmetry_space_group_name_H-M "P C C M"
_symmetry_group_IT_number 49
_symmetry_cell_setting 'orthorhombic'
loop_
_space_group_symop_operation_xyz
x,y,z
-x,-y,z
x,-y,1/2-z
-x,y,1/2-z
-x,-y,-z
x,y,-z
-x,y,1/2+z
x,-y,1/2+z
loop_
_atom_site_type_symbol
_atom_site_label
_atom_site_fract_x
_atom_site_fract_y
_atom_site_fract_z
Si Si1 0.051631 0.663651 0.185753
Si Si2 0.554643 0.160338 0.186179
Si Si3 0.254552 0.839496 0.687434
Si Si4 0.352613 0.660562 0.687341
Si Si5 0.156442 0.662260 0.312800
O O1 0.052187 0.500000 0.250000
O O2 0.104194 0.724497 0.246970
O O3 0.000000 0.729948 0.250000
O O4 0.050638 0.660766 0.000000
O O5 0.500000 0.203582 0.250000
O O6 0.597855 0.264420 0.246216
O O7 0.564504 0.000000 0.250000
O O8 0.553527 0.156595 0.000000
O O9 0.254644 0.844034 0.500000
O O10 0.303881 0.751944 0.736453
O O11 0.204210 0.755912 0.735401
O O12 0.255631 0.000000 0.750000
O O13 0.348250 0.500000 0.750000
O O14 0.354899 0.659270 0.500000
O O15 0.162438 0.500000 0.250000
O O16 0.153474 0.656546 0.500000
#
# Coordination Sequence:
#
# PCOD9392164 Si02
#       5
#     8   8   8   8   8
#     4  10  17  27  45  72 104 140 176 219 268 320
#     4  11  22  39  62  89 119 155 193 234 278 331
#     4  10  23  39  58  81 110 145 185 227 275 331
#     4  11  23  40  60  87 117 150 189 234 283 334
#     4  10  19  33  52  79 109 141 179 224 271 323
#
# _framework density 18.703299999999999
#
# number of rings (size 3 to 8) (size 9 to 14) (size 15 to 20)
#    0.000    1.600    0.000    8.400    0.000    5.200 
#    0.000    2.000    0.000    0.600    0.000    4.200 
#    0.000    0.000    0.000    0.000    0.000    0.000 
#
# Total GULP energy -223481.286198 kJ/mol
# GULP energy per Si atom -5587.032155 kJ/mol
# Density = 1.866073 g / cm^3
# Si number density = 18.703300 Si / 1000 Ang^3
#
#
#
# Elastic Constant Matrix: (Units=GPa)
#
#
# Indices 1 2 3 4 5 6 
#
# 1 203.2948 111.4484 67.4900 0.0000 0.0000 0.0000
# 2 111.4484 109.1515 41.9537 0.0000 0.0000 0.0000
# 3 67.4900 41.9537 119.8877 0.0000 0.0000 0.0000
# 4 0.0000 0.0000 0.0000 28.0381 0.0000 0.0000
# 5 0.0000 0.0000 0.0000 0.0000 27.3031 0.0000
# 6 0.0000 0.0000 0.0000 0.0000 0.0000 -101.8559
#
#
#
# Elastic Compliance Matrix: (Units=1/GPa)
#
#
# Indices 1 2 3 4 5 6 
#
# 1 0.011955 -0.011115 -0.002841 0.000000 0.000000 0.000000
# 2 -0.011115 0.020919 -0.001063 0.000000 0.000000 0.000000
# 3 -0.002841 -0.001063 0.010312 0.000000 0.000000 0.000000
# 4 0.000000 0.000000 0.000000 0.035666 0.000000 0.000000
# 5 0.000000 0.000000 0.000000 0.000000 0.036626 0.000000
# 6 0.000000 0.000000 0.000000 0.000000 0.000000 -0.009818
#
#
# Mechanical properties :
#
#
# Convention : Reuss Voigt Hill
#
# Bulk Modulus (GPa) = 76.05174 97.12424 86.58799
# Shear Modulus (GPa) = 35.69330 4.79320 20.24325
#
# Velocity S-wave (km/s) = 4.37326 1.60260 3.29346
# Velocity P-wave (km/s) = 8.13947 7.44756 7.80119
#
# Compressibility (1/GPa) = 0.01314894
#
# Stress axis : x y z
#
# Youngs Moduli (GPa) = 83.64358 47.80244 96.97139
#
# Poissons Ratio (x) = 0.53134 0.27545
# Poissons Ratio (y) = 0.92972 0.10311
# Poissons Ratio (z) = 0.23760 0.05083
#
# Static dielectric constant tensor:
#      x y z
#    x 1.674130 0.000000 0.000000 
#    y 0.000000 1.613670 0.000000 
#    z 0.000000 0.000000 1.628320 
# 
# From -- ./inp_files/1885.got.cif
#   From: 2010.05.17/outbox.cif.g08.bks.cpg/sg49_1_cif.got.tgz:1885.got - 2010.06.03 21:02:19.
