data_PCOD9392553
_publ_section_title
;
Structure prediction by ZEFSAII (Michael W. Deem and Ramdas Pophale) SiO2 
 PCOD9392553
Probable space group: P C C M
;
_chemical_formula_sum "Si O2"
_cell_formula_units_Z 48
_cell_length_a 17.032349
_cell_length_b 9.058622
_cell_length_c 17.343801
_cell_angle_alpha 90.000000
_cell_angle_beta 90.000000
_cell_angle_gamma 90.000000
_cell_volume 2675.968316
_symmetry_space_group_name_H-M "P C C M"
_symmetry_group_IT_number 49
_symmetry_cell_setting 'orthorhombic'
loop_
_space_group_symop_operation_xyz
x,y,z
-x,-y,z
x,-y,1/2-z
-x,y,1/2-z
-x,-y,-z
x,y,-z
-x,y,1/2+z
x,-y,1/2+z
loop_
_atom_site_type_symbol
_atom_site_label
_atom_site_fract_x
_atom_site_fract_y
_atom_site_fract_z
Si Si1 0.847871 0.704563 0.086751
Si Si2 0.882356 0.410080 0.168053
Si Si3 0.664721 0.330612 0.589135
Si Si4 0.989811 0.839317 0.159526
Si Si5 0.408482 0.174985 0.237135
Si Si6 0.295872 0.388130 0.322357
O O1 0.871600 0.536627 0.104505
O O2 0.755306 0.721239 0.097301
O O3 0.900659 0.795906 0.144105
O O4 0.869045 0.744608 0.000000
O O5 0.898055 0.500000 0.250000
O O6 0.948912 0.293751 0.143094
O O7 0.795025 0.339004 0.171229
O O8 0.640240 0.310594 0.500000
O O9 0.616177 0.239963 0.653124
O O10 0.671453 0.505567 0.610097
O O11 0.000000 0.854177 0.250000
O O12 0.000000 0.000000 0.121876
O O13 0.500000 0.209605 0.250000
O O14 0.354215 0.258844 0.299182
O O15 0.397889 0.000000 0.250000
O O16 0.294468 0.500000 0.250000
#
# Coordination Sequence:
#
# PCOD9392553 Si02
#       6
#     8   8   8   8   8   8
#     4  10  21  37  57  80 106 143 185 231 281 325
#     4  10  18  34  54  75 102 139 186 231 269 321
#     4   9  19  38  61  85 113 145 186 236 286 327
#     4  11  23  33  48  78 113 146 191 228 271 322
#     4  10  21  37  57  85 120 151 185 220 272 340
#     4   8  17  33  55  79 104 141 186 234 274 324
#
# _framework density 17.937432000000001
#
# number of rings (size 3 to 8) (size 9 to 14) (size 15 to 20)
#    0.000    2.333    1.667    1.500    0.000    6.000 
#    0.000    4.167    0.000    4.000    0.000    0.000 
#    0.000    0.000    0.000    0.000    0.000    0.000 
#
# Total GULP energy -267212.349876 kJ/mol
# GULP energy per Si atom -5566.923956 kJ/mol
# Density = 1.789661 g / cm^3
# Si number density = 17.937432 Si / 1000 Ang^3
#
#
#
# Elastic Constant Matrix: (Units=GPa)
#
#
# Indices 1 2 3 4 5 6 
#
# 1 75.0703 39.9763 34.4199 0.0000 0.0000 0.0000
# 2 39.9763 50.9212 18.9755 0.0000 0.0000 0.0000
# 3 34.4199 18.9755 92.1979 0.0000 0.0000 0.0000
# 4 0.0000 0.0000 0.0000 80.0126 0.0000 0.0000
# 5 0.0000 0.0000 0.0000 0.0000 19.1492 0.0000
# 6 0.0000 0.0000 0.0000 0.0000 0.0000 28.6174
#
#
#
# Elastic Compliance Matrix: (Units=1/GPa)
#
#
# Indices 1 2 3 4 5 6 
#
# 1 0.025504 -0.017843 -0.005849 0.000000 0.000000 0.000000
# 2 -0.017843 0.033752 -0.000285 0.000000 0.000000 0.000000
# 3 -0.005849 -0.000285 0.013089 0.000000 0.000000 0.000000
# 4 0.000000 0.000000 0.000000 0.012498 0.000000 0.000000
# 5 0.000000 0.000000 0.000000 0.000000 0.052221 0.000000
# 6 0.000000 0.000000 0.000000 0.000000 0.000000 0.034944
#
#
# Mechanical properties :
#
#
# Convention : Reuss Voigt Hill
#
# Bulk Modulus (GPa) = 40.99980 44.99252 42.99616
# Shear Modulus (GPa) = 21.92086 33.87703 27.89894
#
# Velocity S-wave (km/s) = 3.49961 4.35054 3.94807
# Velocity P-wave (km/s) = 6.26390 7.09745 6.69366
#
# Compressibility (1/GPa) = 0.02439037
#
# Stress axis : x y z
#
# Youngs Moduli (GPa) = 39.20909 29.62768 76.40223
#
# Poissons Ratio (x) = 0.52864 0.44689
# Poissons Ratio (y) = 0.69960 0.02181
# Poissons Ratio (z) = 0.22934 0.00846
#
# Static dielectric constant tensor:
#      x y z
#    x 1.621070 0.000000 0.000000 
#    y 0.000000 1.645800 0.000000 
#    z 0.000000 0.000000 1.640620 
# 
# From -- ./inp_files/16251.got.cif
#   From: 2010.05.17/outbox.cif.g08.bks.cpg/sg49_9_cif.got.tgz:16251.got - 2010.06.03 21:02:19.
