data_PCOD9392811
_publ_section_title
;
Structure prediction by ZEFSAII (Michael W. Deem and Ramdas Pophale) SiO2 
 PCOD9392811
Probable space group: P C C M
;
_chemical_formula_sum "Si O2"
_cell_formula_units_Z 56
_cell_length_a 28.596892
_cell_length_b 5.232198
_cell_length_c 19.394477
_cell_angle_alpha 90.000000
_cell_angle_beta 90.000000
_cell_angle_gamma 90.000000
_cell_volume 2901.890885
_symmetry_space_group_name_H-M "P C C M"
_symmetry_group_IT_number 49
_symmetry_cell_setting 'orthorhombic'
loop_
_space_group_symop_operation_xyz
x,y,z
-x,-y,z
x,-y,1/2-z
-x,y,1/2-z
-x,-y,-z
x,y,-z
-x,y,1/2+z
x,-y,1/2+z
loop_
_atom_site_type_symbol
_atom_site_label
_atom_site_fract_x
_atom_site_fract_y
_atom_site_fract_z
Si Si1 0.147191 0.376144 0.422074
Si Si2 0.947781 0.245673 0.719623
Si Si3 0.763512 0.495608 0.668237
Si Si4 0.551753 0.429782 0.916630
Si Si5 0.609777 0.933213 0.083300
Si Si6 0.704467 0.007379 0.832478
Si Si7 0.916056 0.881342 0.077207
O O1 0.164379 0.321886 0.500000
O O2 0.190023 0.422372 0.371572
O O3 0.119137 0.642025 0.423765
O O4 0.112059 0.141575 0.405543
O O5 0.924785 0.500000 0.750000
O O6 0.950595 0.200998 0.638275
O O7 0.000000 0.248796 0.750000
O O8 0.922146 0.000000 0.750000
O O9 0.772678 0.500000 0.750000
O O10 0.742242 0.216600 0.651610
O O11 0.725495 0.714198 0.652425
O O12 0.500000 0.500000 0.890436
O O13 0.574045 0.159898 0.895798
O O14 0.586574 0.661167 0.900334
O O15 0.548180 0.417435 0.000000
O O16 0.658140 0.963279 0.123375
O O17 0.616653 0.948436 0.000000
O O18 0.694932 0.000000 0.750000
O O19 0.936149 0.910201 0.000000
#
# Coordination Sequence:
#
# PCOD9392811 Si02
#       7
#     8   8   8   8   8   8   8
#     4  10  21  36  57  84 112 144 183 227 276 327
#     4  10  21  38  58  85 115 146 189 234 272 319
#     4  10  21  36  53  76 104 140 179 216 264 319
#     4   9  17  30  49  74 102 128 163 216 268 314
#     4  10  19  31  51  76  97 129 174 212 258 316
#     4  10  21  36  52  72 105 141 174 214 264 320
#     4  10  21  38  58  83 116 151 184 225 282 337
#
# _framework density 19.297763
#
# number of rings (size 3 to 8) (size 9 to 14) (size 15 to 20)
#    0.000    2.143    0.000    3.000    0.000    4.571 
#    0.000    2.857    0.000    2.571    0.000    0.000 
#    0.000    0.000    0.000    0.000    0.000    0.000 
#
# Total GULP energy -312334.873623 kJ/mol
# GULP energy per Si atom -5577.408458 kJ/mol
# Density = 1.925384 g / cm^3
# Si number density = 19.297763 Si / 1000 Ang^3
#
#
#
# Elastic Constant Matrix: (Units=GPa)
#
#
# Indices 1 2 3 4 5 6 
#
# 1 48.7668 -10.9423 33.6342 0.0000 0.0000 0.0000
# 2 -10.9423 100.6595 1.7784 0.0000 0.0000 0.0000
# 3 33.6342 1.7784 64.6422 0.0000 0.0000 0.0000
# 4 0.0000 0.0000 0.0000 25.7459 0.0000 0.0000
# 5 0.0000 0.0000 0.0000 0.0000 56.4527 0.0000
# 6 0.0000 0.0000 0.0000 0.0000 0.0000 11.7137
#
#
#
# Elastic Compliance Matrix: (Units=1/GPa)
#
#
# Indices 1 2 3 4 5 6 
#
# 1 0.033482 0.003949 -0.017530 0.000000 0.000000 0.000000
# 2 0.003949 0.010405 -0.002341 0.000000 0.000000 0.000000
# 3 -0.017530 -0.002341 0.024655 0.000000 0.000000 0.000000
# 4 0.000000 0.000000 0.000000 0.038841 0.000000 0.000000
# 5 0.000000 0.000000 0.000000 0.000000 0.017714 0.000000
# 6 0.000000 0.000000 0.000000 0.000000 0.000000 0.085370
#
#
# Mechanical properties :
#
#
# Convention : Reuss Voigt Hill
#
# Bulk Modulus (GPa) = 27.24851 29.22322 28.23587
# Shear Modulus (GPa) = 19.64296 31.42235 25.53266
#
# Velocity S-wave (km/s) = 3.19390 4.03958 3.64137
# Velocity P-wave (km/s) = 5.26802 6.07732 5.68708
#
# Compressibility (1/GPa) = 0.03669925
#
# Stress axis : x y z
#
# Youngs Moduli (GPa) = 29.86665 96.10606 40.55934
#
# Poissons Ratio (x) = -0.37956 0.71100
# Poissons Ratio (y) = -0.11796 0.09496
# Poissons Ratio (z) = 0.52356 0.22500
#
# Static dielectric constant tensor:
#      x y z
#    x 1.636440 0.000000 0.000000 
#    y 0.000000 1.358670 0.000000 
#    z 0.000000 0.000000 1.694250 
# 
# From -- ./inp_files/14612.got.cif
#   From: 2010.05.17/outbox.cif.g08.bks.cpg/sg49_8_cif.got.tgz:14612.got - 2010.06.03 21:02:19.
