data_PCOD9392472
_publ_section_title
;
Structure prediction by ZEFSAII (Michael W. Deem and Ramdas Pophale) SiO2 
 PCOD9392472
Probable space group: P C C M
;
_chemical_formula_sum "Si O2"
_cell_formula_units_Z 64
_cell_length_a 20.799631
_cell_length_b 20.275793
_cell_length_c 8.988853
_cell_angle_alpha 90.000000
_cell_angle_beta 90.000000
_cell_angle_gamma 90.000000
_cell_volume 3790.860100
_symmetry_space_group_name_H-M "P C C M"
_symmetry_group_IT_number 49
_symmetry_cell_setting 'orthorhombic'
loop_
_space_group_symop_operation_xyz
x,y,z
-x,-y,z
x,-y,1/2-z
-x,y,1/2-z
-x,-y,-z
x,y,-z
-x,y,1/2+z
x,-y,1/2+z
loop_
_atom_site_type_symbol
_atom_site_label
_atom_site_fract_x
_atom_site_fract_y
_atom_site_fract_z
Si Si1 0.812264 0.663720 0.678065
Si Si2 0.240687 0.934259 0.670667
Si Si3 0.691268 0.428269 0.820945
Si Si4 0.565301 0.347038 0.178235
Si Si5 0.755625 0.790359 0.179670
Si Si6 0.930667 0.430203 0.821330
Si Si7 0.385977 0.203770 0.678622
Si Si8 0.397548 0.067848 0.827672
O O1 0.808603 0.675821 0.500000
O O2 0.753866 0.614532 0.717841
O O3 0.799827 0.731311 0.764273
O O4 0.878581 0.626214 0.710247
O O5 0.221971 0.938923 0.500000
O O6 0.219563 0.862785 0.727802
O O7 0.319046 0.933403 0.676802
O O8 0.218179 0.000000 0.750000
O O9 0.693443 0.500000 0.750000
O O10 0.627657 0.388307 0.773898
O O11 0.690034 0.434278 0.000000
O O12 0.500000 0.372115 0.250000
O O13 0.575333 0.269963 0.216344
O O14 0.561289 0.351211 0.000000
O O15 0.685046 0.784545 0.253098
O O16 0.749047 0.790162 0.000000
O O17 0.909457 0.500000 0.750000
O O18 0.000000 0.415372 0.750000
O O19 0.936144 0.437630 0.000000
O O20 0.381065 0.197911 0.500000
O O21 0.414310 0.135983 0.745101
O O22 0.419370 0.000000 0.750000
O O23 0.417246 0.069552 0.000000
#
# Coordination Sequence:
#
# PCOD9392472 Si02
#       8
#     8   8   8   8   8   8   8   8
#     4  10  20  35  53  75 106 138 171 208 253 302
#     4   8  15  25  37  60  93 127 162 198 239 287
#     4  10  21  38  55  76 100 126 162 204 252 306
#     4  10  22  38  55  72  96 126 163 208 257 311
#     4  10  19  29  46  73 101 130 169 212 251 299
#     4  10  20  34  54  77 106 142 177 214 251 300
#     4  10  18  32  50  68  96 130 161 205 256 304
#     4   9  16  26  42  68  96 125 162 201 244 300
#
# _framework density 16.882712999999999
#
# number of rings (size 3 to 8) (size 9 to 14) (size 15 to 20)
#    0.000    2.375    1.250    3.000    0.000    6.750 
#    0.000    1.250    0.000    0.375    0.000    2.625 
#    0.000    0.500    0.000    5.500    0.000    4.125 
#
# Total GULP energy -356991.865350 kJ/mol
# GULP energy per Si atom -5577.997896 kJ/mol
# Density = 1.684429 g / cm^3
# Si number density = 16.882713 Si / 1000 Ang^3
#
#
#
# Elastic Constant Matrix: (Units=GPa)
#
#
# Indices 1 2 3 4 5 6 
#
# 1 58.3827 45.8018 26.5857 0.0000 0.0000 0.0000
# 2 45.8018 140.8980 50.4154 0.0000 0.0000 0.0000
# 3 26.5857 50.4154 50.3668 0.0000 0.0000 0.0000
# 4 0.0000 0.0000 0.0000 34.3950 0.0000 0.0000
# 5 0.0000 0.0000 0.0000 0.0000 38.1679 0.0000
# 6 0.0000 0.0000 0.0000 0.0000 0.0000 -18.4023
#
#
#
# Elastic Compliance Matrix: (Units=1/GPa)
#
#
# Indices 1 2 3 4 5 6 
#
# 1 0.024828 -0.005269 -0.007832 0.000000 0.000000 0.000000
# 2 -0.005269 0.012176 -0.009407 0.000000 0.000000 0.000000
# 3 -0.007832 -0.009407 0.033404 0.000000 0.000000 0.000000
# 4 0.000000 0.000000 0.000000 0.029074 0.000000 0.000000
# 5 0.000000 0.000000 0.000000 0.000000 0.026200 0.000000
# 6 0.000000 0.000000 0.000000 0.000000 0.000000 -0.054341
#
#
# Mechanical properties :
#
#
# Convention : Reuss Voigt Hill
#
# Bulk Modulus (GPa) = 39.37921 55.02815 47.20368
# Shear Modulus (GPa) = 40.05811 19.28842 29.67327
#
# Velocity S-wave (km/s) = 4.87635 3.38375 4.19694
# Velocity P-wave (km/s) = 7.42165 6.92326 7.17678
#
# Compressibility (1/GPa) = 0.02539411
#
# Stress axis : x y z
#
# Youngs Moduli (GPa) = 40.27732 82.13006 29.93669
#
# Poissons Ratio (x) = 0.43271 0.23445
# Poissons Ratio (y) = 0.21220 0.28160
# Poissons Ratio (z) = 0.31543 0.77256
#
# Static dielectric constant tensor:
#      x y z
#    x 1.554290 0.000000 0.000000 
#    y 0.000000 1.580990 0.000000 
#    z 0.000000 0.000000 1.567960 
# 
# From -- ./inp_files/5330.got.cif
#   From: 2010.05.17/outbox.cif.g08.bks.cpg/sg49_3_cif.got.tgz:5330.got - 2010.06.03 21:02:19.
