data_PCOD9392599
_publ_section_title
;
Structure prediction by ZEFSAII (Michael W. Deem and Ramdas Pophale) SiO2 
 PCOD9392599
Probable space group: P C C M
;
_chemical_formula_sum "Si O2"
_cell_formula_units_Z 64
_cell_length_a 18.722414
_cell_length_b 27.430248
_cell_length_c 8.848295
_cell_angle_alpha 90.000000
_cell_angle_beta 90.000000
_cell_angle_gamma 90.000000
_cell_volume 4544.134443
_symmetry_space_group_name_H-M "P C C M"
_symmetry_group_IT_number 49
_symmetry_cell_setting 'orthorhombic'
loop_
_space_group_symop_operation_xyz
x,y,z
-x,-y,z
x,-y,1/2-z
-x,y,1/2-z
-x,-y,-z
x,y,-z
-x,y,1/2+z
x,-y,1/2+z
loop_
_atom_site_type_symbol
_atom_site_label
_atom_site_fract_x
_atom_site_fract_y
_atom_site_fract_z
Si Si1 0.796366 0.799075 0.827135
Si Si2 0.077442 0.148562 0.679493
Si Si3 0.579848 0.657102 0.681435
Si Si4 0.421733 0.154682 0.681244
Si Si5 0.837722 0.050895 0.181081
Si Si6 0.420323 0.548390 0.819912
Si Si7 0.294452 0.899869 0.674278
Si Si8 0.655305 0.249821 0.682664
O O1 0.865983 0.810486 0.730641
O O2 0.749945 0.849024 0.826704
O O3 0.738339 0.759418 0.775697
O O4 0.817362 0.789069 0.000000
O O5 0.071956 0.148424 0.500000
O O6 0.111545 0.096230 0.726119
O O7 0.000000 0.155165 0.750000
O O8 0.500000 0.660297 0.750000
O O9 0.575883 0.663408 0.500000
O O10 0.609292 0.602422 0.712150
O O11 0.626182 0.699326 0.756515
O O12 0.500000 0.147208 0.750000
O O13 0.423748 0.156191 0.500000
O O14 0.366963 0.113145 0.738753
O O15 0.390976 0.206017 0.744869
O O16 0.758706 0.062751 0.244582
O O17 0.862900 0.000000 0.250000
O O18 0.835595 0.048501 0.000000
O O19 0.384986 0.500000 0.750000
O O20 0.500000 0.550003 0.750000
O O21 0.425286 0.542645 0.000000
O O22 0.307822 0.913502 0.500000
O O23 0.649823 0.246508 0.500000
#
# Coordination Sequence:
#
# PCOD9392599 Si02
#       8
#     8   8   8   8   8   8   8   8
#     4   8  16  30  46  62  82 107 135 164 197 238
#     4  10  20  32  48  68  90 113 138 165 195 230
#     4  10  19  28  38  55  79 107 140 181 223 261
#     4  11  20  30  44  62  84 108 135 169 207 248
#     4  10  20  33  49  69  89 113 139 165 198 235
#     4   9  16  25  37  51  69  97 135 177 220 260
#     4   9  17  31  48  65  84 107 135 167 200 240
#     4  10  19  30  43  60  82 109 138 171 211 252
#
# _framework density 14.084091000000001
#
# number of rings (size 3 to 8) (size 9 to 14) (size 15 to 20)
#    0.000    2.375    0.000    4.875    0.000    6.750 
#    0.000    1.250    0.000    0.375    0.000    2.625 
#    0.000    0.000    0.000    0.000    0.000    0.625 
#
# Total GULP energy -356648.469652 kJ/mol
# GULP energy per Si atom -5572.632338 kJ/mol
# Density = 1.405203 g / cm^3
# Si number density = 14.084091 Si / 1000 Ang^3
#
#
#
# Elastic Constant Matrix: (Units=GPa)
#
#
# Indices 1 2 3 4 5 6 
#
# 1 95.4248 32.5675 42.8138 0.0000 0.0000 0.0000
# 2 32.5675 53.6418 22.0441 0.0000 0.0000 0.0000
# 3 42.8138 22.0441 72.3725 0.0000 0.0000 0.0000
# 4 0.0000 0.0000 0.0000 25.3884 0.0000 0.0000
# 5 0.0000 0.0000 0.0000 0.0000 20.3420 0.0000
# 6 0.0000 0.0000 0.0000 0.0000 0.0000 9.8385
#
#
#
# Elastic Compliance Matrix: (Units=1/GPa)
#
#
# Indices 1 2 3 4 5 6 
#
# 1 0.016136 -0.006714 -0.007501 0.000000 0.000000 0.000000
# 2 -0.006714 0.024103 -0.003370 0.000000 0.000000 0.000000
# 3 -0.007501 -0.003370 0.019281 0.000000 0.000000 0.000000
# 4 0.000000 0.000000 0.000000 0.039388 0.000000 0.000000
# 5 0.000000 0.000000 0.000000 0.000000 0.049159 0.000000
# 6 0.000000 0.000000 0.000000 0.000000 0.000000 0.101642
#
#
# Mechanical properties :
#
#
# Convention : Reuss Voigt Hill
#
# Bulk Modulus (GPa) = 41.06563 46.25444 43.66003
# Shear Modulus (GPa) = 17.06506 19.38137 18.22322
#
# Velocity S-wave (km/s) = 3.48466 3.71363 3.60097
# Velocity P-wave (km/s) = 6.73879 7.16247 6.95386
#
# Compressibility (1/GPa) = 0.02435126
#
# Stress axis : x y z
#
# Youngs Moduli (GPa) = 61.97205 41.48783 51.86454
#
# Poissons Ratio (x) = 0.27857 0.38902
# Poissons Ratio (y) = 0.41611 0.17477
# Poissons Ratio (z) = 0.46483 0.13980
#
# Static dielectric constant tensor:
#      x y z
#    x 1.448720 0.000000 0.000000 
#    y 0.000000 1.478470 0.000000 
#    z 0.000000 0.000000 1.471510 
# 
# From -- ./inp_files/5446.got.cif
#   From: 2010.05.17/outbox.cif.g08.bks.cpg/sg49_3_cif.got.tgz:5446.got - 2010.06.03 21:02:19.
