data_PCOD9392805
_publ_section_title
;
Structure prediction by ZEFSAII (Michael W. Deem and Ramdas Pophale) SiO2 
 PCOD9392805
Probable space group: P C C M
;
_chemical_formula_sum "Si O2"
_cell_formula_units_Z 40
_cell_length_a 13.863380
_cell_length_b 19.115373
_cell_length_c 8.764169
_cell_angle_alpha 90.000000
_cell_angle_beta 90.000000
_cell_angle_gamma 90.000000
_cell_volume 2322.537035
_symmetry_space_group_name_H-M "P C C M"
_symmetry_group_IT_number 49
_symmetry_cell_setting 'orthorhombic'
loop_
_space_group_symop_operation_xyz
x,y,z
-x,-y,z
x,-y,1/2-z
-x,y,1/2-z
-x,-y,-z
x,y,-z
-x,y,1/2+z
x,-y,1/2+z
loop_
_atom_site_type_symbol
_atom_site_label
_atom_site_fract_x
_atom_site_fract_y
_atom_site_fract_z
Si Si1 0.304468 0.924950 0.683479
Si Si2 0.397279 0.786660 0.818105
Si Si3 0.103288 0.857047 0.682493
Si Si4 0.211628 0.283352 0.183955
Si Si5 0.107257 0.573296 0.316958
O O1 0.311480 0.924146 0.500000
O O2 0.368798 0.862756 0.751264
O O3 0.193391 0.906132 0.726617
O O4 0.330902 0.000000 0.750000
O O5 0.500000 0.765554 0.750000
O O6 0.311955 0.735683 0.762880
O O7 0.401020 0.789669 0.000000
O O8 0.095877 0.859060 0.500000
O O9 0.136146 0.778252 0.726758
O O10 0.000000 0.875638 0.750000
O O11 0.170718 0.359255 0.223165
O O12 0.224025 0.279048 0.000000
O O13 0.144723 0.500000 0.250000
O O14 0.101159 0.568490 0.500000
O O15 0.000000 0.583017 0.250000
#
# Coordination Sequence:
#
# PCOD9392805 Si02
#       5
#     8   8   8   8   8
#     4  10  21  37  53  74 103 133 169 212 256 304
#     4  11  22  37  58  80 101 129 165 209 259 311
#     4   9  18  31  48  70  99 133 170 209 249 296
#     4   9  19  35  52  74 104 137 172 214 256 299
#     4  10  19  31  50  77 112 147 179 213 251 297
#
# _framework density 17.222546000000001
#
# number of rings (size 3 to 8) (size 9 to 14) (size 15 to 20)
#    0.000    2.200    0.000    5.400    0.000    6.400 
#    0.000    4.000    0.000    0.600    0.000    4.200 
#    0.000    0.000    0.000    0.000    0.000    0.000 
#
# Total GULP energy -223298.834720 kJ/mol
# GULP energy per Si atom -5582.470868 kJ/mol
# Density = 1.718335 g / cm^3
# Si number density = 17.222546 Si / 1000 Ang^3
#
#
#
# Elastic Constant Matrix: (Units=GPa)
#
#
# Indices 1 2 3 4 5 6 
#
# 1 60.7975 14.5170 24.1191 0.0000 0.0000 0.0000
# 2 14.5170 104.6558 35.6368 0.0000 0.0000 0.0000
# 3 24.1191 35.6368 60.3683 0.0000 0.0000 0.0000
# 4 0.0000 0.0000 0.0000 41.6470 0.0000 0.0000
# 5 0.0000 0.0000 0.0000 0.0000 27.6270 0.0000
# 6 0.0000 0.0000 0.0000 0.0000 0.0000 7.6496
#
#
#
# Elastic Compliance Matrix: (Units=1/GPa)
#
#
# Indices 1 2 3 4 5 6 
#
# 1 0.019546 -0.000065 -0.007771 0.000000 0.000000 0.000000
# 2 -0.000065 0.011959 -0.007034 0.000000 0.000000 0.000000
# 3 -0.007771 -0.007034 0.023822 0.000000 0.000000 0.000000
# 4 0.000000 0.000000 0.000000 0.024011 0.000000 0.000000
# 5 0.000000 0.000000 0.000000 0.000000 0.036197 0.000000
# 6 0.000000 0.000000 0.000000 0.000000 0.000000 0.130726
#
#
# Mechanical properties :
#
#
# Convention : Reuss Voigt Hill
#
# Bulk Modulus (GPa) = 39.08114 41.59637 40.33875
# Shear Modulus (GPa) = 17.57278 25.48796 21.53037
#
# Velocity S-wave (km/s) = 3.19773 3.85114 3.53955
# Velocity P-wave (km/s) = 6.03118 6.63173 6.33857
#
# Compressibility (1/GPa) = 0.02558779
#
# Stress axis : x y z
#
# Youngs Moduli (GPa) = 51.16023 83.61703 41.97812
#
# Poissons Ratio (x) = 0.00545 0.32621
# Poissons Ratio (y) = 0.00334 0.29527
# Poissons Ratio (z) = 0.39756 0.58815
#
# Static dielectric constant tensor:
#      x y z
#    x 1.568260 0.000000 0.000000 
#    y 0.000000 1.577880 0.000000 
#    z 0.000000 0.000000 1.576130 
# 
# From -- ./inp_files/2666.got.cif
#   From: 2010.05.17/outbox.cif.g08.bks.cpg/sg49_2_cif.got.tgz:2666.got - 2010.06.03 21:02:19.
