data_PCOD9392642
_publ_section_title
;
Structure prediction by ZEFSAII (Michael W. Deem and Ramdas Pophale) SiO2 
 PCOD9392642
Probable space group: P C C M
;
_chemical_formula_sum "Si O2"
_cell_formula_units_Z 64
_cell_length_a 20.542270
_cell_length_b 20.071529
_cell_length_c 9.105264
_cell_angle_alpha 90.000000
_cell_angle_beta 90.000000
_cell_angle_gamma 90.000000
_cell_volume 3754.234814
_symmetry_space_group_name_H-M "P C C M"
_symmetry_group_IT_number 49
_symmetry_cell_setting 'orthorhombic'
loop_
_space_group_symop_operation_xyz
x,y,z
-x,-y,z
x,-y,1/2-z
-x,y,1/2-z
-x,-y,-z
x,y,-z
-x,y,1/2+z
x,-y,1/2+z
loop_
_atom_site_type_symbol
_atom_site_label
_atom_site_fract_x
_atom_site_fract_y
_atom_site_fract_z
Si Si1 0.564556 0.658870 0.324525
Si Si2 0.401685 0.932163 0.830693
Si Si3 0.188756 0.334515 0.675854
Si Si4 0.604337 0.795053 0.826806
Si Si5 0.070045 0.430522 0.676830
Si Si6 0.691238 0.428506 0.824150
Si Si7 0.238478 0.797118 0.672434
Si Si8 0.242949 0.066891 0.331800
O O1 0.500000 0.630362 0.250000
O O2 0.557870 0.662723 0.500000
O O3 0.575486 0.732261 0.258278
O O4 0.626928 0.613850 0.288621
O O5 0.418320 0.864971 0.742973
O O6 0.322292 0.933410 0.831790
O O7 0.422635 0.000000 0.750000
O O8 0.423634 0.930048 0.000000
O O9 0.193759 0.324183 0.500000
O O10 0.120886 0.371468 0.706422
O O11 0.246173 0.385288 0.720202
O O12 0.202135 0.265084 0.755318
O O13 0.683010 0.789743 0.810188
O O14 0.589067 0.792763 0.000000
O O15 0.093429 0.500000 0.750000
O O16 0.064355 0.438753 0.500000
O O17 0.000000 0.417168 0.750000
O O18 0.690687 0.500000 0.750000
O O19 0.693733 0.436806 0.000000
O O20 0.225025 0.800370 0.500000
O O21 0.221269 0.866525 0.749792
O O22 0.221725 0.067080 0.500000
O O23 0.221888 0.000000 0.250000
#
# Coordination Sequence:
#
# PCOD9392642 Si02
#       8
#     8   8   8   8   8   8   8   8
#     4  11  23  39  57  75  98 129 166 212 261 314
#     4   9  16  26  43  68  97 130 165 205 251 300
#     4  10  20  35  53  77 107 140 175 213 258 307
#     4  10  19  32  50  73  99 129 167 209 256 310
#     4  10  20  34  54  77 107 143 180 218 257 307
#     4  10  22  38  57  78 102 130 165 208 258 310
#     4  10  19  29  47  74 102 134 171 214 259 307
#     4   9  16  26  41  63  97 136 172 211 254 305
#
# _framework density 17.047415000000001
#
# number of rings (size 3 to 8) (size 9 to 14) (size 15 to 20)
#    0.000    2.125    1.250    3.000    0.000    6.750 
#    0.000    1.250    0.000    0.375    0.000    2.625 
#    0.000    0.500    0.000    5.250    0.000    3.125 
#
# Total GULP energy -357377.370947 kJ/mol
# GULP energy per Si atom -5584.021421 kJ/mol
# Density = 1.700861 g / cm^3
# Si number density = 17.047415 Si / 1000 Ang^3
#
#
#
# Elastic Constant Matrix: (Units=GPa)
#
#
# Indices 1 2 3 4 5 6 
#
# 1 58.6104 52.0582 45.0249 0.0000 0.0000 0.0000
# 2 52.0582 156.4229 75.4696 0.0000 0.0000 0.0000
# 3 45.0249 75.4696 100.3288 0.0000 0.0000 0.0000
# 4 0.0000 0.0000 0.0000 37.7032 0.0000 0.0000
# 5 0.0000 0.0000 0.0000 0.0000 18.5976 0.0000
# 6 0.0000 0.0000 0.0000 0.0000 0.0000 102.5831
#
#
#
# Elastic Compliance Matrix: (Units=1/GPa)
#
#
# Indices 1 2 3 4 5 6 
#
# 1 0.028503 -0.005203 -0.008878 0.000000 0.000000 0.000000
# 2 -0.005203 0.010984 -0.005928 0.000000 0.000000 0.000000
# 3 -0.008878 -0.005928 0.018410 0.000000 0.000000 0.000000
# 4 0.000000 0.000000 0.000000 0.026523 0.000000 0.000000
# 5 0.000000 0.000000 0.000000 0.000000 0.053770 0.000000
# 6 0.000000 0.000000 0.000000 0.000000 0.000000 0.009748
#
#
# Mechanical properties :
#
#
# Convention : Reuss Voigt Hill
#
# Bulk Modulus (GPa) = 55.92516 73.38527 64.65522
# Shear Modulus (GPa) = 25.78434 41.29742 33.54088
#
# Velocity S-wave (km/s) = 3.89332 4.92723 4.44047
# Velocity P-wave (km/s) = 7.28611 8.68973 8.01869
#
# Compressibility (1/GPa) = 0.01788104
#
# Stress axis : x y z
#
# Youngs Moduli (GPa) = 35.08434 91.03799 54.31685
#
# Poissons Ratio (x) = 0.47363 0.48221
# Poissons Ratio (y) = 0.18253 0.32199
# Poissons Ratio (z) = 0.31147 0.53967
#
# Static dielectric constant tensor:
#      x y z
#    x 1.582680 0.000000 0.000000 
#    y 0.000000 1.550580 0.000000 
#    z 0.000000 0.000000 1.569550 
# 
# From -- ./inp_files/6005.got.cif
#   From: 2010.05.17/outbox.cif.g08.bks.cpg/sg49_4_cif.got.tgz:6005.got - 2010.06.03 21:02:19.
