data_PCOD9392505
_publ_section_title
;
Structure prediction by ZEFSAII (Michael W. Deem and Ramdas Pophale) SiO2 
 PCOD9392505
Probable space group: P C C M
;
_chemical_formula_sum "Si O2"
_cell_formula_units_Z 48
_cell_length_a 9.647561
_cell_length_b 17.937301
_cell_length_c 14.401575
_cell_angle_alpha 90.000000
_cell_angle_beta 90.000000
_cell_angle_gamma 90.000000
_cell_volume 2492.209916
_symmetry_space_group_name_H-M "P C C M"
_symmetry_group_IT_number 49
_symmetry_cell_setting 'orthorhombic'
loop_
_space_group_symop_operation_xyz
x,y,z
-x,-y,z
x,-y,1/2-z
-x,y,1/2-z
-x,-y,-z
x,y,-z
-x,y,1/2+z
x,-y,1/2+z
loop_
_atom_site_type_symbol
_atom_site_label
_atom_site_fract_x
_atom_site_fract_y
_atom_site_fract_z
Si Si1 0.372171 0.284115 0.607165
Si Si2 0.122937 0.839355 0.318404
Si Si3 0.908522 0.927448 0.000000
Si Si4 0.332042 0.414682 0.742282
Si Si5 0.347803 0.968724 0.000000
Si Si6 0.354932 0.122182 0.693085
Si Si7 0.706475 0.699519 0.105904
O O1 0.328644 0.277120 0.500000
O O2 0.312076 0.359275 0.654245
O O3 0.340243 0.209711 0.665133
O O4 0.540289 0.287523 0.608877
O O5 0.064146 0.880301 0.408316
O O6 0.228589 0.893023 0.262875
O O7 0.213169 0.770676 0.355902
O O8 0.000000 0.816223 0.250000
O O9 0.753532 0.960321 0.000000
O O10 0.000000 0.000000 0.000000
O O11 0.284420 0.500000 0.750000
O O12 0.500000 0.417099 0.750000
O O13 0.269152 0.370489 0.828668
O O14 0.337396 0.921660 0.904025
O O15 0.500000 0.000000 0.000000
O O16 0.500000 0.110250 0.750000
O O17 0.746082 0.686126 0.000000
#
# Coordination Sequence:
#
# PCOD9392505 Si02
#       7
#     8   8   4   8   4   8   8
#     4  10  18  32  59  89 125 163 201 245 300 356
#     4  12  25  41  68  88 115 162 208 251 304 371
#     4  12  28  50  62  86 127 158 200 258 318 368
#     4   9  17  31  53  92 133 160 198 250 299 354
#     4  12  28  40  62  96 123 153 199 262 310 367
#     4  12  22  40  64  89 123 159 204 250 308 367
#     4  10  19  35  60  88 118 163 205 244 295 360
#
# _framework density 19.260014000000002
#
# number of rings (size 3 to 8) (size 9 to 14) (size 15 to 20)
#    0.000    1.167    5.000    2.500    0.000    4.667 
#    0.000    3.333    0.000    0.500    0.000    1.167 
#    0.000    0.000    0.000    0.000    0.000    0.000 
#
# Total GULP energy -267945.529130 kJ/mol
# GULP energy per Si atom -5582.198524 kJ/mol
# Density = 1.921618 g / cm^3
# Si number density = 19.260014 Si / 1000 Ang^3
#
#
#
# Elastic Constant Matrix: (Units=GPa)
#
#
# Indices 1 2 3 4 5 6 
#
# 1 26.9698 -14.1400 14.5008 0.0000 0.0000 0.0000
# 2 -14.1400 78.6461 45.2064 0.0000 0.0000 0.0000
# 3 14.5008 45.2064 164.3543 0.0000 0.0000 0.0000
# 4 0.0000 0.0000 0.0000 20.0048 0.0000 0.0000
# 5 0.0000 0.0000 0.0000 0.0000 17.2913 0.0000
# 6 0.0000 0.0000 0.0000 0.0000 0.0000 17.3092
#
#
#
# Elastic Compliance Matrix: (Units=1/GPa)
#
#
# Indices 1 2 3 4 5 6 
#
# 1 0.048246 0.013210 -0.007890 0.000000 0.000000 0.000000
# 2 0.013210 0.018720 -0.006314 0.000000 0.000000 0.000000
# 3 -0.007890 -0.006314 0.008517 0.000000 0.000000 0.000000
# 4 0.000000 0.000000 0.000000 0.049988 0.000000 0.000000
# 5 0.000000 0.000000 0.000000 0.000000 0.057833 0.000000
# 6 0.000000 0.000000 0.000000 0.000000 0.000000 0.057773
#
#
# Mechanical properties :
#
#
# Convention : Reuss Voigt Hill
#
# Bulk Modulus (GPa) = 13.60662 40.12276 26.86469
# Shear Modulus (GPa) = 18.68707 25.88124 22.28416
#
# Velocity S-wave (km/s) = 3.11827 3.66974 3.40519
# Velocity P-wave (km/s) = 4.47714 6.23164 5.42578
#
# Compressibility (1/GPa) = 0.07349362
#
# Stress axis : x y z
#
# Youngs Moduli (GPa) = 20.72696 53.41951 117.40717
#
# Poissons Ratio (x) = -0.70565 0.92635
# Poissons Ratio (y) = -0.27379 0.74136
# Poissons Ratio (z) = 0.16354 0.33731
#
# Static dielectric constant tensor:
#      x y z
#    x 1.667000 0.000000 0.000000 
#    y 0.000000 1.662830 0.000000 
#    z 0.000000 0.000000 1.642460 
# 
# From -- ./inp_files/11904.got.cif
#   From: 2010.05.17/outbox.cif.g08.bks.cpg/sg49_6_cif.got.tgz:11904.got - 2010.06.03 21:02:19.
