data_PCOD9392477
_publ_section_title
;
Structure prediction by ZEFSAII (Michael W. Deem and Ramdas Pophale) SiO2 
 PCOD9392477
Probable space group: P C C M
;
_chemical_formula_sum "Si O2"
_cell_formula_units_Z 64
_cell_length_a 24.161441
_cell_length_b 19.537530
_cell_length_c 8.611952
_cell_angle_alpha 90.000000
_cell_angle_beta 90.000000
_cell_angle_gamma 90.000000
_cell_volume 4065.313954
_symmetry_space_group_name_H-M "P C C M"
_symmetry_group_IT_number 49
_symmetry_cell_setting 'orthorhombic'
loop_
_space_group_symop_operation_xyz
x,y,z
-x,-y,z
x,-y,1/2-z
-x,y,1/2-z
-x,-y,-z
x,y,-z
-x,y,1/2+z
x,-y,1/2+z
loop_
_atom_site_type_symbol
_atom_site_label
_atom_site_fract_x
_atom_site_fract_y
_atom_site_fract_z
Si Si1 0.276560 0.214672 0.813703
Si Si2 0.756814 0.926117 0.314242
Si Si3 0.337543 0.341809 0.314579
Si Si4 0.939697 0.788712 0.813547
Si Si5 0.886982 0.073962 0.186073
Si Si6 0.438516 0.575080 0.314205
Si Si7 0.165538 0.704829 0.311927
Si Si8 0.232048 0.424135 0.186918
O O1 0.276862 0.137157 0.755473
O O2 0.321684 0.265718 0.742090
O O3 0.216801 0.246498 0.765673
O O4 0.279997 0.217431 0.000000
O O5 0.753417 0.925564 0.500000
O O6 0.821952 0.917310 0.270552
O O7 0.739412 0.000000 0.250000
O O8 0.338762 0.344632 0.500000
O O9 0.394527 0.369930 0.245266
O O10 0.288484 0.390869 0.251561
O O11 0.921330 0.863797 0.756581
O O12 0.892228 0.735969 0.757424
O O13 0.000000 0.771761 0.750000
O O14 0.940643 0.788397 0.000000
O O15 0.904739 0.000000 0.250000
O O16 0.891161 0.074688 0.000000
O O17 0.422087 0.500000 0.250000
O O18 0.500000 0.588888 0.250000
O O19 0.439563 0.572717 0.500000
O O20 0.164140 0.705730 0.500000
O O21 0.183124 0.628343 0.265620
O O22 0.224403 0.500000 0.250000
O O23 0.235468 0.425005 0.000000
#
# Coordination Sequence:
#
# PCOD9392477 Si02
#       8
#     8   8   8   8   8   8   8   8
#     4  10  18  32  51  72  97 129 163 203 249 294
#     4  10  19  30  47  71  98 129 163 198 240 294
#     4  11  21  33  49  74 104 136 170 209 246 289
#     4  11  21  35  51  69  90 119 153 196 240 290
#     4  10  20  33  49  70  93 122 156 194 233 283
#     4  11  21  35  52  73 102 141 181 217 251 291
#     4   8  17  32  50  67  91 120 151 188 238 292
#     4  10  19  33  51  75  98 125 156 196 245 293
#
# _framework density 15.742941999999999
#
# number of rings (size 3 to 8) (size 9 to 14) (size 15 to 20)
#    0.000    1.875    1.250    5.625    0.000    1.250 
#    0.000    3.125    0.000    0.375    0.000    2.625 
#    0.000    0.500    0.000    5.000    0.000    3.000 
#
# Total GULP energy -357257.728572 kJ/mol
# GULP energy per Si atom -5582.152009 kJ/mol
# Density = 1.570711 g / cm^3
# Si number density = 15.742942 Si / 1000 Ang^3
#
#
#
# Elastic Constant Matrix: (Units=GPa)
#
#
# Indices 1 2 3 4 5 6 
#
# 1 82.8943 56.7873 35.9614 0.0000 0.0000 0.0000
# 2 56.7873 124.9479 41.9040 0.0000 0.0000 0.0000
# 3 35.9614 41.9040 89.2563 0.0000 0.0000 0.0000
# 4 0.0000 0.0000 0.0000 23.3031 0.0000 0.0000
# 5 0.0000 0.0000 0.0000 0.0000 16.9274 0.0000
# 6 0.0000 0.0000 0.0000 0.0000 0.0000 26.0375
#
#
#
# Elastic Compliance Matrix: (Units=1/GPa)
#
#
# Indices 1 2 3 4 5 6 
#
# 1 0.018769 -0.007114 -0.004222 0.000000 0.000000 0.000000
# 2 -0.007114 0.012196 -0.002859 0.000000 0.000000 0.000000
# 3 -0.004222 -0.002859 0.014247 0.000000 0.000000 0.000000
# 4 0.000000 0.000000 0.000000 0.042913 0.000000 0.000000
# 5 0.000000 0.000000 0.000000 0.000000 0.059076 0.000000
# 6 0.000000 0.000000 0.000000 0.000000 0.000000 0.038406
#
#
# Mechanical properties :
#
#
# Convention : Reuss Voigt Hill
#
# Bulk Modulus (GPa) = 59.45111 62.93377 61.19244
# Shear Modulus (GPa) = 22.76826 24.08333 23.42580
#
# Velocity S-wave (km/s) = 3.80709 3.91549 3.86167
# Velocity P-wave (km/s) = 7.56114 7.77844 7.67056
#
# Compressibility (1/GPa) = 0.01682055
#
# Stress axis : x y z
#
# Youngs Moduli (GPa) = 53.27992 81.99691 70.18988
#
# Poissons Ratio (x) = 0.58335 0.29634
# Poissons Ratio (y) = 0.37905 0.20069
# Poissons Ratio (z) = 0.22495 0.23445
#
# Static dielectric constant tensor:
#      x y z
#    x 1.513240 0.000000 0.000000 
#    y 0.000000 1.520470 0.000000 
#    z 0.000000 0.000000 1.524410 
# 
# From -- ./inp_files/6001.got.cif
#   From: 2010.05.17/outbox.cif.g08.bks.cpg/sg49_4_cif.got.tgz:6001.got - 2010.06.03 21:02:19.
