data_PCOD9392564
_publ_section_title
;
Structure prediction by ZEFSAII (Michael W. Deem and Ramdas Pophale) SiO2 
 PCOD9392564
Probable space group: P C C M
;
_chemical_formula_sum "Si O2"
_cell_formula_units_Z 64
_cell_length_a 16.010100
_cell_length_b 12.110238
_cell_length_c 17.693459
_cell_angle_alpha 90.000000
_cell_angle_beta 90.000000
_cell_angle_gamma 90.000000
_cell_volume 3430.516140
_symmetry_space_group_name_H-M "P C C M"
_symmetry_group_IT_number 49
_symmetry_cell_setting 'orthorhombic'
loop_
_space_group_symop_operation_xyz
x,y,z
-x,-y,z
x,-y,1/2-z
-x,y,1/2-z
-x,-y,-z
x,y,-z
-x,y,1/2+z
x,-y,1/2+z
loop_
_atom_site_type_symbol
_atom_site_label
_atom_site_fract_x
_atom_site_fract_y
_atom_site_fract_z
Si Si1 0.913638 0.934518 0.082186
Si Si2 0.583820 0.427315 0.412702
Si Si3 0.262825 0.788158 0.793449
Si Si4 0.325543 0.219379 0.875693
Si Si5 0.832183 0.377566 0.584998
Si Si6 0.732102 0.457248 0.833156
Si Si7 0.088580 0.755395 0.711267
Si Si8 0.728731 0.974539 0.415705
O O1 0.913677 0.857391 0.154004
O O2 0.828864 0.004635 0.085980
O O3 0.909813 0.875856 0.000000
O O4 0.000000 0.000000 0.083229
O O5 0.500000 0.500000 0.405922
O O6 0.611678 0.441407 0.500000
O O7 0.594108 0.295079 0.396743
O O8 0.646962 0.481375 0.353763
O O9 0.312627 0.788961 0.714393
O O10 0.279894 0.672358 0.833723
O O11 0.164943 0.779879 0.768557
O O12 0.285970 0.889647 0.847473
O O13 0.245913 0.290652 0.906850
O O14 0.315492 0.094318 0.905299
O O15 0.864663 0.373502 0.500000
O O16 0.796652 0.497588 0.605338
O O17 0.891291 0.344401 0.654173
O O18 0.758282 0.500000 0.750000
O O19 0.000000 0.741525 0.750000
O O20 0.707439 0.932471 0.500000
#
# Coordination Sequence:
#
# PCOD9392564 Si02
#       8
#     8   8   8   8   8   8   8   8
#     4  10  20  33  50  75 111 151 197 251 307 358
#     4  10  21  37  63  96 122 147 188 244 302 361
#     4  11  22  35  54  83 117 155 205 246 298 363
#     4  10  18  34  59  86 116 154 198 242 295 364
#     4  10  19  35  60  80 104 147 200 247 297 364
#     4  11  19  38  58  87 114 152 190 242 302 351
#     4  11  21  33  53  79 109 149 196 260 311 357
#     4  11  21  33  53  81 118 161 202 246 296 360
#
# _framework density 18.656084
#
# number of rings (size 3 to 8) (size 9 to 14) (size 15 to 20)
#    0.000    1.500    6.250    3.750    0.000    2.500 
#    0.000    1.875    0.000    1.500    0.000    4.375 
#    0.000    0.000    0.000    0.000    0.000    0.000 
#
# Total GULP energy -356630.951517 kJ/mol
# GULP energy per Si atom -5572.358617 kJ/mol
# Density = 1.861362 g / cm^3
# Si number density = 18.656084 Si / 1000 Ang^3
#
#
#
# Elastic Constant Matrix: (Units=GPa)
#
#
# Indices 1 2 3 4 5 6 
#
# 1 21.0922 11.1903 15.0250 0.0000 0.0000 0.0000
# 2 11.1903 89.5034 40.0190 0.0000 0.0000 0.0000
# 3 15.0250 40.0190 105.7787 0.0000 0.0000 0.0000
# 4 0.0000 0.0000 0.0000 -6.2166 0.0000 0.0000
# 5 0.0000 0.0000 0.0000 0.0000 14.3262 0.0000
# 6 0.0000 0.0000 0.0000 0.0000 0.0000 23.2387
#
#
#
# Elastic Compliance Matrix: (Units=1/GPa)
#
#
# Indices 1 2 3 4 5 6 
#
# 1 0.053907 -0.003991 -0.006147 0.000000 0.000000 0.000000
# 2 -0.003991 0.013743 -0.004632 0.000000 0.000000 0.000000
# 3 -0.006147 -0.004632 0.012079 0.000000 0.000000 0.000000
# 4 0.000000 0.000000 0.000000 -0.160859 0.000000 0.000000
# 5 0.000000 0.000000 0.000000 0.000000 0.069802 0.000000
# 6 0.000000 0.000000 0.000000 0.000000 0.000000 0.043032
#
#
# Mechanical properties :
#
#
# Convention : Reuss Voigt Hill
#
# Bulk Modulus (GPa) = 19.92502 38.76033 29.34267
# Shear Modulus (GPa) = 64.12256 16.27898 40.20077
#
# Velocity S-wave (km/s) = 5.86903 2.95716 4.64706
# Velocity P-wave (km/s) = 7.52533 5.69921 6.67502
#
# Compressibility (1/GPa) = 0.05018816
#
# Stress axis : x y z
#
# Youngs Moduli (GPa) = 18.55031 72.76398 82.78546
#
# Poissons Ratio (x) = 0.29043 0.50889
# Poissons Ratio (y) = 0.07404 0.38350
# Poissons Ratio (z) = 0.11403 0.33707
#
# Static dielectric constant tensor:
#      x y z
#    x 1.607550 0.000000 0.000000 
#    y 0.000000 1.684360 0.000000 
#    z 0.000000 0.000000 1.635960 
# 
# From -- ./inp_files/18239.got.cif
#   From: 2010.05.17/outbox.cif.g08.bks.cpg/sg49_10_cif.got.tgz:18239.got - 2010.06.03 21:02:19.
