data_PCOD9392614
_publ_section_title
;
Structure prediction by ZEFSAII (Michael W. Deem and Ramdas Pophale) SiO2 
 PCOD9392614
Probable space group: P C C M
;
_chemical_formula_sum "Si O2"
_cell_formula_units_Z 56
_cell_length_a 22.007067
_cell_length_b 18.980109
_cell_length_c 8.640183
_cell_angle_alpha 90.000000
_cell_angle_beta 90.000000
_cell_angle_gamma 90.000000
_cell_volume 3608.974461
_symmetry_space_group_name_H-M "P C C M"
_symmetry_group_IT_number 49
_symmetry_cell_setting 'orthorhombic'
loop_
_space_group_symop_operation_xyz
x,y,z
-x,-y,z
x,-y,1/2-z
-x,y,1/2-z
-x,-y,-z
x,y,-z
-x,y,1/2+z
x,-y,1/2+z
loop_
_atom_site_type_symbol
_atom_site_label
_atom_site_fract_x
_atom_site_fract_y
_atom_site_fract_z
Si Si1 0.682045 0.578176 0.312840
Si Si2 0.935585 0.921071 0.314492
Si Si3 0.565667 0.340210 0.683988
Si Si4 0.692654 0.922022 0.815203
Si Si5 0.374007 0.207433 0.677812
Si Si6 0.811742 0.155511 0.811474
Si Si7 0.246076 0.292785 0.322503
O O1 0.689776 0.500000 0.250000
O O2 0.682137 0.579012 0.500000
O O3 0.618259 0.610841 0.255890
O O4 0.734865 0.631932 0.254989
O O5 0.938773 0.924422 0.500000
O O6 0.877335 0.874809 0.270176
O O7 0.000000 0.894577 0.250000
O O8 0.927106 0.000000 0.250000
O O9 0.500000 0.359507 0.750000
O O10 0.566769 0.346557 0.500000
O O11 0.581193 0.259791 0.733099
O O12 0.642056 0.866773 0.755316
O O13 0.757641 0.892928 0.754014
O O14 0.682708 0.000000 0.750000
O O15 0.693413 0.922881 0.000000
O O16 0.393522 0.198541 0.500000
O O17 0.309693 0.249573 0.675197
O O18 0.800333 0.235702 0.754664
O O19 0.806098 0.155181 0.000000
O O20 0.227114 0.305503 0.500000
#
# Coordination Sequence:
#
# PCOD9392614 Si02
#       7
#     8   8   8   8   8   8   8
#     4  10  19  32  49  70  96 124 148 180 223 270
#     4  10  19  29  42  59  86 122 159 194 232 272
#     4  11  21  34  51  71  92 119 154 186 219 265
#     4  11  20  29  44  67  91 117 148 188 233 276
#     4   9  17  32  49  66  89 116 146 185 228 270
#     4   9  17  30  46  64  86 117 154 192 229 272
#     4   7  13  27  46  64  85 112 143 177 220 266
#
# _framework density 15.516874
#
# number of rings (size 3 to 8) (size 9 to 14) (size 15 to 20)
#    0.000    2.429    0.000    6.429    0.000    2.571 
#    0.000    2.143    0.000    0.429    0.000    3.000 
#    0.000    0.571    0.000    7.143    0.000    0.000 
#
# Total GULP energy -312046.056108 kJ/mol
# GULP energy per Si atom -5572.251002 kJ/mol
# Density = 1.548156 g / cm^3
# Si number density = 15.516874 Si / 1000 Ang^3
#
#
#
# Elastic Constant Matrix: (Units=GPa)
#
#
# Indices 1 2 3 4 5 6 
#
# 1 39.0876 32.4731 11.8605 0.0000 0.0000 0.0000
# 2 32.4731 129.5193 30.4662 0.0000 0.0000 0.0000
# 3 11.8605 30.4662 71.0017 0.0000 0.0000 0.0000
# 4 0.0000 0.0000 0.0000 21.4509 0.0000 0.0000
# 5 0.0000 0.0000 0.0000 0.0000 13.7340 0.0000
# 6 0.0000 0.0000 0.0000 0.0000 0.0000 18.1918
#
#
#
# Elastic Compliance Matrix: (Units=1/GPa)
#
#
# Indices 1 2 3 4 5 6 
#
# 1 0.032609 -0.007668 -0.002157 0.000000 0.000000 0.000000
# 2 -0.007668 0.010391 -0.003178 0.000000 0.000000 0.000000
# 3 -0.002157 -0.003178 0.015808 0.000000 0.000000 0.000000
# 4 0.000000 0.000000 0.000000 0.046618 0.000000 0.000000
# 5 0.000000 0.000000 0.000000 0.000000 0.072812 0.000000
# 6 0.000000 0.000000 0.000000 0.000000 0.000000 0.054970
#
#
# Mechanical properties :
#
#
# Convention : Reuss Voigt Hill
#
# Bulk Modulus (GPa) = 30.48585 43.24533 36.86559
# Shear Modulus (GPa) = 18.50844 21.66260 20.08552
#
# Velocity S-wave (km/s) = 3.45743 3.74045 3.60172
# Velocity P-wave (km/s) = 5.96892 6.82532 6.41144
#
# Compressibility (1/GPa) = 0.03280210
#
# Stress axis : x y z
#
# Youngs Moduli (GPa) = 30.66669 96.23769 63.25928
#
# Poissons Ratio (x) = 0.73798 0.13643
# Poissons Ratio (y) = 0.23516 0.20102
# Poissons Ratio (z) = 0.06614 0.30581
#
# Static dielectric constant tensor:
#      x y z
#    x 1.506770 0.000000 0.000000 
#    y 0.000000 1.533490 0.000000 
#    z 0.000000 0.000000 1.524910 
# 
# From -- ./inp_files/5200.got.cif
#   From: 2010.05.17/outbox.cif.g08.bks.cpg/sg49_3_cif.got.tgz:5200.got - 2010.06.03 21:02:19.
