data_PCOD9392128
_publ_section_title
;
Structure prediction by ZEFSAII (Michael W. Deem and Ramdas Pophale) SiO2 
 PCOD9392128
Probable space group: P C C M
;
_chemical_formula_sum "Si O2"
_cell_formula_units_Z 64
_cell_length_a 14.727579
_cell_length_b 27.257850
_cell_length_c 8.431148
_cell_angle_alpha 90.000000
_cell_angle_beta 90.000000
_cell_angle_gamma 90.000000
_cell_volume 3384.618089
_symmetry_space_group_name_H-M "P C C M"
_symmetry_group_IT_number 49
_symmetry_cell_setting 'orthorhombic'
loop_
_space_group_symop_operation_xyz
x,y,z
-x,-y,z
x,-y,1/2-z
-x,y,1/2-z
-x,-y,-z
x,y,-z
-x,y,1/2+z
x,-y,1/2+z
loop_
_atom_site_type_symbol
_atom_site_label
_atom_site_fract_x
_atom_site_fract_y
_atom_site_fract_z
Si Si1 0.210268 0.159819 0.192250
Si Si2 0.600618 0.201501 0.190077
Si Si3 0.207201 0.944933 0.687185
Si Si4 0.897371 0.446511 0.309703
Si Si5 0.784431 0.352346 0.308651
Si Si6 0.406920 0.944280 0.190310
Si Si7 0.401063 0.684954 0.189284
Si Si8 0.897296 0.743198 0.191710
O O1 0.313223 0.170910 0.249319
O O2 0.166385 0.107317 0.244348
O O3 0.150710 0.206400 0.244869
O O4 0.212643 0.158934 0.000000
O O5 0.500000 0.187851 0.250000
O O6 0.614233 0.258312 0.241701
O O7 0.599981 0.198543 0.000000
O O8 0.194802 0.948751 0.500000
O O9 0.311885 0.932364 0.728755
O O10 0.185751 0.000000 0.750000
O O11 0.867576 0.500000 0.250000
O O12 0.898913 0.447103 0.500000
O O13 0.833944 0.401934 0.254941
O O14 0.000000 0.438461 0.250000
O O15 0.785383 0.352004 0.500000
O O16 0.681607 0.347046 0.252125
O O17 0.840159 0.304249 0.253881
O O18 0.500000 0.919806 0.250000
O O19 0.414379 0.000000 0.250000
O O20 0.400610 0.941117 0.000000
O O21 0.500000 0.669766 0.250000
O O22 0.401345 0.684757 0.000000
O O23 0.000000 0.740228 0.250000
O O24 0.896797 0.743080 0.000000
#
# Coordination Sequence:
#
# PCOD9392128 Si02
#       8
#     8   8   8   8   8   8   8   8
#     4  10  21  37  56  76 105 140 173 215 269 322
#     4  10  20  33  52  78 108 143 181 220 265 319
#     4  10  20  34  51  71  93 125 166 208 258 314
#     4  10  20  34  54  82 116 158 198 242 288 335
#     4  10  20  35  57  83 115 152 191 230 277 327
#     4  10  17  27  43  63  89 121 156 198 243 292
#     4  10  20  33  53  81 113 150 189 230 275 325
#     4  10  21  37  57  82 111 140 172 218 270 326
#
# _framework density 18.909075000000001
#
# number of rings (size 3 to 8) (size 9 to 14) (size 15 to 20)
#    0.000    2.000    1.250    4.500    0.000    4.500 
#    0.000    0.000    0.000    0.750    0.000    5.250 
#    0.000    0.000    0.000    0.000    0.000    0.000 
#
# Total GULP energy -356845.985683 kJ/mol
# GULP energy per Si atom -5575.718526 kJ/mol
# Density = 1.886604 g / cm^3
# Si number density = 18.909075 Si / 1000 Ang^3
#
#
#
# Elastic Constant Matrix: (Units=GPa)
#
#
# Indices 1 2 3 4 5 6 
#
# 1 91.9484 77.1756 9.8430 0.0000 0.0000 0.0000
# 2 77.1756 175.5644 29.4454 0.0000 0.0000 0.0000
# 3 9.8430 29.4454 12.4084 0.0000 0.0000 0.0000
# 4 0.0000 0.0000 0.0000 42.0789 0.0000 0.0000
# 5 0.0000 0.0000 0.0000 0.0000 25.9240 0.0000
# 6 0.0000 0.0000 0.0000 0.0000 0.0000 6.9720
#
#
#
# Elastic Compliance Matrix: (Units=1/GPa)
#
#
# Indices 1 2 3 4 5 6 
#
# 1 0.017625 -0.008975 0.007317 0.000000 0.000000 0.000000
# 2 -0.008975 0.014032 -0.026178 0.000000 0.000000 0.000000
# 3 0.007317 -0.026178 0.136909 0.000000 0.000000 0.000000
# 4 0.000000 0.000000 0.000000 0.023765 0.000000 0.000000
# 5 0.000000 0.000000 0.000000 0.000000 0.038574 0.000000
# 6 0.000000 0.000000 0.000000 0.000000 0.000000 0.143430
#
#
# Mechanical properties :
#
#
# Convention : Reuss Voigt Hill
#
# Bulk Modulus (GPa) = 8.85800 56.98323 32.92061
# Shear Modulus (GPa) = 10.69198 25.89213 18.29206
#
# Velocity S-wave (km/s) = 2.38048 3.70442 3.11363
# Velocity P-wave (km/s) = 3.50004 6.96403 5.51126
#
# Compressibility (1/GPa) = 0.11289229
#
# Stress axis : x y z
#
# Youngs Moduli (GPa) = 56.73602 71.26672 7.30414
#
# Poissons Ratio (x) = 0.63962 -0.05344
# Poissons Ratio (y) = 0.50921 0.19121
# Poissons Ratio (z) = -0.41511 1.86565
#
# Static dielectric constant tensor:
#      x y z
#    x 1.631320 0.000000 0.000000 
#    y 0.000000 1.695990 0.000000 
#    z 0.000000 0.000000 1.642290 
# 
# From -- ./inp_files/4314.got.cif
#   From: 2010.05.17/outbox.cif.g08.bks.cpg/sg49_3_cif.got.tgz:4314.got - 2010.06.03 21:02:19.
