data_PCOD9392906
_publ_section_title
;
Structure prediction by ZEFSAII (Michael W. Deem and Ramdas Pophale) SiO2 
 PCOD9392906
Probable space group: P C C M
;
_chemical_formula_sum "Si O2"
_cell_formula_units_Z 64
_cell_length_a 32.048286
_cell_length_b 14.744966
_cell_length_c 8.731095
_cell_angle_alpha 90.000000
_cell_angle_beta 90.000000
_cell_angle_gamma 90.000000
_cell_volume 4125.886690
_symmetry_space_group_name_H-M "P C C M"
_symmetry_group_IT_number 49
_symmetry_cell_setting 'orthorhombic'
loop_
_space_group_symop_operation_xyz
x,y,z
-x,-y,z
x,-y,1/2-z
-x,y,1/2-z
-x,-y,-z
x,y,-z
-x,y,1/2+z
x,-y,1/2+z
loop_
_atom_site_type_symbol
_atom_site_label
_atom_site_fract_x
_atom_site_fract_y
_atom_site_fract_z
Si Si1 0.455082 0.600196 0.184021
Si Si2 0.704978 0.600926 0.183739
Si Si3 0.626707 0.289406 0.185125
Si Si4 0.658497 0.096063 0.816007
Si Si5 0.786307 0.281707 0.315097
Si Si6 0.865670 0.601521 0.815372
Si Si7 0.042063 0.397825 0.816784
Si Si8 0.756021 0.096721 0.183263
O O1 0.446016 0.500000 0.250000
O O2 0.500000 0.628118 0.250000
O O3 0.417725 0.667632 0.226947
O O4 0.457529 0.594553 0.000000
O O5 0.707460 0.500000 0.250000
O O6 0.663969 0.651156 0.245518
O O7 0.745850 0.658678 0.228963
O O8 0.703448 0.596619 0.000000
O O9 0.633220 0.185031 0.233122
O O10 0.630339 0.292899 0.000000
O O11 0.707160 0.108901 0.770511
O O12 0.644045 0.000000 0.750000
O O13 0.657266 0.090916 0.000000
O O14 0.786748 0.275188 0.500000
O O15 0.828057 0.334027 0.265067
O O16 0.781184 0.182089 0.246302
O O17 0.860881 0.500000 0.750000
O O18 0.911959 0.638709 0.775764
O O19 0.863998 0.594398 0.000000
O O20 0.042949 0.500000 0.750000
O O21 0.000000 0.353748 0.750000
O O22 0.038474 0.401632 0.000000
O O23 0.769772 0.000000 0.250000
O O24 0.757766 0.094552 0.000000
#
# Coordination Sequence:
#
# PCOD9392906 Si02
#       8
#     8   8   8   8   8   8   8   8
#     4  10  20  34  53  73  97 124 154 190 230 274
#     4  11  22  32  46  67  94 127 160 193 226 266
#     4  10  20  35  52  72  97 124 155 193 232 274
#     4   9  18  32  50  72  96 120 151 190 231 273
#     4  10  20  33  46  65  93 125 160 193 229 275
#     4   9  18  30  43  61  89 125 161 196 233 277
#     4   9  15  24  39  58  81 112 151 195 238 274
#     4  10  19  32  51  70  92 121 154 195 236 275
#
# _framework density 15.511818
#
# number of rings (size 3 to 8) (size 9 to 14) (size 15 to 20)
#    0.000    2.250    1.250    3.000    0.000    4.500 
#    0.000    0.000    0.000    0.375    0.000    2.625 
#    0.000    0.500    0.000    5.750    0.000    1.750 
#
# Total GULP energy -356878.050829 kJ/mol
# GULP energy per Si atom -5576.219544 kJ/mol
# Density = 1.547651 g / cm^3
# Si number density = 15.511818 Si / 1000 Ang^3
#
#
#
# Elastic Constant Matrix: (Units=GPa)
#
#
# Indices 1 2 3 4 5 6 
#
# 1 138.4081 82.9903 37.2390 0.0000 0.0000 0.0000
# 2 82.9903 128.2174 31.2816 0.0000 0.0000 0.0000
# 3 37.2390 31.2816 25.1507 0.0000 0.0000 0.0000
# 4 0.0000 0.0000 0.0000 24.5790 0.0000 0.0000
# 5 0.0000 0.0000 0.0000 0.0000 27.6925 0.0000
# 6 0.0000 0.0000 0.0000 0.0000 0.0000 6.8514
#
#
#
# Elastic Compliance Matrix: (Units=1/GPa)
#
#
# Indices 1 2 3 4 5 6 
#
# 1 0.014660 -0.006020 -0.014219 0.000000 0.000000 0.000000
# 2 -0.006020 0.013669 -0.008087 0.000000 0.000000 0.000000
# 3 -0.014219 -0.008087 0.070872 0.000000 0.000000 0.000000
# 4 0.000000 0.000000 0.000000 0.040685 0.000000 0.000000
# 5 0.000000 0.000000 0.000000 0.000000 0.036111 0.000000
# 6 0.000000 0.000000 0.000000 0.000000 0.000000 0.145957
#
#
# Mechanical properties :
#
#
# Convention : Reuss Voigt Hill
#
# Bulk Modulus (GPa) = 23.50258 66.08866 44.79562
# Shear Modulus (GPa) = 12.72944 21.17558 16.95251
#
# Velocity S-wave (km/s) = 2.86777 3.69877 3.30946
# Velocity P-wave (km/s) = 5.11368 7.80635 6.59882
#
# Compressibility (1/GPa) = 0.04254852
#
# Stress axis : x y z
#
# Youngs Moduli (GPa) = 68.21135 73.15871 14.10986
#
# Poissons Ratio (x) = 0.44042 0.20063
# Poissons Ratio (y) = 0.41063 0.11411
# Poissons Ratio (z) = 0.96990 0.59167
#
# Static dielectric constant tensor:
#      x y z
#    x 1.534790 0.000000 0.000000 
#    y 0.000000 1.490590 0.000000 
#    z 0.000000 0.000000 1.523520 
# 
# From -- ./inp_files/7054.got.cif
#   From: 2010.05.17/outbox.cif.g08.bks.cpg/sg49_4_cif.got.tgz:7054.got - 2010.06.03 21:02:19.
