data_PCOD9392427
_publ_section_title
;
Structure prediction by ZEFSAII (Michael W. Deem and Ramdas Pophale) SiO2 
 PCOD9392427
Probable space group: P C C M
;
_chemical_formula_sum "Si O2"
_cell_formula_units_Z 64
_cell_length_a 23.423442
_cell_length_b 18.413588
_cell_length_c 9.168332
_cell_angle_alpha 90.000000
_cell_angle_beta 90.000000
_cell_angle_gamma 90.000000
_cell_volume 3954.389704
_symmetry_space_group_name_H-M "P C C M"
_symmetry_group_IT_number 49
_symmetry_cell_setting 'orthorhombic'
loop_
_space_group_symop_operation_xyz
x,y,z
-x,-y,z
x,-y,1/2-z
-x,y,1/2-z
-x,-y,-z
x,y,-z
-x,y,1/2+z
x,-y,1/2+z
loop_
_atom_site_type_symbol
_atom_site_label
_atom_site_fract_x
_atom_site_fract_y
_atom_site_fract_z
Si Si1 0.937586 0.576657 0.320994
Si Si2 0.844827 0.305507 0.164905
Si Si3 0.241073 0.209873 0.831663
Si Si4 0.556939 0.286306 0.167237
Si Si5 0.752532 0.566013 0.663940
Si Si6 0.332516 0.658434 0.668096
Si Si7 0.320583 0.925062 0.322790
Si Si8 0.441125 0.110562 0.330122
O O1 0.916965 0.500000 0.250000
O O2 0.938886 0.570544 0.500000
O O3 0.898609 0.646589 0.281675
O O4 0.000000 0.586976 0.250000
O O5 0.815399 0.239135 0.250502
O O6 0.795541 0.366807 0.159391
O O7 0.857525 0.281638 0.000000
O O8 0.287376 0.275037 0.826455
O O9 0.276460 0.139258 0.780041
O O10 0.225975 0.197291 0.000000
O O11 0.500000 0.309089 0.250000
O O12 0.611452 0.316211 0.249942
O O13 0.558844 0.198433 0.168833
O O14 0.556509 0.309864 0.000000
O O15 0.779887 0.500000 0.750000
O O16 0.738935 0.544187 0.500000
O O17 0.697184 0.591972 0.750574
O O18 0.343982 0.642131 0.500000
O O19 0.323577 0.928018 0.500000
O O20 0.384144 0.911435 0.257544
O O21 0.300902 0.000000 0.250000
O O22 0.500000 0.087738 0.250000
O O23 0.439368 0.085922 0.500000
#
# Coordination Sequence:
#
# PCOD9392427 Si02
#       8
#     8   8   8   8   8   8   8   8
#     4  10  19  31  47  72 105 144 180 212 243 282
#     4   9  19  32  49  71  98 130 168 206 241 278
#     4   9  19  33  50  70  94 122 159 200 241 286
#     4  10  19  30  47  69  90 114 147 187 232 282
#     4  10  19  31  46  68  94 122 155 194 236 281
#     4  10  18  31  49  68  90 117 148 190 236 281
#     4  11  22  36  51  71  97 127 161 199 245 300
#     4  10  20  33  50  70  93 123 156 196 241 292
#
# _framework density 16.184546000000001
#
# number of rings (size 3 to 8) (size 9 to 14) (size 15 to 20)
#    0.000    2.125    1.250    3.000    0.000    4.250 
#    0.000    1.250    0.000    0.375    0.000    2.625 
#    0.000    0.500    0.000    5.500    0.000    4.000 
#
# Total GULP energy -356660.182014 kJ/mol
# GULP energy per Si atom -5572.815344 kJ/mol
# Density = 1.614771 g / cm^3
# Si number density = 16.184546 Si / 1000 Ang^3
#
#
#
# Elastic Constant Matrix: (Units=GPa)
#
#
# Indices 1 2 3 4 5 6 
#
# 1 87.2904 36.0968 46.4943 0.0000 0.0000 0.0000
# 2 36.0968 60.4485 36.2033 0.0000 0.0000 0.0000
# 3 46.4943 36.2033 108.6185 0.0000 0.0000 0.0000
# 4 0.0000 0.0000 0.0000 22.2165 0.0000 0.0000
# 5 0.0000 0.0000 0.0000 0.0000 19.4605 0.0000
# 6 0.0000 0.0000 0.0000 0.0000 0.0000 15.7901
#
#
#
# Elastic Compliance Matrix: (Units=1/GPa)
#
#
# Indices 1 2 3 4 5 6 
#
# 1 0.017060 -0.007264 -0.004881 0.000000 0.000000 0.000000
# 2 -0.007264 0.023762 -0.004811 0.000000 0.000000 0.000000
# 3 -0.004881 -0.004811 0.012899 0.000000 0.000000 0.000000
# 4 0.000000 0.000000 0.000000 0.045012 0.000000 0.000000
# 5 0.000000 0.000000 0.000000 0.000000 0.051386 0.000000
# 6 0.000000 0.000000 0.000000 0.000000 0.000000 0.063331
#
#
# Mechanical properties :
#
#
# Convention : Reuss Voigt Hill
#
# Bulk Modulus (GPa) = 50.48131 54.88291 52.68211
# Shear Modulus (GPa) = 19.68780 20.66428 20.17604
#
# Velocity S-wave (km/s) = 3.49156 3.57710 3.53459
# Velocity P-wave (km/s) = 6.89300 7.14459 7.01992
#
# Compressibility (1/GPa) = 0.01980931
#
# Stress axis : x y z
#
# Youngs Moduli (GPa) = 58.61739 42.08449 77.52253
#
# Poissons Ratio (x) = 0.30569 0.37842
# Poissons Ratio (y) = 0.42578 0.37294
# Poissons Ratio (z) = 0.28614 0.20246
#
# Static dielectric constant tensor:
#      x y z
#    x 1.542260 0.000000 0.000000 
#    y 0.000000 1.577740 0.000000 
#    z 0.000000 0.000000 1.560690 
# 
# From -- ./inp_files/6091.got.cif
#   From: 2010.05.17/outbox.cif.g08.bks.cpg/sg49_4_cif.got.tgz:6091.got - 2010.06.03 21:02:19.
