data_PCOD9392041
_publ_section_title
;
Structure prediction by ZEFSAII (Michael W. Deem and Ramdas Pophale) SiO2 
 PCOD9392041
Probable space group: P C C M
;
_chemical_formula_sum "Si O2"
_cell_formula_units_Z 40
_cell_length_a 25.209334
_cell_length_b 8.757652
_cell_length_c 9.296201
_cell_angle_alpha 90.000000
_cell_angle_beta 90.000000
_cell_angle_gamma 90.000000
_cell_volume 2052.364819
_symmetry_space_group_name_H-M "P C C M"
_symmetry_group_IT_number 49
_symmetry_cell_setting 'orthorhombic'
loop_
_space_group_symop_operation_xyz
x,y,z
-x,-y,z
x,-y,1/2-z
-x,y,1/2-z
-x,-y,-z
x,y,-z
-x,y,1/2+z
x,-y,1/2+z
loop_
_atom_site_type_symbol
_atom_site_label
_atom_site_fract_x
_atom_site_fract_y
_atom_site_fract_z
Si Si1 0.656275 0.167183 0.674245
Si Si2 0.552740 0.829466 0.676555
Si Si3 0.228454 0.153601 0.162196
Si Si4 0.122081 0.679491 0.268677
Si Si5 0.921872 0.145780 0.000000
Si Si6 0.046070 0.207048 0.000000
O O1 0.645725 0.157868 0.500000
O O2 0.607053 0.241670 0.759864
O O3 0.715292 0.233362 0.699452
O O4 0.661400 0.000000 0.750000
O O5 0.500000 0.759093 0.750000
O O6 0.550850 0.835920 0.500000
O O7 0.553979 0.000000 0.750000
O O8 0.177456 0.259844 0.170011
O O9 0.218979 0.000000 0.250000
O O10 0.236121 0.099927 0.000000
O O11 0.127071 0.500000 0.250000
O O12 0.109310 0.784665 0.132884
O O13 0.070792 0.707577 0.365998
O O14 0.983072 0.200293 0.000000
O O15 0.928382 0.963253 0.000000
#
# Coordination Sequence:
#
# PCOD9392041 Si02
#       6
#     8   8   8   8   4   4
#     4   9  16  27  43  66  94 131 180 230 280 333
#     4  10  16  23  36  58  93 135 178 227 283 339
#     4  10  21  37  58  80 109 149 194 241 287 349
#     4  12  25  40  60  89 121 152 189 239 295 346
#     4  11  25  41  67  91 111 159 186 241 280 345
#     4  11  23  45  65  87 121 145 202 229 284 349
#
# _framework density 19.489711
#
# number of rings (size 3 to 8) (size 9 to 14) (size 15 to 20)
#    0.000    1.600    1.000    7.200    1.400    4.800 
#    0.000    0.000    0.000    0.000    0.000    0.000 
#    0.000    0.800    0.000    6.400    0.000    2.000 
#
# Total GULP energy -222749.579166 kJ/mol
# GULP energy per Si atom -5568.739479 kJ/mol
# Density = 1.944535 g / cm^3
# Si number density = 19.489711 Si / 1000 Ang^3
#
#
#
# Elastic Constant Matrix: (Units=GPa)
#
#
# Indices 1 2 3 4 5 6 
#
# 1 121.2998 31.0781 27.0548 0.0000 0.0000 0.0000
# 2 31.0781 39.8456 6.5137 0.0000 0.0000 0.0000
# 3 27.0548 6.5137 115.6656 0.0000 0.0000 0.0000
# 4 0.0000 0.0000 0.0000 14.0217 0.0000 0.0000
# 5 0.0000 0.0000 0.0000 0.0000 31.4030 0.0000
# 6 0.0000 0.0000 0.0000 0.0000 0.0000 -9.9702
#
#
#
# Elastic Compliance Matrix: (Units=1/GPa)
#
#
# Indices 1 2 3 4 5 6 
#
# 1 0.010770 -0.008063 -0.002065 0.000000 0.000000 0.000000
# 2 -0.008063 0.031366 0.000120 0.000000 0.000000 0.000000
# 3 -0.002065 0.000120 0.009122 0.000000 0.000000 0.000000
# 4 0.000000 0.000000 0.000000 0.071318 0.000000 0.000000
# 5 0.000000 0.000000 0.000000 0.000000 0.031844 0.000000
# 6 0.000000 0.000000 0.000000 0.000000 0.000000 -0.100299
#
#
# Mechanical properties :
#
#
# Convention : Reuss Voigt Hill
#
# Bulk Modulus (GPa) = 32.00883 45.12269 38.56576
# Shear Modulus (GPa) = 59.13429 21.23518 40.18473
#
# Velocity S-wave (km/s) = 5.51427 3.30443 4.54568
# Velocity P-wave (km/s) = 7.54997 6.14502 6.88343
#
# Compressibility (1/GPa) = 0.03124138
#
# Stress axis : x y z
#
# Youngs Moduli (GPa) = 92.84659 31.88153 109.62580
#
# Poissons Ratio (x) = 0.25706 0.22640
# Poissons Ratio (y) = 0.74862 -0.01311
# Poissons Ratio (z) = 0.19175 -0.00381
#
# Static dielectric constant tensor:
#      x y z
#    x 1.763210 0.000000 0.000000 
#    y 0.000000 1.646670 0.000000 
#    z 0.000000 0.000000 1.685830 
# 
# From -- ./inp_files/6679.got.cif
#   From: 2010.05.17/outbox.cif.g08.bks.cpg/sg49_4_cif.got.tgz:6679.got - 2010.06.03 21:02:19.
