data_PCOD9392920
_publ_section_title
;
Structure prediction by ZEFSAII (Michael W. Deem and Ramdas Pophale) SiO2 
 PCOD9392920
Probable space group: P C C M
;
_chemical_formula_sum "Si O2"
_cell_formula_units_Z 64
_cell_length_a 20.578865
_cell_length_b 20.526938
_cell_length_c 8.637923
_cell_angle_alpha 90.000000
_cell_angle_beta 90.000000
_cell_angle_gamma 90.000000
_cell_volume 3648.840814
_symmetry_space_group_name_H-M "P C C M"
_symmetry_group_IT_number 49
_symmetry_cell_setting 'orthorhombic'
loop_
_space_group_symop_operation_xyz
x,y,z
-x,-y,z
x,-y,1/2-z
-x,y,1/2-z
-x,-y,-z
x,y,-z
-x,y,1/2+z
x,-y,1/2+z
loop_
_atom_site_type_symbol
_atom_site_label
_atom_site_fract_x
_atom_site_fract_y
_atom_site_fract_z
Si Si1 0.237669 0.602359 0.317201
Si Si2 0.429689 0.072853 0.186605
Si Si3 0.431877 0.292680 0.186826
Si Si4 0.897480 0.567650 0.682020
Si Si5 0.067462 0.288589 0.315133
Si Si6 0.798238 0.753005 0.183097
Si Si7 0.615705 0.431858 0.313926
Si Si8 0.329977 0.183810 0.188626
O O1 0.227322 0.587879 0.500000
O O2 0.179250 0.572520 0.219518
O O3 0.233000 0.680644 0.300415
O O4 0.308411 0.577398 0.270775
O O5 0.500000 0.095600 0.250000
O O6 0.370784 0.120238 0.234780
O O7 0.419917 0.000000 0.250000
O O8 0.432920 0.071790 0.000000
O O9 0.500000 0.268034 0.250000
O O10 0.420283 0.366715 0.240684
O O11 0.373505 0.245775 0.235719
O O12 0.432944 0.292583 0.000000
O O13 0.922631 0.500000 0.750000
O O14 0.908187 0.566459 0.500000
O O15 0.924862 0.636347 0.745108
O O16 0.065153 0.290683 0.500000
O O17 0.132057 0.250461 0.264159
O O18 0.000000 0.261952 0.250000
O O19 0.743988 0.804030 0.240745
O O20 0.808946 0.763205 0.000000
O O21 0.590712 0.500000 0.250000
O O22 0.612841 0.433050 0.500000
O O23 0.327696 0.183972 0.000000
#
# Coordination Sequence:
#
# PCOD9392920 Si02
#       8
#     8   8   8   8   8   8   8   8
#     4   9  16  29  48  66  85 113 147 191 246 299
#     4  10  19  32  51  77 111 148 181 211 246 293
#     4  10  20  35  50  67  90 119 159 204 249 297
#     4  10  20  31  44  64  89 115 150 194 241 297
#     4  10  21  35  49  69  96 126 158 198 247 300
#     4   9  16  31  54  74  93 122 160 201 246 292
#     4  10  20  32  46  62  84 113 150 198 250 303
#     4   9  17  32  55  77  99 131 170 207 246 293
#
# _framework density 17.539815999999998
#
# number of rings (size 3 to 8) (size 9 to 14) (size 15 to 20)
#    0.000    2.375    1.250    2.250    0.000    4.000 
#    0.000    5.000    0.000    0.000    0.000    0.000 
#    0.000    0.500    0.000    5.750    0.000    1.750 
#
# Total GULP energy -357051.190089 kJ/mol
# GULP energy per Si atom -5578.924845 kJ/mol
# Density = 1.749989 g / cm^3
# Si number density = 17.539816 Si / 1000 Ang^3
#
#
#
# Elastic Constant Matrix: (Units=GPa)
#
#
# Indices 1 2 3 4 5 6 
#
# 1 128.0334 47.7959 24.8821 0.0000 0.0000 0.0000
# 2 47.7959 71.5404 18.4264 0.0000 0.0000 0.0000
# 3 24.8821 18.4264 22.4008 0.0000 0.0000 0.0000
# 4 0.0000 0.0000 0.0000 21.0873 0.0000 0.0000
# 5 0.0000 0.0000 0.0000 0.0000 15.3913 0.0000
# 6 0.0000 0.0000 0.0000 0.0000 0.0000 -46.1224
#
#
#
# Elastic Compliance Matrix: (Units=1/GPa)
#
#
# Indices 1 2 3 4 5 6 
#
# 1 0.011475 -0.005562 -0.008171 0.000000 0.000000 0.000000
# 2 -0.005562 0.020431 -0.010629 0.000000 0.000000 0.000000
# 3 -0.008171 -0.010629 0.062460 0.000000 0.000000 0.000000
# 4 0.000000 0.000000 0.000000 0.047422 0.000000 0.000000
# 5 0.000000 0.000000 0.000000 0.000000 0.064972 0.000000
# 6 0.000000 0.000000 0.000000 0.000000 0.000000 -0.021681
#
#
# Mechanical properties :
#
#
# Convention : Reuss Voigt Hill
#
# Bulk Modulus (GPa) = 21.90876 44.90925 33.40901
# Shear Modulus (GPa) = 20.07911 6.79592 13.43752
#
# Velocity S-wave (km/s) = 3.38712 1.97053 2.77088
# Velocity P-wave (km/s) = 5.27397 5.55311 5.41534
#
# Compressibility (1/GPa) = 0.04564385
#
# Stress axis : x y z
#
# Youngs Moduli (GPa) = 87.14931 48.94422 16.01021
#
# Poissons Ratio (x) = 0.27221 0.13082
# Poissons Ratio (y) = 0.48469 0.17017
# Poissons Ratio (z) = 0.71207 0.52022
#
# Static dielectric constant tensor:
#      x y z
#    x 1.608230 0.000000 0.000000 
#    y 0.000000 1.605470 0.000000 
#    z 0.000000 0.000000 1.597790 
# 
# From -- ./inp_files/6059.got.cif
#   From: 2010.05.17/outbox.cif.g08.bks.cpg/sg49_4_cif.got.tgz:6059.got - 2010.06.03 21:02:19.
