data_PCOD9392431
_publ_section_title
;
Structure prediction by ZEFSAII (Michael W. Deem and Ramdas Pophale) SiO2 
 PCOD9392431
Probable space group: P C C M
;
_chemical_formula_sum "Si O2"
_cell_formula_units_Z 64
_cell_length_a 19.669966
_cell_length_b 24.060221
_cell_length_c 8.667033
_cell_angle_alpha 90.000000
_cell_angle_beta 90.000000
_cell_angle_gamma 90.000000
_cell_volume 4101.792357
_symmetry_space_group_name_H-M "P C C M"
_symmetry_group_IT_number 49
_symmetry_cell_setting 'orthorhombic'
loop_
_space_group_symop_operation_xyz
x,y,z
-x,-y,z
x,-y,1/2-z
-x,y,1/2-z
-x,-y,-z
x,y,-z
-x,y,1/2+z
x,-y,1/2+z
loop_
_atom_site_type_symbol
_atom_site_label
_atom_site_fract_x
_atom_site_fract_y
_atom_site_fract_z
Si Si1 0.574686 0.272484 0.184868
Si Si2 0.928091 0.386384 0.314380
Si Si3 0.292398 0.664921 0.185721
Si Si4 0.657288 0.162161 0.814672
Si Si5 0.928289 0.743173 0.814473
Si Si6 0.218693 0.773869 0.685583
Si Si7 0.214550 0.560807 0.685567
Si Si8 0.574385 0.938661 0.184413
O O1 0.500000 0.280446 0.250000
O O2 0.630086 0.319197 0.228188
O O3 0.607518 0.213289 0.232431
O O4 0.570633 0.271692 0.000000
O O5 0.930863 0.387273 0.500000
O O6 0.920476 0.321667 0.265376
O O7 0.861686 0.420327 0.265563
O O8 0.000000 0.407181 0.250000
O O9 0.246977 0.714395 0.256829
O O10 0.265956 0.606864 0.249709
O O11 0.286574 0.666709 0.000000
O O12 0.731848 0.180195 0.757807
O O13 0.628724 0.106206 0.741096
O O14 0.656570 0.158362 0.000000
O O15 0.860463 0.775974 0.768180
O O16 0.000000 0.763754 0.750000
O O17 0.931301 0.743279 0.000000
O O18 0.223163 0.775786 0.500000
O O19 0.229123 0.500000 0.750000
O O20 0.216940 0.561057 0.500000
O O21 0.500000 0.922578 0.250000
O O22 0.589241 0.000000 0.250000
O O23 0.571156 0.940591 0.000000
#
# Coordination Sequence:
#
# PCOD9392431 Si02
#       8
#     8   8   8   8   8   8   8   8
#     4   9  19  32  49  73  98 122 152 189 234 283
#     4   9  18  32  47  66  91 120 154 191 230 279
#     4  10  20  34  50  70  94 121 153 191 235 288
#     4  10  20  33  48  73 104 134 171 209 243 289
#     4   9  17  29  45  67  94 125 160 195 236 291
#     4  10  18  31  49  71  98 128 162 202 246 291
#     4  11  22  36  51  69  91 118 154 193 235 285
#     4  11  21  34  51  72 101 141 180 216 251 289
#
# _framework density 15.602936
#
# number of rings (size 3 to 8) (size 9 to 14) (size 15 to 20)
#    0.000    2.125    1.250    4.125    0.000    6.250 
#    0.000    1.250    0.000    0.375    0.000    2.625 
#    0.000    0.500    0.000    5.250    0.000    2.875 
#
# Total GULP energy -357070.831898 kJ/mol
# GULP energy per Si atom -5579.231748 kJ/mol
# Density = 1.556742 g / cm^3
# Si number density = 15.602936 Si / 1000 Ang^3
#
#
#
# Elastic Constant Matrix: (Units=GPa)
#
#
# Indices 1 2 3 4 5 6 
#
# 1 136.2111 60.2226 38.9163 0.0000 0.0000 0.0000
# 2 60.2226 85.0420 33.9434 0.0000 0.0000 0.0000
# 3 38.9163 33.9434 60.1961 0.0000 0.0000 0.0000
# 4 0.0000 0.0000 0.0000 22.5823 0.0000 0.0000
# 5 0.0000 0.0000 0.0000 0.0000 28.5831 0.0000
# 6 0.0000 0.0000 0.0000 0.0000 0.0000 25.2193
#
#
#
# Elastic Compliance Matrix: (Units=1/GPa)
#
#
# Indices 1 2 3 4 5 6 
#
# 1 0.011259 -0.006540 -0.003591 0.000000 0.000000 0.000000
# 2 -0.006540 0.018972 -0.006470 0.000000 0.000000 0.000000
# 3 -0.003591 -0.006470 0.022583 0.000000 0.000000 0.000000
# 4 0.000000 0.000000 0.000000 0.044283 0.000000 0.000000
# 5 0.000000 0.000000 0.000000 0.000000 0.034986 0.000000
# 6 0.000000 0.000000 0.000000 0.000000 0.000000 0.039652
#
#
# Mechanical properties :
#
#
# Convention : Reuss Voigt Hill
#
# Bulk Modulus (GPa) = 50.99045 60.84597 55.91821
# Shear Modulus (GPa) = 23.64354 25.16806 24.40580
#
# Velocity S-wave (km/s) = 3.89694 4.02062 3.95926
# Velocity P-wave (km/s) = 7.28005 7.78684 7.53771
#
# Compressibility (1/GPa) = 0.01961152
#
# Stress axis : x y z
#
# Youngs Moduli (GPa) = 88.81844 52.70789 44.28182
#
# Poissons Ratio (x) = 0.34469 0.15903
# Poissons Ratio (y) = 0.58084 0.28652
# Poissons Ratio (z) = 0.31897 0.34104
#
# Static dielectric constant tensor:
#      x y z
#    x 1.526370 0.000000 0.000000 
#    y 0.000000 1.499090 0.000000 
#    z 0.000000 0.000000 1.512920 
# 
# From -- ./inp_files/5405.got.cif
#   From: 2010.05.17/outbox.cif.g08.bks.cpg/sg49_3_cif.got.tgz:5405.got - 2010.06.03 21:02:19.
