data_PCOD9392767
_publ_section_title
;
Structure prediction by ZEFSAII (Michael W. Deem and Ramdas Pophale) SiO2 
 PCOD9392767
Probable space group: P C C M
;
_chemical_formula_sum "Si O2"
_cell_formula_units_Z 64
_cell_length_a 18.033940
_cell_length_b 21.634500
_cell_length_c 8.342873
_cell_angle_alpha 90.000000
_cell_angle_beta 90.000000
_cell_angle_gamma 90.000000
_cell_volume 3255.015909
_symmetry_space_group_name_H-M "P C C M"
_symmetry_group_IT_number 49
_symmetry_cell_setting 'orthorhombic'
loop_
_space_group_symop_operation_xyz
x,y,z
-x,-y,z
x,-y,1/2-z
-x,y,1/2-z
-x,-y,-z
x,y,-z
-x,y,1/2+z
x,-y,1/2+z
loop_
_atom_site_type_symbol
_atom_site_label
_atom_site_fract_x
_atom_site_fract_y
_atom_site_fract_z
Si Si1 0.424136 0.644568 0.692903
Si Si2 0.744922 0.934650 0.308596
Si Si3 0.420309 0.908507 0.691593
Si Si4 0.118368 0.431820 0.807639
Si Si5 0.788532 0.797873 0.306627
Si Si6 0.624255 0.774115 0.193720
Si Si7 0.288075 0.433959 0.807293
Si Si8 0.079720 0.294924 0.692144
O O1 0.500000 0.614316 0.750000
O O2 0.423793 0.643436 0.500000
O O3 0.419326 0.714668 0.751608
O O4 0.348101 0.614369 0.750474
O O5 0.745716 0.934006 0.500000
O O6 0.658571 0.933621 0.253630
O O7 0.784888 0.870595 0.252877
O O8 0.777461 0.000000 0.250000
O O9 0.500000 0.932529 0.750000
O O10 0.419195 0.913219 0.500000
O O11 0.413894 0.837173 0.746295
O O12 0.090848 0.500000 0.750000
O O13 0.203991 0.427043 0.749598
O O14 0.085431 0.366361 0.751010
O O15 0.114719 0.433044 0.000000
O O16 0.791844 0.798780 0.500000
O O17 0.708856 0.772152 0.252599
O O18 0.854154 0.751427 0.251338
O O19 0.626048 0.774121 0.000000
O O20 0.315196 0.500000 0.750000
O O21 0.284875 0.431436 0.000000
O O22 0.082132 0.296357 0.500000
O O23 0.000000 0.270922 0.750000
#
# Coordination Sequence:
#
# PCOD9392767 Si02
#       8
#     8   8   8   8   8   8   8   8
#     4  10  20  32  45  66  94 127 167 216 267 315
#     4  10  20  36  56  80 108 141 182 229 276 325
#     4  10  19  31  48  73 105 142 179 221 271 324
#     4  10  20  37  60  85 113 147 183 223 266 316
#     4   9  20  37  58  82 110 141 177 221 268 318
#     4   9  18  32  51  73  99 131 173 218 264 318
#     4   9  19  34  51  69  93 126 168 213 260 310
#     4  11  23  39  59  87 118 148 179 215 261 316
#
# _framework density 19.661963
#
# number of rings (size 3 to 8) (size 9 to 14) (size 15 to 20)
#    0.000    2.250    0.000    2.625    0.000    5.250 
#    0.000    3.750    0.000    0.375    0.000    2.625 
#    0.000    0.000    0.000    0.000    0.000    0.000 
#
# Total GULP energy -356791.486742 kJ/mol
# GULP energy per Si atom -5574.866980 kJ/mol
# Density = 1.961721 g / cm^3
# Si number density = 19.661963 Si / 1000 Ang^3
#
#
#
# Elastic Constant Matrix: (Units=GPa)
#
#
# Indices 1 2 3 4 5 6 
#
# 1 108.1823 63.2439 9.8394 0.0000 0.0000 0.0000
# 2 63.2439 119.7194 16.1954 0.0000 0.0000 0.0000
# 3 9.8394 16.1954 22.6071 0.0000 0.0000 0.0000
# 4 0.0000 0.0000 0.0000 39.4793 0.0000 0.0000
# 5 0.0000 0.0000 0.0000 0.0000 22.3745 0.0000
# 6 0.0000 0.0000 0.0000 0.0000 0.0000 -15.9691
#
#
#
# Elastic Compliance Matrix: (Units=1/GPa)
#
#
# Indices 1 2 3 4 5 6 
#
# 1 0.013388 -0.006959 -0.000842 0.000000 0.000000 0.000000
# 2 -0.006959 0.012866 -0.006188 0.000000 0.000000 0.000000
# 3 -0.000842 -0.006188 0.049034 0.000000 0.000000 0.000000
# 4 0.000000 0.000000 0.000000 0.025330 0.000000 0.000000
# 5 0.000000 0.000000 0.000000 0.000000 0.044694 0.000000
# 6 0.000000 0.000000 0.000000 0.000000 0.000000 -0.062621
#
#
# Mechanical properties :
#
#
# Convention : Reuss Voigt Hill
#
# Bulk Modulus (GPa) = 21.13722 47.67403 34.40562
# Shear Modulus (GPa) = 39.54478 19.92560 29.73519
#
# Velocity S-wave (km/s) = 4.48954 3.18686 3.89308
# Velocity P-wave (km/s) = 6.13582 6.15150 6.14366
#
# Compressibility (1/GPa) = 0.04730992
#
# Stress axis : x y z
#
# Youngs Moduli (GPa) = 74.69191 77.72366 20.39415
#
# Poissons Ratio (x) = 0.54086 0.01717
# Poissons Ratio (y) = 0.51976 0.12621
# Poissons Ratio (z) = 0.06289 0.48099
#
# Static dielectric constant tensor:
#      x y z
#    x 1.682590 0.000000 0.000000 
#    y 0.000000 1.733160 0.000000 
#    z 0.000000 0.000000 1.635720 
# 
# From -- ./inp_files/4380.got.cif
#   From: 2010.05.17/outbox.cif.g08.bks.cpg/sg49_3_cif.got.tgz:4380.got - 2010.06.03 21:02:19.
