data_PCOD9392853
_publ_section_title
;
Structure prediction by ZEFSAII (Michael W. Deem and Ramdas Pophale) SiO2 
 PCOD9392853
Probable space group: P C C M
;
_chemical_formula_sum "Si O2"
_cell_formula_units_Z 38
_cell_length_a 11.366739
_cell_length_b 17.981303
_cell_length_c 10.278044
_cell_angle_alpha 90.000000
_cell_angle_beta 90.000000
_cell_angle_gamma 90.000000
_cell_volume 2100.716854
_symmetry_space_group_name_H-M "P C C M"
_symmetry_group_IT_number 49
_symmetry_cell_setting 'orthorhombic'
loop_
_space_group_symop_operation_xyz
x,y,z
-x,-y,z
x,-y,1/2-z
-x,y,1/2-z
-x,-y,-z
x,y,-z
-x,y,1/2+z
x,-y,1/2+z
loop_
_atom_site_type_symbol
_atom_site_label
_atom_site_fract_x
_atom_site_fract_y
_atom_site_fract_z
Si Si1 0.473496 0.395068 0.000000
Si Si2 0.720466 0.729099 0.000000
Si Si3 0.371957 0.112212 0.500000
Si Si4 0.698823 0.283997 0.000000
Si Si5 0.864860 0.247314 0.240301
Si Si6 0.789271 0.919765 0.743227
Si Si7 0.640439 0.891843 0.000000
Si Si8 0.500000 0.500000 0.250000
O O1 0.599557 0.349422 0.000000
O O2 0.457692 0.441355 0.135783
O O3 0.367480 0.338143 0.000000
O O4 0.801023 0.732258 0.873516
O O5 0.641936 0.802774 0.000000
O O6 0.363604 0.202561 0.500000
O O7 0.302280 0.083247 0.624767
O O8 0.505483 0.085764 0.500000
O O9 0.786248 0.282121 0.124600
O O10 0.861527 0.156799 0.227971
O O11 0.000000 0.271355 0.250000
O O12 0.713150 0.914505 0.873916
O O13 0.851912 0.000000 0.750000
#
# Coordination Sequence:
#
# PCOD9392853 Si02
#       8
#     4   4   4   4   8   8   4   2
#     4  11  20  40  60  94 123 148 172 212 271 328
#     4  10  20  35  60  81 111 148 178 232 278 318
#     4  10  19  32  48  73 100 137 186 227 275 342
#     4  10  20  35  60  81 111 148 178 232 278 318
#     4  10  21  36  54  81 108 143 201 242 272 323
#     4  10  21  32  46  69 102 144 185 234 294 330
#     4  10  19  32  48  73 100 137 186 227 275 342
#     4  10  24  34  60  98 130 146 170 198 260 348
#
# _framework density 18.089065000000002
#
# number of rings (size 3 to 8) (size 9 to 14) (size 15 to 20)
#    0.000    1.895    1.053    3.158    0.000    2.947 
#    0.000    0.000    0.000    7.579    0.000   51.579 
#    0.000    0.000    0.000    0.000    0.000    0.000 
#
# Total GULP energy -211566.930138 kJ/mol
# GULP energy per Si atom -5567.550793 kJ/mol
# Density = 1.804789 g / cm^3
# Si number density = 18.089065 Si / 1000 Ang^3
#
#
#
# Elastic Constant Matrix: (Units=GPa)
#
#
# Indices 1 2 3 4 5 6 
#
# 1 80.9309 14.0378 2.9336 0.0000 0.0000 0.0000
# 2 14.0378 91.2531 6.8584 0.0000 0.0000 0.0000
# 3 2.9336 6.8584 114.9048 0.0000 0.0000 0.0000
# 4 0.0000 0.0000 0.0000 -22.0923 0.0000 0.0000
# 5 0.0000 0.0000 0.0000 0.0000 1.0150 0.0000
# 6 0.0000 0.0000 0.0000 0.0000 0.0000 -0.1194
#
#
#
# Elastic Compliance Matrix: (Units=1/GPa)
#
#
# Indices 1 2 3 4 5 6 
#
# 1 0.012700 -0.001938 -0.000209 0.000000 0.000000 0.000000
# 2 -0.001938 0.011304 -0.000625 0.000000 0.000000 0.000000
# 3 -0.000209 -0.000625 0.008745 0.000000 0.000000 0.000000
# 4 0.000000 0.000000 0.000000 -0.045265 0.000000 0.000000
# 5 0.000000 0.000000 0.000000 0.000000 0.985240 0.000000
# 6 0.000000 0.000000 0.000000 0.000000 0.000000 -8.376726
#
#
# Mechanical properties :
#
#
# Convention : Reuss Voigt Hill
#
# Bulk Modulus (GPa) = 36.75721 37.19425 36.97573
# Shear Modulus (GPa) = -0.67665 13.31128 6.31732
#
# Velocity S-wave (km/s) = -0.61227 2.71564 1.87081
# Velocity P-wave (km/s) = 4.45695 5.51718 5.01516
#
# Compressibility (1/GPa) = 0.02720555
#
# Stress axis : x y z
#
# Youngs Moduli (GPa) = 78.74060 88.46698 114.34459
#
# Poissons Ratio (x) = 0.17145 0.02385
# Poissons Ratio (y) = 0.15260 0.07149
# Poissons Ratio (z) = 0.01642 0.05531
#
# Static dielectric constant tensor:
#      x y z
#    x 1.578630 0.000000 0.000000 
#    y 0.000000 1.661900 0.000000 
#    z 0.000000 0.000000 1.693830 
# 
# From -- ./inp_files/2757.got.cif
#   From: 2010.05.17/outbox.cif.g08.bks.cpg/sg49_2_cif.got.tgz:2757.got - 2010.06.03 21:02:19.
