data_PCOD9392876
_publ_section_title
;
Structure prediction by ZEFSAII (Michael W. Deem and Ramdas Pophale) SiO2 
 PCOD9392876
Probable space group: P C C M
;
_chemical_formula_sum "Si O2"
_cell_formula_units_Z 64
_cell_length_a 17.447310
_cell_length_b 21.259991
_cell_length_c 9.187499
_cell_angle_alpha 90.000000
_cell_angle_beta 90.000000
_cell_angle_gamma 90.000000
_cell_volume 3407.915821
_symmetry_space_group_name_H-M "P C C M"
_symmetry_group_IT_number 49
_symmetry_cell_setting 'orthorhombic'
loop_
_space_group_symop_operation_xyz
x,y,z
-x,-y,z
x,-y,1/2-z
-x,y,1/2-z
-x,-y,-z
x,y,-z
-x,y,1/2+z
x,-y,1/2+z
loop_
_atom_site_type_symbol
_atom_site_label
_atom_site_fract_x
_atom_site_fract_y
_atom_site_fract_z
Si Si1 0.921487 0.793790 0.177089
Si Si2 0.118795 0.064555 0.169839
Si Si3 0.697202 0.063762 0.669493
Si Si4 0.578105 0.586671 0.670159
Si Si5 0.370059 0.273320 0.338312
Si Si6 0.574602 0.862272 0.667252
Si Si7 0.259450 0.437497 0.175723
Si Si8 0.217773 0.297346 0.826022
O O1 0.910059 0.867215 0.221949
O O2 0.850992 0.748492 0.222668
O O3 0.000000 0.771510 0.250000
O O4 0.925583 0.792892 0.000000
O O5 0.211239 0.069411 0.180888
O O6 0.095257 0.000000 0.250000
O O7 0.098418 0.058005 0.000000
O O8 0.677090 0.062505 0.500000
O O9 0.651486 0.117361 0.751685
O O10 0.674253 0.000000 0.750000
O O11 0.500000 0.567771 0.750000
O O12 0.580897 0.566435 0.500000
O O13 0.583201 0.662486 0.672866
O O14 0.654414 0.567605 0.758348
O O15 0.334107 0.272593 0.500000
O O16 0.423400 0.213086 0.328161
O O17 0.299998 0.272710 0.227129
O O18 0.500000 0.886765 0.750000
O O19 0.575129 0.882947 0.500000
O O20 0.225255 0.500000 0.250000
O O21 0.217106 0.371685 0.215470
O O22 0.262065 0.442952 0.000000
O O23 0.216440 0.295878 0.000000
#
# Coordination Sequence:
#
# PCOD9392876 Si02
#       8
#     8   8   8   8   8   8   8   8
#     4  10  21  37  56  83 114 144 175 211 255 307
#     4   9  19  35  56  80 109 142 177 213 254 305
#     4  10  20  36  55  73  94 126 167 214 263 313
#     4  10  19  32  49  73 106 142 178 219 265 315
#     4   9  19  33  51  75 102 132 172 217 261 310
#     4  11  22  34  48  70  98 130 169 216 266 316
#     4  10  20  35  55  79 105 138 178 224 272 321
#     4   9  19  36  58  80 106 139 177 218 264 315
#
# _framework density 18.779807000000002
#
# number of rings (size 3 to 8) (size 9 to 14) (size 15 to 20)
#    0.000    2.250    0.000    2.625    0.000    5.250 
#    0.000    3.750    0.000    0.375    0.000    2.625 
#    0.000    0.000    0.000    0.000    0.000    0.000 
#
# Total GULP energy -356965.536835 kJ/mol
# GULP energy per Si atom -5577.586513 kJ/mol
# Density = 1.873706 g / cm^3
# Si number density = 18.779807 Si / 1000 Ang^3
#
#
#
# Elastic Constant Matrix: (Units=GPa)
#
#
# Indices 1 2 3 4 5 6 
#
# 1 61.2862 33.6769 35.5971 0.0000 0.0000 0.0000
# 2 33.6769 90.2745 37.9382 0.0000 0.0000 0.0000
# 3 35.5971 37.9382 72.3021 0.0000 0.0000 0.0000
# 4 0.0000 0.0000 0.0000 24.0552 0.0000 0.0000
# 5 0.0000 0.0000 0.0000 0.0000 24.7979 0.0000
# 6 0.0000 0.0000 0.0000 0.0000 0.0000 -2.6763
#
#
#
# Elastic Compliance Matrix: (Units=1/GPa)
#
#
# Indices 1 2 3 4 5 6 
#
# 1 0.024653 -0.005255 -0.009380 0.000000 0.000000 0.000000
# 2 -0.005255 0.015331 -0.005457 0.000000 0.000000 0.000000
# 3 -0.009380 -0.005457 0.021313 0.000000 0.000000 0.000000
# 4 0.000000 0.000000 0.000000 0.041571 0.000000 0.000000
# 5 0.000000 0.000000 0.000000 0.000000 0.040326 0.000000
# 6 0.000000 0.000000 0.000000 0.000000 0.000000 -0.373651
#
#
# Mechanical properties :
#
#
# Convention : Reuss Voigt Hill
#
# Bulk Modulus (GPa) = 47.36674 48.69857 48.03265
# Shear Modulus (GPa) = -27.28735 17.01207 -5.13764
#
# Velocity S-wave (km/s) = -3.81598 3.01303 -1.65580
# Velocity P-wave (km/s) = 2.42102 6.17188 4.68793
#
# Compressibility (1/GPa) = 0.02111186
#
# Stress axis : x y z
#
# Youngs Moduli (GPa) = 40.56350 65.22703 46.92016
#
# Poissons Ratio (x) = 0.34274 0.44013
# Poissons Ratio (y) = 0.21314 0.25607
# Poissons Ratio (z) = 0.38050 0.35597
#
# Static dielectric constant tensor:
#      x y z
#    x 1.617380 0.000000 0.000000 
#    y 0.000000 1.707830 0.000000 
#    z 0.000000 0.000000 1.652900 
# 
# From -- ./inp_files/5280.got.cif
#   From: 2010.05.17/outbox.cif.g08.bks.cpg/sg49_3_cif.got.tgz:5280.got - 2010.06.03 21:02:19.
