data_PCOD9392052
_publ_section_title
;
Structure prediction by ZEFSAII (Michael W. Deem and Ramdas Pophale) SiO2 
 PCOD9392052
Probable space group: P C C M
;
_chemical_formula_sum "Si O2"
_cell_formula_units_Z 32
_cell_length_a 11.002292
_cell_length_b 5.353281
_cell_length_c 24.582503
_cell_angle_alpha 90.000000
_cell_angle_beta 90.000000
_cell_angle_gamma 90.000000
_cell_volume 1447.869129
_symmetry_space_group_name_H-M "P C C M"
_symmetry_group_IT_number 49
_symmetry_cell_setting 'orthorhombic'
loop_
_space_group_symop_operation_xyz
x,y,z
-x,-y,z
x,-y,1/2-z
-x,y,1/2-z
-x,-y,-z
x,y,-z
-x,y,1/2+z
x,-y,1/2+z
loop_
_atom_site_type_symbol
_atom_site_label
_atom_site_fract_x
_atom_site_fract_y
_atom_site_fract_z
Si Si1 0.372338 0.070863 0.601398
Si Si2 0.355361 0.567531 0.438214
Si Si3 0.664529 0.250459 0.215249
Si Si4 0.051673 0.748239 0.811974
O O1 0.299949 0.292647 0.572448
O O2 0.405198 0.196671 0.659330
O O3 0.500000 0.000000 0.572597
O O4 0.315348 0.792837 0.601817
O O5 0.500000 0.500000 0.432557
O O6 0.332525 0.647538 0.500000
O O7 0.637830 0.500000 0.250000
O O8 0.804423 0.260690 0.195502
O O9 0.649386 0.000000 0.250000
O O10 0.000000 0.500000 0.838884
O O11 0.000000 0.749015 0.750000
O O12 0.000000 0.000000 0.837746
#
# Coordination Sequence:
#
# PCOD9392052 Si02
#       4
#     8   8   8   8
#     4  10  21  34  47  73 104 131 173 206 234 307
#     4   9  17  33  55  72  92 125 164 218 268 286
#     4  12  21  32  50  71 103 146 168 201 250 295
#     4  10  16  30  48  69  92 124 162 221 253 279
#
# _framework density 22.101444000000001
#
# number of rings (size 3 to 8) (size 9 to 14) (size 15 to 20)
#    0.000    1.750    5.000    2.250    0.000    3.500 
#    0.000    1.250    0.000    0.000    0.000    0.000 
#    0.000   20.000    0.000    0.000    0.000    0.000 
#
# Total GULP energy -178269.024096 kJ/mol
# GULP energy per Si atom -5570.907003 kJ/mol
# Density = 2.205114 g / cm^3
# Si number density = 22.101444 Si / 1000 Ang^3
#
#
#
# Elastic Constant Matrix: (Units=GPa)
#
#
# Indices 1 2 3 4 5 6 
#
# 1 54.2619 5.6531 -6.2462 0.0000 0.0000 0.0000
# 2 5.6531 261.5966 47.3634 0.0000 0.0000 0.0000
# 3 -6.2462 47.3634 83.3417 0.0000 0.0000 0.0000
# 4 0.0000 0.0000 0.0000 7.5024 0.0000 0.0000
# 5 0.0000 0.0000 0.0000 0.0000 -1.3712 0.0000
# 6 0.0000 0.0000 0.0000 0.0000 0.0000 -1.1903
#
#
#
# Elastic Compliance Matrix: (Units=1/GPa)
#
#
# Indices 1 2 3 4 5 6 
#
# 1 0.018715 -0.000734 0.001820 0.000000 0.000000 0.000000
# 2 -0.000734 0.004290 -0.002493 0.000000 0.000000 0.000000
# 3 0.001820 -0.002493 0.013552 0.000000 0.000000 0.000000
# 4 0.000000 0.000000 0.000000 0.133291 0.000000 0.000000
# 5 0.000000 0.000000 0.000000 0.000000 -0.729281 0.000000
# 6 0.000000 0.000000 0.000000 0.000000 0.000000 -0.840124
#
#
# Mechanical properties :
#
#
# Convention : Reuss Voigt Hill
#
# Bulk Modulus (GPa) = 29.63615 54.74898 42.19256
# Shear Modulus (GPa) = -3.60882 24.48350 10.43734
#
# Velocity S-wave (km/s) = -1.27921 3.33194 2.17548
# Velocity P-wave (km/s) = 3.35506 6.29507 5.04402
#
# Compressibility (1/GPa) = 0.03374258
#
# Stress axis : x y z
#
# Youngs Moduli (GPa) = 53.43292 233.10547 73.79013
#
# Poissons Ratio (x) = 0.17108 -0.13428
# Poissons Ratio (y) = 0.03921 0.18396
# Poissons Ratio (z) = -0.09723 0.58113
#
# Static dielectric constant tensor:
#      x y z
#    x 2.022350 0.000000 0.000000 
#    y 0.000000 1.895030 0.000000 
#    z 0.000000 0.000000 1.801070 
# 
# From -- ./inp_files/18819.got.cif
#   From: 2010.05.17/outbox.cif.g08.bks.cpg/sg49_10_cif.got.tgz:18819.got - 2010.06.03 21:02:19.
