data_PCOD9392157
_publ_section_title
;
Structure prediction by ZEFSAII (Michael W. Deem and Ramdas Pophale) SiO2 
 PCOD9392157
Probable space group: P C C M
;
_chemical_formula_sum "Si O2"
_cell_formula_units_Z 48
_cell_length_a 31.933010
_cell_length_b 9.630418
_cell_length_c 8.621104
_cell_angle_alpha 90.000000
_cell_angle_beta 90.000000
_cell_angle_gamma 90.000000
_cell_volume 2651.232891
_symmetry_space_group_name_H-M "P C C M"
_symmetry_group_IT_number 49
_symmetry_cell_setting 'orthorhombic'
loop_
_space_group_symop_operation_xyz
x,y,z
-x,-y,z
x,-y,1/2-z
-x,y,1/2-z
-x,-y,-z
x,y,-z
-x,y,1/2+z
x,-y,1/2+z
loop_
_atom_site_type_symbol
_atom_site_label
_atom_site_fract_x
_atom_site_fract_y
_atom_site_fract_z
Si Si1 0.713251 0.154404 0.813034
Si Si2 0.455766 0.344169 0.814967
Si Si3 0.043036 0.841861 0.685302
Si Si4 0.617861 0.154912 0.186425
Si Si5 0.130742 0.843195 0.186504
Si Si6 0.210149 0.344682 0.312837
O O1 0.665676 0.194286 0.769653
O O2 0.748167 0.263174 0.759713
O O3 0.721761 0.000000 0.750000
O O4 0.714918 0.147545 0.000000
O O5 0.451518 0.500000 0.750000
O O6 0.500000 0.288125 0.750000
O O7 0.416778 0.254739 0.757504
O O8 0.457525 0.347909 0.000000
O O9 0.042089 0.844605 0.500000
O O10 0.087057 0.784126 0.746496
O O11 0.000000 0.777249 0.750000
O O12 0.043467 0.000000 0.750000
O O13 0.611156 0.000000 0.250000
O O14 0.614774 0.155688 0.000000
O O15 0.169700 0.746774 0.231274
O O16 0.136704 0.000000 0.250000
O O17 0.127826 0.850631 0.000000
O O18 0.208197 0.500000 0.250000
O O19 0.211033 0.350175 0.500000
#
# Coordination Sequence:
#
# PCOD9392157 Si02
#       6
#     8   8   8   8   8   8
#     4   9  19  36  57  81 108 139 176 218 263 314
#     4  11  22  38  58  81 110 145 184 224 269 318
#     4  10  17  27  45  71 102 133 167 209 257 304
#     4  10  20  36  57  83 113 143 179 222 269 319
#     4  10  19  32  51  76 104 135 173 214 258 308
#     4  10  22  37  53  76 106 139 176 217 260 309
#
# _framework density 18.104783999999999
#
# number of rings (size 3 to 8) (size 9 to 14) (size 15 to 20)
#    0.000    2.000    0.000    6.500    0.000    3.667 
#    0.000    3.333    0.000    0.500    0.000    3.500 
#    0.000    0.000    0.000    0.000    0.000    0.000 
#
# Total GULP energy -267925.090874 kJ/mol
# GULP energy per Si atom -5581.772727 kJ/mol
# Density = 1.806358 g / cm^3
# Si number density = 18.104784 Si / 1000 Ang^3
#
#
#
# Elastic Constant Matrix: (Units=GPa)
#
#
# Indices 1 2 3 4 5 6 
#
# 1 197.8566 102.3588 65.3568 0.0000 0.0000 0.0000
# 2 102.3588 86.0833 36.2713 0.0000 0.0000 0.0000
# 3 65.3568 36.2713 96.5277 0.0000 0.0000 0.0000
# 4 0.0000 0.0000 0.0000 29.5620 0.0000 0.0000
# 5 0.0000 0.0000 0.0000 0.0000 55.9459 0.0000
# 6 0.0000 0.0000 0.0000 0.0000 0.0000 -10.8726
#
#
#
# Elastic Compliance Matrix: (Units=1/GPa)
#
#
# Indices 1 2 3 4 5 6 
#
# 1 0.014273 -0.015326 -0.003905 0.000000 0.000000 0.000000
# 2 -0.015326 0.030259 -0.000993 0.000000 0.000000 0.000000
# 3 -0.003905 -0.000993 0.013377 0.000000 0.000000 0.000000
# 4 0.000000 0.000000 0.000000 0.033827 0.000000 0.000000
# 5 0.000000 0.000000 0.000000 0.000000 0.017874 0.000000
# 6 0.000000 0.000000 0.000000 0.000000 0.000000 -0.091974
#
#
# Mechanical properties :
#
#
# Convention : Reuss Voigt Hill
#
# Bulk Modulus (GPa) = 57.27280 87.60457 72.43869
# Shear Modulus (GPa) = 78.24268 26.69244 52.46756
#
# Velocity S-wave (km/s) = 6.58106 3.84387 5.38914
# Velocity P-wave (km/s) = 9.45780 8.25790 8.87815
#
# Compressibility (1/GPa) = 0.01746030
#
# Stress axis : x y z
#
# Youngs Moduli (GPa) = 70.06377 33.04839 74.75616
#
# Poissons Ratio (x) = 0.50650 0.29191
# Poissons Ratio (y) = 1.07379 0.07425
# Poissons Ratio (z) = 0.27359 0.03282
#
# Static dielectric constant tensor:
#      x y z
#    x 1.657430 0.000000 0.000000 
#    y 0.000000 1.568820 0.000000 
#    z 0.000000 0.000000 1.712160 
# 
# From -- ./inp_files/6884.got.cif
#   From: 2010.05.17/outbox.cif.g08.bks.cpg/sg49_4_cif.got.tgz:6884.got - 2010.06.03 21:02:19.
