data_PCOD9392440
_publ_section_title
;
Structure prediction by ZEFSAII (Michael W. Deem and Ramdas Pophale) SiO2 
 PCOD9392440
Probable space group: P C C M
;
_chemical_formula_sum "Si O2"
_cell_formula_units_Z 64
_cell_length_a 10.427487
_cell_length_b 19.810165
_cell_length_c 14.631556
_cell_angle_alpha 90.000000
_cell_angle_beta 90.000000
_cell_angle_gamma 90.000000
_cell_volume 3022.444005
_symmetry_space_group_name_H-M "P C C M"
_symmetry_group_IT_number 49
_symmetry_cell_setting 'orthorhombic'
loop_
_space_group_symop_operation_xyz
x,y,z
-x,-y,z
x,-y,1/2-z
-x,y,1/2-z
-x,-y,-z
x,y,-z
-x,y,1/2+z
x,-y,1/2+z
loop_
_atom_site_type_symbol
_atom_site_label
_atom_site_fract_x
_atom_site_fract_y
_atom_site_fract_z
Si Si1 0.749960 0.210909 0.640502
Si Si2 0.493775 0.294362 0.140007
Si Si3 0.151488 0.071563 0.860152
Si Si4 0.106114 0.551452 0.607030
Si Si5 0.146837 0.921661 0.137938
Si Si6 0.008183 0.298853 0.139935
Si Si7 0.246880 0.222057 0.363328
Si Si8 0.601170 0.445388 0.608162
O O1 0.624708 0.249115 0.608280
O O2 0.760607 0.133529 0.611399
O O3 0.750271 0.216400 0.751888
O O4 0.877220 0.249924 0.610712
O O5 0.500000 0.291922 0.250000
O O6 0.625245 0.260609 0.107298
O O7 0.461328 0.371468 0.117054
O O8 0.150519 0.074951 0.749009
O O9 0.003448 0.084565 0.887272
O O10 0.189856 0.996607 0.890736
O O11 0.120015 0.533731 0.500000
O O12 0.252152 0.551993 0.646197
O O13 0.000000 0.500000 0.646073
O O14 0.045663 0.625897 0.612395
O O15 0.223404 0.855504 0.107257
O O16 0.874003 0.267758 0.108979
O O17 0.000000 0.298524 0.250000
O O18 0.500000 0.500000 0.645384
O O19 0.613455 0.458718 0.500000
#
# Coordination Sequence:
#
# PCOD9392440 Si02
#       8
#     8   8   8   8   8   8   8   8
#     4   9  15  28  43  65  98 130 164 199 242 284
#     4  10  20  33  49  73 102 131 162 200 244 290
#     4   8  12  19  37  58  90 131 163 198 234 287
#     4  10  22  39  56  75  99 125 160 205 245 287
#     4   8  12  20  34  61  91 126 168 195 236 286
#     4  10  18  31  51  74  99 128 163 200 244 290
#     4   9  17  26  43  68  99 130 159 202 242 284
#     4  10  22  40  57  72  96 130 163 197 244 298
#
# _framework density 21.174917000000001
#
# number of rings (size 3 to 8) (size 9 to 14) (size 15 to 20)
#    0.000    2.750    2.500    0.750    1.750    0.500 
#    0.000    1.875    0.000    3.750    0.000    0.000 
#    0.000    6.000    0.000    0.000    0.000    0.000 
#
# Total GULP energy -357122.276057 kJ/mol
# GULP energy per Si atom -5580.035563 kJ/mol
# Density = 2.112672 g / cm^3
# Si number density = 21.174917 Si / 1000 Ang^3
#
#
#
# Elastic Constant Matrix: (Units=GPa)
#
#
# Indices 1 2 3 4 5 6 
#
# 1 197.2955 127.0504 7.9549 0.0000 0.0000 0.0000
# 2 127.0504 220.0292 -2.6433 0.0000 0.0000 0.0000
# 3 7.9549 -2.6433 74.1896 0.0000 0.0000 0.0000
# 4 0.0000 0.0000 0.0000 417.8064 0.0000 0.0000
# 5 0.0000 0.0000 0.0000 0.0000 -9.6558 0.0000
# 6 0.0000 0.0000 0.0000 0.0000 0.0000 31.1990
#
#
#
# Elastic Compliance Matrix: (Units=1/GPa)
#
#
# Indices 1 2 3 4 5 6 
#
# 1 0.008149 -0.004718 -0.001042 0.000000 0.000000 0.000000
# 2 -0.004718 0.007278 0.000765 0.000000 0.000000 0.000000
# 3 -0.001042 0.000765 0.013618 0.000000 0.000000 0.000000
# 4 0.000000 0.000000 0.000000 0.002393 0.000000 0.000000
# 5 0.000000 0.000000 0.000000 0.000000 -0.103565 0.000000
# 6 0.000000 0.000000 0.000000 0.000000 0.000000 0.032052
#
#
# Mechanical properties :
#
#
# Convention : Reuss Voigt Hill
#
# Bulk Modulus (GPa) = 52.47698 84.02649 68.25173
# Shear Modulus (GPa) = -210.66746 111.81343 -49.42702
#
# Velocity S-wave (km/s) = -9.98525 7.27456 -4.83662
# Velocity P-wave (km/s) = 10.39730 10.50368 1.05440
#
# Compressibility (1/GPa) = 0.01905598
#
# Stress axis : x y z
#
# Youngs Moduli (GPa) = 122.72121 137.39736 73.43256
#
# Poissons Ratio (x) = 0.64820 0.07650
# Poissons Ratio (y) = 0.57896 -0.05619
# Poissons Ratio (z) = 0.12785 -0.10513
#
# Static dielectric constant tensor:
#      x y z
#    x 1.742600 0.000000 0.000000 
#    y 0.000000 1.741430 0.000000 
#    z 0.000000 0.000000 1.833760 
# 
# From -- ./inp_files/20043.got.cif
#   From: 2010.05.17/outbox.cif.g08.bks.cpg/sg49_11_cif.got.tgz:20043.got - 2010.06.03 21:02:19.
