data_PCOD9392357
_publ_section_title
;
Structure prediction by ZEFSAII (Michael W. Deem and Ramdas Pophale) SiO2 
 PCOD9392357
Probable space group: P C C M
;
_chemical_formula_sum "Si O2"
_cell_formula_units_Z 64
_cell_length_a 19.668620
_cell_length_b 24.203243
_cell_length_c 8.805690
_cell_angle_alpha 90.000000
_cell_angle_beta 90.000000
_cell_angle_gamma 90.000000
_cell_volume 4191.899319
_symmetry_space_group_name_H-M "P C C M"
_symmetry_group_IT_number 49
_symmetry_cell_setting 'orthorhombic'
loop_
_space_group_symop_operation_xyz
x,y,z
-x,-y,z
x,-y,1/2-z
-x,y,1/2-z
-x,-y,-z
x,y,-z
-x,y,1/2+z
x,-y,1/2+z
loop_
_atom_site_type_symbol
_atom_site_label
_atom_site_fract_x
_atom_site_fract_y
_atom_site_fract_z
Si Si1 0.074037 0.725272 0.318004
Si Si2 0.791892 0.666442 0.817176
Si Si3 0.717554 0.772767 0.681985
Si Si4 0.291885 0.441007 0.817981
Si Si5 0.427444 0.389400 0.682269
Si Si6 0.428461 0.259176 0.317931
Si Si7 0.159381 0.166647 0.182747
Si Si8 0.925344 0.059457 0.682888
O O1 0.068132 0.726248 0.500000
O O2 0.129783 0.678792 0.276610
O O3 0.108147 0.783728 0.270792
O O4 0.000000 0.717659 0.250000
O O5 0.747947 0.714501 0.739515
O O6 0.761824 0.607035 0.776974
O O7 0.785920 0.673369 0.000000
O O8 0.719740 0.773907 0.500000
O O9 0.638790 0.773671 0.731318
O O10 0.767558 0.819209 0.747388
O O11 0.272907 0.500000 0.750000
O O12 0.364793 0.422559 0.752005
O O13 0.296111 0.444150 0.000000
O O14 0.500000 0.407270 0.750000
O O15 0.427722 0.394432 0.500000
O O16 0.419106 0.324196 0.722211
O O17 0.500000 0.240425 0.250000
O O18 0.432700 0.256689 0.500000
O O19 0.126540 0.108207 0.224374
O O20 0.165102 0.169165 0.000000
O O21 0.930055 0.056285 0.500000
O O22 0.000000 0.072256 0.750000
O O23 0.905283 0.000000 0.750000
#
# Coordination Sequence:
#
# PCOD9392357 Si02
#       8
#     8   8   8   8   8   8   8   8
#     4   9  17  30  47  69  92 115 145 182 224 271
#     4   9  19  34  49  65  90 119 146 178 227 283
#     4  10  18  29  47  71  94 118 153 194 230 268
#     4  11  22  35  51  68  87 116 149 187 230 273
#     4  10  19  33  49  68  93 118 150 186 222 269
#     4   9  18  29  44  67  93 121 151 184 222 270
#     4   9  19  32  45  66  97 130 160 193 231 274
#     4  10  19  31  47  67  96 133 173 206 237 274
#
# _framework density 15.267543
#
# number of rings (size 3 to 8) (size 9 to 14) (size 15 to 20)
#    0.000    2.375    1.250    3.000    0.000    5.250 
#    0.000    1.250    0.000    0.375    0.000    2.625 
#    0.000    0.500    0.000    5.500    0.000    4.000 
#
# Total GULP energy -356886.255979 kJ/mol
# GULP energy per Si atom -5576.347750 kJ/mol
# Density = 1.523279 g / cm^3
# Si number density = 15.267543 Si / 1000 Ang^3
#
#
#
# Elastic Constant Matrix: (Units=GPa)
#
#
# Indices 1 2 3 4 5 6 
#
# 1 138.1890 70.6218 36.3993 0.0000 0.0000 0.0000
# 2 70.6218 101.6899 35.4808 0.0000 0.0000 0.0000
# 3 36.3993 35.4808 30.5087 0.0000 0.0000 0.0000
# 4 0.0000 0.0000 0.0000 -4.0484 0.0000 0.0000
# 5 0.0000 0.0000 0.0000 0.0000 26.6277 0.0000
# 6 0.0000 0.0000 0.0000 0.0000 0.0000 26.8579
#
#
#
# Elastic Compliance Matrix: (Units=1/GPa)
#
#
# Indices 1 2 3 4 5 6 
#
# 1 0.012267 -0.005743 -0.007957 0.000000 0.000000 0.000000
# 2 -0.005743 0.019238 -0.015521 0.000000 0.000000 0.000000
# 3 -0.007957 -0.015521 0.060321 0.000000 0.000000 0.000000
# 4 0.000000 0.000000 0.000000 -0.247013 0.000000 0.000000
# 5 0.000000 0.000000 0.000000 0.000000 0.037555 0.000000
# 6 0.000000 0.000000 0.000000 0.000000 0.000000 0.037233
#
#
# Mechanical properties :
#
#
# Convention : Reuss Voigt Hill
#
# Bulk Modulus (GPa) = 29.95407 61.71016 45.83211
# Shear Modulus (GPa) = -461.72834 18.41316 -221.65759
#
# Velocity S-wave (km/s) = -17.40923 3.47657 -12.06223
# Velocity P-wave (km/s) = 19.60730 7.52478 12.80281
#
# Compressibility (1/GPa) = 0.03338444
#
# Stress axis : x y z
#
# Youngs Moduli (GPa) = 81.51691 51.98076 16.57795
#
# Poissons Ratio (x) = 0.29854 0.13191
# Poissons Ratio (y) = 0.46818 0.25731
# Poissons Ratio (z) = 0.64860 0.80679
#
# Static dielectric constant tensor:
#      x y z
#    x 1.506470 0.000000 0.000000 
#    y 0.000000 1.496400 0.000000 
#    z 0.000000 0.000000 1.525210 
# 
# From -- ./inp_files/5457.got.cif
#   From: 2010.05.17/outbox.cif.g08.bks.cpg/sg49_3_cif.got.tgz:5457.got - 2010.06.03 21:02:19.
