data_PCOD9392409
_publ_section_title
;
Structure prediction by ZEFSAII (Michael W. Deem and Ramdas Pophale) SiO2 
 PCOD9392409
Probable space group: P C C M
;
_chemical_formula_sum "Si O2"
_cell_formula_units_Z 48
_cell_length_a 14.338983
_cell_length_b 20.081001
_cell_length_c 8.621444
_cell_angle_alpha 90.000000
_cell_angle_beta 90.000000
_cell_angle_gamma 90.000000
_cell_volume 2482.468345
_symmetry_space_group_name_H-M "P C C M"
_symmetry_group_IT_number 49
_symmetry_cell_setting 'orthorhombic'
loop_
_space_group_symop_operation_xyz
x,y,z
-x,-y,z
x,-y,1/2-z
-x,y,1/2-z
-x,-y,-z
x,y,-z
-x,y,1/2+z
x,-y,1/2+z
loop_
_atom_site_type_symbol
_atom_site_label
_atom_site_fract_x
_atom_site_fract_y
_atom_site_fract_z
Si Si1 0.595502 0.259383 0.674241
Si Si2 0.395883 0.074218 0.312530
Si Si3 0.247443 0.186070 0.321025
Si Si4 0.804906 0.569774 0.188877
Si Si5 0.596746 0.582275 0.828404
Si Si6 0.895848 0.712449 0.185725
O O1 0.500000 0.236211 0.750000
O O2 0.611775 0.231834 0.500000
O O3 0.675227 0.242594 0.795063
O O4 0.592611 0.338138 0.657908
O O5 0.500000 0.091990 0.250000
O O6 0.400286 0.075373 0.500000
O O7 0.309251 0.122303 0.264807
O O8 0.377936 0.000000 0.250000
O O9 0.224032 0.174656 0.500000
O O10 0.159926 0.220959 0.238093
O O11 0.847871 0.500000 0.250000
O O12 0.697251 0.569722 0.246776
O O13 0.850571 0.640812 0.235619
O O14 0.804771 0.568972 0.000000
O O15 0.500000 0.564851 0.750000
O O16 0.598849 0.552121 0.000000
O O17 0.000000 0.714932 0.250000
O O18 0.895041 0.711704 0.000000
#
# Coordination Sequence:
#
# PCOD9392409 Si02
#       6
#     8   8   8   8   8   8
#     4  10  18  30  49  77 112 148 188 233 280 335
#     4  10  21  36  57  89 130 171 208 241 280 335
#     4  11  22  36  58  88 118 155 199 241 293 350
#     4  10  22  40  59  82 113 149 191 239 296 359
#     4   9  18  33  50  74 108 145 184 226 275 335
#     4  11  24  44  65  87 115 146 190 249 308 365
#
# _framework density 19.335592999999999
#
# number of rings (size 3 to 8) (size 9 to 14) (size 15 to 20)
#    0.000    1.833    1.667    3.000    0.000    7.333 
#    0.000    3.333    0.000    0.500    0.000    3.500 
#    0.000    0.000    0.000    0.000    0.000    0.000 
#
# Total GULP energy -267341.719150 kJ/mol
# GULP energy per Si atom -5569.619149 kJ/mol
# Density = 1.929158 g / cm^3
# Si number density = 19.335593 Si / 1000 Ang^3
#
#
#
# Elastic Constant Matrix: (Units=GPa)
#
#
# Indices 1 2 3 4 5 6 
#
# 1 135.1334 62.0474 25.1703 0.0000 0.0000 0.0000
# 2 62.0474 148.2030 35.2934 0.0000 0.0000 0.0000
# 3 25.1703 35.2934 37.0639 0.0000 0.0000 0.0000
# 4 0.0000 0.0000 0.0000 22.0524 0.0000 0.0000
# 5 0.0000 0.0000 0.0000 0.0000 15.5826 0.0000
# 6 0.0000 0.0000 0.0000 0.0000 0.0000 -110.0916
#
#
#
# Elastic Compliance Matrix: (Units=1/GPa)
#
#
# Indices 1 2 3 4 5 6 
#
# 1 0.009489 -0.003153 -0.003441 0.000000 0.000000 0.000000
# 2 -0.003153 0.009774 -0.007166 0.000000 0.000000 0.000000
# 3 -0.003441 -0.007166 0.036141 0.000000 0.000000 0.000000
# 4 0.000000 0.000000 0.000000 0.045347 0.000000 0.000000
# 5 0.000000 0.000000 0.000000 0.000000 0.064174 0.000000
# 6 0.000000 0.000000 0.000000 0.000000 0.000000 -0.009083
#
#
# Mechanical properties :
#
#
# Convention : Reuss Voigt Hill
#
# Bulk Modulus (GPa) = 35.86397 62.82473 49.34435
# Shear Modulus (GPa) = 25.95290 -1.29870 12.32710
#
# Velocity S-wave (km/s) = 3.66763 -0.82044 2.52768
# Velocity P-wave (km/s) = 6.04349 5.62715 5.83903
#
# Compressibility (1/GPa) = 0.02788314
#
# Stress axis : x y z
#
# Youngs Moduli (GPa) = 105.38657 102.31118 27.66932
#
# Poissons Ratio (x) = 0.32260 0.09522
# Poissons Ratio (y) = 0.33229 0.19828
# Poissons Ratio (z) = 0.36268 0.73315
#
# Static dielectric constant tensor:
#      x y z
#    x 1.703340 0.000000 0.000000 
#    y 0.000000 1.721780 0.000000 
#    z 0.000000 0.000000 1.942140 
# 
# From -- ./inp_files/3853.got.cif
#   From: 2010.05.17/outbox.cif.g08.bks.cpg/sg49_2_cif.got.tgz:3853.got - 2010.06.03 21:02:19.
