data_PCOD9392841
_publ_section_title
;
Structure prediction by ZEFSAII (Michael W. Deem and Ramdas Pophale) SiO2 
 PCOD9392841
Probable space group: P C C M
;
_chemical_formula_sum "Si O2"
_cell_formula_units_Z 64
_cell_length_a 23.808934
_cell_length_b 15.232294
_cell_length_c 8.583123
_cell_angle_alpha 90.000000
_cell_angle_beta 90.000000
_cell_angle_gamma 90.000000
_cell_volume 3112.795578
_symmetry_space_group_name_H-M "P C C M"
_symmetry_group_IT_number 49
_symmetry_cell_setting 'orthorhombic'
loop_
_space_group_symop_operation_xyz
x,y,z
-x,-y,z
x,-y,1/2-z
-x,y,1/2-z
-x,-y,-z
x,y,-z
-x,y,1/2+z
x,-y,1/2+z
loop_
_atom_site_type_symbol
_atom_site_label
_atom_site_fract_x
_atom_site_fract_y
_atom_site_fract_z
Si Si1 0.912661 0.089991 0.311794
Si Si2 0.792247 0.125825 0.320671
Si Si3 0.057986 0.718963 0.815309
Si Si4 0.288620 0.360707 0.314214
Si Si5 0.676263 0.169856 0.311268
Si Si6 0.559817 0.211509 0.187180
Si Si7 0.173935 0.667193 0.322513
Si Si8 0.410110 0.589831 0.187115
O O1 0.912785 0.090950 0.500000
O O2 0.848582 0.090250 0.244572
O O3 0.937254 0.182463 0.255452
O O4 0.938704 0.000000 0.250000
O O5 0.791901 0.095756 0.500000
O O6 0.729405 0.110235 0.259408
O O7 0.805432 0.230658 0.322665
O O8 0.114904 0.668027 0.767029
O O9 0.000000 0.679772 0.750000
O O10 0.055193 0.725516 0.000000
O O11 0.284426 0.364288 0.500000
O O12 0.305809 0.262840 0.261896
O O13 0.227946 0.383339 0.244695
O O14 0.344597 0.410641 0.262960
O O15 0.677049 0.174321 0.500000
O O16 0.612962 0.157280 0.252981
O O17 0.500000 0.180207 0.250000
O O18 0.566569 0.314729 0.237726
O O19 0.561660 0.209452 0.000000
O O20 0.163966 0.640991 0.500000
O O21 0.436216 0.500000 0.250000
O O22 0.412889 0.588633 0.000000
#
# Coordination Sequence:
#
# PCOD9392841 Si02
#       8
#     8   8   8   8   8   8   8   8
#     4  10  19  32  46  64  89 118 152 186 217 257
#     4   7  13  25  42  61  82 105 134 171 213 257
#     4  11  21  33  47  64  87 118 151 186 222 259
#     4   9  16  27  42  63  86 109 139 178 219 262
#     4   9  15  26  44  63  81 107 138 175 221 263
#     4  10  20  32  43  60  84 113 147 184 219 260
#     4   9  16  28  45  65  85 109 140 177 220 265
#     4   9  19  31  43  60  85 115 150 185 218 255
#
# _framework density 20.560295
#
# number of rings (size 3 to 8) (size 9 to 14) (size 15 to 20)
#    0.000    2.750    0.000    5.250    0.000    3.500 
#    0.000    4.375    0.000    0.000    0.000    0.000 
#    0.000    1.000    0.000   11.000    0.000    5.125 
#
# Total GULP energy -356382.223602 kJ/mol
# GULP energy per Si atom -5568.472244 kJ/mol
# Density = 2.051350 g / cm^3
# Si number density = 20.560295 Si / 1000 Ang^3
#
#
#
# Elastic Constant Matrix: (Units=GPa)
#
#
# Indices 1 2 3 4 5 6 
#
# 1 196.7659 1.6421 61.2956 0.0000 0.0000 0.0000
# 2 1.6421 9.6125 -8.9735 0.0000 0.0000 0.0000
# 3 61.2956 -8.9735 142.2998 0.0000 0.0000 0.0000
# 4 0.0000 0.0000 0.0000 7.4909 0.0000 0.0000
# 5 0.0000 0.0000 0.0000 0.0000 38.7864 0.0000
# 6 0.0000 0.0000 0.0000 0.0000 0.0000 -2.5549
#
#
#
# Elastic Compliance Matrix: (Units=1/GPa)
#
#
# Indices 1 2 3 4 5 6 
#
# 1 0.005988 -0.003645 -0.002809 0.000000 0.000000 0.000000
# 2 -0.003645 0.112757 0.008681 0.000000 0.000000 0.000000
# 3 -0.002809 0.008681 0.008785 0.000000 0.000000 0.000000
# 4 0.000000 0.000000 0.000000 0.133496 0.000000 0.000000
# 5 0.000000 0.000000 0.000000 0.000000 0.025782 0.000000
# 6 0.000000 0.000000 0.000000 0.000000 0.000000 -0.391404
#
#
# Mechanical properties :
#
#
# Convention : Reuss Voigt Hill
#
# Bulk Modulus (GPa) = 7.57676 50.73408 29.15542
# Shear Modulus (GPa) = -76.85766 28.39208 -24.23279
#
# Velocity S-wave (km/s) = -6.12068 3.72010 -3.43683
# Velocity P-wave (km/s) = 6.80126 6.57127 1.24009
#
# Compressibility (1/GPa) = 0.13198250
#
# Stress axis : x y z
#
# Youngs Moduli (GPa) = 167.01002 8.86862 113.83264
#
# Poissons Ratio (x) = 0.03233 0.31976
# Poissons Ratio (y) = 0.60878 -0.98815
# Poissons Ratio (z) = 0.46914 -0.07699
#
# Static dielectric constant tensor:
#      x y z
#    x 1.806210 0.000000 0.000000 
#    y 0.000000 1.712240 0.000000 
#    z 0.000000 0.000000 1.694720 
# 
# From -- ./inp_files/6647.got.cif
#   From: 2010.05.17/outbox.cif.g08.bks.cpg/sg49_4_cif.got.tgz:6647.got - 2010.06.03 21:02:19.
