data_PCOD9392997
_publ_section_title
;
Structure prediction by ZEFSAII (Michael W. Deem and Ramdas Pophale) SiO2 
 PCOD9392997
Probable space group: P C C M
;
_chemical_formula_sum "Si O2"
_cell_formula_units_Z 58
_cell_length_a 19.681494
_cell_length_b 19.451295
_cell_length_c 9.001562
_cell_angle_alpha 90.000000
_cell_angle_beta 90.000000
_cell_angle_gamma 90.000000
_cell_volume 3446.072894
_symmetry_space_group_name_H-M "P C C M"
_symmetry_group_IT_number 49
_symmetry_cell_setting 'orthorhombic'
loop_
_space_group_symop_operation_xyz
x,y,z
-x,-y,z
x,-y,1/2-z
-x,y,1/2-z
-x,-y,-z
x,y,-z
-x,y,1/2+z
x,-y,1/2+z
loop_
_atom_site_type_symbol
_atom_site_label
_atom_site_fract_x
_atom_site_fract_y
_atom_site_fract_z
Si Si1 0.784738 0.811863 0.176156
Si Si2 0.260147 0.571695 0.321471
Si Si3 0.069064 0.237304 0.822008
Si Si4 0.314843 0.704158 0.824090
Si Si5 0.323833 0.074547 0.177072
Si Si6 0.426221 0.182748 0.322453
Si Si7 0.000000 0.500000 0.250000
Si Si8 0.110049 0.387701 0.828736
O O1 0.864248 0.807549 0.210278
O O2 0.745617 0.754013 0.269118
O O3 0.746240 0.883401 0.202888
O O4 0.776745 0.795447 0.000000
O O5 0.281328 0.500000 0.250000
O O6 0.260443 0.567025 0.500000
O O7 0.306457 0.634028 0.265557
O O8 0.182388 0.587393 0.266605
O O9 0.083981 0.315389 0.764275
O O10 0.000000 0.211878 0.750000
O O11 0.060113 0.239867 0.000000
O O12 0.383292 0.747489 0.794985
O O13 0.309386 0.691714 0.000000
O O14 0.382615 0.121245 0.249808
O O15 0.322276 0.000000 0.250000
O O16 0.334452 0.069686 0.000000
O O17 0.500000 0.185884 0.250000
O O18 0.430481 0.172781 0.500000
O O19 0.947229 0.553302 0.174867
O O20 0.124921 0.371781 0.000000
#
# Coordination Sequence:
#
# PCOD9392997 Si02
#       8
#     8   8   8   8   8   8   2   8
#     4   9  18  34  54  74 102 140 180 221 266 320
#     4  11  21  35  51  72 100 135 179 227 275 323
#     4  10  19  33  48  69  96 130 175 222 272 320
#     4  10  20  34  54  80 106 137 178 223 265 315
#     4  10  20  35  57  84 114 147 179 215 261 310
#     4  10  21  37  58  86 118 147 180 213 252 309
#     4  12  18  32  40  62 100 136 174 208 274 328
#     4  10  20  30  43  62  92 131 170 213 262 320
#
# _framework density 16.830753000000001
#
# number of rings (size 3 to 8) (size 9 to 14) (size 15 to 20)
#    0.000    1.931    2.759    1.862    0.000    3.034 
#    0.000    1.379    0.000    0.828    0.000    5.793 
#    0.000    0.000    0.000    0.000    0.000    0.000 
#
# Total GULP energy -323403.939656 kJ/mol
# GULP energy per Si atom -5575.929994 kJ/mol
# Density = 1.679245 g / cm^3
# Si number density = 16.830753 Si / 1000 Ang^3
#
#
#
# Elastic Constant Matrix: (Units=GPa)
#
#
# Indices 1 2 3 4 5 6 
#
# 1 132.9338 69.4467 58.8663 0.0000 0.0000 0.0000
# 2 69.4467 116.9258 62.4867 0.0000 0.0000 0.0000
# 3 58.8663 62.4867 70.2681 0.0000 0.0000 0.0000
# 4 0.0000 0.0000 0.0000 25.0460 0.0000 0.0000
# 5 0.0000 0.0000 0.0000 0.0000 24.1209 0.0000
# 6 0.0000 0.0000 0.0000 0.0000 0.0000 12.7416
#
#
#
# Elastic Compliance Matrix: (Units=1/GPa)
#
#
# Indices 1 2 3 4 5 6 
#
# 1 0.012682 -0.003534 -0.007481 0.000000 0.000000 0.000000
# 2 -0.003534 0.017282 -0.012408 0.000000 0.000000 0.000000
# 3 -0.007481 -0.012408 0.031532 0.000000 0.000000 0.000000
# 4 0.000000 0.000000 0.000000 0.039926 0.000000 0.000000
# 5 0.000000 0.000000 0.000000 0.000000 0.041458 0.000000
# 6 0.000000 0.000000 0.000000 0.000000 0.000000 0.078483
#
#
# Mechanical properties :
#
#
# Convention : Reuss Voigt Hill
#
# Bulk Modulus (GPa) = 68.25923 77.96969 73.11446
# Shear Modulus (GPa) = 18.30875 21.00359 19.65617
#
# Velocity S-wave (km/s) = 3.30178 3.53644 3.42112
# Velocity P-wave (km/s) = 7.42832 7.94364 7.69030
#
# Compressibility (1/GPa) = 0.01465003
#
# Stress axis : x y z
#
# Youngs Moduli (GPa) = 78.85405 57.86222 31.71334
#
# Poissons Ratio (x) = 0.20449 0.23725
# Poissons Ratio (y) = 0.27867 0.39350
# Poissons Ratio (z) = 0.58992 0.71795
#
# Static dielectric constant tensor:
#      x y z
#    x 1.564760 0.000000 0.000000 
#    y 0.000000 1.561600 0.000000 
#    z 0.000000 0.000000 1.570290 
# 
# From -- ./inp_files/5081.got.cif
#   From: 2010.05.17/outbox.cif.g08.bks.cpg/sg49_3_cif.got.tgz:5081.got - 2010.06.03 21:02:19.
