data_PCOD9392685
_publ_section_title
;
Structure prediction by ZEFSAII (Michael W. Deem and Ramdas Pophale) SiO2 
 PCOD9392685
Probable space group: P C C M
;
_chemical_formula_sum "Si O2"
_cell_formula_units_Z 44
_cell_length_a 13.210001
_cell_length_b 22.017382
_cell_length_c 9.220192
_cell_angle_alpha 90.000000
_cell_angle_beta 90.000000
_cell_angle_gamma 90.000000
_cell_volume 2681.689508
_symmetry_space_group_name_H-M "P C C M"
_symmetry_group_IT_number 49
_symmetry_cell_setting 'orthorhombic'
loop_
_space_group_symop_operation_xyz
x,y,z
-x,-y,z
x,-y,1/2-z
-x,y,1/2-z
-x,-y,-z
x,y,-z
-x,y,1/2+z
x,-y,1/2+z
loop_
_atom_site_type_symbol
_atom_site_label
_atom_site_fract_x
_atom_site_fract_y
_atom_site_fract_z
Si Si1 0.393328 0.882773 0.669092
Si Si2 0.773914 0.802841 0.676040
Si Si3 0.109519 0.557436 0.327897
Si Si4 0.732399 0.000000 0.750000
Si Si5 0.889095 0.695585 0.173535
Si Si6 0.094120 0.084362 0.340996
O O1 0.500000 0.888296 0.750000
O O2 0.405337 0.867102 0.500000
O O3 0.325742 0.832510 0.752496
O O4 0.336432 0.948109 0.678628
O O5 0.765184 0.799406 0.500000
O O6 0.811398 0.740929 0.748556
O O7 0.860936 0.852168 0.713105
O O8 0.162333 0.500000 0.250000
O O9 0.099733 0.545961 0.500000
O O10 0.149196 0.625910 0.309796
O O11 0.000000 0.560695 0.250000
O O12 0.811631 0.038523 0.845022
O O13 0.000000 0.701226 0.250000
O O14 0.898944 0.707564 0.000000
O O15 0.053639 0.094477 0.500000
O O16 0.000000 0.063412 0.250000
#
# Coordination Sequence:
#
# PCOD9392685 Si02
#       6
#     8   8   8   4   8   8
#     4  11  23  39  58  76  96 121 153 198 250 301
#     4  10  21  36  52  71  96 126 163 204 246 294
#     4   9  16  25  39  61  92 130 170 207 240 277
#     4  10  22  36  54  74  96 124 158 194 236 288
#     4  10  19  30  46  70 100 135 172 207 244 285
#     4  10  21  34  48  69  96 125 158 194 233 279
#
# _framework density 16.407568000000001
#
# number of rings (size 3 to 8) (size 9 to 14) (size 15 to 20)
#    0.000    2.000    0.000    4.364    0.000   11.636 
#    0.000    0.000    0.000    0.000    0.000    0.000 
#    0.000    0.727    0.000    7.636    0.000    4.182 
#
# Total GULP energy -245094.534311 kJ/mol
# GULP energy per Si atom -5570.330325 kJ/mol
# Density = 1.637022 g / cm^3
# Si number density = 16.407568 Si / 1000 Ang^3
#
#
#
# Elastic Constant Matrix: (Units=GPa)
#
#
# Indices 1 2 3 4 5 6 
#
# 1 88.5234 43.9855 50.4944 0.0000 0.0000 0.0000
# 2 43.9855 134.6002 58.9913 0.0000 0.0000 0.0000
# 3 50.4944 58.9913 103.8978 0.0000 0.0000 0.0000
# 4 0.0000 0.0000 0.0000 1098.0361 0.0000 0.0000
# 5 0.0000 0.0000 0.0000 0.0000 17.7796 0.0000
# 6 0.0000 0.0000 0.0000 0.0000 0.0000 12.4956
#
#
#
# Elastic Compliance Matrix: (Units=1/GPa)
#
#
# Indices 1 2 3 4 5 6 
#
# 1 0.016217 -0.002457 -0.006487 0.000000 0.000000 0.000000
# 2 -0.002457 0.010263 -0.004633 0.000000 0.000000 0.000000
# 3 -0.006487 -0.004633 0.015408 0.000000 0.000000 0.000000
# 4 0.000000 0.000000 0.000000 0.000911 0.000000 0.000000
# 5 0.000000 0.000000 0.000000 0.000000 0.056244 0.000000
# 6 0.000000 0.000000 0.000000 0.000000 0.000000 0.080028
#
#
# Mechanical properties :
#
#
# Convention : Reuss Voigt Hill
#
# Bulk Modulus (GPa) = 67.86546 70.44042 69.15294
# Shear Modulus (GPa) = 23.68149 237.23228 130.45688
#
# Velocity S-wave (km/s) = 3.80324 12.03748 8.92652
# Velocity P-wave (km/s) = 7.79347 15.36965 12.18533
#
# Compressibility (1/GPa) = 0.01473504
#
# Stress axis : x y z
#
# Youngs Moduli (GPa) = 61.66305 97.43989 64.90146
#
# Poissons Ratio (x) = 0.23937 0.42100
# Poissons Ratio (y) = 0.15148 0.30069
# Poissons Ratio (z) = 0.39999 0.45145
#
# Static dielectric constant tensor:
#      x y z
#    x 1.509720 0.000000 0.000000 
#    y 0.000000 1.599680 0.000000 
#    z 0.000000 0.000000 1.567700 
# 
# From -- ./inp_files/2854.got.cif
#   From: 2010.05.17/outbox.cif.g08.bks.cpg/sg49_2_cif.got.tgz:2854.got - 2010.06.03 21:02:19.
