data_PCOD9392532
_publ_section_title
;
Structure prediction by ZEFSAII (Michael W. Deem and Ramdas Pophale) SiO2 
 PCOD9392532
Probable space group: P C C M
;
_chemical_formula_sum "Si O2"
_cell_formula_units_Z 64
_cell_length_a 7.996399
_cell_length_b 12.968981
_cell_length_c 30.067289
_cell_angle_alpha 90.000000
_cell_angle_beta 90.000000
_cell_angle_gamma 90.000000
_cell_volume 3118.132617
_symmetry_space_group_name_H-M "P C C M"
_symmetry_group_IT_number 49
_symmetry_cell_setting 'orthorhombic'
loop_
_space_group_symop_operation_xyz
x,y,z
-x,-y,z
x,-y,1/2-z
-x,y,1/2-z
-x,-y,-z
x,y,-z
-x,y,1/2+z
x,-y,1/2+z
loop_
_atom_site_type_symbol
_atom_site_label
_atom_site_fract_x
_atom_site_fract_y
_atom_site_fract_z
Si Si1 0.302808 0.277800 0.703637
Si Si2 0.195409 0.806054 0.392534
Si Si3 0.297904 0.500838 0.830752
Si Si4 0.813579 0.583262 0.576505
Si Si5 0.698459 0.995743 0.449110
Si Si6 0.199026 0.375580 0.951509
Si Si7 0.797333 0.203400 0.107214
Si Si8 0.703810 0.730331 0.199387
O O1 0.268373 0.400927 0.700957
O O2 0.243232 0.219439 0.659310
O O3 0.234999 0.241018 0.751254
O O4 0.503120 0.268357 0.702167
O O5 0.244832 0.903647 0.421885
O O6 0.268636 0.701810 0.414806
O O7 0.244064 0.804062 0.340918
O O8 0.996887 0.795930 0.395268
O O9 0.500000 0.500000 0.840007
O O10 0.194472 0.532146 0.874499
O O11 0.248872 0.388204 0.812979
O O12 0.730525 0.491340 0.549100
O O13 0.729707 0.694268 0.582109
O O14 0.000428 0.605784 0.558386
O O15 0.767459 0.990329 0.500000
O O16 0.500000 0.000000 0.452882
O O17 0.739753 0.897299 0.418618
O O18 0.216897 0.327824 0.000000
#
# Coordination Sequence:
#
# PCOD9392532 Si02
#       8
#     8   8   8   8   8   8   8   8
#     4   9  19  34  55  85 119 161 200 239 290 349
#     4  11  22  37  62  88 117 155 195 246 300 347
#     4   9  16  29  51  80 115 157 201 241 282 340
#     4   9  17  31  51  81 115 153 187 227 287 342
#     4  11  25  45  67  88 113 149 197 248 296 350
#     4  10  19  32  53  79 114 154 194 232 286 355
#     4  10  22  38  59  88 121 151 195 244 295 348
#     4  10  18  33  57  84 119 159 202 241 288 351
#
# _framework density 20.525105
#
# number of rings (size 3 to 8) (size 9 to 14) (size 15 to 20)
#    0.000    2.125    1.250    2.625    0.000    5.500 
#    0.000    0.625    0.000    6.750    0.000    0.000 
#    0.000    0.000    0.000    0.000    0.000    0.000 
#
# Total GULP energy -356791.650587 kJ/mol
# GULP energy per Si atom -5574.869540 kJ/mol
# Density = 2.047839 g / cm^3
# Si number density = 20.525105 Si / 1000 Ang^3
#
#
#
# Elastic Constant Matrix: (Units=GPa)
#
#
# Indices 1 2 3 4 5 6 
#
# 1 28.6719 9.8428 18.5249 0.0000 0.0000 0.0000
# 2 9.8428 129.8105 75.6532 0.0000 0.0000 0.0000
# 3 18.5249 75.6532 159.6005 0.0000 0.0000 0.0000
# 4 0.0000 0.0000 0.0000 21.4865 0.0000 0.0000
# 5 0.0000 0.0000 0.0000 0.0000 52.1554 0.0000
# 6 0.0000 0.0000 0.0000 0.0000 0.0000 13.8632
#
#
#
# Elastic Compliance Matrix: (Units=1/GPa)
#
#
# Indices 1 2 3 4 5 6 
#
# 1 0.037722 -0.000426 -0.004176 0.000000 0.000000 0.000000
# 2 -0.000426 0.010649 -0.004998 0.000000 0.000000 0.000000
# 3 -0.004176 -0.004998 0.009120 0.000000 0.000000 0.000000
# 4 0.000000 0.000000 0.000000 0.046541 0.000000 0.000000
# 5 0.000000 0.000000 0.000000 0.000000 0.019173 0.000000
# 6 0.000000 0.000000 0.000000 0.000000 0.000000 0.072134
#
#
# Mechanical properties :
#
#
# Convention : Reuss Voigt Hill
#
# Bulk Modulus (GPa) = 26.11737 58.45831 42.28784
# Shear Modulus (GPa) = 21.99708 31.77182 26.88445
#
# Velocity S-wave (km/s) = 3.27726 3.93867 3.62309
# Velocity P-wave (km/s) = 5.20315 7.01622 6.17657
#
# Compressibility (1/GPa) = 0.03828870
#
# Stress axis : x y z
#
# Youngs Moduli (GPa) = 26.50976 93.90719 109.65355
#
# Poissons Ratio (x) = 0.04003 0.45795
# Poissons Ratio (y) = 0.01130 0.54807
# Poissons Ratio (z) = 0.11071 0.46937
#
# Static dielectric constant tensor:
#      x y z
#    x 1.734400 0.000000 0.000000 
#    y 0.000000 1.769330 0.000000 
#    z 0.000000 0.000000 1.788120 
# 
# From -- ./inp_files/26440.got.cif
#   From: 2010.05.17/outbox.cif.g08.bks.cpg/sg49_14_cif.got.tgz:26440.got - 2010.06.03 21:02:19.
