data_PCOD9392088
_publ_section_title
;
Structure prediction by ZEFSAII (Michael W. Deem and Ramdas Pophale) SiO2 
 PCOD9392088
Probable space group: P C C M
;
_chemical_formula_sum "Si O2"
_cell_formula_units_Z 56
_cell_length_a 26.288838
_cell_length_b 5.115949
_cell_length_c 26.430240
_cell_angle_alpha 90.000000
_cell_angle_beta 90.000000
_cell_angle_gamma 90.000000
_cell_volume 3554.665207
_symmetry_space_group_name_H-M "P C C M"
_symmetry_group_IT_number 49
_symmetry_cell_setting 'orthorhombic'
loop_
_space_group_symop_operation_xyz
x,y,z
-x,-y,z
x,-y,1/2-z
-x,y,1/2-z
-x,-y,-z
x,y,-z
-x,y,1/2+z
x,-y,1/2+z
loop_
_atom_site_type_symbol
_atom_site_label
_atom_site_fract_x
_atom_site_fract_y
_atom_site_fract_z
Si Si1 0.646158 0.674828 0.059387
Si Si2 0.533142 0.760350 0.939988
Si Si3 0.941698 0.578722 0.841768
Si Si4 0.120222 0.538496 0.557565
Si Si5 0.177692 0.033627 0.405903
Si Si6 0.287244 0.194524 0.440632
Si Si7 0.884906 0.072587 0.806114
O O1 0.589540 0.708666 0.081213
O O2 0.682921 0.447747 0.079854
O O3 0.674658 0.950010 0.061401
O O4 0.639400 0.600117 0.000000
O O5 0.500000 0.500000 0.936335
O O6 0.500000 0.000000 0.918761
O O7 0.540928 0.820619 0.000000
O O8 0.923228 0.575510 0.900219
O O9 0.907400 0.362637 0.812940
O O10 0.000000 0.500000 0.836960
O O11 0.928894 0.864088 0.820416
O O12 0.103089 0.571710 0.500000
O O13 0.143814 0.252483 0.565960
O O14 0.163626 0.753390 0.570307
O O15 0.235736 0.116107 0.412563
O O16 0.158780 0.034091 0.348015
O O17 0.273537 0.239871 0.500000
O O18 0.867865 0.000000 0.750000
#
# Coordination Sequence:
#
# PCOD9392088 Si02
#       7
#     8   8   8   8   8   8   8
#     4   9  17  25  35  55  78 105 142 179 214 247
#     4   9  15  23  34  47  69 103 142 180 210 238
#     4  10  21  34  50  73  93 113 144 177 216 264
#     4  10  19  32  48  66  91 118 145 176 211 260
#     4  10  20  32  47  67  87 114 150 180 218 266
#     4  10  17  26  40  57  81 107 136 177 216 251
#     4  10  21  36  52  69  90 114 144 183 219 263
#
# _framework density 15.753945999999999
#
# number of rings (size 3 to 8) (size 9 to 14) (size 15 to 20)
#    0.000    2.286    0.000    3.857    0.000    6.571 
#    0.000    0.000    0.000    5.143    0.000    0.000 
#    0.000    0.000    0.000    0.000    0.000   10.714 
#
# Total GULP energy -312242.171359 kJ/mol
# GULP energy per Si atom -5575.753060 kJ/mol
# Density = 1.571809 g / cm^3
# Si number density = 15.753946 Si / 1000 Ang^3
#
#
#
# Elastic Constant Matrix: (Units=GPa)
#
#
# Indices 1 2 3 4 5 6 
#
# 1 62.5030 -0.0184 7.5944 0.0000 0.0000 0.0000
# 2 -0.0184 54.0667 11.1893 0.0000 0.0000 0.0000
# 3 7.5944 11.1893 64.5022 0.0000 0.0000 0.0000
# 4 0.0000 0.0000 0.0000 8.1752 0.0000 0.0000
# 5 0.0000 0.0000 0.0000 0.0000 2.9502 0.0000
# 6 0.0000 0.0000 0.0000 0.0000 0.0000 14.0376
#
#
#
# Elastic Compliance Matrix: (Units=1/GPa)
#
#
# Indices 1 2 3 4 5 6 
#
# 1 0.016240 0.000416 -0.001984 0.000000 0.000000 0.000000
# 2 0.000416 0.019195 -0.003379 0.000000 0.000000 0.000000
# 3 -0.001984 -0.003379 0.016323 0.000000 0.000000 0.000000
# 4 0.000000 0.000000 0.000000 0.122321 0.000000 0.000000
# 5 0.000000 0.000000 0.000000 0.000000 0.338956 0.000000
# 6 0.000000 0.000000 0.000000 0.000000 0.000000 0.071237
#
#
# Mechanical properties :
#
#
# Convention : Reuss Voigt Hill
#
# Bulk Modulus (GPa) = 23.88644 24.28917 24.08780
# Shear Modulus (GPa) = 8.22205 15.85305 12.03755
#
# Velocity S-wave (km/s) = 2.28700 3.17565 2.76723
# Velocity P-wave (km/s) = 4.70839 5.37565 5.05305
#
# Compressibility (1/GPa) = 0.04186476
#
# Stress axis : x y z
#
# Youngs Moduli (GPa) = 61.57458 52.09675 61.26288
#
# Poissons Ratio (x) = -0.02168 0.12157
# Poissons Ratio (y) = -0.02563 0.20699
# Poissons Ratio (z) = 0.12218 0.17602
#
# Static dielectric constant tensor:
#      x y z
#    x 1.524260 0.000000 0.000000 
#    y 0.000000 1.540540 0.000000 
#    z 0.000000 0.000000 1.513370 
# 
# From -- ./inp_files/21225.got.cif
#   From: 2010.05.17/outbox.cif.g08.bks.cpg/sg49_11_cif.got.tgz:21225.got - 2010.06.03 21:02:19.
