data_PCOD9392473
_publ_section_title
;
Structure prediction by ZEFSAII (Michael W. Deem and Ramdas Pophale) SiO2 
 PCOD9392473
Probable space group: P C C M
;
_chemical_formula_sum "Si O2"
_cell_formula_units_Z 64
_cell_length_a 23.838679
_cell_length_b 18.980739
_cell_length_c 8.267471
_cell_angle_alpha 90.000000
_cell_angle_beta 90.000000
_cell_angle_gamma 90.000000
_cell_volume 3740.830093
_symmetry_space_group_name_H-M "P C C M"
_symmetry_group_IT_number 49
_symmetry_cell_setting 'orthorhombic'
loop_
_space_group_symop_operation_xyz
x,y,z
-x,-y,z
x,-y,1/2-z
-x,y,1/2-z
-x,-y,-z
x,y,-z
-x,y,1/2+z
x,-y,1/2+z
loop_
_atom_site_type_symbol
_atom_site_label
_atom_site_fract_x
_atom_site_fract_y
_atom_site_fract_z
Si Si1 0.348523 0.308222 0.686768
Si Si2 0.269242 0.423393 0.813927
Si Si3 0.060258 0.289054 0.806638
Si Si4 0.174459 0.344116 0.309607
Si Si5 0.938855 0.874819 0.806768
Si Si6 0.182984 0.922915 0.806661
Si Si7 0.564332 0.578155 0.305465
Si Si8 0.252847 0.788387 0.803303
O O1 0.362145 0.292071 0.500000
O O2 0.301016 0.368211 0.700151
O O3 0.401003 0.353197 0.756234
O O4 0.314113 0.240337 0.754975
O O5 0.281494 0.500000 0.750000
O O6 0.204112 0.405078 0.791595
O O7 0.286278 0.414027 0.000000
O O8 0.110247 0.332519 0.730140
O O9 0.064718 0.207063 0.752272
O O10 0.000000 0.315010 0.750000
O O11 0.064510 0.289917 0.000000
O O12 0.182471 0.356430 0.500000
O O13 0.207001 0.271677 0.263751
O O14 0.881535 0.910404 0.747242
O O15 0.000000 0.902411 0.750000
O O16 0.938910 0.877259 0.000000
O O17 0.225591 0.861730 0.746618
O O18 0.200803 0.000000 0.750000
O O19 0.183380 0.919660 0.000000
O O20 0.584677 0.500000 0.250000
O O21 0.500000 0.583553 0.250000
O O22 0.567519 0.578368 0.500000
O O23 0.256803 0.790888 0.000000
#
# Coordination Sequence:
#
# PCOD9392473 Si02
#       8
#     8   8   8   8   8   8   8   8
#     4   9  18  33  51  72  95 129 167 205 240 279
#     4  11  21  32  47  70  96 124 156 195 238 282
#     4  10  19  30  47  70  92 115 148 189 233 283
#     4  10  18  32  51  69  90 118 151 191 237 285
#     4  10  20  33  49  69  93 120 155 195 236 291
#     4  11  21  34  50  69  94 126 157 194 244 298
#     4  10  19  30  47  70 104 140 176 205 237 278
#     4   8  16  31  50  68  90 119 156 194 238 285
#
# _framework density 17.108502000000001
#
# number of rings (size 3 to 8) (size 9 to 14) (size 15 to 20)
#    0.000    2.125    1.250    4.500    0.000    3.250 
#    0.000    1.875    0.000    0.375    0.000    2.625 
#    0.000    0.500    0.000    6.250    0.000    0.000 
#
# Total GULP energy -356582.362523 kJ/mol
# GULP energy per Si atom -5571.599414 kJ/mol
# Density = 1.706956 g / cm^3
# Si number density = 17.108502 Si / 1000 Ang^3
#
#
#
# Elastic Constant Matrix: (Units=GPa)
#
#
# Indices 1 2 3 4 5 6 
#
# 1 98.1012 43.2294 6.4382 0.0000 0.0000 0.0000
# 2 43.2294 63.7504 2.4706 0.0000 0.0000 0.0000
# 3 6.4382 2.4706 34.6927 0.0000 0.0000 0.0000
# 4 0.0000 0.0000 0.0000 14.9873 0.0000 0.0000
# 5 0.0000 0.0000 0.0000 0.0000 9.4816 0.0000
# 6 0.0000 0.0000 0.0000 0.0000 0.0000 17.1572
#
#
#
# Elastic Compliance Matrix: (Units=1/GPa)
#
#
# Indices 1 2 3 4 5 6 
#
# 1 0.014678 -0.009875 -0.002021 0.000000 0.000000 0.000000
# 2 -0.009875 0.022373 0.000239 0.000000 0.000000 0.000000
# 3 -0.002021 0.000239 0.029182 0.000000 0.000000 0.000000
# 4 0.000000 0.000000 0.000000 0.066723 0.000000 0.000000
# 5 0.000000 0.000000 0.000000 0.000000 0.105467 0.000000
# 6 0.000000 0.000000 0.000000 0.000000 0.000000 0.058285
#
#
# Mechanical properties :
#
#
# Convention : Reuss Voigt Hill
#
# Bulk Modulus (GPa) = 23.29864 33.42451 28.36158
# Shear Modulus (GPa) = 14.95545 17.95230 16.45387
#
# Velocity S-wave (km/s) = 2.95982 3.24284 3.10455
# Velocity P-wave (km/s) = 5.03273 5.79659 5.42812
#
# Compressibility (1/GPa) = 0.04292096
#
# Stress axis : x y z
#
# Youngs Moduli (GPa) = 68.13146 44.69695 34.26715
#
# Poissons Ratio (x) = 0.44136 0.06924
# Poissons Ratio (y) = 0.67277 -0.00820
# Poissons Ratio (z) = 0.13767 -0.01069
#
# Static dielectric constant tensor:
#      x y z
#    x 1.638210 0.000000 0.000000 
#    y 0.000000 1.604080 0.000000 
#    z 0.000000 0.000000 1.598360 
# 
# From -- ./inp_files/5384.got.cif
#   From: 2010.05.17/outbox.cif.g08.bks.cpg/sg49_3_cif.got.tgz:5384.got - 2010.06.03 21:02:19.
