data_PCOD9392897
_publ_section_title
;
Structure prediction by ZEFSAII (Michael W. Deem and Ramdas Pophale) SiO2 
 PCOD9392897
Probable space group: P C C M
;
_chemical_formula_sum "Si O2"
_cell_formula_units_Z 64
_cell_length_a 20.539200
_cell_length_b 20.342970
_cell_length_c 8.799225
_cell_angle_alpha 90.000000
_cell_angle_beta 90.000000
_cell_angle_gamma 90.000000
_cell_volume 3676.565482
_symmetry_space_group_name_H-M "P C C M"
_symmetry_group_IT_number 49
_symmetry_cell_setting 'orthorhombic'
loop_
_space_group_symop_operation_xyz
x,y,z
-x,-y,z
x,-y,1/2-z
-x,y,1/2-z
-x,-y,-z
x,y,-z
-x,y,1/2+z
x,-y,1/2+z
loop_
_atom_site_type_symbol
_atom_site_label
_atom_site_fract_x
_atom_site_fract_y
_atom_site_fract_z
Si Si1 0.689787 0.837046 0.318018
Si Si2 0.759389 0.289080 0.182324
Si Si3 0.202941 0.931372 0.319327
Si Si4 0.793664 0.567222 0.680789
Si Si5 0.428430 0.070510 0.682785
Si Si6 0.932415 0.114274 0.179537
Si Si7 0.104178 0.247947 0.823812
Si Si8 0.067509 0.398693 0.176681
O O1 0.697721 0.845615 0.500000
O O2 0.699505 0.759667 0.285761
O O3 0.748292 0.875192 0.236761
O O4 0.622528 0.872372 0.275965
O O5 0.755431 0.365914 0.223502
O O6 0.822168 0.260632 0.268946
O O7 0.772331 0.286240 0.000000
O O8 0.201313 0.934370 0.500000
O O9 0.130943 0.917629 0.255277
O O10 0.226525 0.000000 0.250000
O O11 0.767172 0.500000 0.750000
O O12 0.794751 0.562061 0.500000
O O13 0.867743 0.576653 0.739555
O O14 0.500000 0.083168 0.750000
O O15 0.432186 0.065427 0.500000
O O16 0.406589 0.000000 0.750000
O O17 0.926303 0.191854 0.219388
O O18 0.000000 0.089904 0.250000
O O19 0.931249 0.104185 0.000000
O O20 0.070592 0.319052 0.814038
O O21 0.102559 0.225952 0.000000
O O22 0.000000 0.420912 0.250000
O O23 0.070792 0.417487 0.000000
#
# Coordination Sequence:
#
# PCOD9392897 Si02
#       8
#     8   8   8   8   8   8   8   8
#     4  10  20  36  58  84 110 142 180 222 263 310
#     4   9  18  33  54  76 102 134 170 212 262 311
#     4  12  25  40  57  78 102 133 172 217 269 321
#     4  10  20  34  51  71  97 131 165 206 261 319
#     4  10  20  34  54  81 117 155 191 221 259 306
#     4  12  24  38  54  72  96 127 167 217 271 327
#     4  10  19  32  50  74  98 125 162 208 264 318
#     4  10  20  32  47  68  94 122 161 207 255 319
#
# _framework density 17.407550000000001
#
# number of rings (size 3 to 8) (size 9 to 14) (size 15 to 20)
#    0.000    1.625    1.250    4.875    0.000    5.500 
#    0.000    2.500    0.000    0.000    0.000    0.000 
#    0.000    0.500    0.000    6.250    0.000    0.000 
#
# Total GULP energy -357551.074247 kJ/mol
# GULP energy per Si atom -5586.735535 kJ/mol
# Density = 1.736793 g / cm^3
# Si number density = 17.407550 Si / 1000 Ang^3
#
#
#
# Elastic Constant Matrix: (Units=GPa)
#
#
# Indices 1 2 3 4 5 6 
#
# 1 77.2605 48.6134 33.1903 0.0000 0.0000 0.0000
# 2 48.6134 117.6553 40.6701 0.0000 0.0000 0.0000
# 3 33.1903 40.6701 69.4205 0.0000 0.0000 0.0000
# 4 0.0000 0.0000 0.0000 24.6382 0.0000 0.0000
# 5 0.0000 0.0000 0.0000 0.0000 10.1164 0.0000
# 6 0.0000 0.0000 0.0000 0.0000 0.0000 19.4256
#
#
#
# Elastic Compliance Matrix: (Units=1/GPa)
#
#
# Indices 1 2 3 4 5 6 
#
# 1 0.019112 -0.005941 -0.005657 0.000000 0.000000 0.000000
# 2 -0.005941 0.012505 -0.004485 0.000000 0.000000 0.000000
# 3 -0.005657 -0.004485 0.019737 0.000000 0.000000 0.000000
# 4 0.000000 0.000000 0.000000 0.040587 0.000000 0.000000
# 5 0.000000 0.000000 0.000000 0.000000 0.098849 0.000000
# 6 0.000000 0.000000 0.000000 0.000000 0.000000 0.051478
#
#
# Mechanical properties :
#
#
# Convention : Reuss Voigt Hill
#
# Bulk Modulus (GPa) = 52.11876 56.58709 54.35293
# Shear Modulus (GPa) = 17.80433 20.29355 19.04894
#
# Velocity S-wave (km/s) = 3.20158 3.41807 3.31160
# Velocity P-wave (km/s) = 6.60849 6.93941 6.77597
#
# Compressibility (1/GPa) = 0.01918695
#
# Stress axis : x y z
#
# Youngs Moduli (GPa) = 52.32423 79.96987 50.66576
#
# Poissons Ratio (x) = 0.47512 0.28660
# Poissons Ratio (y) = 0.31087 0.22725
# Poissons Ratio (z) = 0.29598 0.35869
#
# Static dielectric constant tensor:
#      x y z
#    x 1.565690 0.000000 0.000000 
#    y 0.000000 1.653060 0.000000 
#    z 0.000000 0.000000 1.583200 
# 
# From -- ./inp_files/6106.got.cif
#   From: 2010.05.17/outbox.cif.g08.bks.cpg/sg49_4_cif.got.tgz:6106.got - 2010.06.03 21:02:19.
