data_PCOD9392012
_publ_section_title
;
Structure prediction by ZEFSAII (Michael W. Deem and Ramdas Pophale) SiO2 
 PCOD9392012
Probable space group: P C C M
;
_chemical_formula_sum "Si O2"
_cell_formula_units_Z 40
_cell_length_a 9.156768
_cell_length_b 27.633095
_cell_length_c 8.700607
_cell_angle_alpha 90.000000
_cell_angle_beta 90.000000
_cell_angle_gamma 90.000000
_cell_volume 2201.513197
_symmetry_space_group_name_H-M "P C C M"
_symmetry_group_IT_number 49
_symmetry_cell_setting 'orthorhombic'
loop_
_space_group_symop_operation_xyz
x,y,z
-x,-y,z
x,-y,1/2-z
-x,y,1/2-z
-x,-y,-z
x,y,-z
-x,y,1/2+z
x,-y,1/2+z
loop_
_atom_site_type_symbol
_atom_site_label
_atom_site_fract_x
_atom_site_fract_y
_atom_site_fract_z
Si Si1 0.336659 0.655075 0.684087
Si Si2 0.834627 0.851845 0.315626
Si Si3 0.334699 0.451062 0.816164
Si Si4 0.163235 0.254601 0.683849
Si Si5 0.833698 0.950440 0.816311
O O1 0.500000 0.656779 0.750000
O O2 0.342041 0.657910 0.500000
O O3 0.271741 0.601839 0.724594
O O4 0.250127 0.700341 0.749669
O O5 0.840137 0.857520 0.500000
O O6 0.771384 0.798743 0.278245
O O7 0.765771 0.899910 0.241717
O O8 0.000000 0.849716 0.250000
O O9 0.264272 0.500000 0.750000
O O10 0.500000 0.449983 0.750000
O O11 0.341678 0.454970 0.000000
O O12 0.157087 0.257816 0.500000
O O13 0.000000 0.256283 0.750000
O O14 0.000000 0.949700 0.750000
O O15 0.766596 0.000000 0.750000
O O16 0.839091 0.951996 0.000000
#
# Coordination Sequence:
#
# PCOD9392012 Si02
#       5
#     8   8   8   8   8
#     4  10  20  33  50  73 100 127 159 197 238 281
#     4   9  16  26  39  57  81 111 148 186 225 273
#     4   9  16  26  43  67  93 121 151 188 231 277
#     4  10  20  33  50  70  95 128 163 198 238 284
#     4  10  16  22  33  50  75 107 142 181 225 271
#
# _framework density 18.169319999999999
#
# number of rings (size 3 to 8) (size 9 to 14) (size 15 to 20)
#    0.000    2.400    0.000    6.600    0.000    4.800 
#    0.000    0.000    0.000    0.600    0.000    4.200 
#    0.000    0.800    0.000    8.400    0.000    6.200 
#
# Total GULP energy -222760.632616 kJ/mol
# GULP energy per Si atom -5569.015815 kJ/mol
# Density = 1.812797 g / cm^3
# Si number density = 18.169320 Si / 1000 Ang^3
#
#
#
# Elastic Constant Matrix: (Units=GPa)
#
#
# Indices 1 2 3 4 5 6 
#
# 1 10.5723 35.3735 9.9351 0.0000 0.0000 0.0000
# 2 35.3735 249.7490 85.8136 0.0000 0.0000 0.0000
# 3 9.9351 85.8136 108.4635 0.0000 0.0000 0.0000
# 4 0.0000 0.0000 0.0000 36.7180 0.0000 0.0000
# 5 0.0000 0.0000 0.0000 0.0000 15.4424 0.0000
# 6 0.0000 0.0000 0.0000 0.0000 0.0000 26.9316
#
#
#
# Elastic Compliance Matrix: (Units=1/GPa)
#
#
# Indices 1 2 3 4 5 6 
#
# 1 0.181827 -0.027509 0.005109 0.000000 0.000000 0.000000
# 2 -0.027509 0.009661 -0.005124 0.000000 0.000000 0.000000
# 3 0.005109 -0.005124 0.012805 0.000000 0.000000 0.000000
# 4 0.000000 0.000000 0.000000 0.027235 0.000000 0.000000
# 5 0.000000 0.000000 0.000000 0.000000 0.064757 0.000000
# 6 0.000000 0.000000 0.000000 0.000000 0.000000 0.037131
#
#
# Mechanical properties :
#
#
# Convention : Reuss Voigt Hill
#
# Bulk Modulus (GPa) = 6.70031 70.11437 38.40734
# Shear Modulus (GPa) = 11.41002 31.66255 21.53628
#
# Velocity S-wave (km/s) = 2.50868 4.17902 3.44657
# Velocity P-wave (km/s) = 3.47664 7.87139 6.08465
#
# Compressibility (1/GPa) = 0.14924681
#
# Stress axis : x y z
#
# Youngs Moduli (GPa) = 5.49972 103.51199 78.09255
#
# Poissons Ratio (x) = 2.84750 -0.39898
# Poissons Ratio (y) = 0.15129 0.40011
# Poissons Ratio (z) = -0.02810 0.53035
#
# Static dielectric constant tensor:
#      x y z
#    x 1.598190 0.000000 0.000000 
#    y 0.000000 1.735010 0.000000 
#    z 0.000000 0.000000 1.603260 
# 
# From -- ./inp_files/1908.got.cif
#   From: 2010.05.17/outbox.cif.g08.bks.cpg/sg49_1_cif.got.tgz:1908.got - 2010.06.03 21:02:19.
