data_PCOD9392803
_publ_section_title
;
Structure prediction by ZEFSAII (Michael W. Deem and Ramdas Pophale) SiO2 
 PCOD9392803
Probable space group: P C C M
;
_chemical_formula_sum "Si O2"
_cell_formula_units_Z 56
_cell_length_a 5.195895
_cell_length_b 32.794437
_cell_length_c 18.117171
_cell_angle_alpha 90.000000
_cell_angle_beta 90.000000
_cell_angle_gamma 90.000000
_cell_volume 3087.101645
_symmetry_space_group_name_H-M "P C C M"
_symmetry_group_IT_number 49
_symmetry_cell_setting 'orthorhombic'
loop_
_space_group_symop_operation_xyz
x,y,z
-x,-y,z
x,-y,1/2-z
-x,y,1/2-z
-x,-y,-z
x,y,-z
-x,y,1/2+z
x,-y,1/2+z
loop_
_atom_site_type_symbol
_atom_site_label
_atom_site_fract_x
_atom_site_fract_y
_atom_site_fract_z
Si Si1 0.649497 0.681042 0.085321
Si Si2 0.502448 0.403260 0.160923
Si Si3 0.748005 0.972974 0.412388
Si Si4 0.747760 0.805914 0.699469
Si Si5 0.992425 0.546797 0.160099
Si Si6 0.745689 0.899528 0.300585
Si Si7 0.135610 0.264915 0.414646
O O1 0.573911 0.640552 0.129163
O O2 0.396106 0.708888 0.086484
O O3 0.895881 0.707176 0.112750
O O4 0.707423 0.670041 0.000000
O O5 0.500000 0.400407 0.250000
O O6 0.276837 0.433832 0.137949
O O7 0.773207 0.423489 0.137635
O O8 0.734989 0.964469 0.500000
O O9 0.759482 0.931653 0.366293
O O10 0.500000 0.000000 0.392134
O O11 0.000000 0.000000 0.397993
O O12 0.500000 0.795026 0.750000
O O13 0.713042 0.852653 0.673304
O O14 0.805129 0.774369 0.634480
O O15 0.000000 0.805461 0.750000
O O16 0.000000 0.500000 0.134691
O O17 0.000000 0.545730 0.250000
O O18 0.500000 0.909188 0.250000
O O19 0.000000 0.902015 0.250000
O O20 0.076826 0.253931 0.500000
#
# Coordination Sequence:
#
# PCOD9392803 Si02
#       7
#     8   8   8   8   8   8   8
#     4  10  21  36  53  75 105 137 170 212 259 307
#     4  10  19  31  50  75  99 128 168 208 251 305
#     4  10  21  36  54  79 110 143 182 226 268 312
#     4  10  21  37  56  81 110 138 173 223 273 313
#     4   9  17  30  49  73 100 129 164 208 253 299
#     4  10  21  36  55  80 109 141 178 218 268 326
#     4  10  21  37  56  77 102 139 180 211 255 320
#
# _framework density 18.139993
#
# number of rings (size 3 to 8) (size 9 to 14) (size 15 to 20)
#    0.000    2.143    0.000    3.000    0.000    5.714 
#    0.000    0.000    0.000   12.857    0.000    0.000 
#    0.000    0.000    0.000    0.000    0.000    0.000 
#
# Total GULP energy -312449.247674 kJ/mol
# GULP energy per Si atom -5579.450851 kJ/mol
# Density = 1.809871 g / cm^3
# Si number density = 18.139993 Si / 1000 Ang^3
#
#
#
# Elastic Constant Matrix: (Units=GPa)
#
#
# Indices 1 2 3 4 5 6 
#
# 1 129.6959 43.5797 30.5504 0.0000 0.0000 0.0000
# 2 43.5797 142.2169 72.1733 0.0000 0.0000 0.0000
# 3 30.5504 72.1733 46.4755 0.0000 0.0000 0.0000
# 4 0.0000 0.0000 0.0000 -92.6611 0.0000 0.0000
# 5 0.0000 0.0000 0.0000 0.0000 1.4386 0.0000
# 6 0.0000 0.0000 0.0000 0.0000 0.0000 48.0402
#
#
#
# Elastic Compliance Matrix: (Units=1/GPa)
#
#
# Indices 1 2 3 4 5 6 
#
# 1 0.009164 0.001175 -0.007848 0.000000 0.000000 0.000000
# 2 0.001175 0.033333 -0.052536 0.000000 0.000000 0.000000
# 3 -0.007848 -0.052536 0.108260 0.000000 0.000000 0.000000
# 4 0.000000 0.000000 0.000000 -0.010792 0.000000 0.000000
# 5 0.000000 0.000000 0.000000 0.000000 0.695132 0.000000
# 6 0.000000 0.000000 0.000000 0.000000 0.000000 0.020816
#
#
# Mechanical properties :
#
#
# Convention : Reuss Voigt Hill
#
# Bulk Modulus (GPa) = 30.92280 67.88834 49.40557
# Shear Modulus (GPa) = 5.07556 2.83587 3.95571
#
# Velocity S-wave (km/s) = 1.67454 1.25169 1.47831
# Velocity P-wave (km/s) = 4.56317 6.29245 5.49624
#
# Compressibility (1/GPa) = 0.03233860
#
# Stress axis : x y z
#
# Youngs Moduli (GPa) = 109.11864 30.00043 9.23698
#
# Poissons Ratio (x) = -0.03524 0.07250
# Poissons Ratio (y) = -0.12818 0.48527
# Poissons Ratio (z) = 0.85640 1.57610
#
# Static dielectric constant tensor:
#      x y z
#    x 1.618610 0.000000 0.000000 
#    y 0.000000 1.610220 0.000000 
#    z 0.000000 0.000000 1.604680 
# 
# From -- ./inp_files/10768.got.cif
#   From: 2010.05.17/outbox.cif.g08.bks.cpg/sg49_6_cif.got.tgz:10768.got - 2010.06.03 21:02:19.
