data_PCOD9392066
_publ_section_title
;
Structure prediction by ZEFSAII (Michael W. Deem and Ramdas Pophale) SiO2 
 PCOD9392066
Probable space group: P C C M
;
_chemical_formula_sum "Si O2"
_cell_formula_units_Z 38
_cell_length_a 10.710847
_cell_length_b 6.747447
_cell_length_c 25.146229
_cell_angle_alpha 90.000000
_cell_angle_beta 90.000000
_cell_angle_gamma 90.000000
_cell_volume 1817.339909
_symmetry_space_group_name_H-M "P C C M"
_symmetry_group_IT_number 49
_symmetry_cell_setting 'orthorhombic'
loop_
_space_group_symop_operation_xyz
x,y,z
-x,-y,z
x,-y,1/2-z
-x,y,1/2-z
-x,-y,-z
x,y,-z
-x,y,1/2+z
x,-y,1/2+z
loop_
_atom_site_type_symbol
_atom_site_label
_atom_site_fract_x
_atom_site_fract_y
_atom_site_fract_z
Si Si1 0.097590 0.372442 0.500000
Si Si2 0.654762 0.822133 0.657291
Si Si3 0.500000 0.000000 0.250000
Si Si4 0.500000 0.500000 0.909017
Si Si5 0.102243 0.878701 0.500000
Si Si6 0.295809 0.791069 0.408652
Si Si7 0.144042 0.440793 0.622476
O O1 0.064637 0.626557 0.500000
O O2 0.157995 0.379306 0.559664
O O3 0.062164 0.124009 0.500000
O O4 0.578418 0.651896 0.626872
O O5 0.795827 0.735111 0.656815
O O6 0.589355 0.867974 0.712824
O O7 0.650304 0.024471 0.623400
O O8 0.598753 0.650813 0.935991
O O9 0.191849 0.871369 0.448608
O O10 0.223249 0.640593 0.369780
O O11 0.000000 0.500000 0.630170
#
# Coordination Sequence:
#
# PCOD9392066 Si02
#       7
#     4   8   2   4   4   8   8
#     4  10  16  36  56  96 138 179 216 235 297 402
#     4  11  24  42  68  96 122 164 224 285 331 395
#     4  12  24  50  72  92 118 168 236 288 352 410
#     4  10  22  44  62  90 126 168 218 272 338 376
#     4  12  22  33  61  97 134 188 223 250 316 406
#     4  11  21  38  61  96 136 171 218 269 319 386
#     4  10  20  37  66 102 140 177 209 260 326 390
#
# _framework density 20.909683000000001
#
# number of rings (size 3 to 8) (size 9 to 14) (size 15 to 20)
#    0.000    1.263    6.316    1.263    0.000    0.842 
#    0.000    3.158    0.000    3.789    0.000    0.000 
#    0.000    0.000    0.000    0.000    0.000    0.000 
#
# Total GULP energy -211774.946884 kJ/mol
# GULP energy per Si atom -5573.024918 kJ/mol
# Density = 2.086209 g / cm^3
# Si number density = 20.909683 Si / 1000 Ang^3
#
#
#
# Elastic Constant Matrix: (Units=GPa)
#
#
# Indices 1 2 3 4 5 6 
#
# 1 132.4515 67.5434 45.3589 0.0000 0.0000 0.0000
# 2 67.5434 188.2450 46.4855 0.0000 0.0000 0.0000
# 3 45.3589 46.4855 87.5760 0.0000 0.0000 0.0000
# 4 0.0000 0.0000 0.0000 16.6609 0.0000 0.0000
# 5 0.0000 0.0000 0.0000 0.0000 31.6540 0.0000
# 6 0.0000 0.0000 0.0000 0.0000 0.0000 70.1172
#
#
#
# Elastic Compliance Matrix: (Units=1/GPa)
#
#
# Indices 1 2 3 4 5 6 
#
# 1 0.010266 -0.002728 -0.003869 0.000000 0.000000 0.000000
# 2 -0.002728 0.006839 -0.002217 0.000000 0.000000 0.000000
# 3 -0.003869 -0.002217 0.014599 0.000000 0.000000 0.000000
# 4 0.000000 0.000000 0.000000 0.060021 0.000000 0.000000
# 5 0.000000 0.000000 0.000000 0.000000 0.031592 0.000000
# 6 0.000000 0.000000 0.000000 0.000000 0.000000 0.014262
#
#
# Mechanical properties :
#
#
# Convention : Reuss Voigt Hill
#
# Bulk Modulus (GPa) = 71.04430 80.78314 75.91372
# Shear Modulus (GPa) = 31.26981 40.27871 35.77426
#
# Velocity S-wave (km/s) = 3.87133 4.39375 4.14078
# Velocity P-wave (km/s) = 7.35074 8.02859 7.69713
#
# Compressibility (1/GPa) = 0.01407572
#
# Stress axis : x y z
#
# Youngs Moduli (GPa) = 97.40763 146.23013 68.49606
#
# Poissons Ratio (x) = 0.39893 0.26502
# Poissons Ratio (y) = 0.26574 0.15185
# Poissons Ratio (z) = 0.37688 0.32418
#
# Static dielectric constant tensor:
#      x y z
#    x 1.856560 0.000000 0.000000 
#    y 0.000000 1.811290 0.000000 
#    z 0.000000 0.000000 1.714730 
# 
# From -- ./inp_files/23812.got.cif
#   From: 2010.05.17/outbox.cif.g08.bks.cpg/sg49_12_cif.got.tgz:23812.got - 2010.06.03 21:02:19.
