data_PCOD9392659
_publ_section_title
;
Structure prediction by ZEFSAII (Michael W. Deem and Ramdas Pophale) SiO2 
 PCOD9392659
Probable space group: P C C M
;
_chemical_formula_sum "Si O2"
_cell_formula_units_Z 64
_cell_length_a 13.716323
_cell_length_b 23.633987
_cell_length_c 8.551188
_cell_angle_alpha 90.000000
_cell_angle_beta 90.000000
_cell_angle_gamma 90.000000
_cell_volume 2772.050581
_symmetry_space_group_name_H-M "P C C M"
_symmetry_group_IT_number 49
_symmetry_cell_setting 'orthorhombic'
loop_
_space_group_symop_operation_xyz
x,y,z
-x,-y,z
x,-y,1/2-z
-x,y,1/2-z
-x,-y,-z
x,y,-z
-x,y,1/2+z
x,-y,1/2+z
loop_
_atom_site_type_symbol
_atom_site_label
_atom_site_fract_x
_atom_site_fract_y
_atom_site_fract_z
Si Si1 0.601517 0.077077 0.678525
Si Si2 0.347799 0.796535 0.314937
Si Si3 0.128211 0.699218 0.675364
Si Si4 0.314305 0.440465 0.187179
Si Si5 0.140411 0.817442 0.181880
Si Si6 0.362137 0.678378 0.677079
Si Si7 0.101557 0.583730 0.179640
Si Si8 0.182169 0.940349 0.186727
O O1 0.500000 0.057332 0.750000
O O2 0.610872 0.057415 0.500000
O O3 0.595245 0.145274 0.680728
O O4 0.703610 0.062969 0.762781
O O5 0.317356 0.788568 0.500000
O O6 0.256438 0.808466 0.203021
O O7 0.396570 0.738425 0.257619
O O8 0.093439 0.685851 0.500000
O O9 0.103021 0.763365 0.721509
O O10 0.245466 0.690660 0.671501
O O11 0.097629 0.651918 0.798948
O O12 0.351955 0.500000 0.250000
O O13 0.368265 0.383837 0.250962
O O14 0.199820 0.435290 0.232848
O O15 0.320038 0.439043 0.000000
O O16 0.128242 0.882190 0.241152
O O17 0.112150 0.813362 0.000000
O O18 0.400629 0.673821 0.500000
O O19 0.000000 0.562615 0.250000
O O20 0.110429 0.567725 0.000000
O O21 0.142978 0.000000 0.250000
O O22 0.177705 0.939847 0.000000
#
# Coordination Sequence:
#
# PCOD9392659 Si02
#       8
#     8   8   8   8   8   8   8   8
#     4  10  19  30  44  61  84 113 146 180 218 260
#     4   8  14  26  43  60  78 105 137 172 215 262
#     4   9  16  28  45  64  85 110 139 173 215 261
#     4  10  19  31  45  63  87 116 148 181 216 257
#     4   9  16  26  42  64  85 106 135 176 219 258
#     4   7  12  24  42  60  78 101 133 170 209 252
#     4  11  21  33  47  64  87 116 150 185 219 255
#     4  10  20  32  45  62  86 115 150 185 218 255
#
# _framework density 23.087603000000001
#
# number of rings (size 3 to 8) (size 9 to 14) (size 15 to 20)
#    0.000    2.750    0.000    4.500    0.000    2.500 
#    0.000    3.125    0.000    0.000    0.000    0.000 
#    0.000    1.000    0.000   11.500    0.000    3.125 
#
# Total GULP energy -356793.481340 kJ/mol
# GULP energy per Si atom -5574.898146 kJ/mol
# Density = 2.303505 g / cm^3
# Si number density = 23.087603 Si / 1000 Ang^3
#
#
#
# Elastic Constant Matrix: (Units=GPa)
#
#
# Indices 1 2 3 4 5 6 
#
# 1 38.5566 -9.9308 -2.2959 0.0000 0.0000 0.0000
# 2 -9.9308 211.9958 15.4821 0.0000 0.0000 0.0000
# 3 -2.2959 15.4821 58.0716 0.0000 0.0000 0.0000
# 4 0.0000 0.0000 0.0000 30.6892 0.0000 0.0000
# 5 0.0000 0.0000 0.0000 0.0000 0.7707 0.0000
# 6 0.0000 0.0000 0.0000 0.0000 0.0000 -16.8903
#
#
#
# Elastic Compliance Matrix: (Units=1/GPa)
#
#
# Indices 1 2 3 4 5 6 
#
# 1 0.026283 0.001178 0.000725 0.000000 0.000000 0.000000
# 2 0.001178 0.004864 -0.001250 0.000000 0.000000 0.000000
# 3 0.000725 -0.001250 0.017582 0.000000 0.000000 0.000000
# 4 0.000000 0.000000 0.000000 0.032585 0.000000 0.000000
# 5 0.000000 0.000000 0.000000 0.000000 1.297519 0.000000
# 6 0.000000 0.000000 0.000000 0.000000 0.000000 -0.059205
#
#
# Mechanical properties :
#
#
# Convention : Reuss Voigt Hill
#
# Bulk Modulus (GPa) = 19.98626 35.01499 27.50062
# Shear Modulus (GPa) = 3.74532 23.27182 13.50857
#
# Velocity S-wave (km/s) = 1.27505 3.17831 2.42151
# Velocity P-wave (km/s) = 3.29289 5.35425 4.44472
#
# Compressibility (1/GPa) = 0.05003438
#
# Stress axis : x y z
#
# Youngs Moduli (GPa) = 38.04812 205.61066 56.87621
#
# Poissons Ratio (x) = -0.24226 -0.04123
# Poissons Ratio (y) = -0.04483 0.07110
# Poissons Ratio (z) = -0.02758 0.25703
#
# Static dielectric constant tensor:
#      x y z
#    x 1.899670 0.000000 0.000000 
#    y 0.000000 1.972970 0.000000 
#    z 0.000000 0.000000 1.815700 
# 
# From -- ./inp_files/6119.got.cif
#   From: 2010.05.17/outbox.cif.g08.bks.cpg/sg49_4_cif.got.tgz:6119.got - 2010.06.03 21:02:19.
