data_PCOD9392048
_publ_section_title
;
Structure prediction by ZEFSAII (Michael W. Deem and Ramdas Pophale) SiO2 
 PCOD9392048
Probable space group: P C C M
;
_chemical_formula_sum "Si O2"
_cell_formula_units_Z 30
_cell_length_a 8.672657
_cell_length_b 10.954133
_cell_length_c 14.248662
_cell_angle_alpha 90.000000
_cell_angle_beta 90.000000
_cell_angle_gamma 90.000000
_cell_volume 1353.643383
_symmetry_space_group_name_H-M "P C C M"
_symmetry_group_IT_number 49
_symmetry_cell_setting 'orthorhombic'
loop_
_space_group_symop_operation_xyz
x,y,z
-x,-y,z
x,-y,1/2-z
-x,y,1/2-z
-x,-y,-z
x,y,-z
-x,y,1/2+z
x,-y,1/2+z
loop_
_atom_site_type_symbol
_atom_site_label
_atom_site_fract_x
_atom_site_fract_y
_atom_site_fract_z
Si Si1 0.256436 0.069472 0.500000
Si Si2 0.000000 0.500000 0.000000
Si Si3 0.046952 0.185663 0.651878
Si Si4 0.458742 0.314448 0.500000
Si Si5 0.783878 0.790732 0.000000
Si Si6 0.752031 0.427557 0.153929
O O1 0.382037 0.177846 0.500000
O O2 0.149640 0.096340 0.589580
O O3 0.290228 0.926752 0.500000
O O4 0.134465 0.504350 0.081995
O O5 0.900317 0.221202 0.587848
O O6 0.000000 0.132391 0.750000
O O7 0.150629 0.304031 0.674193
O O8 0.640977 0.299756 0.500000
O O9 0.393960 0.382529 0.407652
O O10 0.721102 0.500000 0.250000
#
# Coordination Sequence:
#
# PCOD9392048 Si02
#       6
#     4   2   8   4   4   8
#     4   9  20  37  60  90 127 171 210 256 320 383
#     4  10  16  28  60  90 110 158 218 258 310 356
#     4  10  20  35  60  92 124 160 215 266 309 371
#     4   9  21  40  61  91 130 169 208 255 322 396
#     4  11  21  38  63  91 126 164 210 269 322 378
#     4  10  20  36  61  90 123 167 214 263 318 378
#
# _framework density 22.162410000000001
#
# number of rings (size 3 to 8) (size 9 to 14) (size 15 to 20)
#    0.000    2.133    0.000    6.400    0.000    2.133 
#    0.000    6.667    0.000   35.200    0.000    5.600 
#    0.000    0.000    0.000   17.067    0.000    0.000 
#
# Total GULP energy -167267.002319 kJ/mol
# GULP energy per Si atom -5575.566744 kJ/mol
# Density = 2.211197 g / cm^3
# Si number density = 22.162410 Si / 1000 Ang^3
#
#
#
# Elastic Constant Matrix: (Units=GPa)
#
#
# Indices 1 2 3 4 5 6 
#
# 1 148.4063 49.1584 56.9627 0.0000 0.0000 0.0000
# 2 49.1584 126.8372 48.6517 0.0000 0.0000 0.0000
# 3 56.9627 48.6517 193.4353 0.0000 0.0000 0.0000
# 4 0.0000 0.0000 0.0000 -11.4294 0.0000 0.0000
# 5 0.0000 0.0000 0.0000 0.0000 -8.8386 0.0000
# 6 0.0000 0.0000 0.0000 0.0000 0.0000 32.6452
#
#
#
# Elastic Compliance Matrix: (Units=1/GPa)
#
#
# Indices 1 2 3 4 5 6 
#
# 1 0.008261 -0.002511 -0.001801 0.000000 0.000000 0.000000
# 2 -0.002511 0.009489 -0.001647 0.000000 0.000000 0.000000
# 3 -0.001801 -0.001647 0.006114 0.000000 0.000000 0.000000
# 4 0.000000 0.000000 0.000000 -0.087494 0.000000 0.000000
# 5 0.000000 0.000000 0.000000 0.000000 -0.113140 0.000000
# 6 0.000000 0.000000 0.000000 0.000000 0.000000 0.030632
#
#
# Mechanical properties :
#
#
# Convention : Reuss Voigt Hill
#
# Bulk Modulus (GPa) = 83.70968 86.46935 85.08952
# Shear Modulus (GPa) = -38.39196 23.40251 -7.49472
#
# Velocity S-wave (km/s) = -4.16661 3.25307 -1.84094
# Velocity P-wave (km/s) = 3.83478 7.29458 5.82737
#
# Compressibility (1/GPa) = 0.01194605
#
# Stress axis : x y z
#
# Youngs Moduli (GPa) = 121.04534 105.38382 163.54770
#
# Poissons Ratio (x) = 0.26461 0.29459
# Poissons Ratio (y) = 0.30394 0.26940
# Poissons Ratio (z) = 0.21803 0.17359
#
# Static dielectric constant tensor:
#      x y z
#    x 1.791710 0.000000 0.000000 
#    y 0.000000 1.911840 0.000000 
#    z 0.000000 0.000000 1.744570 
# 
# From -- ./inp_files/11253.got.cif
#   From: 2010.05.17/outbox.cif.g08.bks.cpg/sg49_6_cif.got.tgz:11253.got - 2010.06.03 21:02:19.
