data_PCOD9392418
_publ_section_title
;
Structure prediction by ZEFSAII (Michael W. Deem and Ramdas Pophale) SiO2 
 PCOD9392418
Probable space group: P C C M
;
_chemical_formula_sum "Si O2"
_cell_formula_units_Z 52
_cell_length_a 9.784883
_cell_length_b 13.987564
_cell_length_c 19.582643
_cell_angle_alpha 90.000000
_cell_angle_beta 90.000000
_cell_angle_gamma 90.000000
_cell_volume 2680.211278
_symmetry_space_group_name_H-M "P C C M"
_symmetry_group_IT_number 49
_symmetry_cell_setting 'orthorhombic'
loop_
_space_group_symop_operation_xyz
x,y,z
-x,-y,z
x,-y,1/2-z
-x,y,1/2-z
-x,-y,-z
x,y,-z
-x,y,1/2+z
x,-y,1/2+z
loop_
_atom_site_type_symbol
_atom_site_label
_atom_site_fract_x
_atom_site_fract_y
_atom_site_fract_z
Si Si1 0.647836 0.394930 0.132290
Si Si2 0.926272 0.101234 0.581804
Si Si3 0.345679 0.404504 0.078349
Si Si4 0.500000 0.285964 0.250000
Si Si5 0.813324 0.779506 0.417928
Si Si6 0.330158 0.797077 0.370980
Si Si7 0.571655 0.908488 0.422082
O O1 0.510023 0.389209 0.085801
O O2 0.689197 0.505235 0.125969
O O3 0.593652 0.354970 0.203997
O O4 0.764344 0.322742 0.108031
O O5 0.895556 0.102823 0.500000
O O6 0.788883 0.125191 0.622595
O O7 0.036304 0.183661 0.597809
O O8 0.000000 0.000000 0.595564
O O9 0.279071 0.305914 0.102841
O O10 0.312237 0.425811 0.000000
O O11 0.596053 0.222145 0.298759
O O12 0.799887 0.778925 0.500000
O O13 0.704731 0.858975 0.391318
O O14 0.452855 0.830064 0.420371
O O15 0.607993 0.936419 0.500000
O O16 0.500000 0.000000 0.388204
#
# Coordination Sequence:
#
# PCOD9392418 Si02
#       7
#     8   8   8   4   8   8   8
#     4  10  19  32  52  79 116 149 198 244 291 348
#     4  10  21  37  60  88 119 154 191 243 314 372
#     4  10  18  30  56  89 117 149 191 250 315 356
#     4  10  22  37  57  82 114 164 205 244 279 340
#     4  10  18  32  54  81 112 145 185 242 306 360
#     4  11  21  36  56  83 122 155 197 243 289 353
#     4  10  18  30  54  82 107 141 189 248 304 345
#
# _framework density 19.401454999999999
#
# number of rings (size 3 to 8) (size 9 to 14) (size 15 to 20)
#    0.000    1.846    3.077    4.154    0.000    7.385 
#    0.000    1.923    0.000    3.692    0.000    6.462 
#    0.000    0.000    0.000    0.000    0.000    0.000 
#
# Total GULP energy -289951.054843 kJ/mol
# GULP energy per Si atom -5575.981824 kJ/mol
# Density = 1.935730 g / cm^3
# Si number density = 19.401455 Si / 1000 Ang^3
#
#
#
# Elastic Constant Matrix: (Units=GPa)
#
#
# Indices 1 2 3 4 5 6 
#
# 1 70.5861 20.6113 25.6992 0.0000 0.0000 0.0000
# 2 20.6113 90.3372 16.5625 0.0000 0.0000 0.0000
# 3 25.6992 16.5625 63.8926 0.0000 0.0000 0.0000
# 4 0.0000 0.0000 0.0000 -27.0062 0.0000 0.0000
# 5 0.0000 0.0000 0.0000 0.0000 15.7390 0.0000
# 6 0.0000 0.0000 0.0000 0.0000 0.0000 30.4987
#
#
#
# Elastic Compliance Matrix: (Units=1/GPa)
#
#
# Indices 1 2 3 4 5 6 
#
# 1 0.017245 -0.002796 -0.006212 0.000000 0.000000 0.000000
# 2 -0.002796 0.012075 -0.002006 0.000000 0.000000 0.000000
# 3 -0.006212 -0.002006 0.018670 0.000000 0.000000 0.000000
# 4 0.000000 0.000000 0.000000 -0.037029 0.000000 0.000000
# 5 0.000000 0.000000 0.000000 0.000000 0.063536 0.000000
# 6 0.000000 0.000000 0.000000 0.000000 0.000000 0.032788
#
#
# Mechanical properties :
#
#
# Convention : Reuss Voigt Hill
#
# Bulk Modulus (GPa) = 38.51526 38.95136 38.73331
# Shear Modulus (GPa) = 36.24066 14.64251 25.44159
#
# Velocity S-wave (km/s) = 4.32665 2.75018 3.62515
# Velocity P-wave (km/s) = 6.69737 5.49589 6.12615
#
# Compressibility (1/GPa) = 0.02596374
#
# Stress axis : x y z
#
# Youngs Moduli (GPa) = 57.98775 82.81411 53.56286
#
# Poissons Ratio (x) = 0.23153 0.33271
# Poissons Ratio (y) = 0.16212 0.10743
# Poissons Ratio (z) = 0.36020 0.16610
#
# Static dielectric constant tensor:
#      x y z
#    x 1.678770 0.000000 0.000000 
#    y 0.000000 1.749630 0.000000 
#    z 0.000000 0.000000 1.695590 
# 
# From -- ./inp_files/19834.got.cif
#   From: 2010.05.17/outbox.cif.g08.bks.cpg/sg49_10_cif.got.tgz:19834.got - 2010.06.03 21:02:19.
