data_PCOD9392064
_publ_section_title
;
Structure prediction by ZEFSAII (Michael W. Deem and Ramdas Pophale) SiO2 
 PCOD9392064
Probable space group: P C C M
;
_chemical_formula_sum "Si O2"
_cell_formula_units_Z 54
_cell_length_a 5.407445
_cell_length_b 22.135592
_cell_length_c 24.565137
_cell_angle_alpha 90.000000
_cell_angle_beta 90.000000
_cell_angle_gamma 90.000000
_cell_volume 2940.373112
_symmetry_space_group_name_H-M "P C C M"
_symmetry_group_IT_number 49
_symmetry_cell_setting 'orthorhombic'
loop_
_space_group_symop_operation_xyz
x,y,z
-x,-y,z
x,-y,1/2-z
-x,y,1/2-z
-x,-y,-z
x,y,-z
-x,y,1/2+z
x,-y,1/2+z
loop_
_atom_site_type_symbol
_atom_site_label
_atom_site_fract_x
_atom_site_fract_y
_atom_site_fract_z
Si Si1 0.000000 0.000000 0.398868
Si Si2 0.500000 0.000000 0.250000
Si Si3 0.227280 0.208380 0.937544
Si Si4 0.749893 0.334614 0.214624
Si Si5 0.602410 0.923315 0.058738
Si Si6 0.258848 0.909222 0.163822
Si Si7 0.734066 0.775271 0.631476
Si Si8 0.249397 0.525722 0.187587
O O1 0.230610 0.982619 0.435893
O O2 0.983362 0.942558 0.358751
O O3 0.651047 0.047358 0.212260
O O4 0.222991 0.135666 0.940837
O O5 0.478201 0.222922 0.903380
O O6 0.974880 0.226826 0.907437
O O7 0.242303 0.231139 0.000000
O O8 0.500000 0.330356 0.250000
O O9 0.738242 0.282792 0.169706
O O10 0.754398 0.402304 0.190478
O O11 0.000000 0.327489 0.250000
O O12 0.440132 0.917324 0.112369
O O13 0.472799 0.919135 0.000000
O O14 0.242672 0.836949 0.168327
O O15 0.500000 0.500000 0.162212
O O16 0.249528 0.500000 0.250000
O O17 0.000000 0.500000 0.161783
#
# Coordination Sequence:
#
# PCOD9392064 Si02
#       8
#     4   2   8   8   8   8   8   8
#     4  12  19  39  56  82 100 131 185 242 304 356
#     4  12  24  46  54  68 106 164 198 232 284 366
#     4  10  21  41  65  84 114 150 185 255 320 358
#     4  12  22  36  57  88 125 171 194 232 287 330
#     4  10  21  37  60  85 106 128 175 252 319 358
#     4  11  25  41  56  76 109 147 197 238 291 359
#     4  11  24  41  58  89 119 147 209 241 288 368
#     4  10  16  31  54  81 120 161 192 236 276 337
#
# _framework density 18.365016000000001
#
# number of rings (size 3 to 8) (size 9 to 14) (size 15 to 20)
#    0.000    1.185    5.926    1.556    1.037    2.667 
#    2.667    0.000    0.000    0.000    0.000    0.000 
#    0.000   11.852    0.000    0.000    0.000    0.000 
#
# Total GULP energy -301012.083898 kJ/mol
# GULP energy per Si atom -5574.297850 kJ/mol
# Density = 1.832322 g / cm^3
# Si number density = 18.365016 Si / 1000 Ang^3
#
#
#
# Elastic Constant Matrix: (Units=GPa)
#
#
# Indices 1 2 3 4 5 6 
#
# 1 129.1759 46.0121 42.1757 0.0000 0.0000 0.0000
# 2 46.0121 162.9913 63.3325 0.0000 0.0000 0.0000
# 3 42.1757 63.3325 89.4989 0.0000 0.0000 0.0000
# 4 0.0000 0.0000 0.0000 11.9298 0.0000 0.0000
# 5 0.0000 0.0000 0.0000 0.0000 -16.3419 0.0000
# 6 0.0000 0.0000 0.0000 0.0000 0.0000 20.1725
#
#
#
# Elastic Compliance Matrix: (Units=1/GPa)
#
#
# Indices 1 2 3 4 5 6 
#
# 1 0.009338 -0.001278 -0.003496 0.000000 0.000000 0.000000
# 2 -0.001278 0.008637 -0.005510 0.000000 0.000000 0.000000
# 3 -0.003496 -0.005510 0.016720 0.000000 0.000000 0.000000
# 4 0.000000 0.000000 0.000000 0.083824 0.000000 0.000000
# 5 0.000000 0.000000 0.000000 0.000000 -0.061192 0.000000
# 6 0.000000 0.000000 0.000000 0.000000 0.000000 0.049572
#
#
# Mechanical properties :
#
#
# Convention : Reuss Voigt Hill
#
# Bulk Modulus (GPa) = 70.78466 76.07853 73.43159
# Shear Modulus (GPa) = 37.82872 18.49513 28.16192
#
# Velocity S-wave (km/s) = 4.54345 3.17690 3.92018
# Velocity P-wave (km/s) = 8.13332 7.41436 7.78214
#
# Compressibility (1/GPa) = 0.01412736
#
# Stress axis : x y z
#
# Youngs Moduli (GPa) = 107.08915 115.78369 59.80916
#
# Poissons Ratio (x) = 0.14791 0.20912
# Poissons Ratio (y) = 0.13681 0.32953
# Poissons Ratio (z) = 0.37443 0.63793
#
# Static dielectric constant tensor:
#      x y z
#    x 2.149320 0.000000 0.000000 
#    y 0.000000 1.640460 0.000000 
#    z 0.000000 0.000000 1.640690 
# 
# From -- ./inp_files/21911.got.cif
#   From: 2010.05.17/outbox.cif.g08.bks.cpg/sg49_11_cif.got.tgz:21911.got - 2010.06.03 21:02:19.
