data_PCOD9392917
_publ_section_title
;
Structure prediction by ZEFSAII (Michael W. Deem and Ramdas Pophale) SiO2 
 PCOD9392917
Probable space group: P C C M
;
_chemical_formula_sum "Si O2"
_cell_formula_units_Z 48
_cell_length_a 14.955086
_cell_length_b 21.301234
_cell_length_c 8.006044
_cell_angle_alpha 90.000000
_cell_angle_beta 90.000000
_cell_angle_gamma 90.000000
_cell_volume 2550.419678
_symmetry_space_group_name_H-M "P C C M"
_symmetry_group_IT_number 49
_symmetry_cell_setting 'orthorhombic'
loop_
_space_group_symop_operation_xyz
x,y,z
-x,-y,z
x,-y,1/2-z
-x,y,1/2-z
-x,-y,-z
x,y,-z
-x,y,1/2+z
x,-y,1/2+z
loop_
_atom_site_type_symbol
_atom_site_label
_atom_site_fract_x
_atom_site_fract_y
_atom_site_fract_z
Si Si1 0.902468 0.614609 0.200980
Si Si2 0.603144 0.689460 0.201297
Si Si3 0.097599 0.240174 0.799151
Si Si4 0.715146 0.188609 0.295148
Si Si5 0.712672 0.431537 0.701214
Si Si6 0.602468 0.070938 0.301156
O O1 0.895641 0.687265 0.260210
O O2 0.814863 0.578279 0.262052
O O3 0.000000 0.589794 0.250000
O O4 0.899263 0.615542 0.000000
O O5 0.500000 0.691323 0.250000
O O6 0.656025 0.751497 0.257655
O O7 0.652342 0.626325 0.262064
O O8 0.608563 0.689105 0.000000
O O9 0.183057 0.200877 0.740674
O O10 0.000000 0.215912 0.750000
O O11 0.101703 0.242435 0.000000
O O12 0.715121 0.187732 0.500000
O O13 0.668897 0.124598 0.235993
O O14 0.679125 0.500000 0.750000
O O15 0.714197 0.428263 0.500000
O O16 0.500000 0.083790 0.250000
O O17 0.605090 0.073295 0.500000
O O18 0.625256 0.000000 0.250000
#
# Coordination Sequence:
#
# PCOD9392917 Si02
#       6
#     8   8   8   8   8   8
#     4   9  17  31  51  72  96 126 158 199 247 296
#     4  10  20  36  54  73  96 126 165 208 249 292
#     4   9  16  30  51  75 100 127 161 201 246 293
#     4   9  17  32  55  76 100 134 167 200 246 295
#     4  10  21  36  52  69  96 131 164 201 249 300
#     4  10  19  32  51  76 106 139 169 202 244 292
#
# _framework density 18.820432
#
# number of rings (size 3 to 8) (size 9 to 14) (size 15 to 20)
#    0.000    2.500    1.667    1.500    0.000    2.000 
#    0.000    6.667    0.000    0.500    0.000    3.500 
#    0.000    0.000    0.000    0.000    0.000    0.000 
#
# Total GULP energy -267799.167611 kJ/mol
# GULP energy per Si atom -5579.149325 kJ/mol
# Density = 1.877760 g / cm^3
# Si number density = 18.820432 Si / 1000 Ang^3
#
#
#
# Elastic Constant Matrix: (Units=GPa)
#
#
# Indices 1 2 3 4 5 6 
#
# 1 148.7136 85.7685 5.2918 0.0000 0.0000 0.0000
# 2 85.7685 128.0207 8.0200 0.0000 0.0000 0.0000
# 3 5.2918 8.0200 13.7247 0.0000 0.0000 0.0000
# 4 0.0000 0.0000 0.0000 16.3288 0.0000 0.0000
# 5 0.0000 0.0000 0.0000 0.0000 22.2479 0.0000
# 6 0.0000 0.0000 0.0000 0.0000 0.0000 26.8660
#
#
#
# Elastic Compliance Matrix: (Units=1/GPa)
#
#
# Indices 1 2 3 4 5 6 
#
# 1 0.010959 -0.007346 0.000067 0.000000 0.000000 0.000000
# 2 -0.007346 0.013032 -0.004783 0.000000 0.000000 0.000000
# 3 0.000067 -0.004783 0.075630 0.000000 0.000000 0.000000
# 4 0.000000 0.000000 0.000000 0.061242 0.000000 0.000000
# 5 0.000000 0.000000 0.000000 0.000000 0.044948 0.000000
# 6 0.000000 0.000000 0.000000 0.000000 0.000000 0.037222
#
#
# Mechanical properties :
#
#
# Convention : Reuss Voigt Hill
#
# Bulk Modulus (GPa) = 13.24542 54.29108 33.76825
# Shear Modulus (GPa) = 17.10441 25.84711 21.47576
#
# Velocity S-wave (km/s) = 3.01794 3.70990 3.38166
# Velocity P-wave (km/s) = 4.38144 6.87464 5.76444
#
# Compressibility (1/GPa) = 0.07549778
#
# Stress axis : x y z
#
# Youngs Moduli (GPa) = 91.25179 76.73157 13.22222
#
# Poissons Ratio (x) = 0.56368 -0.00089
# Poissons Ratio (y) = 0.67034 0.06324
# Poissons Ratio (z) = -0.00615 0.36701
#
# Static dielectric constant tensor:
#      x y z
#    x 1.651420 0.000000 0.000000 
#    y 0.000000 1.652420 0.000000 
#    z 0.000000 0.000000 1.678630 
# 
# From -- ./inp_files/3696.got.cif
#   From: 2010.05.17/outbox.cif.g08.bks.cpg/sg49_2_cif.got.tgz:3696.got - 2010.06.03 21:02:19.
