data_PCOD9392761
_publ_section_title
;
Structure prediction by ZEFSAII (Michael W. Deem and Ramdas Pophale) SiO2 
 PCOD9392761
Probable space group: P C C M
;
_chemical_formula_sum "Si O2"
_cell_formula_units_Z 64
_cell_length_a 12.041982
_cell_length_b 17.654442
_cell_length_c 17.621833
_cell_angle_alpha 90.000000
_cell_angle_beta 90.000000
_cell_angle_gamma 90.000000
_cell_volume 3746.304296
_symmetry_space_group_name_H-M "P C C M"
_symmetry_group_IT_number 49
_symmetry_cell_setting 'orthorhombic'
loop_
_space_group_symop_operation_xyz
x,y,z
-x,-y,z
x,-y,1/2-z
-x,y,1/2-z
-x,-y,-z
x,y,-z
-x,y,1/2+z
x,-y,1/2+z
loop_
_atom_site_type_symbol
_atom_site_label
_atom_site_fract_x
_atom_site_fract_y
_atom_site_fract_z
Si Si1 0.112866 0.545540 0.408754
Si Si2 0.473149 0.671567 0.914020
Si Si3 0.876595 0.713599 0.843447
Si Si4 0.501469 0.910705 0.840510
Si Si5 0.689395 0.817959 0.414124
Si Si6 0.342540 0.782650 0.591758
Si Si7 0.130038 0.727339 0.162756
Si Si8 0.732358 0.589868 0.591941
O O1 0.107495 0.556349 0.500000
O O2 0.127318 0.626374 0.370101
O O3 0.216708 0.491475 0.390494
O O4 0.000000 0.500000 0.386921
O O5 0.387673 0.742499 0.917469
O O6 0.582548 0.710408 0.880044
O O7 0.393173 0.607065 0.880165
O O8 0.502901 0.647819 0.000000
O O9 0.782070 0.763986 0.883009
O O10 0.861767 0.718130 0.752953
O O11 0.002694 0.738132 0.860386
O O12 0.500000 0.899843 0.750000
O O13 0.388467 0.878980 0.875857
O O14 0.601007 0.858870 0.874933
O O15 0.500000 0.000000 0.856879
O O16 0.719065 0.837841 0.500000
O O17 0.795682 0.796542 0.365597
O O18 0.351745 0.785589 0.500000
O O19 0.182888 0.652505 0.124334
O O20 0.731235 0.598008 0.500000
#
# Coordination Sequence:
#
# PCOD9392761 Si02
#       8
#     8   8   8   8   8   8   8   8
#     4  10  19  31  48  71  98 132 179 232 281 327
#     4   7  13  27  47  70  94 126 167 210 259 308
#     4  11  22  33  47  73 107 140 178 227 285 331
#     4  10  20  35  58  88 118 144 169 207 262 319
#     4   9  17  31  54  79 103 136 181 221 252 307
#     4  10  20  34  53  78 109 142 177 221 267 318
#     4  10  20  33  49  73 101 138 181 222 275 329
#     4   9  16  30  50  69  94 129 176 229 272 320
#
# _framework density 17.083503
#
# number of rings (size 3 to 8) (size 9 to 14) (size 15 to 20)
#    0.000    2.500    1.250    3.375    0.000    3.000 
#    0.000    0.625    0.000    3.750    0.000   10.500 
#    0.000    0.000    0.000    0.000    0.000    0.000 
#
# Total GULP energy -356500.966666 kJ/mol
# GULP energy per Si atom -5570.327604 kJ/mol
# Density = 1.704462 g / cm^3
# Si number density = 17.083503 Si / 1000 Ang^3
#
#
#
# Elastic Constant Matrix: (Units=GPa)
#
#
# Indices 1 2 3 4 5 6 
#
# 1 93.3199 52.9800 39.7039 0.0000 0.0000 0.0000
# 2 52.9800 94.9316 46.1499 0.0000 0.0000 0.0000
# 3 39.7039 46.1499 49.4629 0.0000 0.0000 0.0000
# 4 0.0000 0.0000 0.0000 130.6950 0.0000 0.0000
# 5 0.0000 0.0000 0.0000 0.0000 23.4485 0.0000
# 6 0.0000 0.0000 0.0000 0.0000 0.0000 14.9381
#
#
#
# Elastic Compliance Matrix: (Units=1/GPa)
#
#
# Indices 1 2 3 4 5 6 
#
# 1 0.017682 -0.005432 -0.009125 0.000000 0.000000 0.000000
# 2 -0.005432 0.020947 -0.015183 0.000000 0.000000 0.000000
# 3 -0.009125 -0.015183 0.041708 0.000000 0.000000 0.000000
# 4 0.000000 0.000000 0.000000 0.007651 0.000000 0.000000
# 5 0.000000 0.000000 0.000000 0.000000 0.042647 0.000000
# 6 0.000000 0.000000 0.000000 0.000000 0.000000 0.066943
#
#
# Mechanical properties :
#
#
# Convention : Reuss Voigt Hill
#
# Bulk Modulus (GPa) = 47.94810 57.26468 52.60639
# Shear Modulus (GPa) = 18.93857 40.40837 29.67347
#
# Velocity S-wave (km/s) = 3.33316 4.86876 4.17221
# Velocity P-wave (km/s) = 6.55295 8.07463 7.35326
#
# Compressibility (1/GPa) = 0.02085588
#
# Stress axis : x y z
#
# Youngs Moduli (GPa) = 56.55416 47.74024 23.97597
#
# Poissons Ratio (x) = 0.25933 0.21879
# Poissons Ratio (y) = 0.30720 0.36404
# Poissons Ratio (z) = 0.51607 0.72486
#
# Static dielectric constant tensor:
#      x y z
#    x 1.605720 0.000000 0.000000 
#    y 0.000000 1.574290 0.000000 
#    z 0.000000 0.000000 1.579470 
# 
# From -- ./inp_files/13078.got.cif
#   From: 2010.05.17/outbox.cif.g08.bks.cpg/sg49_7_cif.got.tgz:13078.got - 2010.06.03 21:02:19.
