data_PCOD9392525
_publ_section_title
;
Structure prediction by ZEFSAII (Michael W. Deem and Ramdas Pophale) SiO2 
 PCOD9392525
Probable space group: P C C M
;
_chemical_formula_sum "Si O2"
_cell_formula_units_Z 64
_cell_length_a 18.137431
_cell_length_b 11.120499
_cell_length_c 18.924342
_cell_angle_alpha 90.000000
_cell_angle_beta 90.000000
_cell_angle_gamma 90.000000
_cell_volume 3816.988370
_symmetry_space_group_name_H-M "P C C M"
_symmetry_group_IT_number 49
_symmetry_cell_setting 'orthorhombic'
loop_
_space_group_symop_operation_xyz
x,y,z
-x,-y,z
x,-y,1/2-z
-x,y,1/2-z
-x,-y,-z
x,y,-z
-x,y,1/2+z
x,-y,1/2+z
loop_
_atom_site_type_symbol
_atom_site_label
_atom_site_fract_x
_atom_site_fract_y
_atom_site_fract_z
Si Si1 0.516426 0.860586 0.833485
Si Si2 0.718507 0.460010 0.863496
Si Si3 0.600043 0.704737 0.582257
Si Si4 0.920181 0.359491 0.228411
Si Si5 0.237822 0.317643 0.778793
Si Si6 0.675586 0.086159 0.686489
Si Si7 0.848994 0.685408 0.580208
Si Si8 0.735802 0.106853 0.918751
O O1 0.500000 0.846585 0.750000
O O2 0.466772 0.764157 0.874630
O O3 0.603691 0.850239 0.845565
O O4 0.500000 0.000000 0.853947
O O5 0.638062 0.418099 0.889545
O O6 0.734562 0.597395 0.842718
O O7 0.734552 0.385057 0.791751
O O8 0.781946 0.411145 0.915661
O O9 0.580881 0.691502 0.500000
O O10 0.666740 0.801729 0.588084
O O11 0.919157 0.500000 0.250000
O O12 0.850110 0.308194 0.270777
O O13 0.903353 0.343762 0.144939
O O14 0.000000 0.310516 0.250000
O O15 0.272884 0.187902 0.782213
O O16 0.648560 0.000000 0.750000
O O17 0.719627 0.003097 0.632310
O O18 0.878656 0.686222 0.500000
O O19 0.808387 0.813034 0.595099
O O20 0.738796 0.066917 0.000000
#
# Coordination Sequence:
#
# PCOD9392525 Si02
#       8
#     8   8   8   8   8   8   8   8
#     4  11  19  31  46  75 104 133 171 233 274 300
#     4   9  16  33  50  77 102 134 179 219 253 313
#     4  10  19  32  53  74 102 140 180 223 269 319
#     4  10  18  33  55  81 112 132 160 219 267 304
#     4  10  19  32  55  77 104 140 175 214 265 317
#     4  12  20  31  52  75 102 137 177 221 268 315
#     4   9  16  31  55  77 103 139 175 209 250 314
#     4   9  18  31  49  76 102 132 175 219 259 306
#
# _framework density 16.767146
#
# number of rings (size 3 to 8) (size 9 to 14) (size 15 to 20)
#    0.000    2.000    5.000    4.125    0.000    0.750 
#    0.000    3.125    0.000    6.375    0.000    1.750 
#    0.000    0.000    0.000    0.000    0.000    0.000 
#
# Total GULP energy -356598.027632 kJ/mol
# GULP energy per Si atom -5571.844182 kJ/mol
# Density = 1.672898 g / cm^3
# Si number density = 16.767146 Si / 1000 Ang^3
#
#
#
# Elastic Constant Matrix: (Units=GPa)
#
#
# Indices 1 2 3 4 5 6 
#
# 1 102.4752 31.1290 46.1914 0.0000 0.0000 0.0000
# 2 31.1290 40.8829 31.8770 0.0000 0.0000 0.0000
# 3 46.1914 31.8770 88.5256 0.0000 0.0000 0.0000
# 4 0.0000 0.0000 0.0000 18.3481 0.0000 0.0000
# 5 0.0000 0.0000 0.0000 0.0000 13.5018 0.0000
# 6 0.0000 0.0000 0.0000 0.0000 0.0000 11.0354
#
#
#
# Elastic Compliance Matrix: (Units=1/GPa)
#
#
# Indices 1 2 3 4 5 6 
#
# 1 0.014040 -0.006921 -0.004833 0.000000 0.000000 0.000000
# 2 -0.006921 0.037421 -0.009863 0.000000 0.000000 0.000000
# 3 -0.004833 -0.009863 0.017370 0.000000 0.000000 0.000000
# 4 0.000000 0.000000 0.000000 0.054502 0.000000 0.000000
# 5 0.000000 0.000000 0.000000 0.000000 0.074064 0.000000
# 6 0.000000 0.000000 0.000000 0.000000 0.000000 0.090617
#
#
# Mechanical properties :
#
#
# Convention : Reuss Voigt Hill
#
# Bulk Modulus (GPa) = 39.07151 50.03093 44.55122
# Shear Modulus (GPa) = 14.71538 16.75615 15.73577
#
# Velocity S-wave (km/s) = 2.96570 3.16467 3.06680
# Velocity P-wave (km/s) = 5.92285 6.57700 6.25848
#
# Compressibility (1/GPa) = 0.02559410
#
# Stress axis : x y z
#
# Youngs Moduli (GPa) = 71.22674 26.72317 57.57125
#
# Poissons Ratio (x) = 0.18496 0.27826
# Poissons Ratio (y) = 0.49299 0.56784
# Poissons Ratio (z) = 0.34427 0.26358
#
# Static dielectric constant tensor:
#      x y z
#    x 1.581430 0.000000 0.000000 
#    y 0.000000 1.558650 0.000000 
#    z 0.000000 0.000000 1.597350 
# 
# From -- ./inp_files/18224.got.cif
#   From: 2010.05.17/outbox.cif.g08.bks.cpg/sg49_10_cif.got.tgz:18224.got - 2010.06.03 21:02:19.
