data_PCOD9392141
_publ_section_title
;
Structure prediction by ZEFSAII (Michael W. Deem and Ramdas Pophale) SiO2 
 PCOD9392141
Probable space group: P C C M
;
_chemical_formula_sum "Si O2"
_cell_formula_units_Z 48
_cell_length_a 32.275238
_cell_length_b 9.874965
_cell_length_c 8.663499
_cell_angle_alpha 90.000000
_cell_angle_beta 90.000000
_cell_angle_gamma 90.000000
_cell_volume 2761.203073
_symmetry_space_group_name_H-M "P C C M"
_symmetry_group_IT_number 49
_symmetry_cell_setting 'orthorhombic'
loop_
_space_group_symop_operation_xyz
x,y,z
-x,-y,z
x,-y,1/2-z
-x,y,1/2-z
-x,-y,-z
x,y,-z
-x,y,1/2+z
x,-y,1/2+z
loop_
_atom_site_type_symbol
_atom_site_label
_atom_site_fract_x
_atom_site_fract_y
_atom_site_fract_z
Si Si1 0.958060 0.153161 0.815628
Si Si2 0.203025 0.650149 0.314750
Si Si3 0.628923 0.152288 0.686028
Si Si4 0.542546 0.845905 0.684780
Si Si5 0.866433 0.152367 0.185080
Si Si6 0.297296 0.350744 0.185750
O O1 0.912546 0.208457 0.774144
O O2 0.000000 0.219029 0.750000
O O3 0.957342 0.000000 0.750000
O O4 0.961362 0.147625 0.000000
O O5 0.195019 0.500000 0.250000
O O6 0.201075 0.647452 0.500000
O O7 0.169611 0.754404 0.250797
O O8 0.250291 0.687113 0.267920
O O9 0.626070 0.146848 0.500000
O O10 0.585901 0.211543 0.753245
O O11 0.667946 0.243519 0.733179
O O12 0.633899 0.000000 0.750000
O O13 0.500000 0.783198 0.750000
O O14 0.541694 0.848808 0.500000
O O15 0.543007 0.000000 0.750000
O O16 0.862970 0.000000 0.250000
O O17 0.863909 0.146634 0.000000
O O18 0.306037 0.500000 0.250000
O O19 0.297979 0.357382 0.000000
#
# Coordination Sequence:
#
# PCOD9392141 Si02
#       6
#     8   8   8   8   8   8
#     4   9  16  26  43  67  97 129 163 199 242 291
#     4  10  20  36  55  75  99 132 170 208 250 302
#     4  10  19  32  49  74 103 130 162 203 245 288
#     4  10  17  27  44  68  97 130 163 198 240 287
#     4  10  20  33  50  76 105 134 167 208 252 296
#     4   9  20  36  54  74  98 129 167 204 245 296
#
# _framework density 17.383727
#
# number of rings (size 3 to 8) (size 9 to 14) (size 15 to 20)
#    0.000    2.333    0.000    5.500    0.000    4.667 
#    0.000    1.667    0.000    1.000    0.000    7.000 
#    0.000    0.000    0.000    0.000    0.000    0.000 
#
# Total GULP energy -267539.128535 kJ/mol
# GULP energy per Si atom -5573.731844 kJ/mol
# Density = 1.734416 g / cm^3
# Si number density = 17.383727 Si / 1000 Ang^3
#
#
#
# Elastic Constant Matrix: (Units=GPa)
#
#
# Indices 1 2 3 4 5 6 
#
# 1 201.8829 85.6903 63.1288 0.0000 0.0000 0.0000
# 2 85.6903 53.2423 28.1719 0.0000 0.0000 0.0000
# 3 63.1288 28.1719 81.2870 0.0000 0.0000 0.0000
# 4 0.0000 0.0000 0.0000 20.4318 0.0000 0.0000
# 5 0.0000 0.0000 0.0000 0.0000 -186.9200 0.0000
# 6 0.0000 0.0000 0.0000 0.0000 0.0000 -9.3133
#
#
#
# Elastic Compliance Matrix: (Units=1/GPa)
#
#
# Indices 1 2 3 4 5 6 
#
# 1 0.016891 -0.024790 -0.004526 0.000000 0.000000 0.000000
# 2 -0.024790 0.059383 -0.001328 0.000000 0.000000 0.000000
# 3 -0.004526 -0.001328 0.016278 0.000000 0.000000 0.000000
# 4 0.000000 0.000000 0.000000 0.048943 0.000000 0.000000
# 5 0.000000 0.000000 0.000000 0.000000 -0.005350 0.000000
# 6 0.000000 0.000000 0.000000 0.000000 0.000000 -0.107374
#
#
# Mechanical properties :
#
#
# Convention : Reuss Voigt Hill
#
# Bulk Modulus (GPa) = 31.98711 76.71048 54.34879
# Shear Modulus (GPa) = 49.76028 -24.53221 12.61404
#
# Velocity S-wave (km/s) = 5.35600 -3.76069 2.69666
# Velocity P-wave (km/s) = 7.52925 5.03651 6.40531
#
# Compressibility (1/GPa) = 0.03126260
#
# Stress axis : x y z
#
# Youngs Moduli (GPa) = 59.20284 16.83975 61.43429
#
# Poissons Ratio (x) = 0.41746 0.27807
# Poissons Ratio (y) = 1.46765 0.08160
# Poissons Ratio (z) = 0.26797 0.02237
#
# Static dielectric constant tensor:
#      x y z
#    x 1.654000 0.000000 0.000000 
#    y 0.000000 1.548050 0.000000 
#    z 0.000000 0.000000 1.594750 
# 
# From -- ./inp_files/6874.got.cif
#   From: 2010.05.17/outbox.cif.g08.bks.cpg/sg49_4_cif.got.tgz:6874.got - 2010.06.03 21:02:19.
