data_PCOD9392474
_publ_section_title
;
Structure prediction by ZEFSAII (Michael W. Deem and Ramdas Pophale) SiO2 
 PCOD9392474
Probable space group: P C C M
;
_chemical_formula_sum "Si O2"
_cell_formula_units_Z 64
_cell_length_a 19.013976
_cell_length_b 23.583933
_cell_length_c 8.567374
_cell_angle_alpha 90.000000
_cell_angle_beta 90.000000
_cell_angle_gamma 90.000000
_cell_volume 3841.818998
_symmetry_space_group_name_H-M "P C C M"
_symmetry_group_IT_number 49
_symmetry_cell_setting 'orthorhombic'
loop_
_space_group_symop_operation_xyz
x,y,z
-x,-y,z
x,-y,1/2-z
-x,y,1/2-z
-x,-y,-z
x,y,-z
-x,y,1/2+z
x,-y,1/2+z
loop_
_atom_site_type_symbol
_atom_site_label
_atom_site_fract_x
_atom_site_fract_y
_atom_site_fract_z
Si Si1 0.786105 0.560184 0.682926
Si Si2 0.185939 0.150923 0.183774
Si Si3 0.075767 0.063898 0.314083
Si Si4 0.076068 0.763269 0.818326
Si Si5 0.616611 0.438512 0.817317
Si Si6 0.838490 0.326100 0.682559
Si Si7 0.708951 0.757279 0.811640
Si Si8 0.424014 0.684684 0.687272
O O1 0.808262 0.500000 0.750000
O O2 0.801877 0.565754 0.500000
O O3 0.701339 0.563734 0.699899
O O4 0.821345 0.609777 0.779925
O O5 0.145571 0.098405 0.263487
O O6 0.129235 0.200243 0.214335
O O7 0.258359 0.181813 0.242039
O O8 0.193348 0.138929 0.000000
O O9 0.070872 0.063638 0.500000
O O10 0.000000 0.086890 0.250000
O O11 0.081227 0.000000 0.250000
O O12 0.100464 0.699096 0.789776
O O13 0.000000 0.772277 0.750000
O O14 0.081271 0.779149 0.000000
O O15 0.593601 0.500000 0.750000
O O16 0.589388 0.380534 0.739587
O O17 0.598473 0.437003 0.000000
O O18 0.854653 0.317661 0.500000
O O19 0.768088 0.290174 0.721331
O O20 0.636212 0.728988 0.755898
O O21 0.704266 0.762337 0.000000
O O22 0.500000 0.701865 0.750000
O O23 0.422810 0.685375 0.500000
#
# Coordination Sequence:
#
# PCOD9392474 Si02
#       8
#     8   8   8   8   8   8   8   8
#     4  10  19  30  47  70  92 116 150 192 238 290
#     4  10  19  34  53  75 100 135 173 212 250 289
#     4  11  21  34  51  76 109 149 184 218 249 290
#     4  11  21  33  48  71  98 127 161 201 243 290
#     4  10  20  33  49  70  93 123 158 200 245 300
#     4  10  18  32  51  70  91 120 153 195 244 292
#     4   8  17  32  51  70  94 125 162 201 246 293
#     4  11  21  35  51  71  97 130 163 203 252 307
#
# _framework density 16.658776
#
# number of rings (size 3 to 8) (size 9 to 14) (size 15 to 20)
#    0.000    1.875    1.250    5.625    0.000    1.250 
#    0.000    3.125    0.000    0.375    0.000    2.625 
#    0.000    0.500    0.000    5.750    0.000    1.750 
#
# Total GULP energy -356727.612426 kJ/mol
# GULP energy per Si atom -5573.868944 kJ/mol
# Density = 1.662086 g / cm^3
# Si number density = 16.658776 Si / 1000 Ang^3
#
#
#
# Elastic Constant Matrix: (Units=GPa)
#
#
# Indices 1 2 3 4 5 6 
#
# 1 68.3210 41.4564 13.7908 0.0000 0.0000 0.0000
# 2 41.4564 88.1110 22.6426 0.0000 0.0000 0.0000
# 3 13.7908 22.6426 53.5409 0.0000 0.0000 0.0000
# 4 0.0000 0.0000 0.0000 23.5570 0.0000 0.0000
# 5 0.0000 0.0000 0.0000 0.0000 17.6072 0.0000
# 6 0.0000 0.0000 0.0000 0.0000 0.0000 14.9350
#
#
#
# Elastic Compliance Matrix: (Units=1/GPa)
#
#
# Indices 1 2 3 4 5 6 
#
# 1 0.020572 -0.009332 -0.001352 0.000000 0.000000 0.000000
# 2 -0.009332 0.016966 -0.004771 0.000000 0.000000 0.000000
# 3 -0.001352 -0.004771 0.021043 0.000000 0.000000 0.000000
# 4 0.000000 0.000000 0.000000 0.042450 0.000000 0.000000
# 5 0.000000 0.000000 0.000000 0.000000 0.056795 0.000000
# 6 0.000000 0.000000 0.000000 0.000000 0.000000 0.066957
#
#
# Mechanical properties :
#
#
# Convention : Reuss Voigt Hill
#
# Bulk Modulus (GPa) = 36.13941 40.63916 38.38929
# Shear Modulus (GPa) = 18.87374 20.02538 19.44956
#
# Velocity S-wave (km/s) = 3.36960 3.47088 3.42062
# Velocity P-wave (km/s) = 6.07289 6.36480 6.22056
#
# Compressibility (1/GPa) = 0.02767062
#
# Stress axis : x y z
#
# Youngs Moduli (GPa) = 48.60945 58.94128 47.52062
#
# Poissons Ratio (x) = 0.55002 0.06427
# Poissons Ratio (y) = 0.45361 0.22674
# Poissons Ratio (z) = 0.06574 0.28123
#
# Static dielectric constant tensor:
#      x y z
#    x 1.606590 0.000000 0.000000 
#    y 0.000000 1.591860 0.000000 
#    z 0.000000 0.000000 1.575050 
# 
# From -- ./inp_files/5392.got.cif
#   From: 2010.05.17/outbox.cif.g08.bks.cpg/sg49_3_cif.got.tgz:5392.got - 2010.06.03 21:02:19.
