data_PCOD9392744
_publ_section_title
;
Structure prediction by ZEFSAII (Michael W. Deem and Ramdas Pophale) SiO2 
 PCOD9392744
Probable space group: P C C M
;
_chemical_formula_sum "Si O2"
_cell_formula_units_Z 64
_cell_length_a 25.658224
_cell_length_b 15.708828
_cell_length_c 8.686074
_cell_angle_alpha 90.000000
_cell_angle_beta 90.000000
_cell_angle_gamma 90.000000
_cell_volume 3501.014438
_symmetry_space_group_name_H-M "P C C M"
_symmetry_group_IT_number 49
_symmetry_cell_setting 'orthorhombic'
loop_
_space_group_symop_operation_xyz
x,y,z
-x,-y,z
x,-y,1/2-z
-x,y,1/2-z
-x,-y,-z
x,y,-z
-x,y,1/2+z
x,-y,1/2+z
loop_
_atom_site_type_symbol
_atom_site_label
_atom_site_fract_x
_atom_site_fract_y
_atom_site_fract_z
Si Si1 0.282375 0.627122 0.679299
Si Si2 0.556087 0.769121 0.814044
Si Si3 0.146466 0.223738 0.315048
Si Si4 0.172039 0.411487 0.682384
Si Si5 0.600267 0.411681 0.314348
Si Si6 0.640932 0.090987 0.686369
Si Si7 0.255405 0.824546 0.320847
Si Si8 0.942175 0.092587 0.185837
O O1 0.275224 0.601851 0.500000
O O2 0.233311 0.594969 0.775361
O O3 0.338974 0.597543 0.733260
O O4 0.280055 0.729688 0.684256
O O5 0.500000 0.793743 0.750000
O O6 0.570666 0.673381 0.763136
O O7 0.600903 0.835158 0.765970
O O8 0.554841 0.769176 0.000000
O O9 0.145173 0.227424 0.500000
O O10 0.147681 0.322083 0.258320
O O11 0.200814 0.180635 0.265843
O O12 0.098150 0.165851 0.264738
O O13 0.151365 0.500000 0.750000
O O14 0.166112 0.414033 0.500000
O O15 0.578958 0.500000 0.250000
O O16 0.599625 0.413429 0.500000
O O17 0.641903 0.090170 0.500000
O O18 0.699623 0.113533 0.739480
O O19 0.624684 0.000000 0.750000
O O20 0.244915 0.844145 0.500000
O O21 0.000000 0.109260 0.250000
O O22 0.925963 0.000000 0.250000
O O23 0.943804 0.088943 0.000000
#
# Coordination Sequence:
#
# PCOD9392744 Si02
#       8
#     8   8   8   8   8   8   8   8
#     4   9  16  30  51  73 100 136 172 208 253 305
#     4  10  22  41  59  75 101 134 170 215 264 313
#     4   9  20  35  52  78 113 146 178 220 265 310
#     4  10  19  31  47  73 108 144 179 217 258 304
#     4  10  20  34  53  76 103 133 167 209 257 311
#     4  10  21  38  58  80 106 136 170 213 262 314
#     4   9  17  32  54  77 105 141 175 208 255 313
#     4  10  20  36  57  81 109 142 181 226 271 315
#
# _framework density 18.280415999999999
#
# number of rings (size 3 to 8) (size 9 to 14) (size 15 to 20)
#    0.000    2.375    1.250    1.500    0.000    5.500 
#    0.000    5.000    0.000    0.375    0.000    2.625 
#    0.000    0.000    0.000    0.000    0.000    0.000 
#
# Total GULP energy -357034.909114 kJ/mol
# GULP energy per Si atom -5578.670455 kJ/mol
# Density = 1.823881 g / cm^3
# Si number density = 18.280416 Si / 1000 Ang^3
#
#
#
# Elastic Constant Matrix: (Units=GPa)
#
#
# Indices 1 2 3 4 5 6 
#
# 1 83.9461 63.8788 16.7236 0.0000 0.0000 0.0000
# 2 63.8788 123.8240 23.9050 0.0000 0.0000 0.0000
# 3 16.7236 23.9050 15.1252 0.0000 0.0000 0.0000
# 4 0.0000 0.0000 0.0000 32.1834 0.0000 0.0000
# 5 0.0000 0.0000 0.0000 0.0000 18.8507 0.0000
# 6 0.0000 0.0000 0.0000 0.0000 0.0000 6.9766
#
#
#
# Elastic Compliance Matrix: (Units=1/GPa)
#
#
# Indices 1 2 3 4 5 6 
#
# 1 0.020343 -0.008854 -0.008500 0.000000 0.000000 0.000000
# 2 -0.008854 0.015475 -0.014669 0.000000 0.000000 0.000000
# 3 -0.008500 -0.014669 0.098697 0.000000 0.000000 0.000000
# 4 0.000000 0.000000 0.000000 0.031072 0.000000 0.000000
# 5 0.000000 0.000000 0.000000 0.000000 0.053048 0.000000
# 6 0.000000 0.000000 0.000000 0.000000 0.000000 0.143335
#
#
# Mechanical properties :
#
#
# Convention : Reuss Voigt Hill
#
# Bulk Modulus (GPa) = 14.19040 47.99001 31.09021
# Shear Modulus (GPa) = 11.12331 19.49468 15.30899
#
# Velocity S-wave (km/s) = 2.46942 3.26916 2.89702
# Velocity P-wave (km/s) = 3.98876 6.36859 5.31362
#
# Compressibility (1/GPa) = 0.07047018
#
# Stress axis : x y z
#
# Youngs Moduli (GPa) = 49.15729 64.61859 10.13201
#
# Poissons Ratio (x) = 0.57211 0.08612
# Poissons Ratio (y) = 0.43522 0.14863
# Poissons Ratio (z) = 0.41782 0.94791
#
# Static dielectric constant tensor:
#      x y z
#    x 1.605040 0.000000 0.000000 
#    y 0.000000 1.657970 0.000000 
#    z 0.000000 0.000000 1.627310 
# 
# From -- ./inp_files/6482.got.cif
#   From: 2010.05.17/outbox.cif.g08.bks.cpg/sg49_4_cif.got.tgz:6482.got - 2010.06.03 21:02:19.
