data_PCOD9392634
_publ_section_title
;
Structure prediction by ZEFSAII (Michael W. Deem and Ramdas Pophale) SiO2 
 PCOD9392634
Probable space group: P C C M
;
_chemical_formula_sum "Si O2"
_cell_formula_units_Z 64
_cell_length_a 18.077603
_cell_length_b 12.210646
_cell_length_c 15.454374
_cell_angle_alpha 90.000000
_cell_angle_beta 90.000000
_cell_angle_gamma 90.000000
_cell_volume 3411.386320
_symmetry_space_group_name_H-M "P C C M"
_symmetry_group_IT_number 49
_symmetry_cell_setting 'orthorhombic'
loop_
_space_group_symop_operation_xyz
x,y,z
-x,-y,z
x,-y,1/2-z
-x,y,1/2-z
-x,-y,-z
x,y,-z
-x,y,1/2+z
x,-y,1/2+z
loop_
_atom_site_type_symbol
_atom_site_label
_atom_site_fract_x
_atom_site_fract_y
_atom_site_fract_z
Si Si1 0.728952 0.613399 0.602957
Si Si2 0.219758 0.850764 0.662186
Si Si3 0.192465 0.818651 0.864266
Si Si4 0.537730 0.615118 0.894368
Si Si5 0.593059 0.766618 0.606216
Si Si6 0.915737 0.003008 0.855565
Si Si7 0.707316 0.371406 0.395587
Si Si8 0.673122 0.030734 0.903370
O O1 0.717474 0.604973 0.500000
O O2 0.798902 0.691044 0.618705
O O3 0.657434 0.681702 0.635801
O O4 0.735207 0.490203 0.635741
O O5 0.205415 0.841489 0.763463
O O6 0.146281 0.909794 0.622120
O O7 0.242723 0.730891 0.630850
O O8 0.289913 0.930319 0.646123
O O9 0.259837 0.881395 0.909989
O O10 0.118523 0.882232 0.886717
O O11 0.500000 0.500000 0.867091
O O12 0.484331 0.713987 0.868265
O O13 0.621756 0.633476 0.865648
O O14 0.538978 0.611284 0.000000
O O15 0.595590 0.770009 0.500000
O O16 0.609791 0.890823 0.635078
O O17 0.918365 0.000000 0.750000
O O18 0.000000 0.000000 0.886290
O O19 0.706107 0.370737 0.500000
O O20 0.652464 0.992786 0.000000
#
# Coordination Sequence:
#
# PCOD9392634 Si02
#       8
#     8   8   8   8   8   8   8   8
#     4   9  16  28  47  70  93 124 163 199 234 274
#     4  10  19  30  45  71 101 125 151 191 246 296
#     4   9  17  29  49  73  94 119 156 195 233 284
#     4   9  14  24  43  67  92 116 158 213 247 266
#     4   8  13  23  42  67  87 112 157 206 237 264
#     4   8  15  30  52  74  93 116 151 195 235 280
#     4  10  19  29  45  69  99 131 161 202 246 279
#     4   9  16  28  47  67  92 124 157 196 236 282
#
# _framework density 18.760701000000001
#
# number of rings (size 3 to 8) (size 9 to 14) (size 15 to 20)
#    0.000    3.000    1.250    2.625    0.000    0.500 
#    0.000    0.625    0.000   20.250    0.000   15.750 
#    0.000    0.000    0.000    0.000    0.000    0.000 
#
# Total GULP energy -356387.223148 kJ/mol
# GULP energy per Si atom -5568.550362 kJ/mol
# Density = 1.871800 g / cm^3
# Si number density = 18.760701 Si / 1000 Ang^3
#
#
#
# Elastic Constant Matrix: (Units=GPa)
#
#
# Indices 1 2 3 4 5 6 
#
# 1 67.8043 34.9080 1.4364 0.0000 0.0000 0.0000
# 2 34.9080 114.4975 5.6522 0.0000 0.0000 0.0000
# 3 1.4364 5.6522 25.2901 0.0000 0.0000 0.0000
# 4 0.0000 0.0000 0.0000 13.1589 0.0000 0.0000
# 5 0.0000 0.0000 0.0000 0.0000 17.1026 0.0000
# 6 0.0000 0.0000 0.0000 0.0000 0.0000 25.2744
#
#
#
# Elastic Compliance Matrix: (Units=1/GPa)
#
#
# Indices 1 2 3 4 5 6 
#
# 1 0.017495 -0.005344 0.000201 0.000000 0.000000 0.000000
# 2 -0.005344 0.010464 -0.002035 0.000000 0.000000 0.000000
# 3 0.000201 -0.002035 0.039985 0.000000 0.000000 0.000000
# 4 0.000000 0.000000 0.000000 0.075994 0.000000 0.000000
# 5 0.000000 0.000000 0.000000 0.000000 0.058470 0.000000
# 6 0.000000 0.000000 0.000000 0.000000 0.000000 0.039566
#
#
# Mechanical properties :
#
#
# Convention : Reuss Voigt Hill
#
# Bulk Modulus (GPa) = 18.66126 32.39833 25.52980
# Shear Modulus (GPa) = 18.23537 22.14689 20.19113
#
# Velocity S-wave (km/s) = 3.12107 3.43956 3.28418
# Velocity P-wave (km/s) = 4.79132 5.75159 5.29328
#
# Compressibility (1/GPa) = 0.05358694
#
# Stress axis : x y z
#
# Youngs Moduli (GPa) = 57.15828 95.57024 25.00963
#
# Poissons Ratio (x) = 0.51071 -0.00502
# Poissons Ratio (y) = 0.30545 0.05089
# Poissons Ratio (z) = -0.01147 0.19449
#
# Static dielectric constant tensor:
#      x y z
#    x 1.652740 0.000000 0.000000 
#    y 0.000000 1.681440 0.000000 
#    z 0.000000 0.000000 1.720230 
# 
# From -- ./inp_files/20634.got.cif
#   From: 2010.05.17/outbox.cif.g08.bks.cpg/sg49_11_cif.got.tgz:20634.got - 2010.06.03 21:02:19.
