data_PCOD9392778
_publ_section_title
;
Structure prediction by ZEFSAII (Michael W. Deem and Ramdas Pophale) SiO2 
 PCOD9392778
Probable space group: P C C M
;
_chemical_formula_sum "Si O2"
_cell_formula_units_Z 48
_cell_length_a 14.540683
_cell_length_b 10.117511
_cell_length_c 14.907739
_cell_angle_alpha 90.000000
_cell_angle_beta 90.000000
_cell_angle_gamma 90.000000
_cell_volume 2193.159778
_symmetry_space_group_name_H-M "P C C M"
_symmetry_group_IT_number 49
_symmetry_cell_setting 'orthorhombic'
loop_
_space_group_symop_operation_xyz
x,y,z
-x,-y,z
x,-y,1/2-z
-x,y,1/2-z
-x,-y,-z
x,y,-z
-x,y,1/2+z
x,-y,1/2+z
loop_
_atom_site_type_symbol
_atom_site_label
_atom_site_fract_x
_atom_site_fract_y
_atom_site_fract_z
Si Si1 0.057388 0.200486 0.340274
Si Si2 0.604644 0.490666 0.609469
Si Si3 0.204340 0.008422 0.607214
Si Si4 0.249644 0.711673 0.108208
Si Si5 0.928146 0.598865 0.100225
Si Si6 0.744537 0.279066 0.390102
O O1 0.105349 0.060020 0.358924
O O2 0.000000 0.500000 0.354591
O O3 0.000000 0.202289 0.250000
O O4 0.982133 0.262051 0.406293
O O5 0.500000 0.500000 0.640267
O O6 0.603545 0.496205 0.500000
O O7 0.673338 0.608819 0.637938
O O8 0.651525 0.352202 0.635288
O O9 0.196736 0.997309 0.500000
O O10 0.271599 0.133027 0.625038
O O11 0.237649 0.868764 0.643819
O O12 0.147771 0.704423 0.151169
O O13 0.238255 0.697181 0.000000
O O14 0.829472 0.629728 0.140136
O O15 0.910573 0.545581 0.000000
O O16 0.747716 0.275320 0.500000
#
# Coordination Sequence:
#
# PCOD9392778 Si02
#       6
#     8   8   8   8   8   8
#     4  10  19  31  49  72 101 142 180 228 276 323
#     4   9  16  28  50  80 109 140 180 228 282 331
#     4   8  16  31  49  69 102 145 183 218 264 322
#     4   8  15  30  50  72 104 145 182 223 274 327
#     4  10  19  31  49  72  99 139 182 218 265 327
#     4   9  17  29  47  71  99 135 179 222 262 317
#
# _framework density 21.886229
#
# number of rings (size 3 to 8) (size 9 to 14) (size 15 to 20)
#    1.000    2.000    0.000    2.000    0.000    3.667 
#    0.000    5.000    0.000    6.000    0.000    2.333 
#    0.000    0.000    5.667    0.000    4.000    0.667 
#
# Total GULP energy -267533.288200 kJ/mol
# GULP energy per Si atom -5573.610171 kJ/mol
# Density = 2.183641 g / cm^3
# Si number density = 21.886229 Si / 1000 Ang^3
#
#
#
# Elastic Constant Matrix: (Units=GPa)
#
#
# Indices 1 2 3 4 5 6 
#
# 1 165.0701 83.8868 3.7592 0.0000 0.0000 0.0000
# 2 83.8868 134.7987 9.8805 0.0000 0.0000 0.0000
# 3 3.7592 9.8805 62.7820 0.0000 0.0000 0.0000
# 4 0.0000 0.0000 0.0000 -3.4728 0.0000 0.0000
# 5 0.0000 0.0000 0.0000 0.0000 -23.3139 0.0000
# 6 0.0000 0.0000 0.0000 0.0000 0.0000 30.7458
#
#
#
# Elastic Compliance Matrix: (Units=1/GPa)
#
#
# Indices 1 2 3 4 5 6 
#
# 1 0.008867 -0.005543 0.000341 0.000000 0.000000 0.000000
# 2 -0.005543 0.010970 -0.001395 0.000000 0.000000 0.000000
# 3 0.000341 -0.001395 0.016127 0.000000 0.000000 0.000000
# 4 0.000000 0.000000 0.000000 -0.287953 0.000000 0.000000
# 5 0.000000 0.000000 0.000000 0.000000 -0.042893 0.000000
# 6 0.000000 0.000000 0.000000 0.000000 0.000000 0.032525
#
#
# Mechanical properties :
#
#
# Convention : Reuss Voigt Hill
#
# Bulk Modulus (GPa) = 43.91356 61.96707 52.94031
# Shear Modulus (GPa) = -20.69771 18.46677 -1.11547
#
# Velocity S-wave (km/s) = -3.07855 2.90791 -0.71468
# Velocity P-wave (km/s) = 2.73338 6.29677 4.85390
#
# Compressibility (1/GPa) = 0.02277201
#
# Stress axis : x y z
#
# Youngs Moduli (GPa) = 112.77436 91.15520 62.00719
#
# Poissons Ratio (x) = 0.50529 -0.02117
# Poissons Ratio (y) = 0.62513 0.08647
# Poissons Ratio (z) = -0.03850 0.12712
#
# Static dielectric constant tensor:
#      x y z
#    x 1.745910 0.000000 0.000000 
#    y 0.000000 1.885750 0.000000 
#    z 0.000000 0.000000 1.879700 
# 
# From -- ./inp_files/17738.got.cif
#   From: 2010.05.17/outbox.cif.g08.bks.cpg/sg49_9_cif.got.tgz:17738.got - 2010.06.03 21:02:19.
