data_PCOD9392273
_publ_section_title
;
Structure prediction by ZEFSAII (Michael W. Deem and Ramdas Pophale) SiO2 
 PCOD9392273
Probable space group: P C C M
;
_chemical_formula_sum "Si O2"
_cell_formula_units_Z 56
_cell_length_a 16.681741
_cell_length_b 7.294001
_cell_length_c 21.396523
_cell_angle_alpha 90.000000
_cell_angle_beta 90.000000
_cell_angle_gamma 90.000000
_cell_volume 2603.456931
_symmetry_space_group_name_H-M "P C C M"
_symmetry_group_IT_number 49
_symmetry_cell_setting 'orthorhombic'
loop_
_space_group_symop_operation_xyz
x,y,z
-x,-y,z
x,-y,1/2-z
-x,y,1/2-z
-x,-y,-z
x,y,-z
-x,y,1/2+z
x,-y,1/2+z
loop_
_atom_site_type_symbol
_atom_site_label
_atom_site_fract_x
_atom_site_fract_y
_atom_site_fract_z
Si Si1 0.430373 0.149129 0.430261
Si Si2 0.256590 0.974064 0.434140
Si Si3 0.420349 0.206423 0.283304
Si Si4 0.147884 0.756546 0.866223
Si Si5 0.809804 0.356437 0.614065
Si Si6 0.984161 0.718637 0.071641
Si Si7 0.239902 0.222023 0.249074
O O1 0.433823 0.247245 0.500000
O O2 0.434095 0.225388 0.358644
O O3 0.500000 0.000000 0.432023
O O4 0.345910 0.044401 0.429961
O O5 0.220320 0.033394 0.500000
O O6 0.250716 0.756755 0.428768
O O7 0.204758 0.075682 0.382940
O O8 0.500000 0.286565 0.250000
O O9 0.329884 0.278016 0.270780
O O10 0.416723 0.000000 0.250000
O O11 0.179862 0.570840 0.899412
O O12 0.057770 0.794791 0.887861
O O13 0.166909 0.719499 0.794192
O O14 0.778226 0.311579 0.682731
O O15 0.896980 0.265854 0.602029
O O16 0.000000 0.500000 0.069428
O O17 0.984197 0.785494 0.000000
O O18 0.239151 0.000000 0.250000
#
# Coordination Sequence:
#
# PCOD9392273 Si02
#       7
#     8   8   8   8   8   8   8
#     4  10  19  33  56  89 123 159 204 252 307 371
#     4  11  22  38  62  92 123 160 202 247 306 368
#     4  10  17  30  57  85 117 161 202 250 313 369
#     4  11  22  40  63  89 121 161 204 252 309 363
#     4  11  23  39  62  90 124 158 204 258 303 365
#     4   9  20  39  61  87 120 159 203 251 307 369
#     4  11  21  39  60  87 124 160 205 255 308 370
#
# _framework density 21.509861000000001
#
# number of rings (size 3 to 8) (size 9 to 14) (size 15 to 20)
#    0.000    1.571    4.286    2.143    0.000    2.857 
#    0.000    4.286    0.000    4.286    0.000    4.000 
#    0.000    0.000    0.000    0.000    0.000    0.000 
#
# Total GULP energy -311908.886901 kJ/mol
# GULP energy per Si atom -5569.801552 kJ/mol
# Density = 2.146090 g / cm^3
# Si number density = 21.509861 Si / 1000 Ang^3
#
#
#
# Elastic Constant Matrix: (Units=GPa)
#
#
# Indices 1 2 3 4 5 6 
#
# 1 93.8783 -7.9955 54.8057 0.0000 0.0000 0.0000
# 2 -7.9955 58.6962 -4.5262 0.0000 0.0000 0.0000
# 3 54.8057 -4.5262 166.0601 0.0000 0.0000 0.0000
# 4 0.0000 0.0000 0.0000 17.1229 0.0000 0.0000
# 5 0.0000 0.0000 0.0000 0.0000 48.7340 0.0000
# 6 0.0000 0.0000 0.0000 0.0000 0.0000 -12.2030
#
#
#
# Elastic Compliance Matrix: (Units=1/GPa)
#
#
# Indices 1 2 3 4 5 6 
#
# 1 0.013321 0.001479 -0.004356 0.000000 0.000000 0.000000
# 2 0.001479 0.017237 -0.000018 0.000000 0.000000 0.000000
# 3 -0.004356 -0.000018 0.007459 0.000000 0.000000 0.000000
# 4 0.000000 0.000000 0.000000 0.058401 0.000000 0.000000
# 5 0.000000 0.000000 0.000000 0.000000 0.020520 0.000000
# 6 0.000000 0.000000 0.000000 0.000000 0.000000 -0.081947
#
#
# Mechanical properties :
#
#
# Convention : Reuss Voigt Hill
#
# Bulk Modulus (GPa) = 31.03104 44.80028 37.91566
# Shear Modulus (GPa) = 97.04141 29.15415 63.09778
#
# Velocity S-wave (km/s) = 6.72405 3.68555 5.42200
# Velocity P-wave (km/s) = 8.64531 6.24372 7.54074
#
# Compressibility (1/GPa) = 0.03222579
#
# Stress axis : x y z
#
# Youngs Moduli (GPa) = 75.06878 58.01509 134.06449
#
# Poissons Ratio (x) = -0.08579 0.58400
# Poissons Ratio (y) = -0.11100 0.00244
# Poissons Ratio (z) = 0.32701 0.00106
#
# Static dielectric constant tensor:
#      x y z
#    x 1.712560 0.000000 0.000000 
#    y 0.000000 1.833720 0.000000 
#    z 0.000000 0.000000 1.875640 
# 
# From -- ./inp_files/20855.got.cif
#   From: 2010.05.17/outbox.cif.g08.bks.cpg/sg49_11_cif.got.tgz:20855.got - 2010.06.03 21:02:19.
