data_PCOD9392913
_publ_section_title
;
Structure prediction by ZEFSAII (Michael W. Deem and Ramdas Pophale) SiO2 
 PCOD9392913
Probable space group: P C C M
;
_chemical_formula_sum "Si O2"
_cell_formula_units_Z 52
_cell_length_a 8.671022
_cell_length_b 12.669029
_cell_length_c 27.861874
_cell_angle_alpha 90.000000
_cell_angle_beta 90.000000
_cell_angle_gamma 90.000000
_cell_volume 3060.722402
_symmetry_space_group_name_H-M "P C C M"
_symmetry_group_IT_number 49
_symmetry_cell_setting 'orthorhombic'
loop_
_space_group_symop_operation_xyz
x,y,z
-x,-y,z
x,-y,1/2-z
-x,y,1/2-z
-x,-y,-z
x,y,-z
-x,y,1/2+z
x,-y,1/2+z
loop_
_atom_site_type_symbol
_atom_site_label
_atom_site_fract_x
_atom_site_fract_y
_atom_site_fract_z
Si Si1 0.183207 0.006256 0.000000
Si Si2 0.594337 0.801595 0.000000
Si Si3 0.821806 0.371255 0.756847
Si Si4 0.387957 0.095822 0.582112
Si Si5 0.334187 0.556392 0.500000
Si Si6 0.312790 0.713173 0.857394
Si Si7 0.819722 0.518106 0.597242
Si Si8 0.393467 0.402115 0.174677
O O1 0.256541 0.950917 0.952913
O O2 0.000000 0.000000 0.000000
O O3 0.255334 0.123674 0.000000
O O4 0.492856 0.832305 0.046589
O O5 0.637805 0.680626 0.000000
O O6 0.819555 0.500000 0.750000
O O7 0.764840 0.321413 0.806867
O O8 0.699269 0.341402 0.715776
O O9 0.000000 0.340414 0.750000
O O10 0.319171 0.167202 0.624531
O O11 0.500000 0.000000 0.598031
O O12 0.500000 0.500000 0.500000
O O13 0.240246 0.522402 0.546699
O O14 0.225784 0.640201 0.896077
O O15 0.488538 0.672835 0.852933
O O16 0.727354 0.454928 0.638409
O O17 0.000000 0.500000 0.603665
O O18 0.500000 0.500000 0.193252
#
# Coordination Sequence:
#
# PCOD9392913 Si02
#       8
#     4   4   8   8   4   8   8   8
#     4   9  19  36  62  83 105 141 186 237 280 330
#     4   9  18  36  55  75 105 147 179 221 270 318
#     4  11  20  33  53  78 113 147 182 227 274 336
#     4   9  19  37  57  80 106 136 188 236 275 319
#     4  12  22  34  50  74 111 148 181 214 264 338
#     4  11  21  33  57  80 105 147 187 228 277 324
#     4  11  22  33  46  75 114 148 176 216 272 331
#     4  10  19  32  51  75 102 141 187 218 254 326
#
# _framework density 16.989453999999999
#
# number of rings (size 3 to 8) (size 9 to 14) (size 15 to 20)
#    0.000    1.692    3.077    5.769    0.000    1.846 
#    0.000    3.077    0.000    1.846    0.000    1.077 
#    0.000    0.000    0.000    0.000    0.000    0.000 
#
# Total GULP energy -290051.898105 kJ/mol
# GULP energy per Si atom -5577.921117 kJ/mol
# Density = 1.695079 g / cm^3
# Si number density = 16.989454 Si / 1000 Ang^3
#
#
#
# Elastic Constant Matrix: (Units=GPa)
#
#
# Indices 1 2 3 4 5 6 
#
# 1 154.7604 49.6837 49.0131 0.0000 0.0000 0.0000
# 2 49.6837 102.5853 56.5762 0.0000 0.0000 0.0000
# 3 49.0131 56.5762 100.4691 0.0000 0.0000 0.0000
# 4 0.0000 0.0000 0.0000 21.7262 0.0000 0.0000
# 5 0.0000 0.0000 0.0000 0.0000 17.8612 0.0000
# 6 0.0000 0.0000 0.0000 0.0000 0.0000 8.5467
#
#
#
# Elastic Compliance Matrix: (Units=1/GPa)
#
#
# Indices 1 2 3 4 5 6 
#
# 1 0.008067 -0.002519 -0.002517 0.000000 0.000000 0.000000
# 2 -0.002519 0.014926 -0.007176 0.000000 0.000000 0.000000
# 3 -0.002517 -0.007176 0.015222 0.000000 0.000000 0.000000
# 4 0.000000 0.000000 0.000000 0.046027 0.000000 0.000000
# 5 0.000000 0.000000 0.000000 0.000000 0.055987 0.000000
# 6 0.000000 0.000000 0.000000 0.000000 0.000000 0.117005
#
#
# Mechanical properties :
#
#
# Convention : Reuss Voigt Hill
#
# Bulk Modulus (GPa) = 72.51130 74.26232 73.38681
# Shear Modulus (GPa) = 17.46690 23.12961 20.29825
#
# Velocity S-wave (km/s) = 3.20988 3.69373 3.46027
# Velocity P-wave (km/s) = 7.51736 7.87383 7.69766
#
# Compressibility (1/GPa) = 0.01379095
#
# Stress axis : x y z
#
# Youngs Moduli (GPa) = 123.95433 66.99910 65.69330
#
# Poissons Ratio (x) = 0.16877 0.16536
# Poissons Ratio (y) = 0.31224 0.47142
# Poissons Ratio (z) = 0.31201 0.48079
#
# Static dielectric constant tensor:
#      x y z
#    x 1.574630 0.000000 0.000000 
#    y 0.000000 1.576980 0.000000 
#    z 0.000000 0.000000 1.594780 
# 
# From -- ./inp_files/24540.got.cif
#   From: 2010.05.17/outbox.cif.g08.bks.cpg/sg49_13_cif.got.tgz:24540.got - 2010.06.03 21:02:19.
