data_PCOD9392123
_publ_section_title
;
Structure prediction by ZEFSAII (Michael W. Deem and Ramdas Pophale) SiO2 
 PCOD9392123
Probable space group: P C C M
;
_chemical_formula_sum "Si O2"
_cell_formula_units_Z 64
_cell_length_a 31.929515
_cell_length_b 14.731658
_cell_length_c 8.653883
_cell_angle_alpha 90.000000
_cell_angle_beta 90.000000
_cell_angle_gamma 90.000000
_cell_volume 4070.567577
_symmetry_space_group_name_H-M "P C C M"
_symmetry_group_IT_number 49
_symmetry_cell_setting 'orthorhombic'
loop_
_space_group_symop_operation_xyz
x,y,z
-x,-y,z
x,-y,1/2-z
-x,y,1/2-z
-x,-y,-z
x,y,-z
-x,y,1/2+z
x,-y,1/2+z
loop_
_atom_site_type_symbol
_atom_site_label
_atom_site_fract_x
_atom_site_fract_y
_atom_site_fract_z
Si Si1 0.869521 0.897714 0.685948
Si Si2 0.627132 0.211094 0.686936
Si Si3 0.758111 0.597181 0.815264
Si Si4 0.339443 0.596737 0.685864
Si Si5 0.545397 0.899217 0.814347
Si Si6 0.293754 0.101493 0.314454
Si Si7 0.043006 0.103171 0.184770
Si Si8 0.787752 0.216984 0.813901
O O1 0.872648 0.902621 0.500000
O O2 0.912983 0.858919 0.754041
O O3 0.829845 0.836439 0.729548
O O4 0.863652 0.000000 0.750000
O O5 0.629912 0.208021 0.500000
O O6 0.634547 0.315196 0.735862
O O7 0.582653 0.168356 0.731609
O O8 0.664740 0.150976 0.753760
O O9 0.772052 0.500000 0.750000
O O10 0.709256 0.609663 0.765980
O O11 0.783771 0.682768 0.754469
O O12 0.759136 0.594964 0.000000
O O13 0.353915 0.500000 0.750000
O O14 0.340151 0.592697 0.500000
O O15 0.500000 0.871977 0.750000
O O16 0.554461 0.000000 0.750000
O O17 0.543453 0.903867 0.000000
O O18 0.294561 0.098485 0.500000
O O19 0.252940 0.158892 0.264821
O O20 0.291427 0.000000 0.250000
O O21 0.000000 0.145254 0.250000
O O22 0.043501 0.000000 0.250000
O O23 0.041988 0.101129 0.000000
O O24 0.786857 0.223168 0.000000
#
# Coordination Sequence:
#
# PCOD9392123 Si02
#       8
#     8   8   8   8   8   8   8   8
#     4  10  19  31  45  64  93 129 166 204 241 286
#     4  10  20  35  52  73  98 125 158 197 238 281
#     4  10  19  32  52  71  94 124 158 201 243 285
#     4   9  18  32  50  73  97 122 154 194 238 281
#     4  10  20  34  53  73  98 125 156 194 234 283
#     4  11  22  33  47  68  96 130 164 198 232 276
#     4  10  17  27  43  63  87 118 159 204 247 290
#     4  10  21  34  47  67  96 129 165 199 237 284
#
# _framework density 15.722623
#
# number of rings (size 3 to 8) (size 9 to 14) (size 15 to 20)
#    0.000    2.000    1.250    4.875    0.000    4.500 
#    0.000    0.000    0.000    0.375    0.000    2.625 
#    0.000    0.500    0.000    5.250    0.000    2.250 
#
# Total GULP energy -357084.159780 kJ/mol
# GULP energy per Si atom -5579.439997 kJ/mol
# Density = 1.568684 g / cm^3
# Si number density = 15.722623 Si / 1000 Ang^3
#
#
#
# Elastic Constant Matrix: (Units=GPa)
#
#
# Indices 1 2 3 4 5 6 
#
# 1 135.7097 79.5928 42.9113 0.0000 0.0000 0.0000
# 2 79.5928 125.5609 33.8682 0.0000 0.0000 0.0000
# 3 42.9113 33.8682 45.9654 0.0000 0.0000 0.0000
# 4 0.0000 0.0000 0.0000 24.3735 0.0000 0.0000
# 5 0.0000 0.0000 0.0000 0.0000 25.8059 0.0000
# 6 0.0000 0.0000 0.0000 0.0000 0.0000 6.3999
#
#
#
# Elastic Compliance Matrix: (Units=1/GPa)
#
#
# Indices 1 2 3 4 5 6 
#
# 1 0.013742 -0.006553 -0.008000 0.000000 0.000000 0.000000
# 2 -0.006553 0.013064 -0.003509 0.000000 0.000000 0.000000
# 3 -0.008000 -0.003509 0.031810 0.000000 0.000000 0.000000
# 4 0.000000 0.000000 0.000000 0.041028 0.000000 0.000000
# 5 0.000000 0.000000 0.000000 0.000000 0.038751 0.000000
# 6 0.000000 0.000000 0.000000 0.000000 0.000000 0.156253
#
#
# Mechanical properties :
#
#
# Convention : Reuss Voigt Hill
#
# Bulk Modulus (GPa) = 44.46048 68.88674 56.67361
# Shear Modulus (GPa) = 14.78116 21.37342 18.07729
#
# Velocity S-wave (km/s) = 3.06947 3.69101 3.39449
# Velocity P-wave (km/s) = 6.39543 7.87868 7.17549
#
# Compressibility (1/GPa) = 0.02249189
#
# Stress axis : x y z
#
# Youngs Moduli (GPa) = 72.77226 76.54334 31.43707
#
# Poissons Ratio (x) = 0.50157 0.25151
# Poissons Ratio (y) = 0.47686 0.11031
# Poissons Ratio (z) = 0.58220 0.26858
#
# Static dielectric constant tensor:
#      x y z
#    x 1.538660 0.000000 0.000000 
#    y 0.000000 1.503240 0.000000 
#    z 0.000000 0.000000 1.530560 
# 
# From -- ./inp_files/7043.got.cif
#   From: 2010.05.17/outbox.cif.g08.bks.cpg/sg49_4_cif.got.tgz:7043.got - 2010.06.03 21:02:19.
