data_PCOD9392781
_publ_section_title
;
Structure prediction by ZEFSAII (Michael W. Deem and Ramdas Pophale) SiO2 
 PCOD9392781
Probable space group: P C C M
;
_chemical_formula_sum "Si O2"
_cell_formula_units_Z 64
_cell_length_a 19.656556
_cell_length_b 24.060156
_cell_length_c 8.736487
_cell_angle_alpha 90.000000
_cell_angle_beta 90.000000
_cell_angle_gamma 90.000000
_cell_volume 4131.832448
_symmetry_space_group_name_H-M "P C C M"
_symmetry_group_IT_number 49
_symmetry_cell_setting 'orthorhombic'
loop_
_space_group_symop_operation_xyz
x,y,z
-x,-y,z
x,-y,1/2-z
-x,y,1/2-z
-x,-y,-z
x,y,-z
-x,y,1/2+z
x,-y,1/2+z
loop_
_atom_site_type_symbol
_atom_site_label
_atom_site_fract_x
_atom_site_fract_y
_atom_site_fract_z
Si Si1 0.426101 0.771486 0.816544
Si Si2 0.928891 0.753823 0.816388
Si Si3 0.786816 0.060690 0.316508
Si Si4 0.706639 0.161727 0.182416
Si Si5 0.425151 0.560443 0.183063
Si Si6 0.218738 0.268947 0.815578
Si Si7 0.928291 0.116028 0.315825
Si Si8 0.350053 0.664337 0.683494
O O1 0.500000 0.783863 0.750000
O O2 0.370258 0.818919 0.781323
O O3 0.397564 0.714599 0.742943
O O4 0.429106 0.764711 0.000000
O O5 0.859586 0.723024 0.769513
O O6 0.921173 0.818941 0.770545
O O7 0.000000 0.732960 0.750000
O O8 0.933327 0.752465 0.000000
O O9 0.786563 0.059094 0.500000
O O10 0.732168 0.105608 0.259882
O O11 0.861656 0.082530 0.265734
O O12 0.774133 0.000000 0.250000
O O13 0.753453 0.212360 0.241512
O O14 0.713055 0.156991 0.000000
O O15 0.406890 0.500000 0.250000
O O16 0.500000 0.574139 0.250000
O O17 0.373892 0.607855 0.238223
O O18 0.428925 0.557995 0.000000
O O19 0.272927 0.316882 0.778280
O O20 0.220266 0.261423 0.000000
O O21 0.931253 0.114218 0.500000
O O22 0.000000 0.095318 0.250000
O O23 0.356407 0.659851 0.500000
#
# Coordination Sequence:
#
# PCOD9392781 Si02
#       8
#     8   8   8   8   8   8   8   8
#     4  10  20  33  50  74  99 123 153 190 233 280
#     4   9  16  28  44  66  92 123 157 189 230 278
#     4  11  22  36  51  68  90 118 152 190 231 280
#     4  10  20  33  50  71  93 117 150 189 231 280
#     4  11  21  34  50  69  98 134 173 208 238 278
#     4   9  17  31  49  68  95 127 159 194 235 282
#     4   9  18  31  47  65  90 119 152 188 226 272
#     4  10  19  31  49  72  99 132 165 200 239 275
#
# _framework density 15.489496000000001
#
# number of rings (size 3 to 8) (size 9 to 14) (size 15 to 20)
#    0.000    2.125    1.250    3.375    0.000    3.750 
#    0.000    1.250    0.000    0.375    0.000    2.625 
#    0.000    0.500    0.000    5.750    0.000    1.750 
#
# Total GULP energy -357046.074440 kJ/mol
# GULP energy per Si atom -5578.844913 kJ/mol
# Density = 1.545424 g / cm^3
# Si number density = 15.489496 Si / 1000 Ang^3
#
#
#
# Elastic Constant Matrix: (Units=GPa)
#
#
# Indices 1 2 3 4 5 6 
#
# 1 145.1535 66.8693 49.7347 0.0000 0.0000 0.0000
# 2 66.8693 93.3640 43.8191 0.0000 0.0000 0.0000
# 3 49.7347 43.8191 57.7958 0.0000 0.0000 0.0000
# 4 0.0000 0.0000 0.0000 22.2848 0.0000 0.0000
# 5 0.0000 0.0000 0.0000 0.0000 24.4661 0.0000
# 6 0.0000 0.0000 0.0000 0.0000 0.0000 21.3168
#
#
#
# Elastic Compliance Matrix: (Units=1/GPa)
#
#
# Indices 1 2 3 4 5 6 
#
# 1 0.011336 -0.005497 -0.005587 0.000000 0.000000 0.000000
# 2 -0.005497 0.019293 -0.009897 0.000000 0.000000 0.000000
# 3 -0.005587 -0.009897 0.029614 0.000000 0.000000 0.000000
# 4 0.000000 0.000000 0.000000 0.044874 0.000000 0.000000
# 5 0.000000 0.000000 0.000000 0.000000 0.040873 0.000000
# 6 0.000000 0.000000 0.000000 0.000000 0.000000 0.046911
#
#
# Mechanical properties :
#
#
# Convention : Reuss Voigt Hill
#
# Bulk Modulus (GPa) = 54.70376 68.57328 61.63852
# Shear Modulus (GPa) = 20.75065 22.67289 21.71177
#
# Velocity S-wave (km/s) = 3.66411 3.83006 3.74800
# Velocity P-wave (km/s) = 7.30029 7.99538 7.65573
#
# Compressibility (1/GPa) = 0.01828028
#
# Stress axis : x y z
#
# Youngs Moduli (GPa) = 88.21529 51.83315 33.76766
#
# Poissons Ratio (x) = 0.28491 0.18867
# Poissons Ratio (y) = 0.48489 0.33420
# Poissons Ratio (z) = 0.49290 0.51300
#
# Static dielectric constant tensor:
#      x y z
#    x 1.529850 0.000000 0.000000 
#    y 0.000000 1.488520 0.000000 
#    z 0.000000 0.000000 1.524740 
# 
# From -- ./inp_files/5428.got.cif
#   From: 2010.05.17/outbox.cif.g08.bks.cpg/sg49_3_cif.got.tgz:5428.got - 2010.06.03 21:02:19.
