data_PCOD9392133
_publ_section_title
;
Structure prediction by ZEFSAII (Michael W. Deem and Ramdas Pophale) SiO2 
 PCOD9392133
Probable space group: P C C M
;
_chemical_formula_sum "Si O2"
_cell_formula_units_Z 48
_cell_length_a 21.750454
_cell_length_b 12.298280
_cell_length_c 10.698539
_cell_angle_alpha 90.000000
_cell_angle_beta 90.000000
_cell_angle_gamma 90.000000
_cell_volume 2861.786148
_symmetry_space_group_name_H-M "P C C M"
_symmetry_group_IT_number 49
_symmetry_cell_setting 'orthorhombic'
loop_
_space_group_symop_operation_xyz
x,y,z
-x,-y,z
x,-y,1/2-z
-x,y,1/2-z
-x,-y,-z
x,y,-z
-x,y,1/2+z
x,-y,1/2+z
loop_
_atom_site_type_symbol
_atom_site_label
_atom_site_fract_x
_atom_site_fract_y
_atom_site_fract_z
Si Si1 0.954431 0.670731 0.140313
Si Si2 0.360553 0.130107 0.249046
Si Si3 0.572886 0.867612 0.500000
Si Si4 0.096637 0.914843 0.644164
Si Si5 0.232644 0.822697 0.642858
Si Si6 0.570175 0.866863 0.000000
Si Si7 0.817499 0.420547 0.360640
O O1 0.938010 0.799182 0.153122
O O2 0.889956 0.607744 0.149380
O O3 0.000000 0.638913 0.250000
O O4 0.979644 0.653577 0.000000
O O5 0.391898 0.170227 0.375869
O O6 0.288323 0.152496 0.234685
O O7 0.367908 0.000000 0.250000
O O8 0.395657 0.171230 0.125433
O O9 0.501399 0.836002 0.500000
O O10 0.573102 0.000477 0.500000
O O11 0.089225 0.953970 0.500000
O O12 0.168963 0.886648 0.664545
O O13 0.077214 0.000000 0.750000
O O14 0.252306 0.849232 0.500000
O O15 0.215982 0.695551 0.648180
O O16 0.799360 0.500000 0.250000
O O17 0.806481 0.465641 0.500000
#
# Coordination Sequence:
#
# PCOD9392133 Si02
#       7
#     8   8   4   8   8   4   8
#     4   9  19  34  51  70  96 124 153 187 227 278
#     4  10  17  27  44  65  94 131 162 191 225 264
#     4   9  18  26  38  66  95 125 166 201 217 255
#     4   9  18  32  47  66  93 127 160 193 227 263
#     4   9  17  32  49  65  91 124 157 188 233 286
#     4   9  16  28  42  58  93 137 164 185 229 265
#     4   9  19  36  54  71  92 118 147 190 241 286
#
# _framework density 16.772742000000001
#
# number of rings (size 3 to 8) (size 9 to 14) (size 15 to 20)
#    0.000    2.833    0.833    3.000    0.000    4.000 
#    3.000    5.000    0.000    0.000    0.000    0.000 
#    0.000    4.000    0.000    0.000    0.000    0.000 
#
# Total GULP energy -267558.666387 kJ/mol
# GULP energy per Si atom -5574.138883 kJ/mol
# Density = 1.673457 g / cm^3
# Si number density = 16.772742 Si / 1000 Ang^3
#
#
#
# Elastic Constant Matrix: (Units=GPa)
#
#
# Indices 1 2 3 4 5 6 
#
# 1 56.7540 -18.1805 36.3464 0.0000 0.0000 0.0000
# 2 -18.1805 24.8997 21.2788 0.0000 0.0000 0.0000
# 3 36.3464 21.2788 124.7432 0.0000 0.0000 0.0000
# 4 0.0000 0.0000 0.0000 15.1123 0.0000 0.0000
# 5 0.0000 0.0000 0.0000 0.0000 -23.8473 0.0000
# 6 0.0000 0.0000 0.0000 0.0000 0.0000 2.5495
#
#
#
# Elastic Compliance Matrix: (Units=1/GPa)
#
#
# Indices 1 2 3 4 5 6 
#
# 1 0.054892 0.062919 -0.026727 0.000000 0.000000 0.000000
# 2 0.062919 0.119136 -0.038655 0.000000 0.000000 0.000000
# 3 -0.026727 -0.038655 0.022398 0.000000 0.000000 0.000000
# 4 0.000000 0.000000 0.000000 0.066171 0.000000 0.000000
# 5 0.000000 0.000000 0.000000 0.000000 -0.041934 0.000000
# 6 0.000000 0.000000 0.000000 0.000000 0.000000 0.392237
#
#
# Mechanical properties :
#
#
# Convention : Reuss Voigt Hill
#
# Bulk Modulus (GPa) = 5.22192 31.69849 18.46021
# Shear Modulus (GPa) = 7.33506 9.89305 8.61405
#
# Velocity S-wave (km/s) = 2.09349 2.43127 2.26868
# Velocity P-wave (km/s) = 2.99394 5.17893 4.22995
#
# Compressibility (1/GPa) = 0.19150028
#
# Stress axis : x y z
#
# Youngs Moduli (GPa) = 18.21768 8.39379 44.64757
#
# Poissons Ratio (x) = -0.52813 1.19328
# Poissons Ratio (y) = -1.14624 1.72586
# Poissons Ratio (z) = 0.48690 0.32446
#
# Static dielectric constant tensor:
#      x y z
#    x 1.561650 0.000000 0.000000 
#    y 0.000000 1.541800 0.000000 
#    z 0.000000 0.000000 1.583980 
# 
# From -- ./inp_files/4179.got.cif
#   From: 2010.05.17/outbox.cif.g08.bks.cpg/sg49_3_cif.got.tgz:4179.got - 2010.06.03 21:02:19.
