data_PCOD9392203
_publ_section_title
;
Structure prediction by ZEFSAII (Michael W. Deem and Ramdas Pophale) SiO2 
 PCOD9392203
Probable space group: P C C M
;
_chemical_formula_sum "Si O2"
_cell_formula_units_Z 40
_cell_length_a 9.970026
_cell_length_b 26.482263
_cell_length_c 8.589313
_cell_angle_alpha 90.000000
_cell_angle_beta 90.000000
_cell_angle_gamma 90.000000
_cell_volume 2267.826439
_symmetry_space_group_name_H-M "P C C M"
_symmetry_group_IT_number 49
_symmetry_cell_setting 'orthorhombic'
loop_
_space_group_symop_operation_xyz
x,y,z
-x,-y,z
x,-y,1/2-z
-x,y,1/2-z
-x,-y,-z
x,y,-z
-x,y,1/2+z
x,-y,1/2+z
loop_
_atom_site_type_symbol
_atom_site_label
_atom_site_fract_x
_atom_site_fract_y
_atom_site_fract_z
Si Si1 0.347058 0.052048 0.186000
Si Si2 0.850216 0.757424 0.812515
Si Si3 0.852010 0.358223 0.312597
Si Si4 0.651705 0.841900 0.685914
Si Si5 0.650266 0.445667 0.687322
O O1 0.500000 0.052379 0.250000
O O2 0.291099 0.105029 0.247831
O O3 0.284782 0.000000 0.250000
O O4 0.349135 0.051265 0.000000
O O5 0.817276 0.699372 0.767220
O O6 0.744537 0.796276 0.741784
O O7 0.000000 0.767837 0.750000
O O8 0.849250 0.761088 0.000000
O O9 0.856294 0.359358 0.500000
O O10 0.745796 0.400071 0.260844
O O11 0.000000 0.369474 0.250000
O O12 0.500000 0.835606 0.750000
O O13 0.645961 0.844706 0.500000
O O14 0.697764 0.500000 0.750000
O O15 0.500000 0.438117 0.750000
O O16 0.646781 0.447277 0.500000
#
# Coordination Sequence:
#
# PCOD9392203 Si02
#       5
#     8   8   8   8   8
#     4  10  17  28  46  71 102 136 171 213 260 310
#     4  10  20  37  56  77 104 138 175 215 261 314
#     4   9  20  36  55  77 103 133 172 213 255 304
#     4  11  21  34  52  78 107 138 175 219 263 310
#     4  10  20  35  53  77 105 137 171 209 254 306
#
# _framework density 17.638034999999999
#
# number of rings (size 3 to 8) (size 9 to 14) (size 15 to 20)
#    0.000    2.000    0.000    7.200    0.000    3.600 
#    0.000    4.000    0.000    0.600    0.000    4.200 
#    0.000    0.000    0.000    0.000    0.000    0.000 
#
# Total GULP energy -223204.297028 kJ/mol
# GULP energy per Si atom -5580.107426 kJ/mol
# Density = 1.759789 g / cm^3
# Si number density = 17.638035 Si / 1000 Ang^3
#
#
#
# Elastic Constant Matrix: (Units=GPa)
#
#
# Indices 1 2 3 4 5 6 
#
# 1 70.7173 97.2253 37.5679 0.0000 0.0000 0.0000
# 2 97.2253 181.0329 61.9911 0.0000 0.0000 0.0000
# 3 37.5679 61.9911 117.7590 0.0000 0.0000 0.0000
# 4 0.0000 0.0000 0.0000 24.7838 0.0000 0.0000
# 5 0.0000 0.0000 0.0000 0.0000 24.8140 0.0000
# 6 0.0000 0.0000 0.0000 0.0000 0.0000 -59.2999
#
#
#
# Elastic Compliance Matrix: (Units=1/GPa)
#
#
# Indices 1 2 3 4 5 6 
#
# 1 0.054608 -0.028500 -0.002418 0.000000 0.000000 0.000000
# 2 -0.028500 0.021612 -0.002285 0.000000 0.000000 0.000000
# 3 -0.002418 -0.002285 0.010466 0.000000 0.000000 0.000000
# 4 0.000000 0.000000 0.000000 0.040349 0.000000 0.000000
# 5 0.000000 0.000000 0.000000 0.000000 0.040300 0.000000
# 6 0.000000 0.000000 0.000000 0.000000 0.000000 -0.016863
#
#
# Mechanical properties :
#
#
# Convention : Reuss Voigt Hill
#
# Bulk Modulus (GPa) = 49.30852 84.78643 67.04748
# Shear Modulus (GPa) = 22.35744 9.57458 15.96601
#
# Velocity S-wave (km/s) = 3.56416 2.33241 3.01192
# Velocity P-wave (km/s) = 6.70478 7.44501 7.08457
#
# Compressibility (1/GPa) = 0.02028047
#
# Stress axis : x y z
#
# Youngs Moduli (GPa) = 18.31223 46.26967 95.54356
#
# Poissons Ratio (x) = 1.31867 0.23106
# Poissons Ratio (y) = 0.52189 0.21834
# Poissons Ratio (z) = 0.04429 0.10574
#
# Static dielectric constant tensor:
#      x y z
#    x 1.570900 0.000000 0.000000 
#    y 0.000000 1.635780 0.000000 
#    z 0.000000 0.000000 1.593690 
# 
# From -- ./inp_files/1693.got.cif
#   From: 2010.05.17/outbox.cif.g08.bks.cpg/sg49_1_cif.got.tgz:1693.got - 2010.06.03 21:02:19.
