data_PCOD9392491
_publ_section_title
;
Structure prediction by ZEFSAII (Michael W. Deem and Ramdas Pophale) SiO2 
 PCOD9392491
Probable space group: P C C M
;
_chemical_formula_sum "Si O2"
_cell_formula_units_Z 64
_cell_length_a 25.164592
_cell_length_b 15.754215
_cell_length_c 8.668956
_cell_angle_alpha 90.000000
_cell_angle_beta 90.000000
_cell_angle_gamma 90.000000
_cell_volume 3436.793673
_symmetry_space_group_name_H-M "P C C M"
_symmetry_group_IT_number 49
_symmetry_cell_setting 'orthorhombic'
loop_
_space_group_symop_operation_xyz
x,y,z
-x,-y,z
x,-y,1/2-z
-x,y,1/2-z
-x,-y,-z
x,y,-z
-x,y,1/2+z
x,-y,1/2+z
loop_
_atom_site_type_symbol
_atom_site_label
_atom_site_fract_x
_atom_site_fract_y
_atom_site_fract_z
Si Si1 0.284614 0.631068 0.683198
Si Si2 0.556724 0.770850 0.814056
Si Si3 0.141828 0.223386 0.315100
Si Si4 0.171056 0.411856 0.683734
Si Si5 0.596589 0.587540 0.185774
Si Si6 0.643978 0.089511 0.685217
Si Si7 0.263512 0.812184 0.183688
Si Si8 0.940915 0.091022 0.316425
O O1 0.278560 0.619006 0.500000
O O2 0.232875 0.594922 0.767242
O O3 0.341277 0.594324 0.732530
O O4 0.284896 0.730522 0.724142
O O5 0.500000 0.798199 0.750000
O O6 0.569181 0.674646 0.761195
O O7 0.603404 0.835472 0.768945
O O8 0.555287 0.769937 0.000000
O O9 0.133346 0.222034 0.500000
O O10 0.144584 0.322616 0.265150
O O11 0.200528 0.184767 0.285559
O O12 0.097758 0.166519 0.234592
O O13 0.149086 0.500000 0.750000
O O14 0.168322 0.414377 0.500000
O O15 0.573836 0.500000 0.250000
O O16 0.594892 0.585831 0.000000
O O17 0.647871 0.087690 0.500000
O O18 0.701204 0.110194 0.759078
O O19 0.624596 0.000000 0.750000
O O20 0.269991 0.799015 0.000000
O O21 0.943649 0.085242 0.500000
O O22 0.000000 0.105137 0.250000
O O23 0.922180 0.000000 0.250000
#
# Coordination Sequence:
#
# PCOD9392491 Si02
#       8
#     8   8   8   8   8   8   8   8
#     4  10  18  32  53  77 112 150 186 231 279 332
#     4  10  23  43  61  80 108 141 181 231 284 337
#     4   9  20  37  56  84 121 156 196 241 283 339
#     4  10  20  33  51  80 118 158 199 242 286 338
#     4  10  21  36  54  80 110 142 180 224 275 331
#     4  11  23  41  62  85 114 144 183 230 281 344
#     4  10  20  35  57  85 117 152 189 228 280 338
#     4  11  22  38  62  88 117 154 196 243 294 344
#
# _framework density 18.622008999999998
#
# number of rings (size 3 to 8) (size 9 to 14) (size 15 to 20)
#    0.000    1.875    1.250    4.125    0.000    7.500 
#    0.000    2.500    0.000    0.375    0.000    2.625 
#    0.000    0.000    0.000    0.000    0.000    0.000 
#
# Total GULP energy -357353.906485 kJ/mol
# GULP energy per Si atom -5583.654789 kJ/mol
# Density = 1.857962 g / cm^3
# Si number density = 18.622009 Si / 1000 Ang^3
#
#
#
# Elastic Constant Matrix: (Units=GPa)
#
#
# Indices 1 2 3 4 5 6 
#
# 1 70.8304 55.6029 33.4280 0.0000 0.0000 0.0000
# 2 55.6029 128.6753 36.2416 0.0000 0.0000 0.0000
# 3 33.4280 36.2416 48.8845 0.0000 0.0000 0.0000
# 4 0.0000 0.0000 0.0000 34.0781 0.0000 0.0000
# 5 0.0000 0.0000 0.0000 0.0000 23.6396 0.0000
# 6 0.0000 0.0000 0.0000 0.0000 0.0000 1.8308
#
#
#
# Elastic Compliance Matrix: (Units=1/GPa)
#
#
# Indices 1 2 3 4 5 6 
#
# 1 0.025879 -0.007834 -0.011888 0.000000 0.000000 0.000000
# 2 -0.007834 0.012194 -0.003683 0.000000 0.000000 0.000000
# 3 -0.011888 -0.003683 0.031316 0.000000 0.000000 0.000000
# 4 0.000000 0.000000 0.000000 0.029344 0.000000 0.000000
# 5 0.000000 0.000000 0.000000 0.000000 0.042302 0.000000
# 6 0.000000 0.000000 0.000000 0.000000 0.000000 0.546220
#
#
# Mechanical properties :
#
#
# Convention : Reuss Voigt Hill
#
# Bulk Modulus (GPa) = 44.29106 55.43722 49.86414
# Shear Modulus (GPa) = 6.74223 20.11753 13.42988
#
# Velocity S-wave (km/s) = 1.90484 3.29037 2.68840
# Velocity P-wave (km/s) = 5.35479 6.65355 6.03919
#
# Compressibility (1/GPa) = 0.02257792
#
# Stress axis : x y z
#
# Youngs Moduli (GPa) = 38.64150 82.00580 31.93217
#
# Poissons Ratio (x) = 0.64247 0.37962
# Poissons Ratio (y) = 0.30273 0.11761
# Poissons Ratio (z) = 0.45938 0.30204
#
# Static dielectric constant tensor:
#      x y z
#    x 1.619190 0.000000 0.000000 
#    y 0.000000 1.691360 0.000000 
#    z 0.000000 0.000000 1.624990 
# 
# From -- ./inp_files/6483.got.cif
#   From: 2010.05.17/outbox.cif.g08.bks.cpg/sg49_4_cif.got.tgz:6483.got - 2010.06.03 21:02:19.
