data_PCOD9392475
_publ_section_title
;
Structure prediction by ZEFSAII (Michael W. Deem and Ramdas Pophale) SiO2 
 PCOD9392475
Probable space group: P C C M
;
_chemical_formula_sum "Si O2"
_cell_formula_units_Z 64
_cell_length_a 14.757885
_cell_length_b 24.631788
_cell_length_c 9.224783
_cell_angle_alpha 90.000000
_cell_angle_beta 90.000000
_cell_angle_gamma 90.000000
_cell_volume 3353.329416
_symmetry_space_group_name_H-M "P C C M"
_symmetry_group_IT_number 49
_symmetry_cell_setting 'orthorhombic'
loop_
_space_group_symop_operation_xyz
x,y,z
-x,-y,z
x,-y,1/2-z
-x,y,1/2-z
-x,-y,-z
x,y,-z
-x,y,1/2+z
x,-y,1/2+z
loop_
_atom_site_type_symbol
_atom_site_label
_atom_site_fract_x
_atom_site_fract_y
_atom_site_fract_z
Si Si1 0.408789 0.786349 0.172230
Si Si2 0.640638 0.445083 0.666025
Si Si3 0.093853 0.942735 0.172973
Si Si4 0.134850 0.661388 0.833407
Si Si5 0.137761 0.553835 0.666574
Si Si6 0.354336 0.335470 0.667440
Si Si7 0.776989 0.158012 0.169533
Si Si8 0.086203 0.769160 0.329904
O O1 0.500000 0.803083 0.250000
O O2 0.383411 0.724476 0.220639
O O3 0.328371 0.829660 0.195009
O O4 0.422269 0.782598 0.000000
O O5 0.612795 0.500000 0.750000
O O6 0.609335 0.446565 0.500000
O O7 0.751390 0.445734 0.664331
O O8 0.614957 0.388129 0.742009
O O9 0.176646 0.900514 0.189939
O O10 0.000000 0.923916 0.250000
O O11 0.114883 0.000000 0.250000
O O12 0.078287 0.949326 0.000000
O O13 0.108766 0.605080 0.760540
O O14 0.244583 0.664476 0.832806
O O15 0.099122 0.709594 0.735020
O O16 0.104634 0.666470 0.000000
O O17 0.109602 0.500000 0.750000
O O18 0.107376 0.555853 0.500000
O O19 0.383617 0.341984 0.500000
O O20 0.827814 0.197361 0.279103
O O21 0.794838 0.173940 0.000000
O O22 0.073694 0.768729 0.500000
O O23 0.000000 0.794306 0.250000
#
# Coordination Sequence:
#
# PCOD9392475 Si02
#       8
#     8   8   8   8   8   8   8   8
#     4  10  21  38  58  83 114 150 194 243 297 349
#     4   9  16  25  41  67  98 129 171 221 276 346
#     4  10  20  35  60  91 129 167 203 241 283 335
#     4  10  18  32  51  71 101 139 177 225 283 339
#     4   9  16  26  41  66  95 128 173 222 274 335
#     4   9  17  31  51  71 101 140 177 226 287 346
#     4  10  21  40  61  85 119 159 197 240 289 337
#     4  12  24  36  54  81 113 149 188 231 280 341
#
# _framework density 19.085508999999998
#
# number of rings (size 3 to 8) (size 9 to 14) (size 15 to 20)
#    0.000    2.125    1.250    3.375    0.000    6.500 
#    0.000    0.000    0.000    1.125    0.000    7.875 
#    0.000    0.000    0.000    0.000    0.000    0.000 
#
# Total GULP energy -357388.233461 kJ/mol
# GULP energy per Si atom -5584.191148 kJ/mol
# Density = 1.904207 g / cm^3
# Si number density = 19.085509 Si / 1000 Ang^3
#
#
#
# Elastic Constant Matrix: (Units=GPa)
#
#
# Indices 1 2 3 4 5 6 
#
# 1 87.0019 47.3367 56.9931 0.0000 0.0000 0.0000
# 2 47.3367 125.2518 68.7097 0.0000 0.0000 0.0000
# 3 56.9931 68.7097 139.0232 0.0000 0.0000 0.0000
# 4 0.0000 0.0000 0.0000 3.7370 0.0000 0.0000
# 5 0.0000 0.0000 0.0000 0.0000 43.0714 0.0000
# 6 0.0000 0.0000 0.0000 0.0000 0.0000 -37.0991
#
#
#
# Elastic Compliance Matrix: (Units=1/GPa)
#
#
# Indices 1 2 3 4 5 6 
#
# 1 0.016775 -0.003522 -0.005136 0.000000 0.000000 0.000000
# 2 -0.003522 0.011693 -0.004335 0.000000 0.000000 0.000000
# 3 -0.005136 -0.004335 0.011441 0.000000 0.000000 0.000000
# 4 0.000000 0.000000 0.000000 0.267597 0.000000 0.000000
# 5 0.000000 0.000000 0.000000 0.000000 0.023217 0.000000
# 6 0.000000 0.000000 0.000000 0.000000 0.000000 -0.026955
#
#
# Mechanical properties :
#
#
# Convention : Reuss Voigt Hill
#
# Bulk Modulus (GPa) = 71.82758 77.48400 74.65579
# Shear Modulus (GPa) = 14.95227 13.82433 14.38830
#
# Velocity S-wave (km/s) = 2.80203 2.69427 2.74868
# Velocity P-wave (km/s) = 6.94153 7.09685 7.01962
#
# Compressibility (1/GPa) = 0.01392223
#
# Stress axis : x y z
#
# Youngs Moduli (GPa) = 59.61238 85.51913 87.40299
#
# Poissons Ratio (x) = 0.30122 0.44892
# Poissons Ratio (y) = 0.20997 0.37891
# Poissons Ratio (z) = 0.30618 0.37075
#
# Static dielectric constant tensor:
#      x y z
#    x 1.743440 0.000000 0.000000 
#    y 0.000000 1.726780 0.000000 
#    z 0.000000 0.000000 1.646310 
# 
# From -- ./inp_files/4304.got.cif
#   From: 2010.05.17/outbox.cif.g08.bks.cpg/sg49_3_cif.got.tgz:4304.got - 2010.06.03 21:02:19.
