data_PCOD9392009
_publ_section_title
;
Structure prediction by ZEFSAII (Michael W. Deem and Ramdas Pophale) SiO2 
 PCOD9392009
Probable space group: P C C M
;
_chemical_formula_sum "Si O2"
_cell_formula_units_Z 64
_cell_length_a 14.732504
_cell_length_b 32.268731
_cell_length_c 8.697065
_cell_angle_alpha 90.000000
_cell_angle_beta 90.000000
_cell_angle_gamma 90.000000
_cell_volume 4134.577818
_symmetry_space_group_name_H-M "P C C M"
_symmetry_group_IT_number 49
_symmetry_cell_setting 'orthorhombic'
loop_
_space_group_symop_operation_xyz
x,y,z
-x,-y,z
x,-y,1/2-z
-x,y,1/2-z
-x,-y,-z
x,y,-z
-x,y,1/2+z
x,-y,1/2+z
loop_
_atom_site_type_symbol
_atom_site_label
_atom_site_fract_x
_atom_site_fract_y
_atom_site_fract_z
Si Si1 0.905052 0.670776 0.184210
Si Si2 0.711467 0.543672 0.684884
Si Si3 0.602267 0.873190 0.316020
Si Si4 0.396791 0.957515 0.316350
Si Si5 0.398794 0.374509 0.685003
Si Si6 0.095577 0.422274 0.315349
Si Si7 0.710601 0.703736 0.184106
Si Si8 0.602275 0.219230 0.183991
O O1 0.893086 0.624772 0.254758
O O2 0.816689 0.697662 0.223057
O O3 0.000000 0.687275 0.250000
O O4 0.911318 0.666832 0.000000
O O5 0.679470 0.500000 0.750000
O O6 0.710036 0.542054 0.500000
O O7 0.650947 0.582898 0.732612
O O8 0.815540 0.552435 0.733453
O O9 0.500000 0.871423 0.250000
O O10 0.599092 0.878536 0.500000
O O11 0.645479 0.914172 0.241164
O O12 0.638717 0.827231 0.280673
O O13 0.500000 0.956856 0.250000
O O14 0.400295 0.958933 0.500000
O O15 0.355234 0.000000 0.250000
O O16 0.500000 0.373225 0.750000
O O17 0.400433 0.372743 0.500000
O O18 0.342764 0.335544 0.747647
O O19 0.091435 0.421383 0.500000
O O20 0.000000 0.438189 0.250000
O O21 0.665834 0.745256 0.248860
O O22 0.701792 0.703176 0.000000
O O23 0.500000 0.223488 0.250000
O O24 0.596521 0.223056 0.000000
#
# Coordination Sequence:
#
# PCOD9392009 Si02
#       8
#     8   8   8   8   8   8   8   8
#     4  10  20  33  53  78 100 124 150 181 221 266
#     4  10  23  39  56  75  99 126 153 185 223 267
#     4   9  16  26  38  54  77 108 147 189 235 279
#     4  10  16  22  33  49  71 102 142 190 238 280
#     4  11  23  40  57  75  97 123 155 191 229 268
#     4  10  19  34  54  78 102 126 151 179 218 264
#     4  11  22  35  53  76  98 123 154 188 227 272
#     4  10  20  32  47  66  92 125 158 197 239 279
#
# _framework density 15.47921
#
# number of rings (size 3 to 8) (size 9 to 14) (size 15 to 20)
#    0.000    1.875    1.250    5.625    0.000    5.500 
#    0.000    2.500    0.000    0.000    0.000    0.000 
#    0.000    0.000    0.000    0.000    0.000    0.625 
#
# Total GULP energy -357034.008511 kJ/mol
# GULP energy per Si atom -5578.656383 kJ/mol
# Density = 1.544398 g / cm^3
# Si number density = 15.479210 Si / 1000 Ang^3
#
#
#
# Elastic Constant Matrix: (Units=GPa)
#
#
# Indices 1 2 3 4 5 6 
#
# 1 80.1611 53.1989 32.0982 0.0000 0.0000 0.0000
# 2 53.1989 144.5404 49.7911 0.0000 0.0000 0.0000
# 3 32.0982 49.7911 70.8681 0.0000 0.0000 0.0000
# 4 0.0000 0.0000 0.0000 23.8515 0.0000 0.0000
# 5 0.0000 0.0000 0.0000 0.0000 15.8973 0.0000
# 6 0.0000 0.0000 0.0000 0.0000 0.0000 -12.6122
#
#
#
# Elastic Compliance Matrix: (Units=1/GPa)
#
#
# Indices 1 2 3 4 5 6 
#
# 1 0.017529 -0.004903 -0.004494 0.000000 0.000000 0.000000
# 2 -0.004903 0.010499 -0.005156 0.000000 0.000000 0.000000
# 3 -0.004494 -0.005156 0.019769 0.000000 0.000000 0.000000
# 4 0.000000 0.000000 0.000000 0.041926 0.000000 0.000000
# 5 0.000000 0.000000 0.000000 0.000000 0.062904 0.000000
# 6 0.000000 0.000000 0.000000 0.000000 0.000000 -0.079288
#
#
# Mechanical properties :
#
#
# Convention : Reuss Voigt Hill
#
# Bulk Modulus (GPa) = 53.50490 62.86066 58.18278
# Shear Modulus (GPa) = 46.00884 16.12606 31.06745
#
# Velocity S-wave (km/s) = 5.45779 3.23118 4.48486
# Velocity P-wave (km/s) = 8.62307 7.39044 8.03044
#
# Compressibility (1/GPa) = 0.01868988
#
# Stress axis : x y z
#
# Youngs Moduli (GPa) = 57.04980 95.24501 50.58519
#
# Poissons Ratio (x) = 0.46702 0.22734
# Poissons Ratio (y) = 0.27973 0.26081
# Poissons Ratio (z) = 0.25639 0.49106
#
# Static dielectric constant tensor:
#      x y z
#    x 1.499730 0.000000 0.000000 
#    y 0.000000 1.548080 0.000000 
#    z 0.000000 0.000000 1.519410 
# 
# From -- ./inp_files/4546.got.cif
#   From: 2010.05.17/outbox.cif.g08.bks.cpg/sg49_3_cif.got.tgz:4546.got - 2010.06.03 21:02:19.
