data_PCOD9392522
_publ_section_title
;
Structure prediction by ZEFSAII (Michael W. Deem and Ramdas Pophale) SiO2 
 PCOD9392522
Probable space group: P C C M
;
_chemical_formula_sum "Si O2"
_cell_formula_units_Z 56
_cell_length_a 15.617170
_cell_length_b 20.742118
_cell_length_c 8.765682
_cell_angle_alpha 90.000000
_cell_angle_beta 90.000000
_cell_angle_gamma 90.000000
_cell_volume 2839.495271
_symmetry_space_group_name_H-M "P C C M"
_symmetry_group_IT_number 49
_symmetry_cell_setting 'orthorhombic'
loop_
_space_group_symop_operation_xyz
x,y,z
-x,-y,z
x,-y,1/2-z
-x,y,1/2-z
-x,-y,-z
x,y,-z
-x,y,1/2+z
x,-y,1/2+z
loop_
_atom_site_type_symbol
_atom_site_label
_atom_site_fract_x
_atom_site_fract_y
_atom_site_fract_z
Si Si1 0.409663 0.328311 0.815803
Si Si2 0.277097 0.933563 0.818143
Si Si3 0.910038 0.620262 0.682071
Si Si4 0.734753 0.568136 0.816503
Si Si5 0.870660 0.758974 0.178722
Si Si6 0.326778 0.800527 0.678213
Si Si7 0.913137 0.895651 0.317810
O O1 0.500000 0.350222 0.750000
O O2 0.332259 0.375870 0.772831
O O3 0.389194 0.255327 0.762888
O O4 0.412584 0.327149 0.000000
O O5 0.323505 0.868401 0.763994
O O6 0.177192 0.926327 0.767358
O O7 0.311718 0.000000 0.750000
O O8 0.278327 0.936518 0.000000
O O9 0.911170 0.616716 0.500000
O O10 0.828022 0.583489 0.748778
O O11 0.898259 0.694202 0.737424
O O12 0.000000 0.596346 0.750000
O O13 0.705133 0.500000 0.750000
O O14 0.740150 0.566197 0.000000
O O15 0.768048 0.768725 0.185732
O O16 0.907481 0.822236 0.258733
O O17 0.895308 0.756154 0.000000
O O18 0.344558 0.813219 0.500000
O O19 0.917069 0.897262 0.500000
O O20 0.000000 0.924438 0.250000
#
# Coordination Sequence:
#
# PCOD9392522 Si02
#       7
#     8   8   8   8   8   8   8
#     4  10  22  41  67  98 130 161 200 247 303 367
#     4  10  21  35  53  79 110 150 198 245 297 364
#     4  12  24  38  59  87 120 163 210 258 308 361
#     4  11  24  45  66  92 128 166 208 253 306 361
#     4  10  18  33  55  79 112 152 197 250 305 357
#     4   9  18  36  60  85 117 156 194 244 300 353
#     4  10  20  32  46  71 105 145 196 248 302 358
#
# _framework density 19.721814999999999
#
# number of rings (size 3 to 8) (size 9 to 14) (size 15 to 20)
#    0.000    1.714    1.429    3.429    0.000    4.857 
#    0.000    4.286    0.000    0.429    0.000    3.000 
#    0.000    0.000    0.000    0.000    0.000    0.000 
#
# Total GULP energy -312934.361375 kJ/mol
# GULP energy per Si atom -5588.113596 kJ/mol
# Density = 1.967693 g / cm^3
# Si number density = 19.721815 Si / 1000 Ang^3
#
#
#
# Elastic Constant Matrix: (Units=GPa)
#
#
# Indices 1 2 3 4 5 6 
#
# 1 75.8871 36.7744 23.3743 0.0000 0.0000 0.0000
# 2 36.7744 119.8626 34.6499 0.0000 0.0000 0.0000
# 3 23.3743 34.6499 64.0793 0.0000 0.0000 0.0000
# 4 0.0000 0.0000 0.0000 26.2564 0.0000 0.0000
# 5 0.0000 0.0000 0.0000 0.0000 25.0857 0.0000
# 6 0.0000 0.0000 0.0000 0.0000 0.0000 -13.9305
#
#
#
# Elastic Compliance Matrix: (Units=1/GPa)
#
#
# Indices 1 2 3 4 5 6 
#
# 1 0.016234 -0.003874 -0.003827 0.000000 0.000000 0.000000
# 2 -0.003874 0.010813 -0.004434 0.000000 0.000000 0.000000
# 3 -0.003827 -0.004434 0.019399 0.000000 0.000000 0.000000
# 4 0.000000 0.000000 0.000000 0.038086 0.000000 0.000000
# 5 0.000000 0.000000 0.000000 0.000000 0.039863 0.000000
# 6 0.000000 0.000000 0.000000 0.000000 0.000000 -0.071785
#
#
# Mechanical properties :
#
#
# Convention : Reuss Voigt Hill
#
# Bulk Modulus (GPa) = 45.09308 49.93624 47.51466
# Shear Modulus (GPa) = 59.33187 18.48436 38.90811
#
# Velocity S-wave (km/s) = 5.49087 3.06478 4.44649
# Velocity P-wave (km/s) = 7.94442 6.15623 7.10679
#
# Compressibility (1/GPa) = 0.02217635
#
# Stress axis : x y z
#
# Youngs Moduli (GPa) = 61.60069 92.47873 51.54903
#
# Poissons Ratio (x) = 0.35830 0.19726
# Poissons Ratio (y) = 0.23866 0.22856
# Poissons Ratio (z) = 0.23572 0.41004
#
# Static dielectric constant tensor:
#      x y z
#    x 1.710930 0.000000 0.000000 
#    y 0.000000 1.704290 0.000000 
#    z 0.000000 0.000000 1.658090 
# 
# From -- ./inp_files/3998.got.cif
#   From: 2010.05.17/outbox.cif.g08.bks.cpg/sg49_2_cif.got.tgz:3998.got - 2010.06.03 21:02:19.
