data_PCOD9392802
_publ_section_title
;
Structure prediction by ZEFSAII (Michael W. Deem and Ramdas Pophale) SiO2 
 PCOD9392802
Probable space group: P C C M
;
_chemical_formula_sum "Si O2"
_cell_formula_units_Z 64
_cell_length_a 20.696491
_cell_length_b 20.647317
_cell_length_c 8.409366
_cell_angle_alpha 90.000000
_cell_angle_beta 90.000000
_cell_angle_gamma 90.000000
_cell_volume 3593.549233
_symmetry_space_group_name_H-M "P C C M"
_symmetry_group_IT_number 49
_symmetry_cell_setting 'orthorhombic'
loop_
_space_group_symop_operation_xyz
x,y,z
-x,-y,z
x,-y,1/2-z
-x,y,1/2-z
-x,-y,-z
x,y,-z
-x,y,1/2+z
x,-y,1/2+z
loop_
_atom_site_type_symbol
_atom_site_label
_atom_site_fract_x
_atom_site_fract_y
_atom_site_fract_z
Si Si1 0.238508 0.601394 0.310547
Si Si2 0.429089 0.073274 0.190931
Si Si3 0.431046 0.293704 0.191653
Si Si4 0.898359 0.568889 0.684724
Si Si5 0.068657 0.290458 0.188915
Si Si6 0.794015 0.751232 0.190446
Si Si7 0.616299 0.431665 0.308807
Si Si8 0.331302 0.183560 0.194474
O O1 0.228495 0.589088 0.500000
O O2 0.178925 0.572250 0.214455
O O3 0.235681 0.679138 0.289609
O O4 0.308307 0.575522 0.261876
O O5 0.500000 0.095253 0.250000
O O6 0.371260 0.120381 0.245134
O O7 0.419768 0.000000 0.250000
O O8 0.430592 0.073574 0.000000
O O9 0.500000 0.269888 0.250000
O O10 0.419036 0.366962 0.249689
O O11 0.374477 0.245402 0.241857
O O12 0.430493 0.294742 0.000000
O O13 0.921561 0.500000 0.750000
O O14 0.913389 0.573756 0.500000
O O15 0.924423 0.633349 0.769301
O O16 0.132824 0.254359 0.254092
O O17 0.000000 0.266354 0.250000
O O18 0.069793 0.285302 0.000000
O O19 0.741811 0.803067 0.251117
O O20 0.799222 0.761317 0.000000
O O21 0.590124 0.500000 0.250000
O O22 0.614637 0.431050 0.500000
O O23 0.329507 0.182522 0.000000
#
# Coordination Sequence:
#
# PCOD9392802 Si02
#       8
#     8   8   8   8   8   8   8   8
#     4   9  16  30  49  67  87 114 148 193 248 298
#     4  10  19  31  50  75 108 144 175 205 240 286
#     4  10  20  34  50  67  89 118 157 203 247 291
#     4  11  21  32  46  66  91 118 154 195 241 299
#     4  10  20  34  52  71  95 125 154 192 243 296
#     4   8  14  28  51  73  92 118 157 196 235 283
#     4  10  20  32  47  63  84 115 151 198 250 302
#     4   9  16  30  53  76  96 127 168 204 238 283
#
# _framework density 17.809691000000001
#
# number of rings (size 3 to 8) (size 9 to 14) (size 15 to 20)
#    0.000    2.375    1.250    3.750    0.000    2.500 
#    0.000    3.125    0.000    7.500    0.000    0.000 
#    0.000    0.500    0.000    6.250    0.000    0.000 
#
# Total GULP energy -357034.924388 kJ/mol
# GULP energy per Si atom -5578.670694 kJ/mol
# Density = 1.776916 g / cm^3
# Si number density = 17.809691 Si / 1000 Ang^3
#
#
#
# Elastic Constant Matrix: (Units=GPa)
#
#
# Indices 1 2 3 4 5 6 
#
# 1 130.5276 52.5714 13.0292 0.0000 0.0000 0.0000
# 2 52.5714 74.4854 11.3747 0.0000 0.0000 0.0000
# 3 13.0292 11.3747 22.5784 0.0000 0.0000 0.0000
# 4 0.0000 0.0000 0.0000 4.8672 0.0000 0.0000
# 5 0.0000 0.0000 0.0000 0.0000 38.1538 0.0000
# 6 0.0000 0.0000 0.0000 0.0000 0.0000 39.5715
#
#
#
# Elastic Compliance Matrix: (Units=1/GPa)
#
#
# Indices 1 2 3 4 5 6 
#
# 1 0.010843 -0.007256 -0.002602 0.000000 0.000000 0.000000
# 2 -0.007256 0.019400 -0.005586 0.000000 0.000000 0.000000
# 3 -0.002602 -0.005586 0.048606 0.000000 0.000000 0.000000
# 4 0.000000 0.000000 0.000000 0.205455 0.000000 0.000000
# 5 0.000000 0.000000 0.000000 0.000000 0.026210 0.000000
# 6 0.000000 0.000000 0.000000 0.000000 0.000000 0.025271
#
#
# Mechanical properties :
#
#
# Convention : Reuss Voigt Hill
#
# Bulk Modulus (GPa) = 20.85029 42.39357 31.62193
# Shear Modulus (GPa) = 13.06645 26.55959 19.81302
#
# Velocity S-wave (km/s) = 2.71157 3.86592 3.33901
# Velocity P-wave (km/s) = 4.64071 6.61683 5.71484
#
# Compressibility (1/GPa) = 0.04796096
#
# Stress axis : x y z
#
# Youngs Moduli (GPa) = 92.22301 51.54740 20.57362
#
# Poissons Ratio (x) = 0.37402 0.05353
# Poissons Ratio (y) = 0.66915 0.11493
# Poissons Ratio (z) = 0.23995 0.28796
#
# Static dielectric constant tensor:
#      x y z
#    x 1.646950 0.000000 0.000000 
#    y 0.000000 1.607590 0.000000 
#    z 0.000000 0.000000 1.618120 
# 
# From -- ./inp_files/6103.got.cif
#   From: 2010.05.17/outbox.cif.g08.bks.cpg/sg49_4_cif.got.tgz:6103.got - 2010.06.03 21:02:19.
