data_PCOD9392105
_publ_section_title
;
Structure prediction by ZEFSAII (Michael W. Deem and Ramdas Pophale) SiO2 
 PCOD9392105
Probable space group: P C C M
;
_chemical_formula_sum "Si O2"
_cell_formula_units_Z 64
_cell_length_a 18.754553
_cell_length_b 26.790414
_cell_length_c 8.802460
_cell_angle_alpha 90.000000
_cell_angle_beta 90.000000
_cell_angle_gamma 90.000000
_cell_volume 4422.727713
_symmetry_space_group_name_H-M "P C C M"
_symmetry_group_IT_number 49
_symmetry_cell_setting 'orthorhombic'
loop_
_space_group_symop_operation_xyz
x,y,z
-x,-y,z
x,-y,1/2-z
-x,y,1/2-z
-x,-y,-z
x,y,-z
-x,y,1/2+z
x,-y,1/2+z
loop_
_atom_site_type_symbol
_atom_site_label
_atom_site_fract_x
_atom_site_fract_y
_atom_site_fract_z
Si Si1 0.578267 0.354461 0.681314
Si Si2 0.579546 0.153609 0.181608
Si Si3 0.419365 0.949096 0.317349
Si Si4 0.710881 0.403750 0.173871
Si Si5 0.077840 0.344486 0.182283
Si Si6 0.847164 0.448423 0.319147
Si Si7 0.654773 0.751080 0.819155
Si Si8 0.211337 0.704425 0.174649
O O1 0.500000 0.360344 0.750000
O O2 0.576124 0.359045 0.500000
O O3 0.635118 0.393755 0.748122
O O4 0.608485 0.298772 0.716769
O O5 0.500000 0.160053 0.250000
O O6 0.611264 0.102992 0.255499
O O7 0.623800 0.201926 0.230012
O O8 0.575044 0.148382 0.000000
O O9 0.500000 0.948314 0.250000
O O10 0.421376 0.950407 0.500000
O O11 0.386420 0.000000 0.250000
O O12 0.766755 0.438585 0.260655
O O13 0.749361 0.349524 0.173831
O O14 0.702415 0.420133 0.000000
O O15 0.106025 0.400112 0.225202
O O16 0.135480 0.305825 0.248594
O O17 0.000000 0.336517 0.250000
O O18 0.076995 0.341560 0.000000
O O19 0.874384 0.500000 0.250000
O O20 0.846729 0.451518 0.500000
O O21 0.735406 0.739497 0.768044
O O22 0.650568 0.759275 0.000000
O O23 0.204306 0.720726 0.000000
#
# Coordination Sequence:
#
# PCOD9392105 Si02
#       8
#     8   8   8   8   8   8   8   8
#     4  10  19  29  43  62  84 108 136 170 209 250
#     4  11  20  29  40  57  81 110 145 186 229 267
#     4  10  17  27  40  54  73 101 139 182 226 269
#     4   9  17  30  47  64  83 107 136 167 201 242
#     4  10  20  33  49  69  92 116 141 170 200 236
#     4  10  20  33  49  68  89 112 138 166 200 239
#     4  10  19  30  43  61  85 112 141 175 214 256
#     4   9  17  30  47  65  85 111 140 169 202 245
#
# _framework density 14.470708999999999
#
# number of rings (size 3 to 8) (size 9 to 14) (size 15 to 20)
#    0.000    2.125    0.000    6.000    0.000    7.250 
#    0.000    1.250    0.000    0.375    0.000    2.625 
#    0.000    0.000    0.000    0.000    0.000    0.625 
#
# Total GULP energy -356918.832947 kJ/mol
# GULP energy per Si atom -5576.856765 kJ/mol
# Density = 1.443777 g / cm^3
# Si number density = 14.470709 Si / 1000 Ang^3
#
#
#
# Elastic Constant Matrix: (Units=GPa)
#
#
# Indices 1 2 3 4 5 6 
#
# 1 93.2408 13.8336 27.8541 0.0000 0.0000 0.0000
# 2 13.8336 34.7479 15.1394 0.0000 0.0000 0.0000
# 3 27.8541 15.1394 78.7997 0.0000 0.0000 0.0000
# 4 0.0000 0.0000 0.0000 23.6504 0.0000 0.0000
# 5 0.0000 0.0000 0.0000 0.0000 22.7168 0.0000
# 6 0.0000 0.0000 0.0000 0.0000 0.0000 7.6814
#
#
#
# Elastic Compliance Matrix: (Units=1/GPa)
#
#
# Indices 1 2 3 4 5 6 
#
# 1 0.012325 -0.003283 -0.003726 0.000000 0.000000 0.000000
# 2 -0.003283 0.032283 -0.005042 0.000000 0.000000 0.000000
# 3 -0.003726 -0.005042 0.014976 0.000000 0.000000 0.000000
# 4 0.000000 0.000000 0.000000 0.042283 0.000000 0.000000
# 5 0.000000 0.000000 0.000000 0.000000 0.044020 0.000000
# 6 0.000000 0.000000 0.000000 0.000000 0.000000 0.130185
#
#
# Mechanical properties :
#
#
# Convention : Reuss Voigt Hill
#
# Bulk Modulus (GPa) = 28.18349 35.60474 31.89411
# Shear Modulus (GPa) = 16.02561 20.80713 18.41637
#
# Velocity S-wave (km/s) = 3.33145 3.79605 3.57131
# Velocity P-wave (km/s) = 5.85804 6.62355 6.25252
#
# Compressibility (1/GPa) = 0.03548177
#
# Stress axis : x y z
#
# Youngs Moduli (GPa) = 81.13520 30.97650 66.77327
#
# Poissons Ratio (x) = 0.10171 0.24879
# Poissons Ratio (y) = 0.26640 0.33665
# Poissons Ratio (z) = 0.30230 0.15617
#
# Static dielectric constant tensor:
#      x y z
#    x 1.457100 0.000000 0.000000 
#    y 0.000000 1.495050 0.000000 
#    z 0.000000 0.000000 1.484360 
# 
# From -- ./inp_files/5432.got.cif
#   From: 2010.05.17/outbox.cif.g08.bks.cpg/sg49_3_cif.got.tgz:5432.got - 2010.06.03 21:02:19.
