data_PCOD9392334
_publ_section_title
;
Structure prediction by ZEFSAII (Michael W. Deem and Ramdas Pophale) SiO2 
 PCOD9392334
Probable space group: P C C M
;
_chemical_formula_sum "Si O2"
_cell_formula_units_Z 64
_cell_length_a 27.558011
_cell_length_b 18.957372
_cell_length_c 8.646348
_cell_angle_alpha 90.000000
_cell_angle_beta 90.000000
_cell_angle_gamma 90.000000
_cell_volume 4517.089677
_symmetry_space_group_name_H-M "P C C M"
_symmetry_group_IT_number 49
_symmetry_cell_setting 'orthorhombic'
loop_
_space_group_symop_operation_xyz
x,y,z
-x,-y,z
x,-y,1/2-z
-x,y,1/2-z
-x,-y,-z
x,y,-z
-x,y,1/2+z
x,-y,1/2+z
loop_
_atom_site_type_symbol
_atom_site_label
_atom_site_fract_x
_atom_site_fract_y
_atom_site_fract_z
Si Si1 0.843347 0.079792 0.314140
Si Si2 0.447643 0.340654 0.816005
Si Si3 0.645534 0.421784 0.812900
Si Si4 0.600165 0.792635 0.677807
Si Si5 0.297464 0.292230 0.677387
Si Si6 0.653437 0.922034 0.184821
Si Si7 0.950806 0.079757 0.315482
Si Si8 0.749039 0.845419 0.312892
O O1 0.838821 0.077571 0.500000
O O2 0.897390 0.108636 0.275444
O O3 0.800056 0.124569 0.242176
O O4 0.839808 0.000000 0.250000
O O5 0.500000 0.360471 0.750000
O O6 0.405469 0.389451 0.744510
O O7 0.435570 0.260144 0.765993
O O8 0.446766 0.346605 0.000000
O O9 0.651946 0.500000 0.750000
O O10 0.687579 0.367723 0.755171
O O11 0.645493 0.420936 0.000000
O O12 0.584764 0.802061 0.500000
O O13 0.651579 0.750623 0.675034
O O14 0.612880 0.866637 0.756837
O O15 0.282372 0.304796 0.500000
O O16 0.260506 0.234901 0.744755
O O17 0.705169 0.893420 0.248376
O O18 0.645019 0.000000 0.250000
O O19 0.654892 0.922884 0.000000
O O20 0.954689 0.076593 0.500000
O O21 0.000000 0.113920 0.250000
O O22 0.949905 0.000000 0.250000
O O23 0.745801 0.846034 0.500000
#
# Coordination Sequence:
#
# PCOD9392334 Si02
#       8
#     8   8   8   8   8   8   8   8
#     4  10  19  28  37  54  78 105 137 179 222 260
#     4  11  21  34  51  71  91 115 141 167 201 240
#     4  10  19  33  50  70  93 115 139 170 201 237
#     4   9  17  32  49  66  86 109 137 170 203 243
#     4   7  14  28  45  61  81 107 134 162 196 236
#     4  11  20  30  44  63  85 110 138 172 211 252
#     4   9  16  25  37  50  68  95 132 174 217 258
#     4  10  18  29  43  59  80 109 140 173 211 252
#
# _framework density 14.168414
#
# number of rings (size 3 to 8) (size 9 to 14) (size 15 to 20)
#    0.000    2.375    0.000    6.375    0.000    1.750 
#    0.000    3.125    0.000    0.375    0.000    2.625 
#    0.000    0.000    0.000    0.000    0.000    0.625 
#
# Total GULP energy -356507.923662 kJ/mol
# GULP energy per Si atom -5570.436307 kJ/mol
# Density = 1.413617 g / cm^3
# Si number density = 14.168414 Si / 1000 Ang^3
#
#
#
# Elastic Constant Matrix: (Units=GPa)
#
#
# Indices 1 2 3 4 5 6 
#
# 1 51.7853 35.9135 15.6423 0.0000 0.0000 0.0000
# 2 35.9135 106.4289 30.1955 0.0000 0.0000 0.0000
# 3 15.6423 30.1955 77.3078 0.0000 0.0000 0.0000
# 4 0.0000 0.0000 0.0000 18.7683 0.0000 0.0000
# 5 0.0000 0.0000 0.0000 0.0000 20.9377 0.0000
# 6 0.0000 0.0000 0.0000 0.0000 0.0000 10.9163
#
#
#
# Elastic Compliance Matrix: (Units=1/GPa)
#
#
# Indices 1 2 3 4 5 6 
#
# 1 0.025488 -0.008027 -0.002022 0.000000 0.000000 0.000000
# 2 -0.008027 0.013095 -0.003491 0.000000 0.000000 0.000000
# 3 -0.002022 -0.003491 0.014708 0.000000 0.000000 0.000000
# 4 0.000000 0.000000 0.000000 0.053281 0.000000 0.000000
# 5 0.000000 0.000000 0.000000 0.000000 0.047761 0.000000
# 6 0.000000 0.000000 0.000000 0.000000 0.000000 0.091606
#
#
# Mechanical properties :
#
#
# Convention : Reuss Voigt Hill
#
# Bulk Modulus (GPa) = 38.15088 44.33606 41.24347
# Shear Modulus (GPa) = 17.74587 20.37583 19.06085
#
# Velocity S-wave (km/s) = 3.54290 3.79636 3.67182
# Velocity P-wave (km/s) = 6.61221 7.11172 6.86651
#
# Compressibility (1/GPa) = 0.02621172
#
# Stress axis : x y z
#
# Youngs Moduli (GPa) = 39.23399 76.36539 67.99127
#
# Poissons Ratio (x) = 0.61299 0.13747
# Poissons Ratio (y) = 0.31493 0.23733
# Poissons Ratio (z) = 0.07933 0.26656
#
# Static dielectric constant tensor:
#      x y z
#    x 1.476690 0.000000 0.000000 
#    y 0.000000 1.469840 0.000000 
#    z 0.000000 0.000000 1.479030 
# 
# From -- ./inp_files/6792.got.cif
#   From: 2010.05.17/outbox.cif.g08.bks.cpg/sg49_4_cif.got.tgz:6792.got - 2010.06.03 21:02:19.
