data_PCOD9392087
_publ_section_title
;
Structure prediction by ZEFSAII (Michael W. Deem and Ramdas Pophale) SiO2 
 PCOD9392087
Probable space group: P C C M
;
_chemical_formula_sum "Si O2"
_cell_formula_units_Z 64
_cell_length_a 30.277699
_cell_length_b 4.996390
_cell_length_c 26.381935
_cell_angle_alpha 90.000000
_cell_angle_beta 90.000000
_cell_angle_gamma 90.000000
_cell_volume 3991.037824
_symmetry_space_group_name_H-M "P C C M"
_symmetry_group_IT_number 49
_symmetry_cell_setting 'orthorhombic'
loop_
_space_group_symop_operation_xyz
x,y,z
-x,-y,z
x,-y,1/2-z
-x,y,1/2-z
-x,-y,-z
x,y,-z
-x,y,1/2+z
x,-y,1/2+z
loop_
_atom_site_type_symbol
_atom_site_label
_atom_site_fract_x
_atom_site_fract_y
_atom_site_fract_z
Si Si1 0.598808 0.903190 0.804668
Si Si2 0.650665 0.935201 0.906285
Si Si3 0.799603 0.202380 0.058519
Si Si4 0.399084 0.571737 0.057362
Si Si5 0.549186 0.607633 0.340359
Si Si6 0.740273 0.318096 0.558374
Si Si7 0.955500 0.627529 0.941676
Si Si8 0.103704 0.895270 0.941413
O O1 0.635233 0.948739 0.848120
O O2 0.581447 0.601548 0.811474
O O3 0.614581 0.000000 0.750000
O O4 0.557995 0.100287 0.817944
O O5 0.617758 0.729288 0.934387
O O6 0.698495 0.806405 0.913032
O O7 0.641558 0.225198 0.930622
O O8 0.765189 0.420811 0.079839
O O9 0.848033 0.157393 0.081787
O O10 0.776078 0.917682 0.057111
O O11 0.806923 0.296678 0.000000
O O12 0.435281 0.620055 0.100959
O O13 0.414158 0.613361 0.000000
O O14 0.500000 0.500000 0.335711
O O15 0.725846 0.374790 0.500000
O O16 0.921102 0.385594 0.943084
O O17 0.000000 0.500000 0.918522
O O18 0.929759 0.882719 0.919179
O O19 0.967857 0.706087 0.000000
O O20 0.111802 0.987418 0.000000
#
# Coordination Sequence:
#
# PCOD9392087 Si02
#       8
#     8   8   8   8   8   8   8   8
#     4  10  21  36  52  69  90 114 140 174 214 248
#     4  10  20  32  47  67  87 110 142 174 205 249
#     4   9  17  25  35  52  72  98 125 154 199 248
#     4  10  19  32  48  66  91 118 140 166 204 244
#     4  10  21  34  50  73  93 113 144 172 200 247
#     4  10  17  26  40  57  77  99 127 159 196 245
#     4   9  15  21  30  42  56  81 118 159 201 239
#     4   9  15  23  31  41  62  86 114 154 197 242
#
# _framework density 16.035928999999999
#
# number of rings (size 3 to 8) (size 9 to 14) (size 15 to 20)
#    0.000    2.375    0.000    3.750    0.000    7.250 
#    0.000    0.000    0.000    4.500    0.000    0.000 
#    0.000    0.000    0.000    0.000    0.000    0.000 
#
# Total GULP energy -356499.472015 kJ/mol
# GULP energy per Si atom -5570.304250 kJ/mol
# Density = 1.599943 g / cm^3
# Si number density = 16.035929 Si / 1000 Ang^3
#
#
#
# Elastic Constant Matrix: (Units=GPa)
#
#
# Indices 1 2 3 4 5 6 
#
# 1 36.3622 -12.0457 3.7877 0.0000 0.0000 0.0000
# 2 -12.0457 64.0578 6.5919 0.0000 0.0000 0.0000
# 3 3.7877 6.5919 58.7788 0.0000 0.0000 0.0000
# 4 0.0000 0.0000 0.0000 8.1799 0.0000 0.0000
# 5 0.0000 0.0000 0.0000 0.0000 2.5026 0.0000
# 6 0.0000 0.0000 0.0000 0.0000 0.0000 23.1137
#
#
#
# Elastic Compliance Matrix: (Units=1/GPa)
#
#
# Indices 1 2 3 4 5 6 
#
# 1 0.029707 0.005851 -0.002570 0.000000 0.000000 0.000000
# 2 0.005851 0.016945 -0.002277 0.000000 0.000000 0.000000
# 3 -0.002570 -0.002277 0.017434 0.000000 0.000000 0.000000
# 4 0.000000 0.000000 0.000000 0.122250 0.000000 0.000000
# 5 0.000000 0.000000 0.000000 0.000000 0.399592 0.000000
# 6 0.000000 0.000000 0.000000 0.000000 0.000000 0.043264
#
#
# Mechanical properties :
#
#
# Convention : Reuss Voigt Hill
#
# Bulk Modulus (GPa) = 15.13036 17.31849 16.22442
# Shear Modulus (GPa) = 7.70158 17.48358 12.59258
#
# Velocity S-wave (km/s) = 2.19388 3.30551 2.80531
# Velocity P-wave (km/s) = 3.98413 5.03903 4.54231
#
# Compressibility (1/GPa) = 0.06609229
#
# Stress axis : x y z
#
# Youngs Moduli (GPa) = 33.66207 59.01288 57.35923
#
# Poissons Ratio (x) = -0.34527 0.14744
# Poissons Ratio (y) = -0.19695 0.13063
# Poissons Ratio (z) = 0.08653 0.13440
#
# Static dielectric constant tensor:
#      x y z
#    x 1.572540 0.000000 0.000000 
#    y 0.000000 1.560210 0.000000 
#    z 0.000000 0.000000 1.522140 
# 
# From -- ./inp_files/25244.got.cif
#   From: 2010.05.17/outbox.cif.g08.bks.cpg/sg49_13_cif.got.tgz:25244.got - 2010.06.03 21:02:19.
