data_PCOD9392730
_publ_section_title
;
Structure prediction by ZEFSAII (Michael W. Deem and Ramdas Pophale) SiO2 
 PCOD9392730
Probable space group: P C C M
;
_chemical_formula_sum "Si O2"
_cell_formula_units_Z 56
_cell_length_a 19.028369
_cell_length_b 21.882743
_cell_length_c 8.683769
_cell_angle_alpha 90.000000
_cell_angle_beta 90.000000
_cell_angle_gamma 90.000000
_cell_volume 3615.859831
_symmetry_space_group_name_H-M "P C C M"
_symmetry_group_IT_number 49
_symmetry_cell_setting 'orthorhombic'
loop_
_space_group_symop_operation_xyz
x,y,z
-x,-y,z
x,-y,1/2-z
-x,y,1/2-z
-x,-y,-z
x,y,-z
-x,y,1/2+z
x,-y,1/2+z
loop_
_atom_site_type_symbol
_atom_site_label
_atom_site_fract_x
_atom_site_fract_y
_atom_site_fract_z
Si Si1 0.835837 0.678434 0.185089
Si Si2 0.922215 0.800900 0.185047
Si Si3 0.712775 0.747823 0.685263
Si Si4 0.662606 0.935489 0.684262
Si Si5 0.422579 0.814187 0.184930
Si Si6 0.788674 0.131253 0.315202
Si Si7 0.922510 0.433032 0.184433
O O1 0.884837 0.736778 0.230890
O O2 0.757442 0.692407 0.245875
O O3 0.868986 0.618088 0.257226
O O4 0.835687 0.675120 0.000000
O O5 0.869628 0.856323 0.229796
O O6 0.000000 0.805663 0.250000
O O7 0.925549 0.800339 0.000000
O O8 0.719259 0.748419 0.500000
O O9 0.631246 0.759294 0.725662
O O10 0.750465 0.807454 0.755756
O O11 0.662836 0.936751 0.500000
O O12 0.613691 0.878405 0.734912
O O13 0.741818 0.921973 0.742872
O O14 0.637850 0.000000 0.750000
O O15 0.500000 0.807471 0.250000
O O16 0.426102 0.816288 0.000000
O O17 0.784672 0.127725 0.500000
O O18 0.904576 0.500000 0.250000
O O19 0.000000 0.417783 0.250000
O O20 0.925368 0.434911 0.000000
#
# Coordination Sequence:
#
# PCOD9392730 Si02
#       7
#     8   8   8   8   8   8   8
#     4  10  19  31  46  67  92 122 159 195 231 274
#     4   9  18  28  42  64  88 112 142 180 225 270
#     4   9  17  30  46  67  91 118 151 187 226 270
#     4  10  20  33  48  67  87 114 149 183 218 265
#     4   9  19  32  47  68  95 122 149 179 220 269
#     4   9  17  30  45  63  86 113 144 182 224 269
#     4  11  21  33  47  65  93 130 167 204 240 278
#
# _framework density 15.487325999999999
#
# number of rings (size 3 to 8) (size 9 to 14) (size 15 to 20)
#    0.000    2.429    0.000    5.571    0.000    8.286 
#    0.000    1.429    0.000    0.429    0.000    3.000 
#    0.000    0.571    0.000    6.000    0.000    3.286 
#
# Total GULP energy -311995.373373 kJ/mol
# GULP energy per Si atom -5571.345953 kJ/mol
# Density = 1.545208 g / cm^3
# Si number density = 15.487326 Si / 1000 Ang^3
#
#
#
# Elastic Constant Matrix: (Units=GPa)
#
#
# Indices 1 2 3 4 5 6 
#
# 1 134.4054 49.5751 37.3376 0.0000 0.0000 0.0000
# 2 49.5751 60.6679 23.6017 0.0000 0.0000 0.0000
# 3 37.3376 23.6017 48.7567 0.0000 0.0000 0.0000
# 4 0.0000 0.0000 0.0000 24.1085 0.0000 0.0000
# 5 0.0000 0.0000 0.0000 0.0000 28.5765 0.0000
# 6 0.0000 0.0000 0.0000 0.0000 0.0000 21.1809
#
#
#
# Elastic Compliance Matrix: (Units=1/GPa)
#
#
# Indices 1 2 3 4 5 6 
#
# 1 0.011674 -0.007468 -0.005325 0.000000 0.000000 0.000000
# 2 -0.007468 0.025085 -0.006424 0.000000 0.000000 0.000000
# 3 -0.005325 -0.006424 0.027697 0.000000 0.000000 0.000000
# 4 0.000000 0.000000 0.000000 0.041479 0.000000 0.000000
# 5 0.000000 0.000000 0.000000 0.000000 0.034994 0.000000
# 6 0.000000 0.000000 0.000000 0.000000 0.000000 0.047212
#
#
# Mechanical properties :
#
#
# Convention : Reuss Voigt Hill
#
# Bulk Modulus (GPa) = 38.42794 51.65097 45.03946
# Shear Modulus (GPa) = 21.25411 23.66090 22.45751
#
# Velocity S-wave (km/s) = 3.70855 3.91290 3.81209
# Velocity P-wave (km/s) = 6.57299 7.33739 6.96568
#
# Compressibility (1/GPa) = 0.02602273
#
# Stress axis : x y z
#
# Youngs Moduli (GPa) = 85.66104 39.86500 36.10455
#
# Poissons Ratio (x) = 0.29771 0.19225
# Poissons Ratio (y) = 0.63971 0.23193
# Poissons Ratio (z) = 0.45613 0.25609
#
# Static dielectric constant tensor:
#      x y z
#    x 1.534350 0.000000 0.000000 
#    y 0.000000 1.459830 0.000000 
#    z 0.000000 0.000000 1.503210 
# 
# From -- ./inp_files/5167.got.cif
#   From: 2010.05.17/outbox.cif.g08.bks.cpg/sg49_3_cif.got.tgz:5167.got - 2010.06.03 21:02:19.
