data_PCOD9392548
_publ_section_title
;
Structure prediction by ZEFSAII (Michael W. Deem and Ramdas Pophale) SiO2 
 PCOD9392548
Probable space group: P C C M
;
_chemical_formula_sum "Si O2"
_cell_formula_units_Z 40
_cell_length_a 13.350817
_cell_length_b 17.817667
_cell_length_c 10.023292
_cell_angle_alpha 90.000000
_cell_angle_beta 90.000000
_cell_angle_gamma 90.000000
_cell_volume 2384.344825
_symmetry_space_group_name_H-M "P C C M"
_symmetry_group_IT_number 49
_symmetry_cell_setting 'orthorhombic'
loop_
_space_group_symop_operation_xyz
x,y,z
-x,-y,z
x,-y,1/2-z
-x,y,1/2-z
-x,-y,-z
x,y,-z
-x,y,1/2+z
x,-y,1/2+z
loop_
_atom_site_type_symbol
_atom_site_label
_atom_site_fract_x
_atom_site_fract_y
_atom_site_fract_z
Si Si1 0.114057 0.818669 0.745507
Si Si2 0.609533 0.833174 0.000000
Si Si3 0.814662 0.906168 0.500000
Si Si4 0.808549 0.083752 0.500000
Si Si5 0.603477 0.570816 0.835376
Si Si6 0.618171 0.807807 0.500000
Si Si7 0.311889 0.729299 0.735681
O O1 0.133236 0.869800 0.873318
O O2 0.141994 0.873368 0.623926
O O3 0.195201 0.751854 0.744128
O O4 0.000000 0.792470 0.750000
O O5 0.688453 0.901135 0.000000
O O6 0.491215 0.844680 0.000000
O O7 0.638008 0.783285 0.126951
O O8 0.701385 0.873438 0.500000
O O9 0.823383 0.995220 0.500000
O O10 0.646052 0.500000 0.750000
O O11 0.500000 0.584121 0.750000
O O12 0.668443 0.644828 0.809685
O O13 0.591310 0.559948 0.000000
O O14 0.636658 0.753976 0.626412
#
# Coordination Sequence:
#
# PCOD9392548 Si02
#       7
#     8   4   4   4   8   4   8
#     4  10  21  37  55  76 101 137 181 226 275 314
#     4  10  18  34  50  76  99 147 175 216 261 314
#     4  10  21  35  48  82 103 137 174 228 271 326
#     4  10  21  33  54  74 109 131 180 222 275 328
#     4  11  22  35  55  85 117 147 176 208 257 311
#     4  10  20  32  52  72 109 139 185 212 261 316
#     4  10  21  34  53  77 105 140 180 219 256 314
#
# _framework density 16.776097
#
# number of rings (size 3 to 8) (size 9 to 14) (size 15 to 20)
#    0.000    1.800    1.000    4.200    2.800    2.800 
#    0.000    0.000    0.000    7.800    0.000    1.400 
#    0.000    0.000    0.000    0.000    0.000    0.000 
#
# Total GULP energy -222879.821105 kJ/mol
# GULP energy per Si atom -5571.995528 kJ/mol
# Density = 1.673791 g / cm^3
# Si number density = 16.776097 Si / 1000 Ang^3
#
#
#
# Elastic Constant Matrix: (Units=GPa)
#
#
# Indices 1 2 3 4 5 6 
#
# 1 104.0568 11.2565 20.7773 0.0000 0.0000 0.0000
# 2 11.2565 83.6398 25.8296 0.0000 0.0000 0.0000
# 3 20.7773 25.8296 158.5637 0.0000 0.0000 0.0000
# 4 0.0000 0.0000 0.0000 6.6601 0.0000 0.0000
# 5 0.0000 0.0000 0.0000 0.0000 -12.1038 0.0000
# 6 0.0000 0.0000 0.0000 0.0000 0.0000 7.7242
#
#
#
# Elastic Compliance Matrix: (Units=1/GPa)
#
#
# Indices 1 2 3 4 5 6 
#
# 1 0.009945 -0.000986 -0.001143 0.000000 0.000000 0.000000
# 2 -0.000986 0.012687 -0.001938 0.000000 0.000000 0.000000
# 3 -0.001143 -0.001938 0.006772 0.000000 0.000000 0.000000
# 4 0.000000 0.000000 0.000000 0.150148 0.000000 0.000000
# 5 0.000000 0.000000 0.000000 0.000000 -0.082619 0.000000
# 6 0.000000 0.000000 0.000000 0.000000 0.000000 0.129464
#
#
# Mechanical properties :
#
#
# Convention : Reuss Voigt Hill
#
# Bulk Modulus (GPa) = 47.00904 51.33189 49.17047
# Shear Modulus (GPa) = 20.69371 19.68256 20.18813
#
# Velocity S-wave (km/s) = 3.51597 3.42899 3.47275
# Velocity P-wave (km/s) = 6.67570 6.80749 6.74192
#
# Compressibility (1/GPa) = 0.02127250
#
# Stress axis : x y z
#
# Youngs Moduli (GPa) = 100.55412 78.82071 147.66794
#
# Poissons Ratio (x) = 0.07768 0.16872
# Poissons Ratio (y) = 0.09910 0.28611
# Poissons Ratio (z) = 0.11489 0.15272
#
# Static dielectric constant tensor:
#      x y z
#    x 1.582990 0.000000 0.000000 
#    y 0.000000 1.544600 0.000000 
#    z 0.000000 0.000000 1.549790 
# 
# From -- ./inp_files/3597.got.cif
#   From: 2010.05.17/outbox.cif.g08.bks.cpg/sg49_2_cif.got.tgz:3597.got - 2010.06.03 21:02:19.
