data_PCOD9392465
_publ_section_title
;
Structure prediction by ZEFSAII (Michael W. Deem and Ramdas Pophale) SiO2 
 PCOD9392465
Probable space group: P C C M
;
_chemical_formula_sum "Si O2"
_cell_formula_units_Z 48
_cell_length_a 8.570199
_cell_length_b 17.379010
_cell_length_c 14.682946
_cell_angle_alpha 90.000000
_cell_angle_beta 90.000000
_cell_angle_gamma 90.000000
_cell_volume 2186.901090
_symmetry_space_group_name_H-M "P C C M"
_symmetry_group_IT_number 49
_symmetry_cell_setting 'orthorhombic'
loop_
_space_group_symop_operation_xyz
x,y,z
-x,-y,z
x,-y,1/2-z
-x,y,1/2-z
-x,-y,-z
x,y,-z
-x,y,1/2+z
x,-y,1/2+z
loop_
_atom_site_type_symbol
_atom_site_label
_atom_site_fract_x
_atom_site_fract_y
_atom_site_fract_z
Si Si1 0.317057 0.285180 0.602725
Si Si2 0.132124 0.828810 0.310144
Si Si3 0.938058 0.895660 0.000000
Si Si4 0.308497 0.411577 0.750042
Si Si5 0.278035 0.972368 0.000000
Si Si6 0.351152 0.112104 0.682820
Si Si7 0.686563 0.699881 0.100828
O O1 0.249547 0.284744 0.500000
O O2 0.256823 0.352958 0.669423
O O3 0.320034 0.198787 0.643933
O O4 0.500958 0.303643 0.594319
O O5 0.058854 0.852162 0.405146
O O6 0.202600 0.898266 0.250187
O O7 0.271098 0.772813 0.338078
O O8 0.000000 0.789078 0.250000
O O9 0.101529 0.940253 0.000000
O O10 0.767025 0.937832 0.000000
O O11 0.258794 0.500000 0.750000
O O12 0.500000 0.411024 0.750000
O O13 0.256237 0.373630 0.844599
O O14 0.355978 0.941648 0.093196
O O15 0.500000 0.105486 0.750000
O O16 0.752657 0.707889 0.000000
#
# Coordination Sequence:
#
# PCOD9392465 Si02
#       7
#     8   8   4   8   4   8   8
#     4  10  18  31  57  86 121 161 201 254 321 370
#     4  12  23  39  67  94 120 165 215 256 308 384
#     4  11  26  47  65  93 132 167 213 258 314 385
#     4   9  17  30  49  83 123 158 204 258 314 377
#     4  11  26  47  67  95 132 170 204 263 322 383
#     4  12  22  40  69  96 125 163 213 264 320 375
#     4  10  19  33  57  85 118 159 200 255 310 368
#
# _framework density 21.948868000000001
#
# number of rings (size 3 to 8) (size 9 to 14) (size 15 to 20)
#    0.000    1.333    6.667    0.500    0.000    2.000 
#    0.000    5.833    0.000    0.500    0.000    1.167 
#    0.000    0.000    0.000    0.000    0.000    0.000 
#
# Total GULP energy -267736.227970 kJ/mol
# GULP energy per Si atom -5577.838083 kJ/mol
# Density = 2.189891 g / cm^3
# Si number density = 21.948868 Si / 1000 Ang^3
#
#
#
# Elastic Constant Matrix: (Units=GPa)
#
#
# Indices 1 2 3 4 5 6 
#
# 1 39.2448 2.4066 26.0591 0.0000 0.0000 0.0000
# 2 2.4066 71.5290 51.9975 0.0000 0.0000 0.0000
# 3 26.0591 51.9975 190.7920 0.0000 0.0000 0.0000
# 4 0.0000 0.0000 0.0000 24.7583 0.0000 0.0000
# 5 0.0000 0.0000 0.0000 0.0000 16.8726 0.0000
# 6 0.0000 0.0000 0.0000 0.0000 0.0000 8.3644
#
#
#
# Elastic Compliance Matrix: (Units=1/GPa)
#
#
# Indices 1 2 3 4 5 6 
#
# 1 0.028328 0.002319 -0.004501 0.000000 0.000000 0.000000
# 2 0.002319 0.017624 -0.005120 0.000000 0.000000 0.000000
# 3 -0.004501 -0.005120 0.007251 0.000000 0.000000 0.000000
# 4 0.000000 0.000000 0.000000 0.040391 0.000000 0.000000
# 5 0.000000 0.000000 0.000000 0.000000 0.059268 0.000000
# 6 0.000000 0.000000 0.000000 0.000000 0.000000 0.119555
#
#
# Mechanical properties :
#
#
# Convention : Reuss Voigt Hill
#
# Bulk Modulus (GPa) = 25.90729 51.38804 38.64767
# Shear Modulus (GPa) = 16.67295 24.73920 20.70608
#
# Velocity S-wave (km/s) = 2.75912 3.36092 3.07478
# Velocity P-wave (km/s) = 4.68822 6.20681 5.50018
#
# Compressibility (1/GPa) = 0.03859917
#
# Stress axis : x y z
#
# Youngs Moduli (GPa) = 35.30115 56.73998 137.90332
#
# Poissons Ratio (x) = -0.13158 0.62072
# Poissons Ratio (y) = -0.08186 0.70606
# Poissons Ratio (z) = 0.15889 0.29051
#
# Static dielectric constant tensor:
#      x y z
#    x 1.850540 0.000000 0.000000 
#    y 0.000000 1.851840 0.000000 
#    z 0.000000 0.000000 1.841700 
# 
# From -- ./inp_files/11905.got.cif
#   From: 2010.05.17/outbox.cif.g08.bks.cpg/sg49_6_cif.got.tgz:11905.got - 2010.06.03 21:02:19.
