data_PCOD9392407
_publ_section_title
;
Structure prediction by ZEFSAII (Michael W. Deem and Ramdas Pophale) SiO2 
 PCOD9392407
Probable space group: P C C M
;
_chemical_formula_sum "Si O2"
_cell_formula_units_Z 64
_cell_length_a 20.604096
_cell_length_b 20.400597
_cell_length_c 8.421491
_cell_angle_alpha 90.000000
_cell_angle_beta 90.000000
_cell_angle_gamma 90.000000
_cell_volume 3539.854654
_symmetry_space_group_name_H-M "P C C M"
_symmetry_group_IT_number 49
_symmetry_cell_setting 'orthorhombic'
loop_
_space_group_symop_operation_xyz
x,y,z
-x,-y,z
x,-y,1/2-z
-x,y,1/2-z
-x,-y,-z
x,y,-z
-x,y,1/2+z
x,-y,1/2+z
loop_
_atom_site_type_symbol
_atom_site_label
_atom_site_fract_x
_atom_site_fract_y
_atom_site_fract_z
Si Si1 0.799957 0.299269 0.692687
Si Si2 0.066544 0.252555 0.812739
Si Si3 0.570678 0.722963 0.308749
Si Si4 0.928665 0.096490 0.687221
Si Si5 0.305330 0.805749 0.308465
Si Si6 0.218908 0.071500 0.310559
Si Si7 0.593967 0.571843 0.685378
Si Si8 0.738118 0.564884 0.811132
O O1 0.801608 0.291798 0.500000
O O2 0.869484 0.282537 0.760683
O O3 0.746107 0.248801 0.747880
O O4 0.779169 0.372008 0.726077
O O5 0.069214 0.174686 0.787183
O O6 0.000000 0.280043 0.750000
O O7 0.067446 0.262789 0.000000
O O8 0.500000 0.745173 0.250000
O O9 0.574031 0.721211 0.500000
O O10 0.626117 0.774147 0.249733
O O11 0.576616 0.645628 0.251431
O O12 0.926411 0.081325 0.500000
O O13 0.857656 0.077917 0.757462
O O14 0.000000 0.072917 0.750000
O O15 0.308626 0.808218 0.500000
O O16 0.269819 0.873383 0.253423
O O17 0.219670 0.074673 0.500000
O O18 0.240009 0.000000 0.250000
O O19 0.570900 0.500000 0.750000
O O20 0.577668 0.571823 0.500000
O O21 0.670775 0.569607 0.717164
O O22 0.772253 0.500000 0.750000
O O23 0.724481 0.562372 0.000000
#
# Coordination Sequence:
#
# PCOD9392407 Si02
#       8
#     8   8   8   8   8   8   8   8
#     4   9  17  31  54  78 105 144 184 227 283 338
#     4   9  17  31  49  75 107 141 182 227 279 336
#     4  11  24  40  59  87 118 154 195 239 286 341
#     4  10  19  34  55  82 118 157 195 236 284 340
#     4  11  21  40  64  87 115 149 187 236 288 338
#     4  12  25  41  61  88 119 155 196 238 286 342
#     4  10  20  33  51  78 114 152 192 233 277 333
#     4  10  18  30  49  75 106 144 184 229 284 337
#
# _framework density 18.079837000000001
#
# number of rings (size 3 to 8) (size 9 to 14) (size 15 to 20)
#    0.000    1.750    2.500    3.750    0.000    2.500 
#    0.000    3.750    0.000    0.750    0.000    5.250 
#    0.000    0.000    0.000    0.000    0.000    0.000 
#
# Total GULP energy -356361.600644 kJ/mol
# GULP energy per Si atom -5568.150010 kJ/mol
# Density = 1.803869 g / cm^3
# Si number density = 18.079837 Si / 1000 Ang^3
#
#
#
# Elastic Constant Matrix: (Units=GPa)
#
#
# Indices 1 2 3 4 5 6 
#
# 1 152.6946 80.0304 35.1986 0.0000 0.0000 0.0000
# 2 80.0304 146.9286 5.3060 0.0000 0.0000 0.0000
# 3 35.1986 5.3060 100.2992 0.0000 0.0000 0.0000
# 4 0.0000 0.0000 0.0000 37.4519 0.0000 0.0000
# 5 0.0000 0.0000 0.0000 0.0000 22.3823 0.0000
# 6 0.0000 0.0000 0.0000 0.0000 0.0000 15.8409
#
#
#
# Elastic Compliance Matrix: (Units=1/GPa)
#
#
# Indices 1 2 3 4 5 6 
#
# 1 0.010134 -0.005402 -0.003271 0.000000 0.000000 0.000000
# 2 -0.005402 0.009698 0.001383 0.000000 0.000000 0.000000
# 3 -0.003271 0.001383 0.011045 0.000000 0.000000 0.000000
# 4 0.000000 0.000000 0.000000 0.026701 0.000000 0.000000
# 5 0.000000 0.000000 0.000000 0.000000 0.044678 0.000000
# 6 0.000000 0.000000 0.000000 0.000000 0.000000 0.063128
#
#
# Mechanical properties :
#
#
# Convention : Reuss Voigt Hill
#
# Bulk Modulus (GPa) = 61.35856 71.22137 66.28997
# Shear Modulus (GPa) = 26.96919 33.76085 30.36502
#
# Velocity S-wave (km/s) = 3.86641 4.32594 4.10261
# Velocity P-wave (km/s) = 7.34462 8.02682 7.69328
#
# Compressibility (1/GPa) = 0.01629764
#
# Stress axis : x y z
#
# Youngs Moduli (GPa) = 98.67580 103.10938 90.54011
#
# Poissons Ratio (x) = 0.55698 0.29613
# Poissons Ratio (y) = 0.53303 -0.12519
# Poissons Ratio (z) = 0.32274 -0.14256
#
# Static dielectric constant tensor:
#      x y z
#    x 1.633850 0.000000 0.000000 
#    y 0.000000 1.655120 0.000000 
#    z 0.000000 0.000000 1.645720 
# 
# From -- ./inp_files/5968.got.cif
#   From: 2010.05.17/outbox.cif.g08.bks.cpg/sg49_3_cif.got.tgz:5968.got - 2010.06.03 21:02:19.
