data_PCOD9392578
_publ_section_title
;
Structure prediction by ZEFSAII (Michael W. Deem and Ramdas Pophale) SiO2 
 PCOD9392578
Probable space group: P C C M
;
_chemical_formula_sum "Si O2"
_cell_formula_units_Z 30
_cell_length_a 5.391576
_cell_length_b 17.583591
_cell_length_c 13.008608
_cell_angle_alpha 90.000000
_cell_angle_beta 90.000000
_cell_angle_gamma 90.000000
_cell_volume 1233.258541
_symmetry_space_group_name_H-M "P C C M"
_symmetry_group_IT_number 49
_symmetry_cell_setting 'orthorhombic'
loop_
_space_group_symop_operation_xyz
x,y,z
-x,-y,z
x,-y,1/2-z
-x,y,1/2-z
-x,-y,-z
x,y,-z
-x,y,1/2+z
x,-y,1/2+z
loop_
_atom_site_type_symbol
_atom_site_label
_atom_site_fract_x
_atom_site_fract_y
_atom_site_fract_z
Si Si1 0.000000 0.500000 0.000000
Si Si2 0.849958 0.661284 0.618846
Si Si3 0.249400 0.170870 0.317757
Si Si4 0.749144 0.950091 0.500000
Si Si5 0.650429 0.604889 0.115647
O O1 0.792011 0.526836 0.089851
O O2 0.889890 0.628326 0.500000
O O3 0.769305 0.748208 0.623934
O O4 0.621542 0.612754 0.661420
O O5 0.128892 0.655770 0.661183
O O6 0.500000 0.170406 0.250000
O O7 0.254537 0.103625 0.400124
O O8 0.000000 0.163642 0.250000
O O9 0.500000 0.000000 0.500000
O O10 0.000000 0.000000 0.500000
O O11 0.602266 0.638570 0.000000
#
# Coordination Sequence:
#
# PCOD9392578 Si02
#       5
#     2   8   8   4   8
#     4   8  16  26  46  90 122 166 220 260 312 398
#     4  10  18  36  56  86 123 164 208 274 319 372
#     4  12  26  44  71 100 131 175 225 273 336 405
#     4  12  28  48  71 100 138 175 214 272 334 403
#     4   8  17  26  50  81 126 156 210 269 308 381
#
# _framework density 24.325797000000001
#
# number of rings (size 3 to 8) (size 9 to 14) (size 15 to 20)
#    0.800    1.067    1.333    3.200    0.000    5.333 
#    0.000    0.000    0.000    0.000    0.000   14.000 
#    0.000    0.000    0.000    0.000    0.000    0.400 
#
# Total GULP energy -167108.291855 kJ/mol
# GULP energy per Si atom -5570.276395 kJ/mol
# Density = 2.427043 g / cm^3
# Si number density = 24.325797 Si / 1000 Ang^3
#
#
#
# Elastic Constant Matrix: (Units=GPa)
#
#
# Indices 1 2 3 4 5 6 
#
# 1 276.2338 86.7490 60.2579 0.0000 0.0000 0.0000
# 2 86.7490 143.6457 27.4403 0.0000 0.0000 0.0000
# 3 60.2579 27.4403 80.4773 0.0000 0.0000 0.0000
# 4 0.0000 0.0000 0.0000 4.8053 0.0000 0.0000
# 5 0.0000 0.0000 0.0000 0.0000 44.9690 0.0000
# 6 0.0000 0.0000 0.0000 0.0000 0.0000 46.2588
#
#
#
# Elastic Compliance Matrix: (Units=1/GPa)
#
#
# Indices 1 2 3 4 5 6 
#
# 1 0.005038 -0.002484 -0.002926 0.000000 0.000000 0.000000
# 2 -0.002484 0.008671 -0.001097 0.000000 0.000000 0.000000
# 3 -0.002926 -0.001097 0.014990 0.000000 0.000000 0.000000
# 4 0.000000 0.000000 0.000000 0.208104 0.000000 0.000000
# 5 0.000000 0.000000 0.000000 0.000000 0.022238 0.000000
# 6 0.000000 0.000000 0.000000 0.000000 0.000000 0.021617
#
#
# Mechanical properties :
#
#
# Convention : Reuss Voigt Hill
#
# Bulk Modulus (GPa) = 63.74537 94.36123 79.05330
# Shear Modulus (GPa) = 16.72799 40.93393 28.83096
#
# Velocity S-wave (km/s) = 2.62518 4.10657 3.44641
# Velocity P-wave (km/s) = 5.95403 7.83326 6.95739
#
# Compressibility (1/GPa) = 0.01568741
#
# Stress axis : x y z
#
# Youngs Moduli (GPa) = 198.47813 115.32561 66.70946
#
# Poissons Ratio (x) = 0.28645 0.19516
# Poissons Ratio (y) = 0.49299 0.07317
# Poissons Ratio (z) = 0.58066 0.12649
#
# Static dielectric constant tensor:
#      x y z
#    x 1.939850 0.000000 0.000000 
#    y 0.000000 1.600310 0.000000 
#    z 0.000000 0.000000 2.129220 
# 
# From -- ./inp_files/10560.got.cif
#   From: 2010.05.17/outbox.cif.g08.bks.cpg/sg49_6_cif.got.tgz:10560.got - 2010.06.03 21:02:19.
