data_PCOD9392662
_publ_section_title
;
Structure prediction by ZEFSAII (Michael W. Deem and Ramdas Pophale) SiO2 
 PCOD9392662
Probable space group: P C C M
;
_chemical_formula_sum "Si O2"
_cell_formula_units_Z 64
_cell_length_a 18.257596
_cell_length_b 14.409969
_cell_length_c 16.204309
_cell_angle_alpha 90.000000
_cell_angle_beta 90.000000
_cell_angle_gamma 90.000000
_cell_volume 4263.214217
_symmetry_space_group_name_H-M "P C C M"
_symmetry_group_IT_number 49
_symmetry_cell_setting 'orthorhombic'
loop_
_space_group_symop_operation_xyz
x,y,z
-x,-y,z
x,-y,1/2-z
-x,y,1/2-z
-x,-y,-z
x,y,-z
-x,y,1/2+z
x,-y,1/2+z
loop_
_atom_site_type_symbol
_atom_site_label
_atom_site_fract_x
_atom_site_fract_y
_atom_site_fract_z
Si Si1 0.186264 0.108138 0.347574
Si Si2 0.344400 0.892092 0.901591
Si Si3 0.912415 0.729711 0.907109
Si Si4 0.500000 0.893023 0.651526
Si Si5 0.344400 0.892092 0.598409
Si Si6 0.088995 0.606224 0.750000
Si Si7 0.186264 0.891861 0.347574
Si Si8 0.912415 0.270289 0.092891
O O1 0.269019 0.144107 0.363494
O O2 0.171156 0.110950 0.250000
O O3 0.129427 0.173757 0.393583
O O4 0.182717 0.000000 0.374612
O O5 0.422957 0.850245 0.877194
O O6 0.347423 1.000000 0.873009
O O7 0.337600 0.890364 0.000000
O O8 0.889330 0.661180 0.832977
O O9 0.870573 0.826243 0.893584
O O10 1.000000 0.743391 0.899914
O O11 0.897703 0.694425 0.000000
O O12 0.500000 0.896266 0.750000
O O13 0.422957 0.850245 0.622806
O O14 0.500000 0.000000 0.618390
O O15 0.337600 0.890364 0.500000
O O16 0.269019 0.855894 0.636506
O O17 0.114691 0.500000 0.750000
O O18 0.110670 0.661180 0.832978
O O19 0.000000 0.604220 0.750000
O O20 0.897703 0.305574 0.000000
#
# Coordination Sequence:
#
# PCOD9392662 Si02
#       8
#     8   8   8   8   8   8   8   8
#     4  10  19  30  44  62  88 123 159 191 223 261
#     4   9  16  25  37  54  77 108 147 187 224 260
#     4  10  20  33  49  69  92 119 152 187 225 269
#     4   9  15  23  35  51  73 103 143 186 223 260
#     4   9  16  25  37  54  77 108 147 187 224 260
#     4   9  18  34  53  71  91 112 140 183 232 279
#     4  10  19  30  44  62  88 123 159 191 223 261
#     4  10  20  33  49  69  92 119 152 187 225 269
#
# _framework density 15.012147000000001
#
# number of rings (size 3 to 8) (size 9 to 14) (size 15 to 20)
#    0.000    2.500    1.250    1.875    0.000    7.000 
#    0.000    5.000    0.000    0.000    0.000    0.000 
#    0.000    0.000    0.000    2.250    0.000    9.250 
#
# Total GULP energy -356304.616185 kJ/mol
# GULP energy per Si atom -5567.259628 kJ/mol
# Density = 1.497798 g / cm^3
# Si number density = 15.012147 Si / 1000 Ang^3
#
#
#
# Elastic Constant Matrix: (Units=GPa)
#
#
# Indices 1 2 3 4 5 6 
#
# 1 47.6530 26.3443 32.7346 0.0000 0.0000 0.0000
# 2 26.3443 55.1999 33.6669 0.0000 0.0000 0.0000
# 3 32.7346 33.6669 86.4574 0.0000 0.0000 0.0000
# 4 0.0000 0.0000 0.0000 7.9936 0.0000 0.0000
# 5 0.0000 0.0000 0.0000 0.0000 26.0658 0.0000
# 6 0.0000 0.0000 0.0000 0.0000 0.0000 -0.7373
#
#
#
# Elastic Compliance Matrix: (Units=1/GPa)
#
#
# Indices 1 2 3 4 5 6 
#
# 1 0.032398 -0.010466 -0.008191 0.000000 0.000000 0.000000
# 2 -0.010466 0.027140 -0.006606 0.000000 0.000000 0.000000
# 3 -0.008191 -0.006606 0.017240 0.000000 0.000000 0.000000
# 4 0.000000 0.000000 0.000000 0.125101 0.000000 0.000000
# 5 0.000000 0.000000 0.000000 0.000000 0.038364 0.000000
# 6 0.000000 0.000000 0.000000 0.000000 0.000000 -1.356290
#
#
# Mechanical properties :
#
#
# Convention : Reuss Voigt Hill
#
# Bulk Modulus (GPa) = 38.09231 41.64463 39.86847
# Shear Modulus (GPa) = -4.73139 13.10206 4.18533
#
# Velocity S-wave (km/s) = -1.77723 2.95746 1.67153
# Velocity P-wave (km/s) = 4.60630 6.28195 5.50822
#
# Compressibility (1/GPa) = 0.02625202
#
# Stress axis : x y z
#
# Youngs Moduli (GPa) = 30.86632 36.84625 58.00500
#
# Poissons Ratio (x) = 0.38564 0.47511
# Poissons Ratio (y) = 0.32305 0.38316
# Poissons Ratio (z) = 0.25282 0.24339
#
# Static dielectric constant tensor:
#      x y z
#    x 1.525380 0.000000 0.000000 
#    y 0.000000 1.472750 0.000000 
#    z 0.000000 0.000000 1.523520 
# 
# From -- ./inp_files/14265.got.cif
#   From: 2010.05.17/outbox.cif.g08.bks.cpg/sg49_8_cif.got.tgz:14265.got - 2010.06.03 21:02:19.
