data_PCOD9392021
_publ_section_title
;
Structure prediction by ZEFSAII (Michael W. Deem and Ramdas Pophale) SiO2 
 PCOD9392021
Probable space group: P C C M
;
_chemical_formula_sum "Si O2"
_cell_formula_units_Z 48
_cell_length_a 30.269031
_cell_length_b 9.124374
_cell_length_c 9.196820
_cell_angle_alpha 90.000000
_cell_angle_beta 90.000000
_cell_angle_gamma 90.000000
_cell_volume 2540.032556
_symmetry_space_group_name_H-M "P C C M"
_symmetry_group_IT_number 49
_symmetry_cell_setting 'orthorhombic'
loop_
_space_group_symop_operation_xyz
x,y,z
-x,-y,z
x,-y,1/2-z
-x,y,1/2-z
-x,-y,-z
x,y,-z
-x,y,1/2+z
x,-y,1/2+z
loop_
_atom_site_type_symbol
_atom_site_label
_atom_site_fract_x
_atom_site_fract_y
_atom_site_fract_z
Si Si1 0.901314 0.824113 0.232068
Si Si2 0.630570 0.660242 0.674417
Si Si3 0.197742 0.846103 0.332767
Si Si4 0.544135 0.335882 0.322473
Si Si5 0.934113 0.642672 0.500000
Si Si6 0.961457 0.306161 0.500000
Si Si7 0.270993 0.342831 0.672729
O O1 0.852702 0.788812 0.170744
O O2 0.909209 0.718913 0.367728
O O3 0.902171 0.000000 0.250000
O O4 0.942588 0.782370 0.134002
O O5 0.634252 0.500000 0.750000
O O6 0.621562 0.646933 0.500000
O O7 0.589534 0.732769 0.759784
O O8 0.679716 0.725403 0.691924
O O9 0.211226 0.863480 0.500000
O O10 0.232281 0.747378 0.247058
O O11 0.196963 0.000000 0.250000
O O12 0.545027 0.500000 0.250000
O O13 0.500000 0.268285 0.250000
O O14 0.542549 0.341839 0.500000
O O15 0.937986 0.466510 0.500000
O O16 0.986078 0.683965 0.500000
O O17 0.271100 0.500000 0.750000
O O18 0.263982 0.358818 0.500000
#
# Coordination Sequence:
#
# PCOD9392021 Si02
#       7
#     8   8   8   8   4   4   8
#     4  11  24  41  64  90 118 157 200 243 292 352
#     4   9  16  27  42  64  96 134 175 226 277 332
#     4  11  24  42  63  85 116 150 189 240 292 346
#     4  10  16  22  34  54  85 129 177 225 275 335
#     4  11  25  39  67  89 125 163 187 249 288 355
#     4  11  23  45  59  93 127 155 201 233 302 343
#     4  10  21  36  57  84 115 149 191 236 288 349
#
# _framework density 18.897397000000002
#
# number of rings (size 3 to 8) (size 9 to 14) (size 15 to 20)
#    0.000    1.667    0.833    6.000    4.667    6.667 
#    0.000    0.000    0.000    0.000    0.000    0.000 
#    0.000    0.667    0.000    7.000    0.000    5.167 
#
# Total GULP energy -267361.821398 kJ/mol
# GULP energy per Si atom -5570.037946 kJ/mol
# Density = 1.885439 g / cm^3
# Si number density = 18.897397 Si / 1000 Ang^3
#
#
#
# Elastic Constant Matrix: (Units=GPa)
#
#
# Indices 1 2 3 4 5 6 
#
# 1 126.1962 46.0851 50.0852 0.0000 0.0000 0.0000
# 2 46.0851 42.9141 21.9016 0.0000 0.0000 0.0000
# 3 50.0852 21.9016 148.9979 0.0000 0.0000 0.0000
# 4 0.0000 0.0000 0.0000 19.1790 0.0000 0.0000
# 5 0.0000 0.0000 0.0000 0.0000 37.9964 0.0000
# 6 0.0000 0.0000 0.0000 0.0000 0.0000 297.1804
#
#
#
# Elastic Compliance Matrix: (Units=1/GPa)
#
#
# Indices 1 2 3 4 5 6 
#
# 1 0.013969 -0.013627 -0.002693 0.000000 0.000000 0.000000
# 2 -0.013627 0.038486 -0.001076 0.000000 0.000000 0.000000
# 3 -0.002693 -0.001076 0.007775 0.000000 0.000000 0.000000
# 4 0.000000 0.000000 0.000000 0.052140 0.000000 0.000000
# 5 0.000000 0.000000 0.000000 0.000000 0.026318 0.000000
# 6 0.000000 0.000000 0.000000 0.000000 0.000000 0.003365
#
#
# Mechanical properties :
#
#
# Convention : Reuss Voigt Hill
#
# Bulk Modulus (GPa) = 39.31205 61.58355 50.44780
# Shear Modulus (GPa) = 26.97952 84.20692 55.59322
#
# Velocity S-wave (km/s) = 3.78257 6.68257 5.42976
# Velocity P-wave (km/s) = 6.31864 9.60216 8.12794
#
# Compressibility (1/GPa) = 0.02543749
#
# Stress axis : x y z
#
# Youngs Moduli (GPa) = 71.58536 25.98345 128.62000
#
# Poissons Ratio (x) = 0.35409 0.34633
# Poissons Ratio (y) = 0.97552 0.13844
# Poissons Ratio (z) = 0.19275 0.02797
#
# Static dielectric constant tensor:
#      x y z
#    x 1.708980 0.000000 0.000000 
#    y 0.000000 1.633370 0.000000 
#    z 0.000000 0.000000 1.564980 
# 
# From -- ./inp_files/6907.got.cif
#   From: 2010.05.17/outbox.cif.g08.bks.cpg/sg49_4_cif.got.tgz:6907.got - 2010.06.03 21:02:19.
