data_PCOD9392734
_publ_section_title
;
Structure prediction by ZEFSAII (Michael W. Deem and Ramdas Pophale) SiO2 
 PCOD9392734
Probable space group: P C C M
;
_chemical_formula_sum "Si O2"
_cell_formula_units_Z 56
_cell_length_a 20.746423
_cell_length_b 15.726096
_cell_length_c 8.798108
_cell_angle_alpha 90.000000
_cell_angle_beta 90.000000
_cell_angle_gamma 90.000000
_cell_volume 2870.472825
_symmetry_space_group_name_H-M "P C C M"
_symmetry_group_IT_number 49
_symmetry_cell_setting 'orthorhombic'
loop_
_space_group_symop_operation_xyz
x,y,z
-x,-y,z
x,-y,1/2-z
-x,y,1/2-z
-x,-y,-z
x,y,-z
-x,y,1/2+z
x,-y,1/2+z
loop_
_atom_site_type_symbol
_atom_site_label
_atom_site_fract_x
_atom_site_fract_y
_atom_site_fract_z
Si Si1 0.242924 0.646952 0.823645
Si Si2 0.900701 0.588359 0.322403
Si Si3 0.933500 0.770030 0.817701
Si Si4 0.670287 0.910567 0.183495
Si Si5 0.204738 0.178200 0.818768
Si Si6 0.432038 0.234222 0.817720
Si Si7 0.385529 0.411125 0.680794
O O1 0.177333 0.593564 0.810486
O O2 0.233980 0.729366 0.719701
O O3 0.308685 0.598599 0.788157
O O4 0.247043 0.675424 0.000000
O O5 0.922527 0.500000 0.250000
O O6 0.918197 0.593045 0.500000
O O7 0.925466 0.672411 0.237591
O O8 0.868981 0.819003 0.762598
O O9 0.000000 0.803826 0.750000
O O10 0.935585 0.771390 0.000000
O O11 0.742967 0.889090 0.238670
O O12 0.623768 0.832456 0.226491
O O13 0.648362 0.000000 0.250000
O O14 0.670494 0.914937 0.000000
O O15 0.201491 0.168990 0.000000
O O16 0.500000 0.205250 0.750000
O O17 0.417109 0.327750 0.753263
O O18 0.434854 0.238050 0.000000
O O19 0.408560 0.500000 0.750000
O O20 0.395456 0.410746 0.500000
#
# Coordination Sequence:
#
# PCOD9392734 Si02
#       7
#     8   8   8   8   8   8   8
#     4   9  18  31  51  79 110 146 190 240 290 343
#     4  10  19  31  46  70 104 142 188 238 290 342
#     4  10  20  34  53  76 106 145 188 234 286 345
#     4  10  22  40  65  95 123 153 191 238 293 354
#     4   9  18  35  58  83 113 149 188 234 288 342
#     4  11  24  43  64  88 122 160 199 244 295 349
#     4  11  22  36  57  86 119 159 204 248 296 347
#
# _framework density 19.508980999999999
#
# number of rings (size 3 to 8) (size 9 to 14) (size 15 to 20)
#    0.000    2.000    1.429    2.143    0.000    4.286 
#    0.000    4.286    0.000    0.429    0.000    3.000 
#    0.000    0.000    0.000    0.000    0.000    0.000 
#
# Total GULP energy -312654.798860 kJ/mol
# GULP energy per Si atom -5583.121408 kJ/mol
# Density = 1.946458 g / cm^3
# Si number density = 19.508981 Si / 1000 Ang^3
#
#
#
# Elastic Constant Matrix: (Units=GPa)
#
#
# Indices 1 2 3 4 5 6 
#
# 1 116.0549 38.5749 33.8610 0.0000 0.0000 0.0000
# 2 38.5749 88.4241 22.5315 0.0000 0.0000 0.0000
# 3 33.8610 22.5315 35.4965 0.0000 0.0000 0.0000
# 4 0.0000 0.0000 0.0000 24.8921 0.0000 0.0000
# 5 0.0000 0.0000 0.0000 0.0000 27.0761 0.0000
# 6 0.0000 0.0000 0.0000 0.0000 0.0000 -1.1987
#
#
#
# Elastic Compliance Matrix: (Units=1/GPa)
#
#
# Indices 1 2 3 4 5 6 
#
# 1 0.012529 -0.002887 -0.010119 0.000000 0.000000 0.000000
# 2 -0.002887 0.014157 -0.006232 0.000000 0.000000 0.000000
# 3 -0.010119 -0.006232 0.041780 0.000000 0.000000 0.000000
# 4 0.000000 0.000000 0.000000 0.040173 0.000000 0.000000
# 5 0.000000 0.000000 0.000000 0.000000 0.036933 0.000000
# 6 0.000000 0.000000 0.000000 0.000000 0.000000 -0.834241
#
#
# Mechanical properties :
#
#
# Convention : Reuss Voigt Hill
#
# Bulk Modulus (GPa) = 33.34466 47.76781 40.55623
# Shear Modulus (GPa) = -7.81009 19.82111 6.00551
#
# Velocity S-wave (km/s) = -2.00300 3.19093 1.75642
# Velocity P-wave (km/s) = 3.43216 6.17367 4.99470
#
# Compressibility (1/GPa) = 0.02998981
#
# Stress axis : x y z
#
# Youngs Moduli (GPa) = 79.81754 70.63837 23.93493
#
# Poissons Ratio (x) = 0.20395 0.24219
# Poissons Ratio (y) = 0.23045 0.14916
# Poissons Ratio (z) = 0.80765 0.44020
#
# Static dielectric constant tensor:
#      x y z
#    x 1.736940 0.000000 0.000000 
#    y 0.000000 1.644000 0.000000 
#    z 0.000000 0.000000 1.658220 
# 
# From -- ./inp_files/4017.got.cif
#   From: 2010.05.17/outbox.cif.g08.bks.cpg/sg49_3_cif.got.tgz:4017.got - 2010.06.03 21:02:19.
