data_PCOD9392971
_publ_section_title
;
Structure prediction by ZEFSAII (Michael W. Deem and Ramdas Pophale) SiO2 
 PCOD9392971
Probable space group: P C C M
;
_chemical_formula_sum "Si O2"
_cell_formula_units_Z 64
_cell_length_a 24.858188
_cell_length_b 15.678120
_cell_length_c 8.737014
_cell_angle_alpha 90.000000
_cell_angle_beta 90.000000
_cell_angle_gamma 90.000000
_cell_volume 3405.073447
_symmetry_space_group_name_H-M "P C C M"
_symmetry_group_IT_number 49
_symmetry_cell_setting 'orthorhombic'
loop_
_space_group_symop_operation_xyz
x,y,z
-x,-y,z
x,-y,1/2-z
-x,y,1/2-z
-x,-y,-z
x,y,-z
-x,y,1/2+z
x,-y,1/2+z
loop_
_atom_site_type_symbol
_atom_site_label
_atom_site_fract_x
_atom_site_fract_y
_atom_site_fract_z
Si Si1 0.291424 0.627903 0.821378
Si Si2 0.059838 0.909004 0.182928
Si Si3 0.140811 0.227803 0.182078
Si Si4 0.264126 0.196362 0.180292
Si Si5 0.597558 0.588238 0.180033
Si Si6 0.558042 0.233968 0.182412
Si Si7 0.364162 0.908680 0.319042
Si Si8 0.167019 0.589646 0.182397
O O1 0.286937 0.728229 0.785275
O O2 0.338501 0.592107 0.715963
O O3 0.231516 0.594311 0.788002
O O4 0.304346 0.612793 0.000000
O O5 0.097805 0.832061 0.235803
O O6 0.000000 0.896197 0.250000
O O7 0.079378 0.000000 0.250000
O O8 0.057422 0.914258 0.000000
O O9 0.200762 0.189912 0.210013
O O10 0.142309 0.325096 0.243123
O O11 0.131388 0.228160 0.000000
O O12 0.301288 0.114649 0.205239
O O13 0.270200 0.221330 0.000000
O O14 0.576539 0.500000 0.250000
O O15 0.573217 0.671686 0.259159
O O16 0.588024 0.591603 0.000000
O O17 0.500000 0.211282 0.250000
O O18 0.601058 0.166049 0.243611
O O19 0.557053 0.233392 0.000000
O O20 0.374324 0.908359 0.500000
O O21 0.377319 0.000000 0.250000
O O22 0.146982 0.500000 0.250000
O O23 0.159389 0.592285 0.000000
#
# Coordination Sequence:
#
# PCOD9392971 Si02
#       8
#     8   8   8   8   8   8   8   8
#     4  10  19  32  54  83 116 155 197 239 289 345
#     4  11  22  39  62  89 120 158 203 255 305 359
#     4  10  20  36  58  88 123 163 203 249 299 354
#     4   9  19  35  57  84 121 160 196 237 291 349
#     4  12  24  39  60  88 119 153 193 238 289 350
#     4  12  26  46  68  90 115 149 190 242 297 355
#     4  11  23  41  64  92 121 156 195 241 293 353
#     4  10  20  33  51  81 119 162 206 250 296 349
#
# _framework density 18.795482
#
# number of rings (size 3 to 8) (size 9 to 14) (size 15 to 20)
#    0.000    1.375    1.250    5.625    0.000    4.500 
#    0.000    3.750    0.000    0.375    0.000    2.625 
#    0.000    0.000    0.000    0.000    0.000    0.000 
#
# Total GULP energy -357701.060964 kJ/mol
# GULP energy per Si atom -5589.079078 kJ/mol
# Density = 1.875270 g / cm^3
# Si number density = 18.795482 Si / 1000 Ang^3
#
#
#
# Elastic Constant Matrix: (Units=GPa)
#
#
# Indices 1 2 3 4 5 6 
#
# 1 66.1825 55.3188 46.1445 0.0000 0.0000 0.0000
# 2 55.3188 136.3060 68.5672 0.0000 0.0000 0.0000
# 3 46.1445 68.5672 127.1930 0.0000 0.0000 0.0000
# 4 0.0000 0.0000 0.0000 34.0627 0.0000 0.0000
# 5 0.0000 0.0000 0.0000 0.0000 24.5157 0.0000
# 6 0.0000 0.0000 0.0000 0.0000 0.0000 -10.3787
#
#
#
# Elastic Compliance Matrix: (Units=1/GPa)
#
#
# Indices 1 2 3 4 5 6 
#
# 1 0.024930 -0.007640 -0.004926 0.000000 0.000000 0.000000
# 2 -0.007640 0.012407 -0.003917 0.000000 0.000000 0.000000
# 3 -0.004926 -0.003917 0.011761 0.000000 0.000000 0.000000
# 4 0.000000 0.000000 0.000000 0.029358 0.000000 0.000000
# 5 0.000000 0.000000 0.000000 0.000000 0.040790 0.000000
# 6 0.000000 0.000000 0.000000 0.000000 0.000000 -0.096351
#
#
# Mechanical properties :
#
#
# Convention : Reuss Voigt Hill
#
# Bulk Modulus (GPa) = 61.98554 74.41583 68.20069
# Shear Modulus (GPa) = 81.64947 20.28336 50.96641
#
# Velocity S-wave (km/s) = 6.59813 3.28862 5.21298
# Velocity P-wave (km/s) = 9.54451 7.35516 8.52045
#
# Compressibility (1/GPa) = 0.01613280
#
# Stress axis : x y z
#
# Youngs Moduli (GPa) = 40.11253 80.59775 85.02905
#
# Poissons Ratio (x) = 0.61574 0.41885
# Poissons Ratio (y) = 0.30645 0.33305
# Poissons Ratio (z) = 0.19759 0.31569
#
# Static dielectric constant tensor:
#      x y z
#    x 1.654260 0.000000 0.000000 
#    y 0.000000 1.653830 0.000000 
#    z 0.000000 0.000000 1.626520 
# 
# From -- ./inp_files/6517.got.cif
#   From: 2010.05.17/outbox.cif.g08.bks.cpg/sg49_4_cif.got.tgz:6517.got - 2010.06.03 21:02:19.
