data_PCOD9392890
_publ_section_title
;
Structure prediction by ZEFSAII (Michael W. Deem and Ramdas Pophale) SiO2 
 PCOD9392890
Probable space group: P C C M
;
_chemical_formula_sum "Si O2"
_cell_formula_units_Z 64
_cell_length_a 15.391465
_cell_length_b 25.527951
_cell_length_c 8.761278
_cell_angle_alpha 90.000000
_cell_angle_beta 90.000000
_cell_angle_gamma 90.000000
_cell_volume 3442.416206
_symmetry_space_group_name_H-M "P C C M"
_symmetry_group_IT_number 49
_symmetry_cell_setting 'orthorhombic'
loop_
_space_group_symop_operation_xyz
x,y,z
-x,-y,z
x,-y,1/2-z
-x,y,1/2-z
-x,-y,-z
x,y,-z
-x,y,1/2+z
x,-y,1/2+z
loop_
_atom_site_type_symbol
_atom_site_label
_atom_site_fract_x
_atom_site_fract_y
_atom_site_fract_z
Si Si1 0.411921 0.913328 0.681635
Si Si2 0.781263 0.054667 0.317015
Si Si3 0.366193 0.803221 0.822240
Si Si4 0.165214 0.162636 0.323153
Si Si5 0.591914 0.310031 0.316487
Si Si6 0.093499 0.441931 0.815554
Si Si7 0.774967 0.351538 0.314751
Si Si8 0.090107 0.736407 0.317870
O O1 0.500000 0.936543 0.750000
O O2 0.416394 0.915284 0.500000
O O3 0.320470 0.938773 0.730907
O O4 0.405725 0.853270 0.737453
O O5 0.784689 0.054485 0.500000
O O6 0.829982 0.105708 0.253367
O O7 0.813957 0.000000 0.250000
O O8 0.262793 0.813475 0.815879
O O9 0.391024 0.748979 0.743134
O O10 0.392961 0.802493 0.000000
O O11 0.140378 0.158093 0.500000
O O12 0.106234 0.204769 0.238520
O O13 0.500000 0.328177 0.250000
O O14 0.588274 0.309318 0.500000
O O15 0.675382 0.344289 0.266020
O O16 0.108348 0.500000 0.750000
O O17 0.170594 0.402618 0.768793
O O18 0.000000 0.424141 0.750000
O O19 0.088432 0.443548 0.000000
O O20 0.773955 0.351510 0.500000
O O21 0.831043 0.300937 0.266592
O O22 0.086522 0.735162 0.500000
O O23 0.000000 0.716422 0.250000
#
# Coordination Sequence:
#
# PCOD9392890 Si02
#       8
#     8   8   8   8   8   8   8   8
#     4  10  20  32  47  68  96 131 171 218 273 329
#     4  10  21  36  54  74  97 132 175 222 274 331
#     4  10  19  32  50  73 101 137 180 225 270 323
#     4  10  20  35  55  79 107 139 177 222 269 327
#     4  11  21  35  52  75 107 148 191 235 280 329
#     4  10  19  35  57  86 117 153 192 233 281 334
#     4   9  20  36  56  80 116 155 190 231 281 331
#     4  11  21  36  57  85 116 150 182 220 274 335
#
# _framework density 18.591591999999999
#
# number of rings (size 3 to 8) (size 9 to 14) (size 15 to 20)
#    0.000    1.875    1.250    3.750    0.000    2.750 
#    0.000    5.625    0.000    0.750    0.000    5.250 
#    0.000    0.000    0.000    0.000    0.000    0.000 
#
# Total GULP energy -357417.963792 kJ/mol
# GULP energy per Si atom -5584.655684 kJ/mol
# Density = 1.854928 g / cm^3
# Si number density = 18.591592 Si / 1000 Ang^3
#
#
#
# Elastic Constant Matrix: (Units=GPa)
#
#
# Indices 1 2 3 4 5 6 
#
# 1 100.5331 55.6980 26.0597 0.0000 0.0000 0.0000
# 2 55.6980 107.5854 25.8678 0.0000 0.0000 0.0000
# 3 26.0597 25.8678 56.6574 0.0000 0.0000 0.0000
# 4 0.0000 0.0000 0.0000 16.4519 0.0000 0.0000
# 5 0.0000 0.0000 0.0000 0.0000 4.3872 0.0000
# 6 0.0000 0.0000 0.0000 0.0000 0.0000 3.8560
#
#
#
# Elastic Compliance Matrix: (Units=1/GPa)
#
#
# Indices 1 2 3 4 5 6 
#
# 1 0.014595 -0.006675 -0.003666 0.000000 0.000000 0.000000
# 2 -0.006675 0.013494 -0.003091 0.000000 0.000000 0.000000
# 3 -0.003666 -0.003091 0.020747 0.000000 0.000000 0.000000
# 4 0.000000 0.000000 0.000000 0.060783 0.000000 0.000000
# 5 0.000000 0.000000 0.000000 0.000000 0.227935 0.000000
# 6 0.000000 0.000000 0.000000 0.000000 0.000000 0.259338
#
#
# Mechanical properties :
#
#
# Convention : Reuss Voigt Hill
#
# Bulk Modulus (GPa) = 45.50874 53.33633 49.42253
# Shear Modulus (GPa) = 7.92294 15.41571 11.66932
#
# Velocity S-wave (km/s) = 2.06660 2.88267 2.50805
# Velocity P-wave (km/s) = 5.49779 6.31113 5.91845
#
# Compressibility (1/GPa) = 0.02197380
#
# Stress axis : x y z
#
# Youngs Moduli (GPa) = 68.51618 74.10914 48.19966
#
# Poissons Ratio (x) = 0.49465 0.17668
# Poissons Ratio (y) = 0.45732 0.14897
# Poissons Ratio (z) = 0.25115 0.22905
#
# Static dielectric constant tensor:
#      x y z
#    x 1.680210 0.000000 0.000000 
#    y 0.000000 1.620050 0.000000 
#    z 0.000000 0.000000 1.623550 
# 
# From -- ./inp_files/4363.got.cif
#   From: 2010.05.17/outbox.cif.g08.bks.cpg/sg49_3_cif.got.tgz:4363.got - 2010.06.03 21:02:19.
