data_PCOD9392459
_publ_section_title
;
Structure prediction by ZEFSAII (Michael W. Deem and Ramdas Pophale) SiO2 
 PCOD9392459
Probable space group: P C C M
;
_chemical_formula_sum "Si O2"
_cell_formula_units_Z 64
_cell_length_a 19.721397
_cell_length_b 10.082890
_cell_length_c 17.306246
_cell_angle_alpha 90.000000
_cell_angle_beta 90.000000
_cell_angle_gamma 90.000000
_cell_volume 3441.324114
_symmetry_space_group_name_H-M "P C C M"
_symmetry_group_IT_number 49
_symmetry_cell_setting 'orthorhombic'
loop_
_space_group_symop_operation_xyz
x,y,z
-x,-y,z
x,-y,1/2-z
-x,y,1/2-z
-x,-y,-z
x,y,-z
-x,y,1/2+z
x,-y,1/2+z
loop_
_atom_site_type_symbol
_atom_site_label
_atom_site_fract_x
_atom_site_fract_y
_atom_site_fract_z
Si Si1 0.144726 0.229982 0.135866
Si Si2 0.919023 0.501632 0.415076
Si Si3 0.924309 0.038358 0.090024
Si Si4 0.142801 0.275098 0.686052
Si Si5 0.417997 0.647764 0.091012
Si Si6 0.287297 0.320798 0.091832
Si Si7 0.286379 0.408403 0.326972
Si Si8 0.434774 0.327689 0.909756
O O1 0.110921 0.355012 0.093570
O O2 0.126092 0.243672 0.225569
O O3 0.225547 0.242374 0.128361
O O4 0.118867 0.094659 0.099941
O O5 0.898675 0.554800 0.500000
O O6 0.891880 0.592405 0.346574
O O7 0.000000 0.500000 0.411939
O O8 0.886851 0.155142 0.135632
O O9 0.930526 0.076027 0.000000
O O10 0.000000 0.000000 0.118533
O O11 0.222731 0.310695 0.680315
O O12 0.353661 0.668769 0.145841
O O13 0.490103 0.705773 0.120128
O O14 0.427841 0.487796 0.091922
O O15 0.406752 0.683215 0.000000
O O16 0.274261 0.476698 0.109016
O O17 0.362276 0.282102 0.122908
O O18 0.287058 0.301827 0.000000
O O19 0.294753 0.500000 0.250000
O O20 0.436456 0.289156 0.000000
#
# Coordination Sequence:
#
# PCOD9392459 Si02
#       8
#     8   8   8   8   8   8   8   8
#     4  12  23  39  59  85 114 151 190 233 289 353
#     4  11  23  38  59  85 112 145 187 230 278 340
#     4  11  26  46  65  85 110 142 190 245 292 351
#     4  12  24  39  58  84 118 150 183 233 293 345
#     4   8  14  25  44  69 106 152 193 228 273 327
#     4  10  18  31  54  77 109 152 194 236 277 327
#     4  11  19  32  49  80 120 151 187 232 280 337
#     4   7  12  24  42  70 103 145 193 233 270 319
#
# _framework density 18.597491999999999
#
# number of rings (size 3 to 8) (size 9 to 14) (size 15 to 20)
#    0.000    1.750    2.500    4.875    0.000    6.500 
#    0.000    5.000    0.000    0.000    0.000    0.875 
#    0.000    6.000    0.000    0.000    0.000    0.000 
#
# Total GULP energy -356812.045497 kJ/mol
# GULP energy per Si atom -5575.188211 kJ/mol
# Density = 1.855516 g / cm^3
# Si number density = 18.597492 Si / 1000 Ang^3
#
#
#
# Elastic Constant Matrix: (Units=GPa)
#
#
# Indices 1 2 3 4 5 6 
#
# 1 140.4738 25.9859 27.1591 0.0000 0.0000 0.0000
# 2 25.9859 51.2167 7.0188 0.0000 0.0000 0.0000
# 3 27.1591 7.0188 75.2793 0.0000 0.0000 0.0000
# 4 0.0000 0.0000 0.0000 17.4025 0.0000 0.0000
# 5 0.0000 0.0000 0.0000 0.0000 14.7553 0.0000
# 6 0.0000 0.0000 0.0000 0.0000 0.0000 41.8687
#
#
#
# Elastic Compliance Matrix: (Units=1/GPa)
#
#
# Indices 1 2 3 4 5 6 
#
# 1 0.008348 -0.003872 -0.002651 0.000000 0.000000 0.000000
# 2 -0.003872 0.021574 -0.000615 0.000000 0.000000 0.000000
# 3 -0.002651 -0.000615 0.014297 0.000000 0.000000 0.000000
# 4 0.000000 0.000000 0.000000 0.057463 0.000000 0.000000
# 5 0.000000 0.000000 0.000000 0.000000 0.067772 0.000000
# 6 0.000000 0.000000 0.000000 0.000000 0.000000 0.023884
#
#
# Mechanical properties :
#
#
# Convention : Reuss Voigt Hill
#
# Bulk Modulus (GPa) = 33.39533 43.03307 38.21420
# Shear Modulus (GPa) = 22.97861 28.59238 25.78549
#
# Velocity S-wave (km/s) = 3.51889 3.92526 3.72762
# Velocity P-wave (km/s) = 5.87418 6.61309 6.25456
#
# Compressibility (1/GPa) = 0.02994430
#
# Stress axis : x y z
#
# Youngs Moduli (GPa) = 119.79621 46.35280 69.94269
#
# Poissons Ratio (x) = 0.17948 0.18539
# Poissons Ratio (y) = 0.46386 0.04298
# Poissons Ratio (z) = 0.31753 0.02848
#
# Static dielectric constant tensor:
#      x y z
#    x 1.716420 0.000000 0.000000 
#    y 0.000000 1.607480 0.000000 
#    z 0.000000 0.000000 1.647550 
# 
# From -- ./inp_files/18315.got.cif
#   From: 2010.05.17/outbox.cif.g08.bks.cpg/sg49_10_cif.got.tgz:18315.got - 2010.06.03 21:02:19.
