data_PCOD9392558
_publ_section_title
;
Structure prediction by ZEFSAII (Michael W. Deem and Ramdas Pophale) SiO2 
 PCOD9392558
Probable space group: P C C M
;
_chemical_formula_sum "Si O2"
_cell_formula_units_Z 56
_cell_length_a 10.488881
_cell_length_b 16.262348
_cell_length_c 16.047552
_cell_angle_alpha 90.000000
_cell_angle_beta 90.000000
_cell_angle_gamma 90.000000
_cell_volume 2737.292454
_symmetry_space_group_name_H-M "P C C M"
_symmetry_group_IT_number 49
_symmetry_cell_setting 'orthorhombic'
loop_
_space_group_symop_operation_xyz
x,y,z
-x,-y,z
x,-y,1/2-z
-x,y,1/2-z
-x,-y,-z
x,y,-z
-x,y,1/2+z
x,-y,1/2+z
loop_
_atom_site_type_symbol
_atom_site_label
_atom_site_fract_x
_atom_site_fract_y
_atom_site_fract_z
Si Si1 0.741785 0.336403 0.134082
Si Si2 0.006183 0.243356 0.595230
Si Si3 0.100269 0.068108 0.399490
Si Si4 0.508146 0.765481 0.656220
Si Si5 0.646194 0.510144 0.850845
Si Si6 0.386303 0.951233 0.161716
Si Si7 0.253354 0.688628 0.665466
O O1 0.613481 0.287414 0.107770
O O2 0.724617 0.432414 0.116772
O O3 0.750200 0.320168 0.233968
O O4 0.869799 0.300527 0.096696
O O5 0.966651 0.228665 0.500000
O O6 0.886383 0.283053 0.640126
O O7 0.053225 0.156595 0.632262
O O8 0.097222 0.070174 0.500000
O O9 0.245506 0.050259 0.375102
O O10 0.000000 0.000000 0.370321
O O11 0.500000 0.729041 0.750000
O O12 0.562254 0.857540 0.665158
O O13 0.360865 0.752992 0.631793
O O14 0.500000 0.500000 0.878753
O O15 0.644868 0.500000 0.750000
O O16 0.704115 0.599323 0.868772
O O17 0.500000 0.000000 0.115308
O O18 0.374234 0.000000 0.250000
#
# Coordination Sequence:
#
# PCOD9392558 Si02
#       7
#     8   8   8   8   8   8   8
#     4  10  19  36  62  86 117 152 195 242 297 348
#     4  11  24  42  58  82 120 162 201 239 290 350
#     4  10  24  44  60  78 114 160 202 239 283 346
#     4  10  18  34  57  89 119 146 182 240 296 343
#     4   9  16  32  58  92 117 147 192 248 296 346
#     4  11  22  37  58  92 122 142 183 243 300 348
#     4  10  21  35  62  90 117 152 197 242 291 351
#
# _framework density 20.458172999999999
#
# number of rings (size 3 to 8) (size 9 to 14) (size 15 to 20)
#    0.000    1.857    4.286    0.429    2.000    1.143 
#    2.571    5.000    0.000    0.857    0.000    0.000 
#    0.000    0.000    0.000    0.000    0.000    0.000 
#
# Total GULP energy -312338.071717 kJ/mol
# GULP energy per Si atom -5577.465566 kJ/mol
# Density = 2.041161 g / cm^3
# Si number density = 20.458173 Si / 1000 Ang^3
#
#
#
# Elastic Constant Matrix: (Units=GPa)
#
#
# Indices 1 2 3 4 5 6 
#
# 1 179.5441 72.0757 20.2395 0.0000 0.0000 0.0000
# 2 72.0757 124.8300 20.0021 0.0000 0.0000 0.0000
# 3 20.2395 20.0021 21.2140 0.0000 0.0000 0.0000
# 4 0.0000 0.0000 0.0000 23.8107 0.0000 0.0000
# 5 0.0000 0.0000 0.0000 0.0000 116.0466 0.0000
# 6 0.0000 0.0000 0.0000 0.0000 0.0000 38.6506
#
#
#
# Elastic Compliance Matrix: (Units=1/GPa)
#
#
# Indices 1 2 3 4 5 6 
#
# 1 0.007478 -0.003739 -0.003608 0.000000 0.000000 0.000000
# 2 -0.003739 0.011306 -0.007093 0.000000 0.000000 0.000000
# 3 -0.003608 -0.007093 0.057269 0.000000 0.000000 0.000000
# 4 0.000000 0.000000 0.000000 0.041998 0.000000 0.000000
# 5 0.000000 0.000000 0.000000 0.000000 0.008617 0.000000
# 6 0.000000 0.000000 0.000000 0.000000 0.000000 0.025873
#
#
# Mechanical properties :
#
#
# Convention : Reuss Voigt Hill
#
# Bulk Modulus (GPa) = 21.19913 61.13585 41.16749
# Shear Modulus (GPa) = 25.36186 49.91963 37.64075
#
# Velocity S-wave (km/s) = 3.52475 4.94508 4.29404
# Velocity P-wave (km/s) = 5.19132 7.90906 6.68966
#
# Compressibility (1/GPa) = 0.04717174
#
# Stress axis : x y z
#
# Youngs Moduli (GPa) = 133.73449 88.44499 17.46141
#
# Poissons Ratio (x) = 0.33072 0.06301
# Poissons Ratio (y) = 0.50007 0.12385
# Poissons Ratio (z) = 0.48256 0.62734
#
# Static dielectric constant tensor:
#      x y z
#    x 1.717830 0.000000 0.000000 
#    y 0.000000 1.737630 0.000000 
#    z 0.000000 0.000000 1.764720 
# 
# From -- ./inp_files/19870.got.cif
#   From: 2010.05.17/outbox.cif.g08.bks.cpg/sg49_10_cif.got.tgz:19870.got - 2010.06.03 21:02:19.
