data_PCOD9392248
_publ_section_title
;
Structure prediction by ZEFSAII (Michael W. Deem and Ramdas Pophale) SiO2 
 PCOD9392248
Probable space group: P C C M
;
_chemical_formula_sum "Si O2"
_cell_formula_units_Z 64
_cell_length_a 25.840279
_cell_length_b 14.875683
_cell_length_c 8.712216
_cell_angle_alpha 90.000000
_cell_angle_beta 90.000000
_cell_angle_gamma 90.000000
_cell_volume 3348.904382
_symmetry_space_group_name_H-M "P C C M"
_symmetry_group_IT_number 49
_symmetry_cell_setting 'orthorhombic'
loop_
_space_group_symop_operation_xyz
x,y,z
-x,-y,z
x,-y,1/2-z
-x,y,1/2-z
-x,-y,-z
x,y,-z
-x,y,1/2+z
x,-y,1/2+z
loop_
_atom_site_type_symbol
_atom_site_label
_atom_site_fract_x
_atom_site_fract_y
_atom_site_fract_z
Si Si1 0.054877 0.280992 0.684081
Si Si2 0.442410 0.722229 0.184370
Si Si3 0.558814 0.908547 0.183805
Si Si4 0.252578 0.280856 0.685387
Si Si5 0.218425 0.904615 0.682826
Si Si6 0.903927 0.096070 0.683693
Si Si7 0.650863 0.401366 0.184481
Si Si8 0.846605 0.399748 0.185129
O O1 0.053234 0.278445 0.500000
O O2 0.067136 0.181242 0.745894
O O3 0.101354 0.347241 0.732025
O O4 0.000000 0.311247 0.750000
O O5 0.500000 0.709188 0.250000
O O6 0.419474 0.814823 0.253684
O O7 0.404397 0.641282 0.226128
O O8 0.445196 0.731098 0.000000
O O9 0.500000 0.907436 0.250000
O O10 0.583179 0.000000 0.250000
O O11 0.557525 0.910698 0.000000
O O12 0.252346 0.274874 0.500000
O O13 0.247795 0.181322 0.751684
O O14 0.303732 0.334037 0.734731
O O15 0.202664 0.339789 0.732773
O O16 0.222365 0.906783 0.500000
O O17 0.157263 0.894538 0.723324
O O18 0.236104 0.000000 0.750000
O O19 0.909113 0.096088 0.500000
O O20 0.921481 0.000000 0.750000
O O21 0.658284 0.500000 0.250000
O O22 0.653160 0.406184 0.000000
O O23 0.844090 0.500000 0.250000
O O24 0.845975 0.404723 0.000000
#
# Coordination Sequence:
#
# PCOD9392248 Si02
#       8
#     8   8   8   8   8   8   8   8
#     4  11  23  39  57  82 114 152 191 239 288 340
#     4  10  20  36  56  83 115 153 195 237 285 340
#     4  10  17  28  49  78 110 147 186 231 277 329
#     4  10  20  39  62  87 117 149 186 235 285 338
#     4  10  20  34  58  90 120 154 190 230 279 337
#     4  10  20  35  57  85 116 151 190 233 280 338
#     4  10  23  40  61  86 116 150 190 240 292 341
#     4  10  22  38  60  84 110 144 187 234 287 341
#
# _framework density 19.110728000000002
#
# number of rings (size 3 to 8) (size 9 to 14) (size 15 to 20)
#    0.000    1.875    1.250    4.125    0.000    4.750 
#    0.000    4.375    0.000    0.000    0.000    0.000 
#    0.000    0.000    0.000    0.000    0.000    0.000 
#
# Total GULP energy -357490.600852 kJ/mol
# GULP energy per Si atom -5585.790638 kJ/mol
# Density = 1.906723 g / cm^3
# Si number density = 19.110728 Si / 1000 Ang^3
#
#
#
# Elastic Constant Matrix: (Units=GPa)
#
#
# Indices 1 2 3 4 5 6 
#
# 1 97.3923 67.9936 30.9000 0.0000 0.0000 0.0000
# 2 67.9936 147.6112 33.3099 0.0000 0.0000 0.0000
# 3 30.9000 33.3099 50.6667 0.0000 0.0000 0.0000
# 4 0.0000 0.0000 0.0000 43.2608 0.0000 0.0000
# 5 0.0000 0.0000 0.0000 0.0000 18.1137 0.0000
# 6 0.0000 0.0000 0.0000 0.0000 0.0000 14.8578
#
#
#
# Elastic Compliance Matrix: (Units=1/GPa)
#
#
# Indices 1 2 3 4 5 6 
#
# 1 0.016539 -0.006273 -0.005963 0.000000 0.000000 0.000000
# 2 -0.006273 0.010334 -0.002968 0.000000 0.000000 0.000000
# 3 -0.005963 -0.002968 0.025325 0.000000 0.000000 0.000000
# 4 0.000000 0.000000 0.000000 0.023116 0.000000 0.000000
# 5 0.000000 0.000000 0.000000 0.000000 0.055207 0.000000
# 6 0.000000 0.000000 0.000000 0.000000 0.000000 0.067305
#
#
# Mechanical properties :
#
#
# Convention : Reuss Voigt Hill
#
# Bulk Modulus (GPa) = 45.89236 62.23079 54.06158
# Shear Modulus (GPa) = 21.23191 26.14424 23.68807
#
# Velocity S-wave (km/s) = 3.33677 3.70271 3.52450
# Velocity P-wave (km/s) = 6.23791 7.13541 6.70170
#
# Compressibility (1/GPa) = 0.02179012
#
# Stress axis : x y z
#
# Youngs Moduli (GPa) = 60.46415 96.77062 39.48730
#
# Poissons Ratio (x) = 0.60701 0.23545
# Poissons Ratio (y) = 0.37927 0.11721
# Poissons Ratio (z) = 0.36052 0.28724
#
# Static dielectric constant tensor:
#      x y z
#    x 1.678480 0.000000 0.000000 
#    y 0.000000 1.653410 0.000000 
#    z 0.000000 0.000000 1.642290 
# 
# From -- ./inp_files/6563.got.cif
#   From: 2010.05.17/outbox.cif.g08.bks.cpg/sg49_4_cif.got.tgz:6563.got - 2010.06.03 21:02:19.
