data_PCOD9392626
_publ_section_title
;
Structure prediction by ZEFSAII (Michael W. Deem and Ramdas Pophale) SiO2 
 PCOD9392626
Probable space group: P C C M
;
_chemical_formula_sum "Si O2"
_cell_formula_units_Z 58
_cell_length_a 22.804445
_cell_length_b 18.267701
_cell_length_c 9.243079
_cell_angle_alpha 90.000000
_cell_angle_beta 90.000000
_cell_angle_gamma 90.000000
_cell_volume 3850.526057
_symmetry_space_group_name_H-M "P C C M"
_symmetry_group_IT_number 49
_symmetry_cell_setting 'orthorhombic'
loop_
_space_group_symop_operation_xyz
x,y,z
-x,-y,z
x,-y,1/2-z
-x,y,1/2-z
-x,-y,-z
x,y,-z
-x,y,1/2+z
x,-y,1/2+z
loop_
_atom_site_type_symbol
_atom_site_label
_atom_site_fract_x
_atom_site_fract_y
_atom_site_fract_z
Si Si1 0.500000 0.500000 0.750000
Si Si2 0.444774 0.355497 0.836440
Si Si3 0.169854 0.922727 0.671120
Si Si4 0.792708 0.578161 0.173342
Si Si5 0.315509 0.312543 0.173487
Si Si6 0.059441 0.814261 0.671329
Si Si7 0.243715 0.193953 0.666135
Si Si8 0.132216 0.695588 0.167161
O O1 0.458344 0.442926 0.833307
O O2 0.500000 0.323634 0.750000
O O3 0.380244 0.337837 0.779403
O O4 0.447300 0.329638 0.000000
O O5 0.179789 0.931822 0.500000
O O6 0.110513 0.874801 0.689078
O O7 0.221839 0.875788 0.744030
O O8 0.163879 0.000000 0.750000
O O9 0.788971 0.500000 0.250000
O O10 0.732833 0.624209 0.199951
O O11 0.844921 0.625302 0.245502
O O12 0.800315 0.571800 0.000000
O O13 0.294330 0.240020 0.255473
O O14 0.315418 0.300197 0.000000
O O15 0.050567 0.803091 0.500000
O O16 0.082357 0.740226 0.748201
O O17 0.000000 0.837792 0.750000
O O18 0.257848 0.175855 0.500000
O O19 0.187894 0.249125 0.664433
O O20 0.116728 0.679550 0.000000
#
# Coordination Sequence:
#
# PCOD9392626 Si02
#       8
#     2   8   8   8   8   8   8   8
#     4   8  18  28  42  56  86 124 164 196 240 280
#     4   9  18  29  42  59  85 121 160 197 236 278
#     4  10  20  33  50  72 100 130 154 184 223 268
#     4  10  19  29  44  65  89 115 148 191 239 284
#     4   9  18  31  44  63  90 122 157 196 237 279
#     4  10  20  33  50  71  94 123 157 188 221 261
#     4   9  17  30  48  69  90 118 154 191 229 274
#     4   9  17  31  48  65  88 116 149 188 231 275
#
# _framework density 15.062877
#
# number of rings (size 3 to 8) (size 9 to 14) (size 15 to 20)
#    0.414    2.207    0.000    2.276    0.966    6.345 
#    0.000    1.379    0.000    0.414    0.000    2.897 
#    0.000    0.552    0.000    5.793    0.000    3.172 
#
# Total GULP energy -322889.225063 kJ/mol
# GULP energy per Si atom -5567.055605 kJ/mol
# Density = 1.502859 g / cm^3
# Si number density = 15.062877 Si / 1000 Ang^3
#
#
#
# Elastic Constant Matrix: (Units=GPa)
#
#
# Indices 1 2 3 4 5 6 
#
# 1 63.2489 49.8063 47.8363 0.0000 0.0000 0.0000
# 2 49.8063 83.9102 70.8680 0.0000 0.0000 0.0000
# 3 47.8363 70.8680 111.0086 0.0000 0.0000 0.0000
# 4 0.0000 0.0000 0.0000 27.4681 0.0000 0.0000
# 5 0.0000 0.0000 0.0000 0.0000 23.4435 0.0000
# 6 0.0000 0.0000 0.0000 0.0000 0.0000 12.8553
#
#
#
# Elastic Compliance Matrix: (Units=1/GPa)
#
#
# Indices 1 2 3 4 5 6 
#
# 1 0.030271 -0.015084 -0.003415 0.000000 0.000000 0.000000
# 2 -0.015084 0.033377 -0.014808 0.000000 0.000000 0.000000
# 3 -0.003415 -0.014808 0.019933 0.000000 0.000000 0.000000
# 4 0.000000 0.000000 0.000000 0.036406 0.000000 0.000000
# 5 0.000000 0.000000 0.000000 0.000000 0.042656 0.000000
# 6 0.000000 0.000000 0.000000 0.000000 0.000000 0.077789
#
#
# Mechanical properties :
#
#
# Convention : Reuss Voigt Hill
#
# Bulk Modulus (GPa) = 58.93426 66.13210 62.53318
# Shear Modulus (GPa) = 15.98964 18.73053 17.36008
#
# Velocity S-wave (km/s) = 3.26164 3.53014 3.39854
# Velocity P-wave (km/s) = 7.30718 7.78558 7.55017
#
# Compressibility (1/GPa) = 0.01696806
#
# Stress axis : x y z
#
# Youngs Moduli (GPa) = 33.03439 29.96071 50.16684
#
# Poissons Ratio (x) = 0.45192 0.17133
# Poissons Ratio (y) = 0.49828 0.74287
# Poissons Ratio (z) = 0.11282 0.44366
#
# Static dielectric constant tensor:
#      x y z
#    x 1.495040 0.000000 0.000000 
#    y 0.000000 1.479120 0.000000 
#    z 0.000000 0.000000 1.511640 
# 
# From -- ./inp_files/4276.got.cif
#   From: 2010.05.17/outbox.cif.g08.bks.cpg/sg49_3_cif.got.tgz:4276.got - 2010.06.03 21:02:19.
