data_PCOD9392633
_publ_section_title
;
Structure prediction by ZEFSAII (Michael W. Deem and Ramdas Pophale) SiO2 
 PCOD9392633
Probable space group: P C C M
;
_chemical_formula_sum "Si O2"
_cell_formula_units_Z 64
_cell_length_a 15.409542
_cell_length_b 18.009358
_cell_length_c 14.245936
_cell_angle_alpha 90.000000
_cell_angle_beta 90.000000
_cell_angle_gamma 90.000000
_cell_volume 3953.474584
_symmetry_space_group_name_H-M "P C C M"
_symmetry_group_IT_number 49
_symmetry_cell_setting 'orthorhombic'
loop_
_space_group_symop_operation_xyz
x,y,z
-x,-y,z
x,-y,1/2-z
-x,y,1/2-z
-x,-y,-z
x,y,-z
-x,y,1/2+z
x,-y,1/2+z
loop_
_atom_site_type_symbol
_atom_site_label
_atom_site_fract_x
_atom_site_fract_y
_atom_site_fract_z
Si Si1 0.513203 0.308415 0.107576
Si Si2 0.375301 0.415496 0.270446
Si Si3 0.604885 0.087630 0.749077
Si Si4 0.773615 0.655432 0.387985
Si Si5 0.678410 0.199883 0.105457
Si Si6 0.103082 0.588469 0.748028
Si Si7 0.249924 0.648151 0.612082
Si Si8 0.648353 0.789350 0.889989
O O1 0.547394 0.373512 0.173923
O O2 0.592150 0.250505 0.102274
O O3 0.432454 0.260967 0.145672
O O4 0.494107 0.333305 0.000000
O O5 0.396207 0.500000 0.250000
O O6 0.297536 0.400606 0.345009
O O7 0.329291 0.612807 0.326733
O O8 0.500000 0.098376 0.750000
O O9 0.652298 0.129182 0.834578
O O10 0.643389 0.132618 0.661117
O O11 0.620752 0.000000 0.750000
O O12 0.771813 0.653515 0.500000
O O13 0.747880 0.739592 0.357674
O O14 0.861111 0.628302 0.341098
O O15 0.702833 0.178616 0.000000
O O16 0.120416 0.500000 0.750000
O O17 0.161119 0.621835 0.662312
O O18 0.000000 0.598996 0.750000
O O19 0.253491 0.630941 0.500000
O O20 0.268077 0.736711 0.621958
O O21 0.633690 0.799878 0.000000
#
# Coordination Sequence:
#
# PCOD9392633 Si02
#       8
#     8   8   8   8   8   8   8   8
#     4   9  17  31  50  66  86 126 172 208 243 283
#     4  10  19  29  45  69  94 121 160 213 256 286
#     4  11  21  29  46  74 101 132 166 204 247 288
#     4   9  17  31  53  73  90 125 169 204 242 287
#     4   9  17  31  49  68  95 129 168 208 238 277
#     4  10  21  35  51  74 103 130 157 196 250 307
#     4  10  21  34  50  70  95 130 165 200 244 293
#     4  10  20  35  52  68  94 132 170 206 243 286
#
# _framework density 16.188292000000001
#
# number of rings (size 3 to 8) (size 9 to 14) (size 15 to 20)
#    0.000    2.250    1.250    4.875    0.000    3.500 
#    0.000    4.375    0.000    2.250    0.000    0.000 
#    0.000    8.000    0.000   22.000    0.000    0.000 
#
# Total GULP energy -356471.011416 kJ/mol
# GULP energy per Si atom -5569.859553 kJ/mol
# Density = 1.615145 g / cm^3
# Si number density = 16.188292 Si / 1000 Ang^3
#
#
#
# Elastic Constant Matrix: (Units=GPa)
#
#
# Indices 1 2 3 4 5 6 
#
# 1 61.2153 49.3604 29.4633 0.0000 0.0000 0.0000
# 2 49.3604 133.9405 59.5999 0.0000 0.0000 0.0000
# 3 29.4633 59.5999 108.4143 0.0000 0.0000 0.0000
# 4 0.0000 0.0000 0.0000 -9.3041 0.0000 0.0000
# 5 0.0000 0.0000 0.0000 0.0000 9.6543 0.0000
# 6 0.0000 0.0000 0.0000 0.0000 0.0000 21.9645
#
#
#
# Elastic Compliance Matrix: (Units=1/GPa)
#
#
# Indices 1 2 3 4 5 6 
#
# 1 0.023619 -0.007742 -0.002163 0.000000 0.000000 0.000000
# 2 -0.007742 0.012421 -0.004725 0.000000 0.000000 0.000000
# 3 -0.002163 -0.004725 0.012409 0.000000 0.000000 0.000000
# 4 0.000000 0.000000 0.000000 -0.107479 0.000000 0.000000
# 5 0.000000 0.000000 0.000000 0.000000 0.103581 0.000000
# 6 0.000000 0.000000 0.000000 0.000000 0.000000 0.045528
#
#
# Mechanical properties :
#
#
# Convention : Reuss Voigt Hill
#
# Bulk Modulus (GPa) = 52.10770 64.49080 58.29925
# Shear Modulus (GPa) = 39.76615 15.47270 27.61942
#
# Velocity S-wave (km/s) = 4.96166 3.09495 4.13502
# Velocity P-wave (km/s) = 8.06737 7.25920 7.67393
#
# Compressibility (1/GPa) = 0.01919102
#
# Stress axis : x y z
#
# Youngs Moduli (GPa) = 42.33807 80.50632 80.58679
#
# Poissons Ratio (x) = 0.62327 0.17430
# Poissons Ratio (y) = 0.32778 0.38074
# Poissons Ratio (z) = 0.09157 0.38036
#
# Static dielectric constant tensor:
#      x y z
#    x 1.560420 0.000000 0.000000 
#    y 0.000000 1.538620 0.000000 
#    z 0.000000 0.000000 1.626600 
# 
# From -- ./inp_files/14260.got.cif
#   From: 2010.05.17/outbox.cif.g08.bks.cpg/sg49_8_cif.got.tgz:14260.got - 2010.06.03 21:02:19.
