data_PCOD9392046
_publ_section_title
;
Structure prediction by ZEFSAII (Michael W. Deem and Ramdas Pophale) SiO2 
 PCOD9392046
Probable space group: P C C M
;
_chemical_formula_sum "Si O2"
_cell_formula_units_Z 40
_cell_length_a 7.388290
_cell_length_b 15.261971
_cell_length_c 14.008758
_cell_angle_alpha 90.000000
_cell_angle_beta 90.000000
_cell_angle_gamma 90.000000
_cell_volume 1579.625699
_symmetry_space_group_name_H-M "P C C M"
_symmetry_group_IT_number 49
_symmetry_cell_setting 'orthorhombic'
loop_
_space_group_symop_operation_xyz
x,y,z
-x,-y,z
x,-y,1/2-z
-x,y,1/2-z
-x,-y,-z
x,y,-z
-x,y,1/2+z
x,-y,1/2+z
loop_
_atom_site_type_symbol
_atom_site_label
_atom_site_fract_x
_atom_site_fract_y
_atom_site_fract_z
Si Si1 0.355975 0.566303 0.821377
Si Si2 0.793748 0.972963 0.115115
Si Si3 0.300732 0.223434 0.116509
Si Si4 0.321655 0.843234 0.884133
Si Si5 0.053039 0.698962 0.113916
O O1 0.500000 0.500000 0.876859
O O2 0.254552 0.500000 0.750000
O O3 0.500000 0.612629 0.750000
O O4 0.202831 0.625042 0.866524
O O5 0.676751 0.056354 0.149066
O O6 0.758251 0.874535 0.147142
O O7 0.768933 0.968480 0.000000
O O8 0.000000 0.000000 0.133340
O O9 0.511078 0.218640 0.141908
O O10 0.154246 0.295333 0.151160
O O11 0.298971 0.228354 0.000000
O O12 0.142423 0.791243 0.857068
O O13 0.321725 0.848359 0.000000
O O14 0.037221 0.698643 0.000000
#
# Coordination Sequence:
#
# PCOD9392046 Si02
#       5
#     8   8   8   8   8
#     4   6  16  33  49  69  90 121 157 210 284 357
#     4   9  13  21  33  52  93 145 175 187 230 290
#     4   9  16  23  35  61  97 134 167 201 243 292
#     4   9  16  23  35  61  97 135 168 202 239 287
#     4  10  16  26  48  70  91 122 165 215 260 316
#
# _framework density 25.322454
#
# number of rings (size 3 to 8) (size 9 to 14) (size 15 to 20)
#    1.200    2.200    2.000    0.600    0.000    2.800 
#    0.000    0.000    0.000    3.600    0.000    5.600 
#    0.000    3.200    1.200    0.000    0.000    0.000 
#
# Total GULP energy -222814.153805 kJ/mol
# GULP energy per Si atom -5570.353845 kJ/mol
# Density = 2.526482 g / cm^3
# Si number density = 25.322454 Si / 1000 Ang^3
#
#
#
# Elastic Constant Matrix: (Units=GPa)
#
#
# Indices 1 2 3 4 5 6 
#
# 1 149.9658 44.6070 9.7167 0.0000 0.0000 0.0000
# 2 44.6070 85.9224 13.9000 0.0000 0.0000 0.0000
# 3 9.7167 13.9000 76.0949 0.0000 0.0000 0.0000
# 4 0.0000 0.0000 0.0000 7.8165 0.0000 0.0000
# 5 0.0000 0.0000 0.0000 0.0000 -4.2645 0.0000
# 6 0.0000 0.0000 0.0000 0.0000 0.0000 61.8691
#
#
#
# Elastic Compliance Matrix: (Units=1/GPa)
#
#
# Indices 1 2 3 4 5 6 
#
# 1 0.007891 -0.004054 -0.000267 0.000000 0.000000 0.000000
# 2 -0.004054 0.014075 -0.002053 0.000000 0.000000 0.000000
# 3 -0.000267 -0.002053 0.013551 0.000000 0.000000 0.000000
# 4 0.000000 0.000000 0.000000 0.127935 0.000000 0.000000
# 5 0.000000 0.000000 0.000000 0.000000 -0.234497 0.000000
# 6 0.000000 0.000000 0.000000 0.000000 0.000000 0.016163
#
#
# Mechanical properties :
#
#
# Convention : Reuss Voigt Hill
#
# Bulk Modulus (GPa) = 43.92014 49.82559 46.87287
# Shear Modulus (GPa) = -144.74400 29.33484 -57.70458
#
# Velocity S-wave (km/s) = -7.56865 3.40730 -4.77885
# Velocity P-wave (km/s) = 7.68097 5.93285 3.44953
#
# Compressibility (1/GPa) = 0.02276860
#
# Stress axis : x y z
#
# Youngs Moduli (GPa) = 126.72321 71.04787 73.79688
#
# Poissons Ratio (x) = 0.28799 0.01972
# Poissons Ratio (y) = 0.51368 0.15154
# Poissons Ratio (z) = 0.03386 0.14589
#
# Static dielectric constant tensor:
#      x y z
#    x 1.999550 0.000000 0.000000 
#    y 0.000000 1.965410 0.000000 
#    z 0.000000 0.000000 2.064960 
# 
# From -- ./inp_files/16154.got.cif
#   From: 2010.05.17/outbox.cif.g08.bks.cpg/sg49_9_cif.got.tgz:16154.got - 2010.06.03 21:02:19.
