data_PCOD9392069
_publ_section_title
;
Structure prediction by ZEFSAII (Michael W. Deem and Ramdas Pophale) SiO2 
 PCOD9392069
Probable space group: P C C M
;
_chemical_formula_sum "Si O2"
_cell_formula_units_Z 42
_cell_length_a 9.229661
_cell_length_b 27.043726
_cell_length_c 8.823930
_cell_angle_alpha 90.000000
_cell_angle_beta 90.000000
_cell_angle_gamma 90.000000
_cell_volume 2202.491958
_symmetry_space_group_name_H-M "P C C M"
_symmetry_group_IT_number 49
_symmetry_cell_setting 'orthorhombic'
loop_
_space_group_symop_operation_xyz
x,y,z
-x,-y,z
x,-y,1/2-z
-x,y,1/2-z
-x,-y,-z
x,y,-z
-x,y,1/2+z
x,-y,1/2+z
loop_
_atom_site_type_symbol
_atom_site_label
_atom_site_fract_x
_atom_site_fract_y
_atom_site_fract_z
Si Si1 0.281460 0.951299 0.833123
Si Si2 0.841069 0.252074 0.318259
Si Si3 0.335777 0.550396 0.182429
Si Si4 0.162691 0.141555 0.181261
Si Si5 0.338909 0.348570 0.183011
Si Si6 0.000000 0.000000 0.250000
O O1 0.271212 0.900621 0.741172
O O2 0.342454 0.000000 0.750000
O O3 0.110768 0.966675 0.842859
O O4 0.342981 0.944886 0.000000
O O5 0.851851 0.252673 0.500000
O O6 0.786535 0.197049 0.276597
O O7 0.744595 0.298680 0.273872
O O8 0.000000 0.257463 0.250000
O O9 0.269033 0.500000 0.250000
O O10 0.500000 0.551173 0.250000
O O11 0.270968 0.601693 0.244507
O O12 0.340198 0.549137 0.000000
O O13 0.000000 0.136526 0.250000
O O14 0.151427 0.137116 0.000000
O O15 0.500000 0.344401 0.250000
O O16 0.343808 0.353491 0.000000
#
# Coordination Sequence:
#
# PCOD9392069 Si02
#       6
#     8   8   8   8   8   2
#     4  10  17  23  34  51  74 106 142 182 226 275
#     4   9  20  34  49  69  96 129 164 200 239 284
#     4  10  17  27  45  71  99 127 157 194 239 283
#     4  10  17  26  39  56  80 112 148 186 227 274
#     4  10  19  33  51  74 101 129 162 200 239 281
#     4   8  18  20  30  44  74 100 140 172 224 264
#
# _framework density 19.069309000000001
#
# number of rings (size 3 to 8) (size 9 to 14) (size 15 to 20)
#    0.571    1.714    0.952    5.429    0.000    2.286 
#    0.000    0.000    0.000    0.571    0.000    4.000 
#    0.000    0.762    0.000    8.762    0.000    5.524 
#
# Total GULP energy -233853.407378 kJ/mol
# GULP energy per Si atom -5567.938271 kJ/mol
# Density = 1.902591 g / cm^3
# Si number density = 19.069309 Si / 1000 Ang^3
#
#
#
# Elastic Constant Matrix: (Units=GPa)
#
#
# Indices 1 2 3 4 5 6 
#
# 1 24.4625 39.9692 11.9977 0.0000 0.0000 0.0000
# 2 39.9692 227.9603 75.5313 0.0000 0.0000 0.0000
# 3 11.9977 75.5313 114.5796 0.0000 0.0000 0.0000
# 4 0.0000 0.0000 0.0000 -81.4490 0.0000 0.0000
# 5 0.0000 0.0000 0.0000 0.0000 2.8139 0.0000
# 6 0.0000 0.0000 0.0000 0.0000 0.0000 6.6740
#
#
#
# Elastic Compliance Matrix: (Units=1/GPa)
#
#
# Indices 1 2 3 4 5 6 
#
# 1 0.057349 -0.010319 0.000798 0.000000 0.000000 0.000000
# 2 -0.010319 0.007470 -0.003843 0.000000 0.000000 0.000000
# 3 0.000798 -0.003843 0.011178 0.000000 0.000000 0.000000
# 4 0.000000 0.000000 0.000000 -0.012278 0.000000 0.000000
# 5 0.000000 0.000000 0.000000 0.000000 0.355378 0.000000
# 6 0.000000 0.000000 0.000000 0.000000 0.000000 0.149835
#
#
# Mechanical properties :
#
#
# Convention : Reuss Voigt Hill
#
# Bulk Modulus (GPa) = 20.29829 69.11101 44.70465
# Shear Modulus (GPa) = 8.16881 1.57471 4.87176
#
# Velocity S-wave (km/s) = 2.07197 0.90971 1.60010
# Velocity P-wave (km/s) = 4.04866 6.11753 5.18728
#
# Compressibility (1/GPa) = 0.04926523
#
# Stress axis : x y z
#
# Youngs Moduli (GPa) = 17.43723 133.87721 89.46452
#
# Poissons Ratio (x) = 1.38154 -0.07136
# Poissons Ratio (y) = 0.17994 0.34385
# Poissons Ratio (z) = -0.01391 0.51454
#
# Static dielectric constant tensor:
#      x y z
#    x 1.670140 0.000000 0.000000 
#    y 0.000000 1.741890 0.000000 
#    z 0.000000 0.000000 1.666470 
# 
# From -- ./inp_files/2846.got.cif
#   From: 2010.05.17/outbox.cif.g08.bks.cpg/sg49_2_cif.got.tgz:2846.got - 2010.06.03 21:02:19.
