data_PCOD9392379
_publ_section_title
;
Structure prediction by ZEFSAII (Michael W. Deem and Ramdas Pophale) SiO2 
 PCOD9392379
Probable space group: P C C M
;
_chemical_formula_sum "Si O2"
_cell_formula_units_Z 64
_cell_length_a 18.313381
_cell_length_b 22.242915
_cell_length_c 8.455872
_cell_angle_alpha 90.000000
_cell_angle_beta 90.000000
_cell_angle_gamma 90.000000
_cell_volume 3444.440073
_symmetry_space_group_name_H-M "P C C M"
_symmetry_group_IT_number 49
_symmetry_cell_setting 'orthorhombic'
loop_
_space_group_symop_operation_xyz
x,y,z
-x,-y,z
x,-y,1/2-z
-x,y,1/2-z
-x,-y,-z
x,y,-z
-x,y,1/2+z
x,-y,1/2+z
loop_
_atom_site_type_symbol
_atom_site_label
_atom_site_fract_x
_atom_site_fract_y
_atom_site_fract_z
Si Si1 0.172592 0.833810 0.814299
Si Si2 0.333526 0.186931 0.187389
Si Si3 0.922567 0.405011 0.814324
Si Si4 0.923453 0.932334 0.189074
Si Si5 0.713454 0.692359 0.310065
Si Si6 0.583291 0.934925 0.190430
Si Si7 0.241294 0.436091 0.690079
Si Si8 0.876322 0.282197 0.313876
O O1 0.249713 0.827724 0.727639
O O2 0.141328 0.898025 0.773530
O O3 0.114879 0.785274 0.746997
O O4 0.182643 0.823567 0.000000
O O5 0.342204 0.254632 0.259308
O O6 0.378385 0.127835 0.243207
O O7 0.344471 0.192072 0.000000
O O8 0.843454 0.427797 0.750148
O O9 0.918939 0.333762 0.778329
O O10 0.000000 0.428337 0.750000
O O11 0.922503 0.415912 0.000000
O O12 0.000000 0.905994 0.250000
O O13 0.921905 0.000000 0.250000
O O14 0.918976 0.929136 0.000000
O O15 0.721797 0.696148 0.500000
O O16 0.707827 0.621381 0.268511
O O17 0.790973 0.706791 0.227761
O O18 0.500000 0.932418 0.250000
O O19 0.613563 0.000000 0.250000
O O20 0.585346 0.936350 0.000000
O O21 0.268467 0.500000 0.750000
O O22 0.236917 0.436892 0.500000
O O23 0.889314 0.287642 0.500000
#
# Coordination Sequence:
#
# PCOD9392379 Si02
#       8
#     8   8   8   8   8   8   8   8
#     4  11  21  34  52  74  97 125 160 204 253 304
#     4  10  20  34  53  80 108 139 177 219 259 303
#     4  10  20  33  45  62  86 116 156 201 249 307
#     4  11  22  38  54  69  89 116 151 195 248 307
#     4   9  17  31  49  71  97 127 162 204 249 298
#     4  10  21  36  56  81 114 151 188 220 255 300
#     4   9  19  32  47  67  93 124 162 205 256 314
#     4  10  18  30  47  66  87 114 146 189 243 296
#
# _framework density 18.580670000000001
#
# number of rings (size 3 to 8) (size 9 to 14) (size 15 to 20)
#    0.000    2.000    0.000    7.875    0.000    6.250 
#    0.000    5.000    0.000    0.000    0.000    0.000 
#    0.000    0.500    0.000    5.500    0.000    4.000 
#
# Total GULP energy -356502.145841 kJ/mol
# GULP energy per Si atom -5570.346029 kJ/mol
# Density = 1.853838 g / cm^3
# Si number density = 18.580670 Si / 1000 Ang^3
#
#
#
# Elastic Constant Matrix: (Units=GPa)
#
#
# Indices 1 2 3 4 5 6 
#
# 1 27.6047 39.0031 -2.8830 0.0000 0.0000 0.0000
# 2 39.0031 153.5608 17.3358 0.0000 0.0000 0.0000
# 3 -2.8830 17.3358 32.5859 0.0000 0.0000 0.0000
# 4 0.0000 0.0000 0.0000 26.6522 0.0000 0.0000
# 5 0.0000 0.0000 0.0000 0.0000 16.9977 0.0000
# 6 0.0000 0.0000 0.0000 0.0000 0.0000 -20.8402
#
#
#
# Elastic Compliance Matrix: (Units=1/GPa)
#
#
# Indices 1 2 3 4 5 6 
#
# 1 0.062637 -0.017591 0.014900 0.000000 0.000000 0.000000
# 2 -0.017591 0.011869 -0.007870 0.000000 0.000000 0.000000
# 3 0.014900 -0.007870 0.036194 0.000000 0.000000 0.000000
# 4 0.000000 0.000000 0.000000 0.037520 0.000000 0.000000
# 5 0.000000 0.000000 0.000000 0.000000 0.058832 0.000000
# 6 0.000000 0.000000 0.000000 0.000000 0.000000 -0.047984
#
#
# Mechanical properties :
#
#
# Convention : Reuss Voigt Hill
#
# Bulk Modulus (GPa) = 11.16371 35.62923 23.39647
# Shear Modulus (GPa) = 23.80404 15.24830 19.52617
#
# Velocity S-wave (km/s) = 3.58315 2.86781 3.24525
# Velocity P-wave (km/s) = 4.81040 5.49389 5.16347
#
# Compressibility (1/GPa) = 0.08957593
#
# Stress axis : x y z
#
# Youngs Moduli (GPa) = 15.96506 84.25573 27.62925
#
# Poissons Ratio (x) = 1.48217 -0.41168
# Poissons Ratio (y) = 0.28085 0.21746
# Poissons Ratio (z) = -0.23788 0.66313
#
# Static dielectric constant tensor:
#      x y z
#    x 1.568890 0.000000 0.000000 
#    y 0.000000 1.718110 0.000000 
#    z 0.000000 0.000000 1.631850 
# 
# From -- ./inp_files/6105.got.cif
#   From: 2010.05.17/outbox.cif.g08.bks.cpg/sg49_4_cif.got.tgz:6105.got - 2010.06.03 21:02:19.
