data_PCOD9392908
_publ_section_title
;
Structure prediction by ZEFSAII (Michael W. Deem and Ramdas Pophale) SiO2 
 PCOD9392908
Probable space group: P C C M
;
_chemical_formula_sum "Si O2"
_cell_formula_units_Z 58
_cell_length_a 26.772322
_cell_length_b 14.743990
_cell_length_c 9.327575
_cell_angle_alpha 90.000000
_cell_angle_beta 90.000000
_cell_angle_gamma 90.000000
_cell_volume 3681.881588
_symmetry_space_group_name_H-M "P C C M"
_symmetry_group_IT_number 49
_symmetry_cell_setting 'orthorhombic'
loop_
_space_group_symop_operation_xyz
x,y,z
-x,-y,z
x,-y,1/2-z
-x,y,1/2-z
-x,-y,-z
x,y,-z
-x,y,1/2+z
x,-y,1/2+z
loop_
_atom_site_type_symbol
_atom_site_label
_atom_site_fract_x
_atom_site_fract_y
_atom_site_fract_z
Si Si1 0.169013 0.767104 0.169245
Si Si2 0.098488 0.083776 0.338166
Si Si3 0.324627 0.590887 0.331096
Si Si4 0.204841 0.591442 0.669112
Si Si5 0.449632 0.095473 0.828658
Si Si6 0.262251 0.096112 0.329601
Si Si7 0.349042 0.792709 0.670820
Si Si8 0.000000 0.000000 0.750000
O O1 0.118530 0.820109 0.213261
O O2 0.179689 0.679077 0.261860
O O3 0.213636 0.840018 0.188227
O O4 0.167105 0.742996 0.000000
O O5 0.116125 0.075520 0.500000
O O6 0.120460 0.000000 0.250000
O O7 0.039101 0.064715 0.331910
O O8 0.341035 0.500000 0.250000
O O9 0.333842 0.578837 0.500000
O O10 0.264793 0.600624 0.310368
O O11 0.347852 0.686965 0.285466
O O12 0.189174 0.500000 0.750000
O O13 0.195309 0.585077 0.500000
O O14 0.500000 0.128560 0.750000
O O15 0.403150 0.162528 0.810601
O O16 0.437872 0.000000 0.750000
O O17 0.457529 0.082283 0.000000
O O18 0.270094 0.082165 0.500000
O O19 0.308508 0.150261 0.259440
O O20 0.256633 0.000000 0.250000
O O21 0.336284 0.796361 0.500000
#
# Coordination Sequence:
#
# PCOD9392908 Si02
#       8
#     8   8   8   8   8   8   8   2
#     4  10  20  33  47  71 102 135 170 206 248 295
#     4   9  18  31  49  71 100 133 170 212 248 290
#     4   9  18  32  50  72  98 127 164 204 245 292
#     4  10  19  32  51  72  99 134 169 210 250 297
#     4  10  20  34  53  73  97 126 162 206 248 295
#     4  11  22  32  46  68 100 136 168 200 241 294
#     4  10  20  35  52  72  99 130 165 205 249 296
#     4   8  18  32  54  72 100 136 178 212 260 284
#
# _framework density 15.752815
#
# number of rings (size 3 to 8) (size 9 to 14) (size 15 to 20)
#    0.414    1.793    1.379    2.690    0.000    4.414 
#    0.000    0.000    0.000    0.414    0.000    3.379 
#    0.000    3.310    0.000    0.000    0.000    0.000 
#
# Total GULP energy -323105.319156 kJ/mol
# GULP energy per Si atom -5570.781365 kJ/mol
# Density = 1.571696 g / cm^3
# Si number density = 15.752815 Si / 1000 Ang^3
#
#
#
# Elastic Constant Matrix: (Units=GPa)
#
#
# Indices 1 2 3 4 5 6 
#
# 1 69.0247 53.8817 40.0003 0.0000 0.0000 0.0000
# 2 53.8817 137.5179 68.3380 0.0000 0.0000 0.0000
# 3 40.0003 68.3380 80.5620 0.0000 0.0000 0.0000
# 4 0.0000 0.0000 0.0000 31.9889 0.0000 0.0000
# 5 0.0000 0.0000 0.0000 0.0000 -11.6596 0.0000
# 6 0.0000 0.0000 0.0000 0.0000 0.0000 20.1707
#
#
#
# Elastic Compliance Matrix: (Units=1/GPa)
#
#
# Indices 1 2 3 4 5 6 
#
# 1 0.022645 -0.005679 -0.006426 0.000000 0.000000 0.000000
# 2 -0.005679 0.013995 -0.009052 0.000000 0.000000 0.000000
# 3 -0.006426 -0.009052 0.023282 0.000000 0.000000 0.000000
# 4 0.000000 0.000000 0.000000 0.031261 0.000000 0.000000
# 5 0.000000 0.000000 0.000000 0.000000 -0.085766 0.000000
# 6 0.000000 0.000000 0.000000 0.000000 0.000000 0.049577
#
#
# Mechanical properties :
#
#
# Convention : Reuss Voigt Hill
#
# Bulk Modulus (GPa) = 56.79351 67.94941 62.37146
# Shear Modulus (GPa) = 48.46047 16.42562 32.44304
#
# Velocity S-wave (km/s) = 5.55246 3.23261 4.54310
# Velocity P-wave (km/s) = 8.78849 7.56052 8.19753
#
# Compressibility (1/GPa) = 0.01760765
#
# Stress axis : x y z
#
# Youngs Moduli (GPa) = 44.16023 71.45296 42.95211
#
# Poissons Ratio (x) = 0.40580 0.27601
# Poissons Ratio (y) = 0.25080 0.38879
# Poissons Ratio (z) = 0.28377 0.64678
#
# Static dielectric constant tensor:
#      x y z
#    x 1.525960 0.000000 0.000000 
#    y 0.000000 1.516620 0.000000 
#    z 0.000000 0.000000 1.534760 
# 
# From -- ./inp_files/6779.got.cif
#   From: 2010.05.17/outbox.cif.g08.bks.cpg/sg49_4_cif.got.tgz:6779.got - 2010.06.03 21:02:19.
