data_PCOD9392810
_publ_section_title
;
Structure prediction by ZEFSAII (Michael W. Deem and Ramdas Pophale) SiO2 
 PCOD9392810
Probable space group: P C C M
;
_chemical_formula_sum "Si O2"
_cell_formula_units_Z 64
_cell_length_a 25.260293
_cell_length_b 15.774727
_cell_length_c 8.553776
_cell_angle_alpha 90.000000
_cell_angle_beta 90.000000
_cell_angle_gamma 90.000000
_cell_volume 3408.459271
_symmetry_space_group_name_H-M "P C C M"
_symmetry_group_IT_number 49
_symmetry_cell_setting 'orthorhombic'
loop_
_space_group_symop_operation_xyz
x,y,z
-x,-y,z
x,-y,1/2-z
-x,y,1/2-z
-x,-y,-z
x,y,-z
-x,y,1/2+z
x,-y,1/2+z
loop_
_atom_site_type_symbol
_atom_site_label
_atom_site_fract_x
_atom_site_fract_y
_atom_site_fract_z
Si Si1 0.713012 0.631305 0.312688
Si Si2 0.142177 0.227197 0.187799
Si Si3 0.639016 0.909082 0.813466
Si Si4 0.403189 0.412576 0.311435
Si Si5 0.442744 0.228607 0.312583
Si Si6 0.059586 0.091717 0.313357
Si Si7 0.260888 0.187145 0.811867
Si Si8 0.830714 0.410626 0.188159
O O1 0.712966 0.623557 0.500000
O O2 0.658018 0.593178 0.254002
O O3 0.714693 0.729319 0.265807
O O4 0.769107 0.594775 0.255531
O O5 0.096523 0.167929 0.255628
O O6 0.199242 0.186288 0.232939
O O7 0.142661 0.324014 0.250273
O O8 0.138702 0.229247 0.000000
O O9 0.601921 0.834852 0.748750
O O10 0.700084 0.888930 0.768470
O O11 0.622572 0.000000 0.750000
O O12 0.635567 0.908798 0.000000
O O13 0.426973 0.500000 0.250000
O O14 0.403165 0.414207 0.500000
O O15 0.430746 0.325353 0.260905
O O16 0.500000 0.202739 0.250000
O O17 0.442184 0.227133 0.500000
O O18 0.058535 0.088851 0.500000
O O19 0.000000 0.103266 0.250000
O O20 0.078508 0.000000 0.250000
O O21 0.262612 0.196987 0.000000
O O22 0.852799 0.500000 0.250000
O O23 0.831748 0.409877 0.000000
#
# Coordination Sequence:
#
# PCOD9392810 Si02
#       8
#     8   8   8   8   8   8   8   8
#     4   9  17  31  51  77 110 147 187 229 277 332
#     4  10  20  36  57  86 122 159 199 243 289 343
#     4  11  23  40  62  88 114 146 184 228 282 342
#     4  10  21  35  55  82 111 144 182 225 277 334
#     4  11  24  43  63  83 109 142 183 233 284 338
#     4  11  22  39  62  89 119 156 200 248 298 347
#     4   9  19  34  55  83 116 151 187 227 279 336
#     4  10  19  31  50  79 116 158 200 242 289 340
#
# _framework density 18.776812
#
# number of rings (size 3 to 8) (size 9 to 14) (size 15 to 20)
#    0.000    1.875    1.250    3.375    0.000    4.000 
#    0.000    3.750    0.000    0.375    0.000    2.625 
#    0.000    0.000    0.000    0.000    0.000    0.000 
#
# Total GULP energy -357249.457630 kJ/mol
# GULP energy per Si atom -5582.022775 kJ/mol
# Density = 1.873408 g / cm^3
# Si number density = 18.776812 Si / 1000 Ang^3
#
#
#
# Elastic Constant Matrix: (Units=GPa)
#
#
# Indices 1 2 3 4 5 6 
#
# 1 77.8952 59.1417 31.4257 0.0000 0.0000 0.0000
# 2 59.1417 138.0290 40.2653 0.0000 0.0000 0.0000
# 3 31.4257 40.2653 57.7164 0.0000 0.0000 0.0000
# 4 0.0000 0.0000 0.0000 32.3629 0.0000 0.0000
# 5 0.0000 0.0000 0.0000 0.0000 15.8869 0.0000
# 6 0.0000 0.0000 0.0000 0.0000 0.0000 3.5628
#
#
#
# Elastic Compliance Matrix: (Units=1/GPa)
#
#
# Indices 1 2 3 4 5 6 
#
# 1 0.020753 -0.007026 -0.006398 0.000000 0.000000 0.000000
# 2 -0.007026 0.011474 -0.004180 0.000000 0.000000 0.000000
# 3 -0.006398 -0.004180 0.023726 0.000000 0.000000 0.000000
# 4 0.000000 0.000000 0.000000 0.030900 0.000000 0.000000
# 5 0.000000 0.000000 0.000000 0.000000 0.062945 0.000000
# 6 0.000000 0.000000 0.000000 0.000000 0.000000 0.280675
#
#
# Mechanical properties :
#
#
# Convention : Reuss Voigt Hill
#
# Bulk Modulus (GPa) = 48.20199 59.47843 53.84021
# Shear Modulus (GPa) = 10.57987 19.88306 15.23146
#
# Velocity S-wave (km/s) = 2.37629 3.25763 2.85122
# Velocity P-wave (km/s) = 5.76678 6.77457 6.29089
#
# Compressibility (1/GPa) = 0.02074603
#
# Stress axis : x y z
#
# Youngs Moduli (GPa) = 48.18491 87.15008 42.14808
#
# Poissons Ratio (x) = 0.61229 0.26968
# Poissons Ratio (y) = 0.33853 0.17616
# Poissons Ratio (z) = 0.30831 0.36426
#
# Static dielectric constant tensor:
#      x y z
#    x 1.654970 0.000000 0.000000 
#    y 0.000000 1.651230 0.000000 
#    z 0.000000 0.000000 1.634490 
# 
# From -- ./inp_files/6552.got.cif
#   From: 2010.05.17/outbox.cif.g08.bks.cpg/sg49_4_cif.got.tgz:6552.got - 2010.06.03 21:02:19.
