data_PCOD9392504
_publ_section_title
;
Structure prediction by ZEFSAII (Michael W. Deem and Ramdas Pophale) SiO2 
 PCOD9392504
Probable space group: P C C M
;
_chemical_formula_sum "Si O2"
_cell_formula_units_Z 58
_cell_length_a 13.997435
_cell_length_b 7.686917
_cell_length_c 23.299246
_cell_angle_alpha 90.000000
_cell_angle_beta 90.000000
_cell_angle_gamma 90.000000
_cell_volume 2506.931792
_symmetry_space_group_name_H-M "P C C M"
_symmetry_group_IT_number 49
_symmetry_cell_setting 'orthorhombic'
loop_
_space_group_symop_operation_xyz
x,y,z
-x,-y,z
x,-y,1/2-z
-x,y,1/2-z
-x,-y,-z
x,y,-z
-x,y,1/2+z
x,-y,1/2+z
loop_
_atom_site_type_symbol
_atom_site_label
_atom_site_fract_x
_atom_site_fract_y
_atom_site_fract_z
Si Si1 0.278499 0.076622 0.563858
Si Si2 0.999442 0.787642 0.934289
Si Si3 0.694055 0.810630 0.267001
Si Si4 0.364937 0.620402 0.347558
Si Si5 0.439954 0.766480 0.863601
Si Si6 0.135106 0.787715 0.161175
Si Si7 0.000000 0.000000 0.750000
Si Si8 0.220121 0.314779 0.938222
O O1 0.252077 0.141812 0.500000
O O2 0.378758 0.158320 0.583863
O O3 0.201840 0.112330 0.614227
O O4 0.274925 0.869545 0.559575
O O5 0.890617 0.726129 0.929732
O O6 0.062675 0.701027 0.884438
O O7 0.030944 0.751965 0.000000
O O8 0.000000 0.000000 0.927056
O O9 0.661093 0.698143 0.213657
O O10 0.604050 0.858782 0.307620
O O11 0.780267 0.711200 0.299555
O O12 0.734507 0.000000 0.250000
O O13 0.447030 0.752475 0.371366
O O14 0.409412 0.430090 0.348451
O O15 0.271215 0.595788 0.385948
O O16 0.066493 0.888322 0.206312
O O17 0.232606 0.403732 0.000000
#
# Coordination Sequence:
#
# PCOD9392504 Si02
#       8
#     8   8   8   8   8   8   2   8
#     4  10  20  38  61  90 122 156 202 255 308 358
#     4  10  18  32  57  88 124 164 200 245 304 368
#     4  11  23  37  60  92 120 156 200 259 311 361
#     4  11  23  42  60  84 124 159 203 255 304 383
#     4  10  24  41  62  84 114 168 209 242 311 378
#     4  11  20  31  53  90 126 157 193 244 301 361
#     4  12  20  28  50  88 132 156 192 234 298 376
#     4  10  21  35  59  94 122 150 199 255 302 350
#
# _framework density 23.135852
#
# number of rings (size 3 to 8) (size 9 to 14) (size 15 to 20)
#    0.000    1.517    2.759    2.897    1.931    4.966 
#    0.000    2.759    0.000    3.310    0.000    8.690 
#    0.000    0.000    0.000    0.000    0.000    0.000 
#
# Total GULP energy -323584.372237 kJ/mol
# GULP energy per Si atom -5579.040901 kJ/mol
# Density = 2.308319 g / cm^3
# Si number density = 23.135852 Si / 1000 Ang^3
#
#
#
# Elastic Constant Matrix: (Units=GPa)
#
#
# Indices 1 2 3 4 5 6 
#
# 1 118.1141 14.8186 49.9488 0.0000 0.0000 0.0000
# 2 14.8186 49.8567 15.0615 0.0000 0.0000 0.0000
# 3 49.9488 15.0615 116.9295 0.0000 0.0000 0.0000
# 4 0.0000 0.0000 0.0000 15.4426 0.0000 0.0000
# 5 0.0000 0.0000 0.0000 0.0000 17.8315 0.0000
# 6 0.0000 0.0000 0.0000 0.0000 0.0000 16.0564
#
#
#
# Elastic Compliance Matrix: (Units=1/GPa)
#
#
# Indices 1 2 3 4 5 6 
#
# 1 0.010492 -0.001836 -0.004245 0.000000 0.000000 0.000000
# 2 -0.001836 0.021191 -0.001945 0.000000 0.000000 0.000000
# 3 -0.004245 -0.001945 0.010616 0.000000 0.000000 0.000000
# 4 0.000000 0.000000 0.000000 0.064756 0.000000 0.000000
# 5 0.000000 0.000000 0.000000 0.000000 0.056081 0.000000
# 6 0.000000 0.000000 0.000000 0.000000 0.000000 0.062281
#
#
# Mechanical properties :
#
#
# Convention : Reuss Voigt Hill
#
# Bulk Modulus (GPa) = 38.10131 49.39535 43.74833
# Shear Modulus (GPa) = 19.98255 23.53751 21.76003
#
# Velocity S-wave (km/s) = 2.94207 3.19307 3.07014
# Velocity P-wave (km/s) = 5.29578 5.91530 5.61409
#
# Compressibility (1/GPa) = 0.02624582
#
# Stress axis : x y z
#
# Youngs Moduli (GPa) = 95.31019 47.19020 94.19526
#
# Poissons Ratio (x) = 0.08664 0.39990
# Poissons Ratio (y) = 0.17499 0.18324
# Poissons Ratio (z) = 0.40463 0.09180
#
# Static dielectric constant tensor:
#      x y z
#    x 1.944370 0.000000 0.000000 
#    y 0.000000 1.982590 0.000000 
#    z 0.000000 0.000000 1.921780 
# 
# From -- ./inp_files/23206.got.cif
#   From: 2010.05.17/outbox.cif.g08.bks.cpg/sg49_12_cif.got.tgz:23206.got - 2010.06.03 21:02:19.
