data_PCOD9392223
_publ_section_title
;
Structure prediction by ZEFSAII (Michael W. Deem and Ramdas Pophale) SiO2 
 PCOD9392223
Probable space group: P C C M
;
_chemical_formula_sum "Si O2"
_cell_formula_units_Z 32
_cell_length_a 9.352485
_cell_length_b 21.410780
_cell_length_c 8.617024
_cell_angle_alpha 90.000000
_cell_angle_beta 90.000000
_cell_angle_gamma 90.000000
_cell_volume 1725.507343
_symmetry_space_group_name_H-M "P C C M"
_symmetry_group_IT_number 49
_symmetry_cell_setting 'orthorhombic'
loop_
_space_group_symop_operation_xyz
x,y,z
-x,-y,z
x,-y,1/2-z
-x,y,1/2-z
-x,-y,-z
x,y,-z
-x,y,1/2+z
x,-y,1/2+z
loop_
_atom_site_type_symbol
_atom_site_label
_atom_site_fract_x
_atom_site_fract_y
_atom_site_fract_z
Si Si1 0.161665 0.805135 0.814441
Si Si2 0.836928 0.064325 0.314392
Si Si3 0.339878 0.688890 0.313267
Si Si4 0.840192 0.433204 0.685746
O O1 0.223746 0.870373 0.747873
O O2 0.253801 0.746861 0.757844
O O3 0.000000 0.798023 0.750000
O O4 0.155999 0.808443 0.000000
O O5 0.839513 0.063399 0.500000
O O6 0.000000 0.064869 0.250000
O O7 0.770822 0.000000 0.250000
O O8 0.500000 0.688555 0.250000
O O9 0.339509 0.694032 0.500000
O O10 0.260134 0.624463 0.270144
O O11 0.789519 0.500000 0.750000
O O12 0.847629 0.436713 0.500000
O O13 0.000000 0.422801 0.750000
#
# Coordination Sequence:
#
# PCOD9392223 Si02
#       4
#     8   8   8   8
#     4  11  21  35  56  82 111 146 186 231 278 330
#     4  10  17  28  47  75 109 142 179 226 277 329
#     4  11  24  40  57  81 111 148 187 229 277 329
#     4  10  21  37  60  86 113 143 181 224 273 326
#
# _framework density 18.545269999999999
#
# number of rings (size 3 to 8) (size 9 to 14) (size 15 to 20)
#    0.000    1.500    0.000    9.750    0.000    6.500 
#    0.000    2.500    0.000    0.750    0.000    5.250 
#    0.000    0.000    0.000    0.000    0.000    0.000 
#
# Total GULP energy -178768.061967 kJ/mol
# GULP energy per Si atom -5586.501936 kJ/mol
# Density = 1.850306 g / cm^3
# Si number density = 18.545270 Si / 1000 Ang^3
#
#
#
# Elastic Constant Matrix: (Units=GPa)
#
#
# Indices 1 2 3 4 5 6 
#
# 1 71.2305 90.5210 42.9732 0.0000 0.0000 0.0000
# 2 90.5210 227.1472 91.4827 0.0000 0.0000 0.0000
# 3 42.9732 91.4827 150.5534 0.0000 0.0000 0.0000
# 4 0.0000 0.0000 0.0000 32.4577 0.0000 0.0000
# 5 0.0000 0.0000 0.0000 0.0000 12.5930 0.0000
# 6 0.0000 0.0000 0.0000 0.0000 0.0000 0.4384
#
#
#
# Elastic Compliance Matrix: (Units=1/GPa)
#
#
# Indices 1 2 3 4 5 6 
#
# 1 0.028749 -0.010793 -0.001648 0.000000 0.000000 0.000000
# 2 -0.010793 0.009881 -0.002923 0.000000 0.000000 0.000000
# 3 -0.001648 -0.002923 0.008889 0.000000 0.000000 0.000000
# 4 0.000000 0.000000 0.000000 0.030809 0.000000 0.000000
# 5 0.000000 0.000000 0.000000 0.000000 0.079409 0.000000
# 6 0.000000 0.000000 0.000000 0.000000 0.000000 2.280911
#
#
# Mechanical properties :
#
#
# Convention : Reuss Voigt Hill
#
# Bulk Modulus (GPa) = 59.55709 99.87612 79.71661
# Shear Modulus (GPa) = 2.02022 24.02810 13.02416
#
# Velocity S-wave (km/s) = 1.04485 3.60341 2.65295
# Velocity P-wave (km/s) = 5.79998 8.44304 7.24309
#
# Compressibility (1/GPa) = 0.01679061
#
# Stress axis : x y z
#
# Youngs Moduli (GPa) = 34.78337 101.20293 112.50130
#
# Poissons Ratio (x) = 1.09233 0.18535
# Poissons Ratio (y) = 0.37543 0.32888
# Poissons Ratio (z) = 0.05731 0.29585
#
# Static dielectric constant tensor:
#      x y z
#    x 1.609010 0.000000 0.000000 
#    y 0.000000 1.677410 0.000000 
#    z 0.000000 0.000000 1.619680 
# 
# From -- ./inp_files/1398.got.cif
#   From: 2010.05.17/outbox.cif.g08.bks.cpg/sg49_1_cif.got.tgz:1398.got - 2010.06.03 21:02:19.
