data_PCOD9392880
_publ_section_title
;
Structure prediction by ZEFSAII (Michael W. Deem and Ramdas Pophale) SiO2 
 PCOD9392880
Probable space group: P C C M
;
_chemical_formula_sum "Si O2"
_cell_formula_units_Z 64
_cell_length_a 20.367108
_cell_length_b 20.284930
_cell_length_c 8.699624
_cell_angle_alpha 90.000000
_cell_angle_beta 90.000000
_cell_angle_gamma 90.000000
_cell_volume 3594.209290
_symmetry_space_group_name_H-M "P C C M"
_symmetry_group_IT_number 49
_symmetry_cell_setting 'orthorhombic'
loop_
_space_group_symop_operation_xyz
x,y,z
-x,-y,z
x,-y,1/2-z
-x,y,1/2-z
-x,-y,-z
x,y,-z
-x,y,1/2+z
x,-y,1/2+z
loop_
_atom_site_type_symbol
_atom_site_label
_atom_site_fract_x
_atom_site_fract_y
_atom_site_fract_z
Si Si1 0.255107 0.104045 0.682735
Si Si2 0.394124 0.932512 0.316577
Si Si3 0.170653 0.321146 0.184524
Si Si4 0.568688 0.785195 0.815674
Si Si5 0.932156 0.209598 0.684288
Si Si6 0.929501 0.573808 0.315603
Si Si7 0.114692 0.068298 0.816127
Si Si8 0.706098 0.744318 0.682222
O O1 0.253749 0.091556 0.500000
O O2 0.319424 0.072608 0.757446
O O3 0.189512 0.077481 0.760275
O O4 0.263093 0.182624 0.708192
O O5 0.395833 0.935549 0.500000
O O6 0.424894 0.862525 0.266861
O O7 0.423022 0.000000 0.250000
O O8 0.127969 0.256382 0.227796
O O9 0.130400 0.381226 0.258031
O O10 0.244046 0.308049 0.244183
O O11 0.170761 0.327448 0.000000
O O12 0.500000 0.759543 0.750000
O O13 0.633333 0.748378 0.753560
O O14 0.568711 0.783101 0.000000
O O15 0.935428 0.208847 0.500000
O O16 0.921152 0.134722 0.738790
O O17 0.000000 0.235762 0.750000
O O18 0.921403 0.500000 0.250000
O O19 0.932520 0.572767 0.500000
O O20 0.000000 0.598071 0.250000
O O21 0.088180 0.000000 0.750000
O O22 0.112863 0.066080 0.000000
O O23 0.701515 0.734103 0.500000
#
# Coordination Sequence:
#
# PCOD9392880 Si02
#       8
#     8   8   8   8   8   8   8   8
#     4  10  19  32  50  71  94 124 162 212 268 326
#     4  10  20  32  47  67  93 125 163 210 265 329
#     4  11  21  37  59  85 114 148 186 230 275 323
#     4  10  21  36  53  73 101 137 173 219 275 335
#     4  10  23  38  54  73  99 132 172 220 273 328
#     4  11  22  38  59  88 124 164 201 235 275 325
#     4  11  22  36  50  68  91 124 165 217 277 335
#     4  10  20  34  55  81 106 136 177 224 271 324
#
# _framework density 17.806419999999999
#
# number of rings (size 3 to 8) (size 9 to 14) (size 15 to 20)
#    0.000    1.625    1.250    4.500    0.000    6.000 
#    0.000    2.500    0.000    0.000    0.000    0.000 
#    0.000    0.500    0.000    5.000    0.000    3.000 
#
# Total GULP energy -357586.020254 kJ/mol
# GULP energy per Si atom -5587.281566 kJ/mol
# Density = 1.776589 g / cm^3
# Si number density = 17.806420 Si / 1000 Ang^3
#
#
#
# Elastic Constant Matrix: (Units=GPa)
#
#
# Indices 1 2 3 4 5 6 
#
# 1 130.8802 47.0856 41.7084 0.0000 0.0000 0.0000
# 2 47.0856 74.1820 36.3469 0.0000 0.0000 0.0000
# 3 41.7084 36.3469 64.4339 0.0000 0.0000 0.0000
# 4 0.0000 0.0000 0.0000 24.1690 0.0000 0.0000
# 5 0.0000 0.0000 0.0000 0.0000 23.3037 0.0000
# 6 0.0000 0.0000 0.0000 0.0000 0.0000 51.7030
#
#
#
# Elastic Compliance Matrix: (Units=1/GPa)
#
#
# Indices 1 2 3 4 5 6 
#
# 1 0.010690 -0.004692 -0.004273 0.000000 0.000000 0.000000
# 2 -0.004692 0.020688 -0.008633 0.000000 0.000000 0.000000
# 3 -0.004273 -0.008633 0.023156 0.000000 0.000000 0.000000
# 4 0.000000 0.000000 0.000000 0.041375 0.000000 0.000000
# 5 0.000000 0.000000 0.000000 0.000000 0.042912 0.000000
# 6 0.000000 0.000000 0.000000 0.000000 0.000000 0.019341
#
#
# Mechanical properties :
#
#
# Convention : Reuss Voigt Hill
#
# Bulk Modulus (GPa) = 51.71161 57.75310 54.73235
# Shear Modulus (GPa) = 25.02438 29.45882 27.24160
#
# Velocity S-wave (km/s) = 3.75288 4.07184 3.91561
# Velocity P-wave (km/s) = 6.91974 7.38991 7.15869
#
# Compressibility (1/GPa) = 0.01933802
#
# Stress axis : x y z
#
# Youngs Moduli (GPa) = 93.54330 48.33645 43.18552
#
# Poissons Ratio (x) = 0.22678 0.18455
# Poissons Ratio (y) = 0.43887 0.37283
# Poissons Ratio (z) = 0.39974 0.41730
#
# Static dielectric constant tensor:
#      x y z
#    x 1.599970 0.000000 0.000000 
#    y 0.000000 1.617390 0.000000 
#    z 0.000000 0.000000 1.592190 
# 
# From -- ./inp_files/5327.got.cif
#   From: 2010.05.17/outbox.cif.g08.bks.cpg/sg49_3_cif.got.tgz:5327.got - 2010.06.03 21:02:19.
