data_PCOD9392628
_publ_section_title
;
Structure prediction by ZEFSAII (Michael W. Deem and Ramdas Pophale) SiO2 
 PCOD9392628
Probable space group: P C C M
;
_chemical_formula_sum "Si O2"
_cell_formula_units_Z 56
_cell_length_a 18.769726
_cell_length_b 21.361324
_cell_length_c 8.984612
_cell_angle_alpha 90.000000
_cell_angle_beta 90.000000
_cell_angle_gamma 90.000000
_cell_volume 3602.346026
_symmetry_space_group_name_H-M "P C C M"
_symmetry_group_IT_number 49
_symmetry_cell_setting 'orthorhombic'
loop_
_space_group_symop_operation_xyz
x,y,z
-x,-y,z
x,-y,1/2-z
-x,y,1/2-z
-x,-y,-z
x,y,-z
-x,y,1/2+z
x,-y,1/2+z
loop_
_atom_site_type_symbol
_atom_site_label
_atom_site_fract_x
_atom_site_fract_y
_atom_site_fract_z
Si Si1 0.707865 0.755397 0.671133
Si Si2 0.923001 0.689039 0.320228
Si Si3 0.922352 0.064076 0.677627
Si Si4 0.784782 0.380727 0.169760
Si Si5 0.346960 0.436184 0.823759
Si Si6 0.576959 0.305657 0.321400
Si Si7 0.842346 0.806797 0.177525
O O1 0.697124 0.774457 0.500000
O O2 0.747532 0.687777 0.668794
O O3 0.634228 0.742957 0.755435
O O4 0.763269 0.799504 0.756404
O O5 0.926257 0.693445 0.500000
O O6 0.865391 0.634722 0.282894
O O7 0.891386 0.753869 0.254930
O O8 0.000000 0.677742 0.250000
O O9 0.929825 0.056283 0.500000
O O10 0.874595 0.124865 0.705951
O O11 0.000000 0.074468 0.750000
O O12 0.893911 0.000000 0.750000
O O13 0.733843 0.422558 0.270315
O O14 0.784229 0.404549 0.000000
O O15 0.372999 0.500000 0.750000
O O16 0.393590 0.375293 0.782028
O O17 0.348584 0.442313 0.000000
O O18 0.500000 0.296705 0.250000
O O19 0.574454 0.301207 0.500000
O O20 0.841705 0.795402 0.000000
#
# Coordination Sequence:
#
# PCOD9392628 Si02
#       7
#     8   8   8   8   8   8   8
#     4   9  17  30  48  68  90 118 149 184 225 269
#     4  10  19  29  44  66  89 115 145 184 231 275
#     4  10  20  31  44  62  89 126 164 200 236 272
#     4   8  16  30  45  62  85 111 142 179 221 267
#     4  10  20  32  48  67  87 115 149 182 217 260
#     4  10  20  33  49  70  96 124 150 180 220 266
#     4  10  19  30  45  66  91 120 155 193 229 270
#
# _framework density 15.545424000000001
#
# number of rings (size 3 to 8) (size 9 to 14) (size 15 to 20)
#    0.000    2.429    0.000    4.286    0.000    9.429 
#    0.000    1.429    0.000    0.429    0.000    3.000 
#    0.000    0.571    0.000    6.000    0.000    3.286 
#
# Total GULP energy -312220.746327 kJ/mol
# GULP energy per Si atom -5575.370470 kJ/mol
# Density = 1.551004 g / cm^3
# Si number density = 15.545424 Si / 1000 Ang^3
#
#
#
# Elastic Constant Matrix: (Units=GPa)
#
#
# Indices 1 2 3 4 5 6 
#
# 1 115.6267 16.8144 38.5619 0.0000 0.0000 0.0000
# 2 16.8144 30.2131 19.7034 0.0000 0.0000 0.0000
# 3 38.5619 19.7034 61.4818 0.0000 0.0000 0.0000
# 4 0.0000 0.0000 0.0000 17.5628 0.0000 0.0000
# 5 0.0000 0.0000 0.0000 0.0000 28.1525 0.0000
# 6 0.0000 0.0000 0.0000 0.0000 0.0000 15.0262
#
#
#
# Elastic Compliance Matrix: (Units=1/GPa)
#
#
# Indices 1 2 3 4 5 6 
#
# 1 0.011036 -0.002058 -0.006263 0.000000 0.000000 0.000000
# 2 -0.002058 0.042227 -0.012242 0.000000 0.000000 0.000000
# 3 -0.006263 -0.012242 0.024116 0.000000 0.000000 0.000000
# 4 0.000000 0.000000 0.000000 0.056939 0.000000 0.000000
# 5 0.000000 0.000000 0.000000 0.000000 0.035521 0.000000
# 6 0.000000 0.000000 0.000000 0.000000 0.000000 0.066550
#
#
# Mechanical properties :
#
#
# Convention : Reuss Voigt Hill
#
# Bulk Modulus (GPa) = 27.58269 39.72013 33.65141
# Shear Modulus (GPa) = 17.26524 20.96443 19.11484
#
# Velocity S-wave (km/s) = 3.33623 3.67630 3.51039
# Velocity P-wave (km/s) = 5.71160 6.60505 6.17451
#
# Compressibility (1/GPa) = 0.03625463
#
# Stress axis : x y z
#
# Youngs Moduli (GPa) = 90.60939 23.68150 41.46593
#
# Poissons Ratio (x) = 0.04873 0.25968
# Poissons Ratio (y) = 0.18647 0.50763
# Poissons Ratio (z) = 0.56745 0.28991
#
# Static dielectric constant tensor:
#      x y z
#    x 1.516460 0.000000 0.000000 
#    y 0.000000 1.504740 0.000000 
#    z 0.000000 0.000000 1.521970 
# 
# From -- ./inp_files/5195.got.cif
#   From: 2010.05.17/outbox.cif.g08.bks.cpg/sg49_3_cif.got.tgz:5195.got - 2010.06.03 21:02:19.
