data_PCOD9392944
_publ_section_title
;
Structure prediction by ZEFSAII (Michael W. Deem and Ramdas Pophale) SiO2 
 PCOD9392944
Probable space group: P C C M
;
_chemical_formula_sum "Si O2"
_cell_formula_units_Z 40
_cell_length_a 9.908684
_cell_length_b 11.526304
_cell_length_c 16.508920
_cell_angle_alpha 90.000000
_cell_angle_beta 90.000000
_cell_angle_gamma 90.000000
_cell_volume 1885.492074
_symmetry_space_group_name_H-M "P C C M"
_symmetry_group_IT_number 49
_symmetry_cell_setting 'orthorhombic'
loop_
_space_group_symop_operation_xyz
x,y,z
-x,-y,z
x,-y,1/2-z
-x,y,1/2-z
-x,-y,-z
x,y,-z
-x,y,1/2+z
x,-y,1/2+z
loop_
_atom_site_type_symbol
_atom_site_label
_atom_site_fract_x
_atom_site_fract_y
_atom_site_fract_z
Si Si1 0.081240 0.119487 0.823906
Si Si2 0.353918 0.198794 0.244188
Si Si3 0.294486 0.433174 0.166625
Si Si4 0.282888 0.337236 0.591655
Si Si5 0.038116 0.661491 0.410701
O O1 0.234234 0.119608 0.791731
O O2 0.068853 0.202257 0.900113
O O3 0.000000 0.180347 0.750000
O O4 0.000000 0.000000 0.836068
O O5 0.500000 0.142663 0.250000
O O6 0.364867 0.309340 0.181862
O O7 0.319242 0.252809 0.333079
O O8 0.308008 0.500000 0.250000
O O9 0.339685 0.531957 0.103781
O O10 0.138445 0.400558 0.150722
O O11 0.313051 0.295285 0.500000
O O12 0.120690 0.352499 0.598663
O O13 0.077939 0.621197 0.500000
#
# Coordination Sequence:
#
# PCOD9392944 Si02
#       5
#     8   8   8   8   8
#     4  10  20  38  62  84 107 138 191 246 290 348
#     4  10  21  38  57  83 116 154 190 231 284 342
#     4   9  19  30  51  81 118 159 198 229 272 328
#     4  10  19  32  52  81 119 156 194 234 279 329
#     4  10  19  32  53  84 117 149 191 245 295 331
#
# _framework density 21.21462
#
# number of rings (size 3 to 8) (size 9 to 14) (size 15 to 20)
#    0.000    2.200    2.000    1.200    0.000    8.000 
#    0.000    8.000    0.000    0.600    0.000    2.800 
#    0.000    0.000    0.000    0.000    0.000    0.000 
#
# Total GULP energy -222927.055266 kJ/mol
# GULP energy per Si atom -5573.176382 kJ/mol
# Density = 2.116633 g / cm^3
# Si number density = 21.214620 Si / 1000 Ang^3
#
#
#
# Elastic Constant Matrix: (Units=GPa)
#
#
# Indices 1 2 3 4 5 6 
#
# 1 121.2076 27.4574 2.8066 0.0000 0.0000 0.0000
# 2 27.4574 104.6161 16.6899 0.0000 0.0000 0.0000
# 3 2.8066 16.6899 42.3482 0.0000 0.0000 0.0000
# 4 0.0000 0.0000 0.0000 76.2000 0.0000 0.0000
# 5 0.0000 0.0000 0.0000 0.0000 9.5251 0.0000
# 6 0.0000 0.0000 0.0000 0.0000 0.0000 7.8808
#
#
#
# Elastic Compliance Matrix: (Units=1/GPa)
#
#
# Indices 1 2 3 4 5 6 
#
# 1 0.008777 -0.002359 0.000348 0.000000 0.000000 0.000000
# 2 -0.002359 0.010834 -0.004114 0.000000 0.000000 0.000000
# 3 0.000348 -0.004114 0.025212 0.000000 0.000000 0.000000
# 4 0.000000 0.000000 0.000000 0.013123 0.000000 0.000000
# 5 0.000000 0.000000 0.000000 0.000000 0.104986 0.000000
# 6 0.000000 0.000000 0.000000 0.000000 0.000000 0.126891
#
#
# Mechanical properties :
#
#
# Convention : Reuss Voigt Hill
#
# Bulk Modulus (GPa) = 30.69962 40.23107 35.46534
# Shear Modulus (GPa) = 15.97801 33.46904 24.72353
#
# Velocity S-wave (km/s) = 2.74735 3.97626 3.41750
# Velocity P-wave (km/s) = 4.95644 6.33134 5.68560
#
# Compressibility (1/GPa) = 0.03257370
#
# Stress axis : x y z
#
# Youngs Moduli (GPa) = 113.93870 92.30073 39.66384
#
# Poissons Ratio (x) = 0.21774 -0.01381
# Poissons Ratio (y) = 0.26879 0.16316
# Poissons Ratio (z) = -0.03966 0.37968
#
# Static dielectric constant tensor:
#      x y z
#    x 1.787300 0.000000 0.000000 
#    y 0.000000 1.844050 0.000000 
#    z 0.000000 0.000000 1.791780 
# 
# From -- ./inp_files/15992.got.cif
#   From: 2010.05.17/outbox.cif.g08.bks.cpg/sg49_8_cif.got.tgz:15992.got - 2010.06.03 21:02:19.
