data_PCOD9392174
_publ_section_title
;
Structure prediction by ZEFSAII (Michael W. Deem and Ramdas Pophale) SiO2 
 PCOD9392174
Probable space group: P C C M
;
_chemical_formula_sum "Si O2"
_cell_formula_units_Z 48
_cell_length_a 9.243757
_cell_length_b 31.812058
_cell_length_c 8.673154
_cell_angle_alpha 90.000000
_cell_angle_beta 90.000000
_cell_angle_gamma 90.000000
_cell_volume 2550.453111
_symmetry_space_group_name_H-M "P C C M"
_symmetry_group_IT_number 49
_symmetry_cell_setting 'orthorhombic'
loop_
_space_group_symop_operation_xyz
x,y,z
-x,-y,z
x,-y,1/2-z
-x,y,1/2-z
-x,-y,-z
x,y,-z
-x,y,1/2+z
x,-y,1/2+z
loop_
_atom_site_type_symbol
_atom_site_label
_atom_site_fract_x
_atom_site_fract_y
_atom_site_fract_z
Si Si1 0.338804 0.954482 0.815316
Si Si2 0.838631 0.714279 0.684602
Si Si3 0.839244 0.876809 0.185265
Si Si4 0.335504 0.543042 0.684262
Si Si5 0.337395 0.630279 0.814984
Si Si6 0.338599 0.207100 0.815424
O O1 0.500000 0.946326 0.750000
O O2 0.234208 0.917957 0.757148
O O3 0.293815 0.000000 0.750000
O O4 0.343991 0.955849 0.000000
O O5 0.843297 0.717480 0.500000
O O6 0.757860 0.670770 0.724657
O O7 0.748573 0.753278 0.750382
O O8 0.000000 0.714784 0.750000
O O9 0.744272 0.835902 0.225889
O O10 0.000000 0.871578 0.250000
O O11 0.842842 0.880618 0.000000
O O12 0.268279 0.500000 0.750000
O O13 0.500000 0.543712 0.750000
O O14 0.339287 0.541750 0.500000
O O15 0.273885 0.587198 0.744105
O O16 0.500000 0.636116 0.750000
O O17 0.345914 0.625973 0.000000
O O18 0.500000 0.206625 0.750000
O O19 0.344060 0.210032 0.000000
#
# Coordination Sequence:
#
# PCOD9392174 Si02
#       6
#     8   8   8   8   8   8
#     4  11  22  39  63  90 121 158 200 247 294 346
#     4  11  24  40  60  84 115 151 190 235 286 342
#     4  11  24  41  61  89 122 158 197 241 291 346
#     4  10  17  27  46  73 106 142 179 226 277 329
#     4  10  20  34  53  80 110 144 185 231 279 333
#     4  11  24  41  64  90 119 152 192 238 286 341
#
# _framework density 18.820186
#
# number of rings (size 3 to 8) (size 9 to 14) (size 15 to 20)
#    0.000    1.333    0.000    8.500    0.000    9.667 
#    0.000    1.667    0.000    0.500    0.000    3.500 
#    0.000    0.000    0.000    0.000    0.000    0.000 
#
# Total GULP energy -268359.018845 kJ/mol
# GULP energy per Si atom -5590.812893 kJ/mol
# Density = 1.877735 g / cm^3
# Si number density = 18.820186 Si / 1000 Ang^3
#
#
#
# Elastic Constant Matrix: (Units=GPa)
#
#
# Indices 1 2 3 4 5 6 
#
# 1 132.1418 112.8222 59.7396 0.0000 0.0000 0.0000
# 2 112.8222 196.6302 88.5314 0.0000 0.0000 0.0000
# 3 59.7396 88.5314 117.6224 0.0000 0.0000 0.0000
# 4 0.0000 0.0000 0.0000 29.1247 0.0000 0.0000
# 5 0.0000 0.0000 0.0000 0.0000 29.8898 0.0000
# 6 0.0000 0.0000 0.0000 0.0000 0.0000 -20.2450
#
#
#
# Elastic Compliance Matrix: (Units=1/GPa)
#
#
# Indices 1 2 3 4 5 6 
#
# 1 0.015065 -0.007864 -0.001732 0.000000 0.000000 0.000000
# 2 -0.007864 0.011798 -0.004886 0.000000 0.000000 0.000000
# 3 -0.001732 -0.004886 0.013059 0.000000 0.000000 0.000000
# 4 0.000000 0.000000 0.000000 0.034335 0.000000 0.000000
# 5 0.000000 0.000000 0.000000 0.000000 0.033456 0.000000
# 6 0.000000 0.000000 0.000000 0.000000 0.000000 -0.049395
#
#
# Mechanical properties :
#
#
# Convention : Reuss Voigt Hill
#
# Bulk Modulus (GPa) = 91.26185 107.62009 99.44097
# Shear Modulus (GPa) = 54.98434 20.10731 37.54583
#
# Velocity S-wave (km/s) = 5.41101 3.27217 4.47136
# Velocity P-wave (km/s) = 9.36138 8.46071 8.92242
#
# Compressibility (1/GPa) = 0.01095748
#
# Stress axis : x y z
#
# Youngs Moduli (GPa) = 66.37852 84.76250 76.57546
#
# Poissons Ratio (x) = 0.66658 0.13266
# Poissons Ratio (y) = 0.52200 0.37413
# Poissons Ratio (z) = 0.11499 0.41413
#
# Static dielectric constant tensor:
#      x y z
#    x 1.614160 0.000000 0.000000 
#    y 0.000000 1.665730 0.000000 
#    z 0.000000 0.000000 1.629500 
# 
# From -- ./inp_files/2088.got.cif
#   From: 2010.05.17/outbox.cif.g08.bks.cpg/sg49_2_cif.got.tgz:2088.got - 2010.06.03 21:02:19.
