data_PCOD9392488
_publ_section_title
;
Structure prediction by ZEFSAII (Michael W. Deem and Ramdas Pophale) SiO2 
 PCOD9392488
Probable space group: P C C M
;
_chemical_formula_sum "Si O2"
_cell_formula_units_Z 64
_cell_length_a 8.971999
_cell_length_b 14.346780
_cell_length_c 29.671973
_cell_angle_alpha 90.000000
_cell_angle_beta 90.000000
_cell_angle_gamma 90.000000
_cell_volume 3819.355470
_symmetry_space_group_name_H-M "P C C M"
_symmetry_group_IT_number 49
_symmetry_cell_setting 'orthorhombic'
loop_
_space_group_symop_operation_xyz
x,y,z
-x,-y,z
x,-y,1/2-z
-x,y,1/2-z
-x,-y,-z
x,y,-z
-x,y,1/2+z
x,-y,1/2+z
loop_
_atom_site_type_symbol
_atom_site_label
_atom_site_fract_x
_atom_site_fract_y
_atom_site_fract_z
Si Si1 0.448961 0.399934 0.862826
Si Si2 0.471998 0.105125 0.644698
Si Si3 0.724875 0.104366 0.232506
Si Si4 0.045517 0.762892 0.799164
Si Si5 0.715877 0.231080 0.679654
Si Si6 0.730740 0.269148 0.125351
Si Si7 0.761758 0.558613 0.947986
Si Si8 0.917389 0.643936 0.551104
O O1 0.500000 0.500000 0.843932
O O2 0.355605 0.332733 0.829118
O O3 0.596824 0.342589 0.875213
O O4 0.354736 0.419673 0.908534
O O5 0.404992 0.103459 0.695518
O O6 0.625674 0.162340 0.646684
O O7 0.347709 0.168544 0.620858
O O8 0.500000 0.000000 0.629459
O O9 0.881912 0.136149 0.210814
O O10 0.697618 0.182431 0.271087
O O11 0.735748 0.000000 0.250000
O O12 0.178322 0.717580 0.827842
O O13 0.000000 0.722140 0.750000
O O14 0.893040 0.765747 0.826867
O O15 0.847755 0.286535 0.086375
O O16 0.827329 0.453846 0.944121
O O17 0.908462 0.622465 0.941920
O O18 0.706882 0.569838 0.000000
O O19 0.897234 0.675722 0.500000
#
# Coordination Sequence:
#
# PCOD9392488 Si02
#       8
#     8   8   8   8   8   8   8   8
#     4  11  21  34  51  77 108 147 179 221 270 330
#     4  10  19  32  51  76 104 140 174 219 275 323
#     4  10  18  32  53  77 103 133 172 231 290 324
#     4   9  20  35  51  73 103 138 180 235 268 322
#     4  10  20  31  50  74 103 133 178 215 274 322
#     4  10  20  34  52  77 109 142 183 223 271 328
#     4   9  18  32  54  82 109 137 176 222 277 333
#     4   9  17  32  55  84 110 138 176 226 278 329
#
# _framework density 16.756754000000001
#
# number of rings (size 3 to 8) (size 9 to 14) (size 15 to 20)
#    0.000    2.250    2.500    1.875    0.000    4.000 
#    0.000    0.000    0.000   26.625    0.000    0.000 
#    0.000    9.000    0.000    0.000    0.000    0.000 
#
# Total GULP energy -356311.653462 kJ/mol
# GULP energy per Si atom -5567.369585 kJ/mol
# Density = 1.671862 g / cm^3
# Si number density = 16.756754 Si / 1000 Ang^3
#
#
#
# Elastic Constant Matrix: (Units=GPa)
#
#
# Indices 1 2 3 4 5 6 
#
# 1 92.3912 33.7316 32.6229 0.0000 0.0000 0.0000
# 2 33.7316 102.3062 31.5645 0.0000 0.0000 0.0000
# 3 32.6229 31.5645 58.3943 0.0000 0.0000 0.0000
# 4 0.0000 0.0000 0.0000 14.3264 0.0000 0.0000
# 5 0.0000 0.0000 0.0000 0.0000 27.4425 0.0000
# 6 0.0000 0.0000 0.0000 0.0000 0.0000 21.2922
#
#
#
# Elastic Compliance Matrix: (Units=1/GPa)
#
#
# Indices 1 2 3 4 5 6 
#
# 1 0.014060 -0.002655 -0.006419 0.000000 0.000000 0.000000
# 2 -0.002655 0.012232 -0.005129 0.000000 0.000000 0.000000
# 3 -0.006419 -0.005129 0.023484 0.000000 0.000000 0.000000
# 4 0.000000 0.000000 0.000000 0.069801 0.000000 0.000000
# 5 0.000000 0.000000 0.000000 0.000000 0.036440 0.000000
# 6 0.000000 0.000000 0.000000 0.000000 0.000000 0.046966
#
#
# Mechanical properties :
#
#
# Convention : Reuss Voigt Hill
#
# Bulk Modulus (GPa) = 46.79685 49.88107 48.33896
# Shear Modulus (GPa) = 20.96332 22.95706 21.96019
#
# Velocity S-wave (km/s) = 3.54084 3.70539 3.62405
# Velocity P-wave (km/s) = 6.68614 6.93822 6.81335
#
# Compressibility (1/GPa) = 0.02136896
#
# Stress axis : x y z
#
# Youngs Moduli (GPa) = 71.12606 81.75031 42.58288
#
# Poissons Ratio (x) = 0.21705 0.27336
# Poissons Ratio (y) = 0.18884 0.21840
# Poissons Ratio (z) = 0.45659 0.41928
#
# Static dielectric constant tensor:
#      x y z
#    x 1.596380 0.000000 0.000000 
#    y 0.000000 1.568610 0.000000 
#    z 0.000000 0.000000 1.584130 
# 
# From -- ./inp_files/26490.got.cif
#   From: 2010.05.17/outbox.cif.g08.bks.cpg/sg49_14_cif.got.tgz:26490.got - 2010.06.03 21:02:19.
