data_PCOD9392162
_publ_section_title
;
Structure prediction by ZEFSAII (Michael W. Deem and Ramdas Pophale) SiO2 
 PCOD9392162
Probable space group: P C C M
;
_chemical_formula_sum "Si O2"
_cell_formula_units_Z 32
_cell_length_a 9.413874
_cell_length_b 21.530505
_cell_length_c 8.596331
_cell_angle_alpha 90.000000
_cell_angle_beta 90.000000
_cell_angle_gamma 90.000000
_cell_volume 1742.351314
_symmetry_space_group_name_H-M "P C C M"
_symmetry_group_IT_number 49
_symmetry_cell_setting 'orthorhombic'
loop_
_space_group_symop_operation_xyz
x,y,z
-x,-y,z
x,-y,1/2-z
-x,y,1/2-z
-x,-y,-z
x,y,-z
-x,y,1/2+z
x,-y,1/2+z
loop_
_atom_site_type_symbol
_atom_site_label
_atom_site_fract_x
_atom_site_fract_y
_atom_site_fract_z
Si Si1 0.158765 0.814157 0.312454
Si Si2 0.659396 0.933205 0.812950
Si Si3 0.339395 0.306171 0.812881
Si Si4 0.662095 0.563980 0.685719
O O1 0.155253 0.814476 0.500000
O O2 0.241174 0.876442 0.262514
O O3 0.246602 0.753028 0.264988
O O4 0.000000 0.812752 0.250000
O O5 0.500000 0.923341 0.750000
O O6 0.708866 0.000000 0.750000
O O7 0.654417 0.935277 0.000000
O O8 0.500000 0.298739 0.750000
O O9 0.277599 0.370880 0.746889
O O10 0.345093 0.309979 0.000000
O O11 0.727766 0.500000 0.750000
O O12 0.500000 0.564679 0.750000
O O13 0.659205 0.562728 0.500000
#
# Coordination Sequence:
#
# PCOD9392162 Si02
#       4
#     8   8   8   8
#     4  10  23  38  54  76 106 140 177 215 259 309
#     4  10  20  36  57  83 108 137 173 214 259 309
#     4  10  19  33  52  77 104 135 173 216 260 310
#     4  10  17  27  45  72 103 135 168 211 260 308
#
# _framework density 18.365984999999998
#
# number of rings (size 3 to 8) (size 9 to 14) (size 15 to 20)
#    0.000    2.000    0.000    7.500    0.000    4.500 
#    0.000    2.500    0.000    0.750    0.000    5.250 
#    0.000    0.000    0.000    0.000    0.000    0.000 
#
# Total GULP energy -178606.454963 kJ/mol
# GULP energy per Si atom -5581.451718 kJ/mol
# Density = 1.832418 g / cm^3
# Si number density = 18.365985 Si / 1000 Ang^3
#
#
#
# Elastic Constant Matrix: (Units=GPa)
#
#
# Indices 1 2 3 4 5 6 
#
# 1 71.8419 93.3587 26.7678 0.0000 0.0000 0.0000
# 2 93.3587 232.6965 60.8889 0.0000 0.0000 0.0000
# 3 26.7678 60.8889 88.5955 0.0000 0.0000 0.0000
# 4 0.0000 0.0000 0.0000 30.3021 0.0000 0.0000
# 5 0.0000 0.0000 0.0000 0.0000 25.2666 0.0000
# 6 0.0000 0.0000 0.0000 0.0000 0.0000 -6.6137
#
#
#
# Elastic Compliance Matrix: (Units=1/GPa)
#
#
# Indices 1 2 3 4 5 6 
#
# 1 0.029145 -0.011448 -0.000938 0.000000 0.000000 0.000000
# 2 -0.011448 0.009736 -0.003233 0.000000 0.000000 0.000000
# 3 -0.000938 -0.003233 0.013792 0.000000 0.000000 0.000000
# 4 0.000000 0.000000 0.000000 0.033001 0.000000 0.000000
# 5 0.000000 0.000000 0.000000 0.000000 0.039578 0.000000
# 6 0.000000 0.000000 0.000000 0.000000 0.000000 -0.151201
#
#
# Mechanical properties :
#
#
# Convention : Reuss Voigt Hill
#
# Bulk Modulus (GPa) = 46.64855 83.90719 65.27787
# Shear Modulus (GPa) = 402.11116 23.93223 213.02170
#
# Velocity S-wave (km/s) = 14.81279 3.61373 10.78141
# Velocity P-wave (km/s) = 17.83292 7.94968 13.80598
#
# Compressibility (1/GPa) = 0.02143689
#
# Stress axis : x y z
#
# Youngs Moduli (GPa) = 34.31079 102.70972 72.50377
#
# Poissons Ratio (x) = 1.17579 0.06802
# Poissons Ratio (y) = 0.39278 0.23438
# Poissons Ratio (z) = 0.03219 0.33202
#
# Static dielectric constant tensor:
#      x y z
#    x 1.588780 0.000000 0.000000 
#    y 0.000000 1.679940 0.000000 
#    z 0.000000 0.000000 1.621040 
# 
# From -- ./inp_files/1399.got.cif
#   From: 2010.05.17/outbox.cif.g08.bks.cpg/sg49_1_cif.got.tgz:1399.got - 2010.06.03 21:02:19.
