data_PCOD9392202
_publ_section_title
;
Structure prediction by ZEFSAII (Michael W. Deem and Ramdas Pophale) SiO2 
 PCOD9392202
Probable space group: P C C M
;
_chemical_formula_sum "Si O2"
_cell_formula_units_Z 48
_cell_length_a 19.201310
_cell_length_b 16.300302
_cell_length_c 8.596166
_cell_angle_alpha 90.000000
_cell_angle_beta 90.000000
_cell_angle_gamma 90.000000
_cell_volume 2690.489513
_symmetry_space_group_name_H-M "P C C M"
_symmetry_group_IT_number 49
_symmetry_cell_setting 'orthorhombic'
loop_
_space_group_symop_operation_xyz
x,y,z
-x,-y,z
x,-y,1/2-z
-x,y,1/2-z
-x,-y,-z
x,y,-z
-x,y,1/2+z
x,-y,1/2+z
loop_
_atom_site_type_symbol
_atom_site_label
_atom_site_fract_x
_atom_site_fract_y
_atom_site_fract_z
Si Si1 0.578537 0.763134 0.688045
Si Si2 0.920483 0.414961 0.186033
Si Si3 0.325871 0.087664 0.687251
Si Si4 0.579146 0.583197 0.314173
Si Si5 0.163346 0.911084 0.187069
Si Si6 0.078738 0.756757 0.314132
O O1 0.500000 0.771421 0.750000
O O2 0.575605 0.765352 0.500000
O O3 0.627095 0.837037 0.742883
O O4 0.607542 0.672722 0.731264
O O5 0.888722 0.500000 0.250000
O O6 0.890495 0.328709 0.246579
O O7 0.000000 0.414166 0.250000
O O8 0.921576 0.416377 0.000000
O O9 0.328529 0.085891 0.500000
O O10 0.244881 0.097832 0.731447
O O11 0.350474 0.000000 0.750000
O O12 0.612989 0.500000 0.250000
O O13 0.500000 0.584404 0.250000
O O14 0.576919 0.577654 0.500000
O O15 0.120960 0.835856 0.258167
O O16 0.139815 0.000000 0.250000
O O17 0.157738 0.909882 0.000000
O O18 0.076761 0.751723 0.500000
O O19 0.000000 0.764234 0.250000
#
# Coordination Sequence:
#
# PCOD9392202 Si02
#       6
#     8   8   8   8   8   8
#     4   9  18  31  47  71  99 128 159 198 243 287
#     4  10  17  28  46  71 102 135 168 203 244 291
#     4   9  19  35  53  71  95 127 164 200 242 293
#     4   9  15  24  40  62  91 122 155 190 231 278
#     4  10  20  36  55  74  96 128 166 205 249 300
#     4  11  21  34  52  77 105 132 165 206 249 295
#
# _framework density 17.840620000000001
#
# number of rings (size 3 to 8) (size 9 to 14) (size 15 to 20)
#    0.000    2.333    0.000    6.000    0.000    2.667 
#    0.000    3.333    0.000    1.000    0.000    2.333 
#    0.000    0.000    0.000    0.000    0.000    0.000 
#
# Total GULP energy -267559.824890 kJ/mol
# GULP energy per Si atom -5574.163019 kJ/mol
# Density = 1.780001 g / cm^3
# Si number density = 17.840620 Si / 1000 Ang^3
#
#
#
# Elastic Constant Matrix: (Units=GPa)
#
#
# Indices 1 2 3 4 5 6 
#
# 1 32.3574 62.7654 19.5163 0.0000 0.0000 0.0000
# 2 62.7654 231.1651 63.8915 0.0000 0.0000 0.0000
# 3 19.5163 63.8915 95.6573 0.0000 0.0000 0.0000
# 4 0.0000 0.0000 0.0000 28.2929 0.0000 0.0000
# 5 0.0000 0.0000 0.0000 0.0000 10.1157 0.0000
# 6 0.0000 0.0000 0.0000 0.0000 0.0000 -14.2429
#
#
#
# Elastic Compliance Matrix: (Units=1/GPa)
#
#
# Indices 1 2 3 4 5 6 
#
# 1 0.065552 -0.017295 -0.001823 0.000000 0.000000 0.000000
# 2 -0.017295 0.009868 -0.003063 0.000000 0.000000 0.000000
# 3 -0.001823 -0.003063 0.012871 0.000000 0.000000 0.000000
# 4 0.000000 0.000000 0.000000 0.035345 0.000000 0.000000
# 5 0.000000 0.000000 0.000000 0.000000 0.098856 0.000000
# 6 0.000000 0.000000 0.000000 0.000000 0.000000 -0.070211
#
#
# Mechanical properties :
#
#
# Convention : Reuss Voigt Hill
#
# Bulk Modulus (GPa) = 22.76277 72.39182 47.57730
# Shear Modulus (GPa) = 23.66475 19.03359 21.34917
#
# Velocity S-wave (km/s) = 3.64600 3.26984 3.46303
# Velocity P-wave (km/s) = 5.52369 7.41086 6.53575
#
# Compressibility (1/GPa) = 0.04393138
#
# Stress axis : x y z
#
# Youngs Moduli (GPa) = 15.25518 101.33553 77.69136
#
# Poissons Ratio (x) = 1.75256 0.14160
# Poissons Ratio (y) = 0.26383 0.23794
# Poissons Ratio (z) = 0.02780 0.31036
#
# Static dielectric constant tensor:
#      x y z
#    x 1.582240 0.000000 0.000000 
#    y 0.000000 1.664370 0.000000 
#    z 0.000000 0.000000 1.602980 
# 
# From -- ./inp_files/4895.got.cif
#   From: 2010.05.17/outbox.cif.g08.bks.cpg/sg49_3_cif.got.tgz:4895.got - 2010.06.03 21:02:19.
