data_PCOD9392691
_publ_section_title
;
Structure prediction by ZEFSAII (Michael W. Deem and Ramdas Pophale) SiO2 
 PCOD9392691
Probable space group: P C C M
;
_chemical_formula_sum "Si O2"
_cell_formula_units_Z 56
_cell_length_a 14.411319
_cell_length_b 20.731078
_cell_length_c 9.573683
_cell_angle_alpha 90.000000
_cell_angle_beta 90.000000
_cell_angle_gamma 90.000000
_cell_volume 2860.254387
_symmetry_space_group_name_H-M "P C C M"
_symmetry_group_IT_number 49
_symmetry_cell_setting 'orthorhombic'
loop_
_space_group_symop_operation_xyz
x,y,z
-x,-y,z
x,-y,1/2-z
-x,y,1/2-z
-x,-y,-z
x,y,-z
-x,y,1/2+z
x,-y,1/2+z
loop_
_atom_site_type_symbol
_atom_site_label
_atom_site_fract_x
_atom_site_fract_y
_atom_site_fract_z
Si Si1 0.225679 0.558046 0.834397
Si Si2 0.798002 0.707078 0.654842
Si Si3 0.095565 0.190990 0.165983
Si Si4 0.407330 0.589692 0.657626
Si Si5 0.390819 0.265671 0.781035
Si Si6 0.592571 0.120571 0.341207
Si Si7 0.785357 0.937773 0.166602
O O1 0.176147 0.500000 0.750000
O O2 0.185310 0.630622 0.825421
O O3 0.323055 0.565131 0.752090
O O4 0.235705 0.543529 0.000000
O O5 0.831224 0.725377 0.500000
O O6 0.846032 0.749185 0.773209
O O7 0.687331 0.722275 0.663592
O O8 0.152468 0.125201 0.192177
O O9 0.000000 0.188600 0.250000
O O10 0.081716 0.197512 0.000000
O O11 0.500000 0.581182 0.750000
O O12 0.414020 0.562419 0.500000
O O13 0.387506 0.666180 0.641276
O O14 0.500000 0.260711 0.750000
O O15 0.371902 0.195162 0.842923
O O16 0.500000 0.114950 0.250000
O O17 0.570309 0.102470 0.500000
O O18 0.679662 0.079112 0.289980
O O19 0.818564 0.000000 0.250000
O O20 0.785205 0.949550 0.000000
#
# Coordination Sequence:
#
# PCOD9392691 Si02
#       7
#     8   8   8   8   8   8   8
#     4  10  21  36  54  80 114 152 197 241 290 354
#     4  10  21  38  62  91 122 158 201 248 299 357
#     4  11  24  44  68  95 124 153 194 246 303 366
#     4  10  19  30  47  71 105 150 197 249 302 351
#     4   9  18  31  51  82 119 154 198 245 296 348
#     4  10  20  35  54  82 119 160 206 248 293 346
#     4  10  23  42  62  88 124 162 202 248 297 355
#
# _framework density 19.578679000000001
#
# number of rings (size 3 to 8) (size 9 to 14) (size 15 to 20)
#    0.000    2.000    1.429    1.714    0.000   11.143 
#    0.000    4.286    0.000    0.429    0.000    3.000 
#    0.000    0.000    0.000    0.000    0.000    0.000 
#
# Total GULP energy -312051.357862 kJ/mol
# GULP energy per Si atom -5572.345676 kJ/mol
# Density = 1.953412 g / cm^3
# Si number density = 19.578679 Si / 1000 Ang^3
#
#
#
# Elastic Constant Matrix: (Units=GPa)
#
#
# Indices 1 2 3 4 5 6 
#
# 1 67.8927 30.6538 46.6360 0.0000 0.0000 0.0000
# 2 30.6538 109.8808 60.4743 0.0000 0.0000 0.0000
# 3 46.6360 60.4743 133.1255 0.0000 0.0000 0.0000
# 4 0.0000 0.0000 0.0000 24.1708 0.0000 0.0000
# 5 0.0000 0.0000 0.0000 0.0000 -4.2250 0.0000
# 6 0.0000 0.0000 0.0000 0.0000 0.0000 53.7651
#
#
#
# Elastic Compliance Matrix: (Units=1/GPa)
#
#
# Indices 1 2 3 4 5 6 
#
# 1 0.019815 -0.002277 -0.005907 0.000000 0.000000 0.000000
# 2 -0.002277 0.012396 -0.004834 0.000000 0.000000 0.000000
# 3 -0.005907 -0.004834 0.011777 0.000000 0.000000 0.000000
# 4 0.000000 0.000000 0.000000 0.041372 0.000000 0.000000
# 5 0.000000 0.000000 0.000000 0.000000 -0.236686 0.000000
# 6 0.000000 0.000000 0.000000 0.000000 0.000000 0.018599
#
#
# Mechanical properties :
#
#
# Convention : Reuss Voigt Hill
#
# Bulk Modulus (GPa) = 55.70165 65.15856 60.43011
# Shear Modulus (GPa) = -49.64868 26.28449 -11.68210
#
# Velocity S-wave (km/s) = -5.04119 3.66800 -2.44534
# Velocity P-wave (km/s) = 2.31795 7.16181 4.79159
#
# Compressibility (1/GPa) = 0.01795279
#
# Stress axis : x y z
#
# Youngs Moduli (GPa) = 50.46740 80.67038 84.91254
#
# Poissons Ratio (x) = 0.18366 0.50160
# Poissons Ratio (y) = 0.11490 0.41043
# Poissons Ratio (z) = 0.29812 0.38993
#
# Static dielectric constant tensor:
#      x y z
#    x 1.697100 0.000000 0.000000 
#    y 0.000000 1.729130 0.000000 
#    z 0.000000 0.000000 1.658560 
# 
# From -- ./inp_files/4063.got.cif
#   From: 2010.05.17/outbox.cif.g08.bks.cpg/sg49_3_cif.got.tgz:4063.got - 2010.06.03 21:02:19.
