data_PCOD9392134
_publ_section_title
;
Structure prediction by ZEFSAII (Michael W. Deem and Ramdas Pophale) SiO2 
 PCOD9392134
Probable space group: P C C M
;
_chemical_formula_sum "Si O2"
_cell_formula_units_Z 48
_cell_length_a 32.980690
_cell_length_b 9.592327
_cell_length_c 8.447881
_cell_angle_alpha 90.000000
_cell_angle_beta 90.000000
_cell_angle_gamma 90.000000
_cell_volume 2672.584839
_symmetry_space_group_name_H-M "P C C M"
_symmetry_group_IT_number 49
_symmetry_cell_setting 'orthorhombic'
loop_
_space_group_symop_operation_xyz
x,y,z
-x,-y,z
x,-y,1/2-z
-x,y,1/2-z
-x,-y,-z
x,y,-z
-x,y,1/2+z
x,-y,1/2+z
loop_
_atom_site_type_symbol
_atom_site_label
_atom_site_fract_x
_atom_site_fract_y
_atom_site_fract_z
Si Si1 0.127647 0.158698 0.809964
Si Si2 0.957844 0.160045 0.188227
Si Si3 0.292246 0.659483 0.309073
Si Si4 0.380547 0.341200 0.808421
Si Si5 0.203868 0.658883 0.308450
Si Si6 0.543567 0.841976 0.190029
O O1 0.084735 0.219348 0.749532
O O2 0.166117 0.248356 0.754837
O O3 0.131420 0.000000 0.750000
O O4 0.126602 0.156346 0.000000
O O5 0.000000 0.224025 0.250000
O O6 0.957586 0.000000 0.250000
O O7 0.958237 0.158259 0.000000
O O8 0.292287 0.500000 0.250000
O O9 0.292231 0.661020 0.500000
O O10 0.336138 0.716774 0.257358
O O11 0.248323 0.716312 0.257233
O O12 0.384076 0.500000 0.750000
O O13 0.418538 0.250056 0.753922
O O14 0.381124 0.342674 0.000000
O O15 0.200107 0.500000 0.250000
O O16 0.203300 0.657127 0.500000
O O17 0.500000 0.788721 0.250000
O O18 0.547958 0.000000 0.250000
O O19 0.542977 0.843098 0.000000
#
# Coordination Sequence:
#
# PCOD9392134 Si02
#       6
#     8   8   8   8   8   8
#     4  10  19  31  46  69  97 125 155 192 233 275
#     4  10  17  27  44  66  91 121 154 192 233 277
#     4   8  14  28  47  68  92 120 152 190 230 273
#     4   9  18  31  50  73  96 120 153 194 237 277
#     4   9  18  31  50  71  94 124 159 193 230 276
#     4  10  20  34  50  69  93 126 160 193 231 279
#
# _framework density 17.960141
#
# number of rings (size 3 to 8) (size 9 to 14) (size 15 to 20)
#    0.000    2.667    0.000    4.500    0.000    3.000 
#    0.000    2.500    0.000    0.500    0.000    3.500 
#    0.000    0.000    0.000    0.000    0.000    0.000 
#
# Total GULP energy -267296.033763 kJ/mol
# GULP energy per Si atom -5568.667370 kJ/mol
# Density = 1.791926 g / cm^3
# Si number density = 17.960141 Si / 1000 Ang^3
#
#
#
# Elastic Constant Matrix: (Units=GPa)
#
#
# Indices 1 2 3 4 5 6 
#
# 1 244.6280 64.5836 35.2014 0.0000 0.0000 0.0000
# 2 64.5836 34.6216 8.4700 0.0000 0.0000 0.0000
# 3 35.2014 8.4700 46.9602 0.0000 0.0000 0.0000
# 4 0.0000 0.0000 0.0000 16.2404 0.0000 0.0000
# 5 0.0000 0.0000 0.0000 0.0000 24.6642 0.0000
# 6 0.0000 0.0000 0.0000 0.0000 0.0000 30.8506
#
#
#
# Elastic Compliance Matrix: (Units=1/GPa)
#
#
# Indices 1 2 3 4 5 6 
#
# 1 0.008638 -0.015200 -0.003733 0.000000 0.000000 0.000000
# 2 -0.015200 0.056964 0.001120 0.000000 0.000000 0.000000
# 3 -0.003733 0.001120 0.023891 0.000000 0.000000 0.000000
# 4 0.000000 0.000000 0.000000 0.061575 0.000000 0.000000
# 5 0.000000 0.000000 0.000000 0.000000 0.040545 0.000000
# 6 0.000000 0.000000 0.000000 0.000000 0.000000 0.032414
#
#
# Mechanical properties :
#
#
# Convention : Reuss Voigt Hill
#
# Bulk Modulus (GPa) = 18.56469 60.30220 39.43344
# Shear Modulus (GPa) = 18.01084 28.88136 23.44610
#
# Velocity S-wave (km/s) = 3.17017 4.01444 3.61702
# Velocity P-wave (km/s) = 4.87433 7.42537 6.28073
#
# Compressibility (1/GPa) = 0.05386570
#
# Stress axis : x y z
#
# Youngs Moduli (GPa) = 115.76724 17.55484 41.85619
#
# Poissons Ratio (x) = 0.26684 0.15627
# Poissons Ratio (y) = 1.75968 -0.04686
# Poissons Ratio (z) = 0.43222 -0.01965
#
# Static dielectric constant tensor:
#      x y z
#    x 1.698630 0.000000 0.000000 
#    y 0.000000 1.561310 0.000000 
#    z 0.000000 0.000000 1.613910 
# 
# From -- ./inp_files/6945.got.cif
#   From: 2010.05.17/outbox.cif.g08.bks.cpg/sg49_4_cif.got.tgz:6945.got - 2010.06.03 21:02:19.
