data_PCOD9392470
_publ_section_title
;
Structure prediction by ZEFSAII (Michael W. Deem and Ramdas Pophale) SiO2 
 PCOD9392470
Probable space group: P C C M
;
_chemical_formula_sum "Si O2"
_cell_formula_units_Z 64
_cell_length_a 18.893932
_cell_length_b 23.468115
_cell_length_c 8.861341
_cell_angle_alpha 90.000000
_cell_angle_beta 90.000000
_cell_angle_gamma 90.000000
_cell_volume 3929.162631
_symmetry_space_group_name_H-M "P C C M"
_symmetry_group_IT_number 49
_symmetry_cell_setting 'orthorhombic'
loop_
_space_group_symop_operation_xyz
x,y,z
-x,-y,z
x,-y,1/2-z
-x,y,1/2-z
-x,-y,-z
x,y,-z
-x,y,1/2+z
x,-y,1/2+z
loop_
_atom_site_type_symbol
_atom_site_label
_atom_site_fract_x
_atom_site_fract_y
_atom_site_fract_z
Si Si1 0.778572 0.443460 0.822071
Si Si2 0.190719 0.154476 0.328663
Si Si3 0.076179 0.063495 0.315828
Si Si4 0.067909 0.751235 0.171409
Si Si5 0.621966 0.440628 0.681276
Si Si6 0.837557 0.335337 0.675372
Si Si7 0.711462 0.757005 0.822422
Si Si8 0.425238 0.686497 0.682707
O O1 0.811317 0.500000 0.750000
O O2 0.702546 0.436579 0.740491
O O3 0.823807 0.388732 0.780971
O O4 0.767851 0.449834 0.000000
O O5 0.211727 0.140649 0.500000
O O6 0.144482 0.101259 0.268420
O O7 0.131130 0.203701 0.331993
O O8 0.257099 0.185026 0.248523
O O9 0.072411 0.063851 0.500000
O O10 0.000000 0.083932 0.250000
O O11 0.084714 0.000000 0.250000
O O12 0.093851 0.698745 0.271846
O O13 0.000000 0.777558 0.250000
O O14 0.052842 0.734236 0.000000
O O15 0.592574 0.500000 0.750000
O O16 0.621073 0.444970 0.500000
O O17 0.587508 0.380135 0.725590
O O18 0.840325 0.351881 0.500000
O O19 0.771485 0.291872 0.693962
O O20 0.639022 0.727609 0.765374
O O21 0.702599 0.767428 0.000000
O O22 0.500000 0.704765 0.750000
O O23 0.426207 0.687864 0.500000
#
# Coordination Sequence:
#
# PCOD9392470 Si02
#       8
#     8   8   8   8   8   8   8   8
#     4  11  20  30  47  69  89 113 147 187 232 283
#     4   9  19  32  48  71  98 128 167 207 238 275
#     4  10  19  31  47  71 105 142 178 210 239 279
#     4  10  19  31  46  69  95 122 156 192 235 280
#     4  10  19  33  48  66  92 119 155 195 237 290
#     4  10  18  32  50  67  90 117 147 191 237 279
#     4   9  18  33  50  68  93 122 158 199 241 286
#     4  10  21  35  49  68  95 126 159 198 243 297
#
# _framework density 16.288457000000001
#
# number of rings (size 3 to 8) (size 9 to 14) (size 15 to 20)
#    0.000    2.125    1.250    4.125    0.000    3.750 
#    0.000    1.250    0.000    0.375    0.000    2.625 
#    0.000    0.500    0.000    5.500    0.000    4.000 
#
# Total GULP energy -356597.061334 kJ/mol
# GULP energy per Si atom -5571.829083 kJ/mol
# Density = 1.625138 g / cm^3
# Si number density = 16.288457 Si / 1000 Ang^3
#
#
#
# Elastic Constant Matrix: (Units=GPa)
#
#
# Indices 1 2 3 4 5 6 
#
# 1 66.8907 41.0496 26.8039 0.0000 0.0000 0.0000
# 2 41.0496 78.8096 24.9915 0.0000 0.0000 0.0000
# 3 26.8039 24.9915 52.2101 0.0000 0.0000 0.0000
# 4 0.0000 0.0000 0.0000 20.6302 0.0000 0.0000
# 5 0.0000 0.0000 0.0000 0.0000 21.6349 0.0000
# 6 0.0000 0.0000 0.0000 0.0000 0.0000 18.8058
#
#
#
# Elastic Compliance Matrix: (Units=1/GPa)
#
#
# Indices 1 2 3 4 5 6 
#
# 1 0.024262 -0.010242 -0.007553 0.000000 0.000000 0.000000
# 2 -0.010242 0.019283 -0.003972 0.000000 0.000000 0.000000
# 3 -0.007553 -0.003972 0.024932 0.000000 0.000000 0.000000
# 4 0.000000 0.000000 0.000000 0.048473 0.000000 0.000000
# 5 0.000000 0.000000 0.000000 0.000000 0.046222 0.000000
# 6 0.000000 0.000000 0.000000 0.000000 0.000000 0.053175
#
#
# Mechanical properties :
#
#
# Convention : Reuss Voigt Hill
#
# Bulk Modulus (GPa) = 40.09182 42.62225 41.35703
# Shear Modulus (GPa) = 18.64313 19.21855 18.93084
#
# Velocity S-wave (km/s) = 3.38681 3.43868 3.41284
# Velocity P-wave (km/s) = 6.32147 6.47996 6.40121
#
# Compressibility (1/GPa) = 0.02494275
#
# Stress axis : x y z
#
# Youngs Moduli (GPa) = 41.21724 51.85851 40.10851
#
# Poissons Ratio (x) = 0.53114 0.30294
# Poissons Ratio (y) = 0.42215 0.15932
# Poissons Ratio (z) = 0.31131 0.20599
#
# Static dielectric constant tensor:
#      x y z
#    x 1.552670 0.000000 0.000000 
#    y 0.000000 1.567430 0.000000 
#    z 0.000000 0.000000 1.558190 
# 
# From -- ./inp_files/5389.got.cif
#   From: 2010.05.17/outbox.cif.g08.bks.cpg/sg49_3_cif.got.tgz:5389.got - 2010.06.03 21:02:19.
