data_PCOD9392377
_publ_section_title
;
Structure prediction by ZEFSAII (Michael W. Deem and Ramdas Pophale) SiO2 
 PCOD9392377
Probable space group: P C C M
;
_chemical_formula_sum "Si O2"
_cell_formula_units_Z 56
_cell_length_a 19.027467
_cell_length_b 21.764229
_cell_length_c 8.757539
_cell_angle_alpha 90.000000
_cell_angle_beta 90.000000
_cell_angle_gamma 90.000000
_cell_volume 3626.655841
_symmetry_space_group_name_H-M "P C C M"
_symmetry_group_IT_number 49
_symmetry_cell_setting 'orthorhombic'
loop_
_space_group_symop_operation_xyz
x,y,z
-x,-y,z
x,-y,1/2-z
-x,y,1/2-z
-x,-y,-z
x,y,-z
-x,y,1/2+z
x,-y,1/2+z
loop_
_atom_site_type_symbol
_atom_site_label
_atom_site_fract_x
_atom_site_fract_y
_atom_site_fract_z
Si Si1 0.577343 0.695925 0.815815
Si Si2 0.348046 0.817722 0.181466
Si Si3 0.577908 0.934501 0.817695
Si Si4 0.216604 0.256304 0.681481
Si Si5 0.159390 0.435556 0.318191
Si Si6 0.076349 0.312756 0.682193
Si Si7 0.711383 0.625653 0.179388
O O1 0.500000 0.686297 0.750000
O O2 0.609109 0.758866 0.745500
O O3 0.630914 0.640141 0.776393
O O4 0.576083 0.701616 0.000000
O O5 0.373504 0.878706 0.264541
O O6 0.265302 0.802772 0.204622
O O7 0.361115 0.822586 0.000000
O O8 0.500000 0.923176 0.750000
O O9 0.601543 0.000000 0.750000
O O10 0.573724 0.937976 0.000000
O O11 0.224147 0.273100 0.500000
O O12 0.134001 0.259746 0.715873
O O13 0.251338 0.309438 0.782731
O O14 0.135211 0.500000 0.250000
O O15 0.156616 0.437812 0.500000
O O16 0.111859 0.377471 0.266567
O O17 0.239741 0.422334 0.267324
O O18 0.069483 0.316292 0.500000
O O19 0.000000 0.303336 0.750000
O O20 0.714472 0.612182 0.000000
#
# Coordination Sequence:
#
# PCOD9392377 Si02
#       7
#     8   8   8   8   8   8   8
#     4  10  19  29  43  65  89 113 143 181 223 267
#     4  10  18  30  47  65  88 119 153 189 224 260
#     4  11  21  33  46  63  90 124 161 195 229 267
#     4   8  16  30  46  64  88 117 148 179 217 262
#     4  10  20  33  48  65  86 113 147 179 213 258
#     4   9  18  31  46  67  93 120 145 174 213 258
#     4   9  17  29  45  64  85 109 141 179 220 261
#
# _framework density 15.441222
#
# number of rings (size 3 to 8) (size 9 to 14) (size 15 to 20)
#    0.000    2.429    0.000    4.714    0.000    5.429 
#    0.000    1.429    0.000    0.429    0.000    3.000 
#    0.000    0.571    0.000    6.571    0.000    2.000 
#
# Total GULP energy -311945.408438 kJ/mol
# GULP energy per Si atom -5570.453722 kJ/mol
# Density = 1.540608 g / cm^3
# Si number density = 15.441222 Si / 1000 Ang^3
#
#
#
# Elastic Constant Matrix: (Units=GPa)
#
#
# Indices 1 2 3 4 5 6 
#
# 1 117.6561 22.5297 29.6029 0.0000 0.0000 0.0000
# 2 22.5297 31.1650 15.7801 0.0000 0.0000 0.0000
# 3 29.6029 15.7801 57.9914 0.0000 0.0000 0.0000
# 4 0.0000 0.0000 0.0000 17.8682 0.0000 0.0000
# 5 0.0000 0.0000 0.0000 0.0000 24.3053 0.0000
# 6 0.0000 0.0000 0.0000 0.0000 0.0000 14.6673
#
#
#
# Elastic Compliance Matrix: (Units=1/GPa)
#
#
# Indices 1 2 3 4 5 6 
#
# 1 0.010554 -0.005685 -0.003841 0.000000 0.000000 0.000000
# 2 -0.005685 0.040277 -0.008058 0.000000 0.000000 0.000000
# 3 -0.003841 -0.008058 0.021397 0.000000 0.000000 0.000000
# 4 0.000000 0.000000 0.000000 0.055965 0.000000 0.000000
# 5 0.000000 0.000000 0.000000 0.000000 0.041143 0.000000
# 6 0.000000 0.000000 0.000000 0.000000 0.000000 0.068179
#
#
# Mechanical properties :
#
#
# Convention : Reuss Voigt Hill
#
# Bulk Modulus (GPa) = 26.98228 38.07086 32.52657
# Shear Modulus (GPa) = 17.54157 20.62815 19.08486
#
# Velocity S-wave (km/s) = 3.37415 3.65898 3.51945
# Velocity P-wave (km/s) = 5.71769 6.52378 6.13399
#
# Compressibility (1/GPa) = 0.03706136
#
# Stress axis : x y z
#
# Youngs Moduli (GPa) = 94.74788 24.82793 46.73533
#
# Poissons Ratio (x) = 0.14115 0.17949
# Poissons Ratio (y) = 0.53866 0.37658
# Poissons Ratio (z) = 0.36389 0.20006
#
# Static dielectric constant tensor:
#      x y z
#    x 1.536900 0.000000 0.000000 
#    y 0.000000 1.504480 0.000000 
#    z 0.000000 0.000000 1.521990 
# 
# From -- ./inp_files/5156.got.cif
#   From: 2010.05.17/outbox.cif.g08.bks.cpg/sg49_3_cif.got.tgz:5156.got - 2010.06.03 21:02:19.
