data_PCOD9392449
_publ_section_title
;
Structure prediction by ZEFSAII (Michael W. Deem and Ramdas Pophale) SiO2 
 PCOD9392449
Probable space group: P C C M
;
_chemical_formula_sum "Si O2"
_cell_formula_units_Z 56
_cell_length_a 20.742346
_cell_length_b 15.818461
_cell_length_c 8.701936
_cell_angle_alpha 90.000000
_cell_angle_beta 90.000000
_cell_angle_gamma 90.000000
_cell_volume 2855.209549
_symmetry_space_group_name_H-M "P C C M"
_symmetry_group_IT_number 49
_symmetry_cell_setting 'orthorhombic'
loop_
_space_group_symop_operation_xyz
x,y,z
-x,-y,z
x,-y,1/2-z
-x,y,1/2-z
-x,-y,-z
x,y,-z
-x,y,1/2+z
x,-y,1/2+z
loop_
_atom_site_type_symbol
_atom_site_label
_atom_site_fract_x
_atom_site_fract_y
_atom_site_fract_z
Si Si1 0.708745 0.311536 0.684461
Si Si2 0.261822 0.131277 0.317324
Si Si3 0.832932 0.590925 0.182902
Si Si4 0.116444 0.087770 0.684464
Si Si5 0.566361 0.725913 0.815653
Si Si6 0.930867 0.271802 0.184766
Si Si7 0.396971 0.913334 0.682056
O O1 0.711062 0.293290 0.500000
O O2 0.735105 0.230181 0.774745
O O3 0.757898 0.387098 0.715469
O O4 0.633344 0.320488 0.725586
O O5 0.270844 0.119446 0.500000
O O6 0.192013 0.096523 0.272240
O O7 0.321569 0.091732 0.226860
O O8 0.850138 0.500000 0.250000
O O9 0.876476 0.664886 0.254068
O O10 0.841777 0.591055 0.000000
O O11 0.113056 0.084754 0.500000
O O12 0.083287 0.175018 0.735517
O O13 0.090241 0.000000 0.750000
O O14 0.500000 0.690797 0.750000
O O15 0.574470 0.823858 0.761153
O O16 0.562230 0.727124 0.000000
O O17 0.000000 0.297861 0.250000
O O18 0.930748 0.273569 0.000000
O O19 0.403763 0.915585 0.500000
O O20 0.423899 0.000000 0.750000
#
# Coordination Sequence:
#
# PCOD9392449 Si02
#       7
#     8   8   8   8   8   8   8
#     4   9  19  36  58  84 116 152 190 236 292 349
#     4  10  18  31  52  79 109 147 192 243 296 346
#     4  11  23  41  68  98 125 157 193 242 300 359
#     4  10  22  36  55  83 118 157 202 251 294 345
#     4   9  19  34  51  75 107 146 192 238 288 351
#     4  11  24  44  64  90 125 162 204 249 298 355
#     4  10  20  32  45  68 103 143 190 245 297 350
#
# _framework density 19.61327
#
# number of rings (size 3 to 8) (size 9 to 14) (size 15 to 20)
#    0.000    2.000    1.429    3.000    0.000    7.714 
#    0.000    4.286    0.000    0.429    0.000    3.000 
#    0.000    0.000    0.000    0.000    0.000    0.000 
#
# Total GULP energy -312655.418326 kJ/mol
# GULP energy per Si atom -5583.132470 kJ/mol
# Density = 1.956863 g / cm^3
# Si number density = 19.613270 Si / 1000 Ang^3
#
#
#
# Elastic Constant Matrix: (Units=GPa)
#
#
# Indices 1 2 3 4 5 6 
#
# 1 115.0913 37.8805 26.5805 0.0000 0.0000 0.0000
# 2 37.8805 93.9269 25.7528 0.0000 0.0000 0.0000
# 3 26.5805 25.7528 29.5567 0.0000 0.0000 0.0000
# 4 0.0000 0.0000 0.0000 -2.1841 0.0000 0.0000
# 5 0.0000 0.0000 0.0000 0.0000 11.8204 0.0000
# 6 0.0000 0.0000 0.0000 0.0000 0.0000 -9.6409
#
#
#
# Elastic Compliance Matrix: (Units=1/GPa)
#
#
# Indices 1 2 3 4 5 6 
#
# 1 0.011344 -0.002336 -0.008166 0.000000 0.000000 0.000000
# 2 -0.002336 0.014469 -0.010507 0.000000 0.000000 0.000000
# 3 -0.008166 -0.010507 0.050332 0.000000 0.000000 0.000000
# 4 0.000000 0.000000 0.000000 -0.457856 0.000000 0.000000
# 5 0.000000 0.000000 0.000000 0.000000 0.084600 0.000000
# 6 0.000000 0.000000 0.000000 0.000000 0.000000 -0.103724
#
#
# Mechanical properties :
#
#
# Convention : Reuss Voigt Hill
#
# Bulk Modulus (GPa) = 29.30192 46.55584 37.92888
# Shear Modulus (GPa) = -14.39082 9.88981 -2.25051
#
# Velocity S-wave (km/s) = -2.71168 2.24797 -1.07235
# Velocity P-wave (km/s) = 2.27332 5.52506 4.22459
#
# Compressibility (1/GPa) = 0.03412745
#
# Stress axis : x y z
#
# Youngs Moduli (GPa) = 88.15603 69.11191 19.86827
#
# Poissons Ratio (x) = 0.16143 0.16225
# Poissons Ratio (y) = 0.20592 0.20875
# Poissons Ratio (z) = 0.71989 0.72613
#
# Static dielectric constant tensor:
#      x y z
#    x 1.700140 0.000000 0.000000 
#    y 0.000000 1.688730 0.000000 
#    z 0.000000 0.000000 1.660240 
# 
# From -- ./inp_files/5785.got.cif
#   From: 2010.05.17/outbox.cif.g08.bks.cpg/sg49_3_cif.got.tgz:5785.got - 2010.06.03 21:02:19.
