data_PCOD9392729
_publ_section_title
;
Structure prediction by ZEFSAII (Michael W. Deem and Ramdas Pophale) SiO2 
 PCOD9392729
Probable space group: P C C M
;
_chemical_formula_sum "Si O2"
_cell_formula_units_Z 64
_cell_length_a 20.455911
_cell_length_b 20.278454
_cell_length_c 8.820367
_cell_angle_alpha 90.000000
_cell_angle_beta 90.000000
_cell_angle_gamma 90.000000
_cell_volume 3658.813924
_symmetry_space_group_name_H-M "P C C M"
_symmetry_group_IT_number 49
_symmetry_cell_setting 'orthorhombic'
loop_
_space_group_symop_operation_xyz
x,y,z
-x,-y,z
x,-y,1/2-z
-x,y,1/2-z
-x,-y,-z
x,y,-z
-x,y,1/2+z
x,-y,1/2+z
loop_
_atom_site_type_symbol
_atom_site_label
_atom_site_fract_x
_atom_site_fract_y
_atom_site_fract_z
Si Si1 0.100749 0.068614 0.177845
Si Si2 0.569534 0.572969 0.181532
Si Si3 0.932654 0.790369 0.318117
Si Si4 0.791869 0.251320 0.181700
Si Si5 0.433760 0.205005 0.320280
Si Si6 0.389398 0.931769 0.680611
Si Si7 0.753596 0.114060 0.322684
Si Si8 0.666491 0.677987 0.682194
O O1 0.075428 0.134194 0.260725
O O2 0.179708 0.073171 0.192603
O O3 0.078498 0.000000 0.250000
O O4 0.083964 0.071674 0.000000
O O5 0.579541 0.500000 0.250000
O O6 0.500000 0.596774 0.250000
O O7 0.627976 0.620233 0.234208
O O8 0.564855 0.570117 0.000000
O O9 0.935178 0.790320 0.500000
O O10 0.867316 0.751318 0.266474
O O11 0.000000 0.764014 0.250000
O O12 0.762601 0.180474 0.227801
O O13 0.740801 0.307036 0.233379
O O14 0.792931 0.254947 0.000000
O O15 0.500000 0.233323 0.250000
O O16 0.440536 0.197767 0.500000
O O17 0.421749 0.133822 0.246797
O O18 0.374475 0.254892 0.290095
O O19 0.396788 0.933104 0.500000
O O20 0.312221 0.923700 0.719428
O O21 0.414059 0.000000 0.750000
O O22 0.747782 0.132716 0.500000
O O23 0.665502 0.666023 0.500000
#
# Coordination Sequence:
#
# PCOD9392729 Si02
#       8
#     8   8   8   8   8   8   8   8
#     4  10  19  31  46  67  92 121 159 204 257 319
#     4  11  22  37  58  85 120 159 193 225 261 307
#     4  10  20  34  51  71  98 132 167 208 261 317
#     4   9  18  33  54  77 102 133 169 212 260 309
#     4  11  23  38  55  74  99 130 168 214 265 316
#     4  11  22  35  51  70  93 123 163 212 269 326
#     4   9  18  31  48  70  95 122 157 206 260 317
#     4  10  20  36  58  84 111 141 179 221 263 310
#
# _framework density 17.492007999999998
#
# number of rings (size 3 to 8) (size 9 to 14) (size 15 to 20)
#    0.000    1.875    1.250    3.750    0.000    4.500 
#    0.000    2.500    0.000    0.000    0.000    0.000 
#    0.000    0.500    0.000    5.750    0.000    1.750 
#
# Total GULP energy -357343.908375 kJ/mol
# GULP energy per Si atom -5583.498568 kJ/mol
# Density = 1.745220 g / cm^3
# Si number density = 17.492008 Si / 1000 Ang^3
#
#
#
# Elastic Constant Matrix: (Units=GPa)
#
#
# Indices 1 2 3 4 5 6 
#
# 1 124.2376 42.8242 47.8678 0.0000 0.0000 0.0000
# 2 42.8242 71.5046 35.6592 0.0000 0.0000 0.0000
# 3 47.8678 35.6592 57.4202 0.0000 0.0000 0.0000
# 4 0.0000 0.0000 0.0000 21.5819 0.0000 0.0000
# 5 0.0000 0.0000 0.0000 0.0000 33.1418 0.0000
# 6 0.0000 0.0000 0.0000 0.0000 0.0000 -27.0565
#
#
#
# Elastic Compliance Matrix: (Units=1/GPa)
#
#
# Indices 1 2 3 4 5 6 
#
# 1 0.012367 -0.003282 -0.008272 0.000000 0.000000 0.000000
# 2 -0.003282 0.021130 -0.010387 0.000000 0.000000 0.000000
# 3 -0.008272 -0.010387 0.030762 0.000000 0.000000 0.000000
# 4 0.000000 0.000000 0.000000 0.046335 0.000000 0.000000
# 5 0.000000 0.000000 0.000000 0.000000 0.030173 0.000000
# 6 0.000000 0.000000 0.000000 0.000000 0.000000 -0.036960
#
#
# Mechanical properties :
#
#
# Convention : Reuss Voigt Hill
#
# Bulk Modulus (GPa) = 49.07064 56.20720 52.63892
# Shear Modulus (GPa) = 32.36627 13.98752 23.17689
#
# Velocity S-wave (km/s) = 4.30623 2.83088 3.64400
# Velocity P-wave (km/s) = 7.26904 6.54889 6.91834
#
# Compressibility (1/GPa) = 0.02037878
#
# Stress axis : x y z
#
# Youngs Moduli (GPa) = 80.85777 47.32542 32.50792
#
# Poissons Ratio (x) = 0.15530 0.26891
# Poissons Ratio (y) = 0.26534 0.33765
# Poissons Ratio (z) = 0.66886 0.49155
#
# Static dielectric constant tensor:
#      x y z
#    x 1.664610 0.000000 0.000000 
#    y 0.000000 1.561510 0.000000 
#    z 0.000000 0.000000 1.584520 
# 
# From -- ./inp_files/5996.got.cif
#   From: 2010.05.17/outbox.cif.g08.bks.cpg/sg49_3_cif.got.tgz:5996.got - 2010.06.03 21:02:19.
