data_PCOD9392530
_publ_section_title
;
Structure prediction by ZEFSAII (Michael W. Deem and Ramdas Pophale) SiO2 
 PCOD9392530
Probable space group: P C C M
;
_chemical_formula_sum "Si O2"
_cell_formula_units_Z 48
_cell_length_a 16.357099
_cell_length_b 8.953340
_cell_length_c 14.571171
_cell_angle_alpha 90.000000
_cell_angle_beta 90.000000
_cell_angle_gamma 90.000000
_cell_volume 2133.957738
_symmetry_space_group_name_H-M "P C C M"
_symmetry_group_IT_number 49
_symmetry_cell_setting 'orthorhombic'
loop_
_space_group_symop_operation_xyz
x,y,z
-x,-y,z
x,-y,1/2-z
-x,y,1/2-z
-x,-y,-z
x,y,-z
-x,y,1/2+z
x,-y,1/2+z
loop_
_atom_site_type_symbol
_atom_site_label
_atom_site_fract_x
_atom_site_fract_y
_atom_site_fract_z
Si Si1 0.685211 0.861115 0.110850
Si Si2 0.461738 0.341093 0.887832
Si Si3 0.233654 0.393286 0.335420
Si Si4 0.083139 0.559677 0.355824
Si Si5 0.855364 0.158285 0.285309
Si Si6 0.620660 0.817609 0.390816
O O1 0.626016 0.724786 0.141472
O O2 0.774774 0.855741 0.152586
O O3 0.649713 0.021069 0.141680
O O4 0.688831 0.857635 0.000000
O O5 0.500000 0.500000 0.859376
O O6 0.531146 0.225100 0.857591
O O7 0.457800 0.346085 0.000000
O O8 0.256556 0.500000 0.250000
O O9 0.169681 0.496142 0.392609
O O10 0.178176 0.254806 0.300494
O O11 0.314269 0.315839 0.374639
O O12 0.083474 0.500000 0.250000
O O13 0.083907 0.737338 0.343122
O O14 0.000000 0.500000 0.398266
O O15 0.885780 0.000000 0.250000
O O16 0.613517 0.831799 0.500000
#
# Coordination Sequence:
#
# PCOD9392530 Si02
#       6
#     8   8   8   8   8   8
#     4  10  20  34  54  79 109 146 187 229 272 323
#     4   9  19  32  50  76 103 140 191 233 263 313
#     4   9  19  33  53  77 110 139 171 227 279 326
#     4   8  17  34  54  78 110 136 171 222 265 324
#     4  10  18  33  57  81 110 138 176 223 277 327
#     4  10  19  34  55  75 105 146 190 230 273 322
#
# _framework density 22.493416
#
# number of rings (size 3 to 8) (size 9 to 14) (size 15 to 20)
#    0.000    3.000    1.667    0.500    4.667    2.000 
#    0.000    7.500    0.000    2.000    0.000    2.333 
#    0.000    0.667    0.000    0.000    0.000    0.000 
#
# Total GULP energy -267735.472218 kJ/mol
# GULP energy per Si atom -5577.822338 kJ/mol
# Density = 2.244222 g / cm^3
# Si number density = 22.493416 Si / 1000 Ang^3
#
#
#
# Elastic Constant Matrix: (Units=GPa)
#
#
# Indices 1 2 3 4 5 6 
#
# 1 97.4023 42.8873 15.8723 0.0000 0.0000 0.0000
# 2 42.8873 157.4732 17.3809 0.0000 0.0000 0.0000
# 3 15.8723 17.3809 53.7005 0.0000 0.0000 0.0000
# 4 0.0000 0.0000 0.0000 11.0828 0.0000 0.0000
# 5 0.0000 0.0000 0.0000 0.0000 22.4147 0.0000
# 6 0.0000 0.0000 0.0000 0.0000 0.0000 32.2800
#
#
#
# Elastic Compliance Matrix: (Units=1/GPa)
#
#
# Indices 1 2 3 4 5 6 
#
# 1 0.012001 -0.002984 -0.002582 0.000000 0.000000 0.000000
# 2 -0.002984 0.007327 -0.001490 0.000000 0.000000 0.000000
# 3 -0.002582 -0.001490 0.019867 0.000000 0.000000 0.000000
# 4 0.000000 0.000000 0.000000 0.090230 0.000000 0.000000
# 5 0.000000 0.000000 0.000000 0.000000 0.044614 0.000000
# 6 0.000000 0.000000 0.000000 0.000000 0.000000 0.030979
#
#
# Mechanical properties :
#
#
# Convention : Reuss Voigt Hill
#
# Bulk Modulus (GPa) = 39.86318 51.20634 45.53476
# Shear Modulus (GPa) = 21.97909 28.65119 25.31514
#
# Velocity S-wave (km/s) = 3.12931 3.57285 3.35841
# Velocity P-wave (km/s) = 5.55134 6.31148 5.94357
#
# Compressibility (1/GPa) = 0.02508581
#
# Stress axis : x y z
#
# Youngs Moduli (GPa) = 83.32604 136.47656 50.33470
#
# Poissons Ratio (x) = 0.40718 0.12994
# Poissons Ratio (y) = 0.24860 0.07499
# Poissons Ratio (z) = 0.21511 0.20331
#
# Static dielectric constant tensor:
#      x y z
#    x 1.876990 0.000000 0.000000 
#    y 0.000000 1.879660 0.000000 
#    z 0.000000 0.000000 1.862950 
# 
# From -- ./inp_files/20736.got.cif
#   From: 2010.05.17/outbox.cif.g08.bks.cpg/sg49_11_cif.got.tgz:20736.got - 2010.06.03 21:02:19.
