data_PCOD9392745
_publ_section_title
;
Structure prediction by ZEFSAII (Michael W. Deem and Ramdas Pophale) SiO2 
 PCOD9392745
Probable space group: P C C M
;
_chemical_formula_sum "Si O2"
_cell_formula_units_Z 40
_cell_length_a 5.577827
_cell_length_b 9.610428
_cell_length_c 34.539282
_cell_angle_alpha 90.000000
_cell_angle_beta 90.000000
_cell_angle_gamma 90.000000
_cell_volume 1851.488738
_symmetry_space_group_name_H-M "P C C M"
_symmetry_group_IT_number 49
_symmetry_cell_setting 'orthorhombic'
loop_
_space_group_symop_operation_xyz
x,y,z
-x,-y,z
x,-y,1/2-z
-x,y,1/2-z
-x,-y,-z
x,y,-z
-x,y,1/2+z
x,-y,1/2+z
loop_
_atom_site_type_symbol
_atom_site_label
_atom_site_fract_x
_atom_site_fract_y
_atom_site_fract_z
Si Si1 0.750000 0.341017 0.234754
Si Si2 0.750000 0.488487 0.088774
Si Si3 0.750000 0.778567 0.125281
Si Si4 0.250000 0.245269 0.649098
Si Si5 0.750000 0.086721 0.457518
O O1 0.750000 0.500000 0.250000
O O2 0.500000 0.277497 0.250000
O O3 0.750000 0.332250 0.188542
O O4 0.000000 0.277497 0.250000
O O5 0.500000 0.500000 0.066785
O O6 0.750000 0.608908 0.122251
O O7 0.750000 0.342981 0.111111
O O8 0.000000 0.500000 0.066785
O O9 0.506533 0.828846 0.145528
O O10 0.750000 0.820374 0.080448
O O11 0.993467 0.828846 0.145528
O O12 0.750000 0.156332 0.500000
O O13 0.500000 0.000000 0.455706
O O14 0.000000 0.000000 0.455706
#
# Coordination Sequence:
#
# PCOD9392745 Si02
#       5
#     8   8   8   8   8
#     4  10  21  27  43  67 108 152 174 213 249 300
#     4   8  16  25  44  63  98 133 171 192 239 287
#     4  10  19  31  53  73 101 140 178 206 257 321
#     4  10  19  31  47  73 110 148 175 206 255 295
#     4  10  21  38  59  82 107 129 162 225 291 322
#
# _framework density 21.604237999999999
#
# number of rings (size 3 to 8) (size 9 to 14) (size 15 to 20)
#    0.000    2.400    0.000    2.400   16.800    0.000 
#    0.000    0.000    0.000   10.800    0.000    0.000 
#    0.000   56.000    0.000    0.000    0.000    0.000 
#
# Total GULP energy -222732.789093 kJ/mol
# GULP energy per Si atom -5568.319727 kJ/mol
# Density = 2.155507 g / cm^3
# Si number density = 21.604238 Si / 1000 Ang^3
#
#
#
# Elastic Constant Matrix: (Units=GPa)
#
#
# Indices 1 2 3 4 5 6 
#
# 1 276.3915 11.4989 37.7850 0.0000 0.0000 0.0000
# 2 11.4989 28.8776 12.3878 0.0000 0.0000 0.0000
# 3 37.7850 12.3878 112.3196 0.0000 0.0000 0.0000
# 4 0.0000 0.0000 0.0000 27.2254 0.0000 0.0000
# 5 0.0000 0.0000 0.0000 0.0000 30.0950 0.0000
# 6 0.0000 0.0000 0.0000 0.0000 0.0000 2.8411
#
#
#
# Elastic Compliance Matrix: (Units=1/GPa)
#
#
# Indices 1 2 3 4 5 6 
#
# 1 0.003821 -0.001018 -0.001173 0.000000 0.000000 0.000000
# 2 -0.001018 0.036620 -0.003696 0.000000 0.000000 0.000000
# 3 -0.001173 -0.003696 0.009705 0.000000 0.000000 0.000000
# 4 0.000000 0.000000 0.000000 0.036730 0.000000 0.000000
# 5 0.000000 0.000000 0.000000 0.000000 0.033228 0.000000
# 6 0.000000 0.000000 0.000000 0.000000 0.000000 0.351970
#
#
# Mechanical properties :
#
#
# Convention : Reuss Voigt Hill
#
# Bulk Modulus (GPa) = 26.06128 60.10359 43.08244
# Shear Modulus (GPa) = 10.06764 35.76011 22.91388
#
# Velocity S-wave (km/s) = 2.16105 4.07287 3.26025
# Velocity P-wave (km/s) = 4.27973 7.07095 5.84442
#
# Compressibility (1/GPa) = 0.03837110
#
# Stress axis : x y z
#
# Youngs Moduli (GPa) = 261.72658 27.30749 103.03491
#
# Poissons Ratio (x) = 0.02780 0.12086
# Poissons Ratio (y) = 0.26649 0.38085
# Poissons Ratio (z) = 0.30701 0.10094
#
# Static dielectric constant tensor:
#      x y z
#    x 2.102120 0.000000 0.000000 
#    y 0.000000 1.808440 0.000000 
#    z 0.000000 0.000000 1.708770 
# 
# From -- ./inp_files/23761.got.cif
#   From: 2010.05.17/outbox.cif.g08.bks.cpg/sg49_12_cif.got.tgz:23761.got - 2010.06.03 21:02:19.
