data_PCOD9392543
_publ_section_title
;
Structure prediction by ZEFSAII (Michael W. Deem and Ramdas Pophale) SiO2 
 PCOD9392543
Probable space group: P C C M
;
_chemical_formula_sum "Si O2"
_cell_formula_units_Z 64
_cell_length_a 11.360605
_cell_length_b 15.833460
_cell_length_c 16.843768
_cell_angle_alpha 90.000000
_cell_angle_beta 90.000000
_cell_angle_gamma 90.000000
_cell_volume 3029.817992
_symmetry_space_group_name_H-M "P C C M"
_symmetry_group_IT_number 49
_symmetry_cell_setting 'orthorhombic'
loop_
_space_group_symop_operation_xyz
x,y,z
-x,-y,z
x,-y,1/2-z
-x,y,1/2-z
-x,-y,-z
x,y,-z
-x,y,1/2+z
x,-y,1/2+z
loop_
_atom_site_type_symbol
_atom_site_label
_atom_site_fract_x
_atom_site_fract_y
_atom_site_fract_z
Si Si1 0.561109 0.859818 0.588925
Si Si2 0.723812 0.085855 0.204728
Si Si3 0.002425 0.275623 0.154430
Si Si4 0.613289 0.770635 0.191896
Si Si5 0.739435 0.299770 0.907092
Si Si6 0.627531 0.470296 0.904319
Si Si7 0.026221 0.092330 0.655178
Si Si8 0.766037 0.361266 0.594781
O O1 0.559877 0.890565 0.500000
O O2 0.608540 0.926437 0.651905
O O3 0.439189 0.822974 0.618392
O O4 0.653586 0.781209 0.596348
O O5 0.699362 0.165557 0.261273
O O6 0.834436 0.103878 0.149096
O O7 0.750864 0.000000 0.250000
O O8 0.100309 0.337705 0.118348
O O9 0.000000 0.278161 0.250000
O O10 0.868289 0.292933 0.129670
O O11 0.032580 0.179024 0.126829
O O12 0.500000 0.752643 0.250000
O O13 0.682706 0.693446 0.153303
O O14 0.669531 0.380105 0.872284
O O15 0.760016 0.315306 0.000000
O O16 0.500000 0.500000 0.873670
O O17 0.725591 0.542161 0.892353
O O18 0.613185 0.460238 0.000000
O O19 0.000000 0.089091 0.750000
O O20 0.000000 0.000000 0.620794
O O21 0.747202 0.343410 0.500000
#
# Coordination Sequence:
#
# PCOD9392543 Si02
#       8
#     8   8   8   8   8   8   8   8
#     4  10  21  38  62  89 121 161 209 256 306 374
#     4  11  21  38  63  89 118 157 208 252 315 382
#     4  11  23  38  63  88 127 168 209 261 321 378
#     4  10  22  37  63  90 124 163 206 256 320 381
#     4  10  20  38  65  91 120 163 214 258 307 374
#     4   9  19  38  65  93 121 162 213 260 311 376
#     4  10  18  33  60  88 110 152 209 253 297 364
#     4  11  23  40  63  94 129 164 213 266 315 375
#
# _framework density 21.123380999999998
#
# number of rings (size 3 to 8) (size 9 to 14) (size 15 to 20)
#    0.000    1.750    2.500    3.000    1.750    4.750 
#    0.000    5.000    0.000    1.875    0.000    0.000 
#    0.000    0.000    0.000    0.000    0.000    0.000 
#
# Total GULP energy -357171.380256 kJ/mol
# GULP energy per Si atom -5580.802817 kJ/mol
# Density = 2.107530 g / cm^3
# Si number density = 21.123381 Si / 1000 Ang^3
#
#
#
# Elastic Constant Matrix: (Units=GPa)
#
#
# Indices 1 2 3 4 5 6 
#
# 1 84.8513 26.7859 2.7764 0.0000 0.0000 0.0000
# 2 26.7859 63.8580 14.0704 0.0000 0.0000 0.0000
# 3 2.7764 14.0704 52.5634 0.0000 0.0000 0.0000
# 4 0.0000 0.0000 0.0000 7.7932 0.0000 0.0000
# 5 0.0000 0.0000 0.0000 0.0000 32.7023 0.0000
# 6 0.0000 0.0000 0.0000 0.0000 0.0000 33.5972
#
#
#
# Elastic Compliance Matrix: (Units=1/GPa)
#
#
# Indices 1 2 3 4 5 6 
#
# 1 0.013621 -0.005903 0.000861 0.000000 0.000000 0.000000
# 2 -0.005903 0.019200 -0.004828 0.000000 0.000000 0.000000
# 3 0.000861 -0.004828 0.020271 0.000000 0.000000 0.000000
# 4 0.000000 0.000000 0.000000 0.128317 0.000000 0.000000
# 5 0.000000 0.000000 0.000000 0.000000 0.030579 0.000000
# 6 0.000000 0.000000 0.000000 0.000000 0.000000 0.029764
#
#
# Mechanical properties :
#
#
# Convention : Reuss Voigt Hill
#
# Bulk Modulus (GPa) = 29.98337 32.05978 31.02157
# Shear Modulus (GPa) = 18.34132 25.32787 21.83459
#
# Velocity S-wave (km/s) = 2.94988 3.46648 3.21856
# Velocity P-wave (km/s) = 5.08209 5.58859 5.34134
#
# Compressibility (1/GPa) = 0.03335182
#
# Stress axis : x y z
#
# Youngs Moduli (GPa) = 73.41815 52.08463 49.33046
#
# Poissons Ratio (x) = 0.30745 -0.04246
# Poissons Ratio (y) = 0.43338 0.23815
# Poissons Ratio (z) = -0.06319 0.25145
#
# Static dielectric constant tensor:
#      x y z
#    x 1.805060 0.000000 0.000000 
#    y 0.000000 1.803310 0.000000 
#    z 0.000000 0.000000 1.787490 
# 
# From -- ./inp_files/17295.got.cif
#   From: 2010.05.17/outbox.cif.g08.bks.cpg/sg49_9_cif.got.tgz:17295.got - 2010.06.03 21:02:19.
