data_PCOD9392402
_publ_section_title
;
Structure prediction by ZEFSAII (Michael W. Deem and Ramdas Pophale) SiO2 
 PCOD9392402
Probable space group: P C C M
;
_chemical_formula_sum "Si O2"
_cell_formula_units_Z 24
_cell_length_a 13.357296
_cell_length_b 8.518237
_cell_length_c 9.305688
_cell_angle_alpha 90.000000
_cell_angle_beta 90.000000
_cell_angle_gamma 90.000000
_cell_volume 1058.806885
_symmetry_space_group_name_H-M "P C C M"
_symmetry_group_IT_number 49
_symmetry_cell_setting 'orthorhombic'
loop_
_space_group_symop_operation_xyz
x,y,z
-x,-y,z
x,-y,1/2-z
-x,y,1/2-z
-x,-y,-z
x,y,-z
-x,y,1/2+z
x,-y,1/2+z
loop_
_atom_site_type_symbol
_atom_site_label
_atom_site_fract_x
_atom_site_fract_y
_atom_site_fract_z
Si Si1 0.000000 0.500000 0.250000
Si Si2 0.866528 0.433582 0.500000
Si Si3 0.500000 0.000000 0.750000
Si Si4 0.740303 0.000000 0.250000
Si Si5 0.215946 0.773075 0.000000
Si Si6 0.668491 0.768749 0.000000
Si Si7 0.556011 0.770849 0.500000
O O1 0.070658 0.600137 0.356338
O O2 0.852320 0.621515 0.500000
O O3 0.759212 0.352403 0.500000
O O4 0.447729 0.118890 0.639104
O O5 0.796299 0.883310 0.360372
O O6 0.684531 0.119281 0.361657
O O7 0.331647 0.705451 0.000000
O O8 0.555931 0.695020 0.000000
#
# Coordination Sequence:
#
# PCOD9392402 Si02
#       7
#     2   4   2   4   4   4   4
#     4  10  24  46  68  82 108 154 204 244 304 380
#     4  11  24  43  68  88 110 151 202 251 302 354
#     4  10  18  30  48  80 122 176 198 208 260 354
#     4  10  21  35  58  89 127 162 197 233 278 343
#     4  11  21  36  60  91 124 160 195 235 286 346
#     4  11  21  36  60  91 124 160 195 235 286 346
#     4  11  18  29  52  84 126 158 192 226 274 340
#
# _framework density 22.667023
#
# number of rings (size 3 to 8) (size 9 to 14) (size 15 to 20)
#    0.000    1.333    0.000   10.000    0.000    0.667 
#    0.000    0.000    0.000   78.000    0.000    0.000 
#    0.000    0.000    0.000    0.000    0.000    0.000 
#
# Total GULP energy -133784.310469 kJ/mol
# GULP energy per Si atom -5574.346270 kJ/mol
# Density = 2.261543 g / cm^3
# Si number density = 22.667023 Si / 1000 Ang^3
#
#
#
# Elastic Constant Matrix: (Units=GPa)
#
#
# Indices 1 2 3 4 5 6 
#
# 1 114.6317 46.4952 34.5990 0.0000 0.0000 0.0000
# 2 46.4952 66.2626 35.6312 0.0000 0.0000 0.0000
# 3 34.5990 35.6312 206.1757 0.0000 0.0000 0.0000
# 4 0.0000 0.0000 0.0000 14.5289 0.0000 0.0000
# 5 0.0000 0.0000 0.0000 0.0000 59.2755 0.0000
# 6 0.0000 0.0000 0.0000 0.0000 0.0000 16.9627
#
#
#
# Elastic Compliance Matrix: (Units=1/GPa)
#
#
# Indices 1 2 3 4 5 6 
#
# 1 0.012268 -0.008270 -0.000630 0.000000 0.000000 0.000000
# 2 -0.008270 0.022212 -0.002451 0.000000 0.000000 0.000000
# 3 -0.000630 -0.002451 0.005379 0.000000 0.000000 0.000000
# 4 0.000000 0.000000 0.000000 0.068828 0.000000 0.000000
# 5 0.000000 0.000000 0.000000 0.000000 0.016870 0.000000
# 6 0.000000 0.000000 0.000000 0.000000 0.000000 0.058953
#
#
# Mechanical properties :
#
#
# Convention : Reuss Voigt Hill
#
# Bulk Modulus (GPa) = 58.27790 68.94677 63.61233
# Shear Modulus (GPa) = 23.48182 36.17639 29.82910
#
# Velocity S-wave (km/s) = 3.22210 3.99932 3.63156
# Velocity P-wave (km/s) = 6.29356 7.19787 6.76085
#
# Compressibility (1/GPa) = 0.01715916
#
# Stress axis : x y z
#
# Youngs Moduli (GPa) = 81.51441 45.02072 185.89267
#
# Poissons Ratio (x) = 0.37230 0.11703
# Poissons Ratio (y) = 0.67409 0.45561
# Poissons Ratio (z) = 0.05132 0.11034
#
# Static dielectric constant tensor:
#      x y z
#    x 2.096760 0.000000 0.000000 
#    y 0.000000 1.798840 0.000000 
#    z 0.000000 0.000000 1.829930 
# 
# From -- ./inp_files/3185.got.cif
#   From: 2010.05.17/outbox.cif.g08.bks.cpg/sg49_2_cif.got.tgz:3185.got - 2010.06.03 21:02:19.
