data_PCOD9392993
_publ_section_title
;
Structure prediction by ZEFSAII (Michael W. Deem and Ramdas Pophale) SiO2 
 PCOD9392993
Probable space group: P C C M
;
_chemical_formula_sum "Si O2"
_cell_formula_units_Z 48
_cell_length_a 8.949901
_cell_length_b 15.269651
_cell_length_c 17.189930
_cell_angle_alpha 90.000000
_cell_angle_beta 90.000000
_cell_angle_gamma 90.000000
_cell_volume 2349.207889
_symmetry_space_group_name_H-M "P C C M"
_symmetry_group_IT_number 49
_symmetry_cell_setting 'orthorhombic'
loop_
_space_group_symop_operation_xyz
x,y,z
-x,-y,z
x,-y,1/2-z
-x,y,1/2-z
-x,-y,-z
x,y,-z
-x,y,1/2+z
x,-y,1/2+z
loop_
_atom_site_type_symbol
_atom_site_label
_atom_site_fract_x
_atom_site_fract_y
_atom_site_fract_z
Si Si1 0.010621 0.258033 0.500000
Si Si2 0.830311 0.490381 0.870382
Si Si3 0.177897 0.985909 0.341063
Si Si4 0.167355 0.654419 0.739120
Si Si5 0.239760 0.784076 0.625670
Si Si6 0.240798 0.095916 0.500000
Si Si7 0.492477 0.232447 0.000000
Si Si8 0.290858 0.394570 0.500000
O O1 0.106003 0.167682 0.500000
O O2 0.132159 0.337807 0.500000
O O3 0.900487 0.256005 0.575384
O O4 0.819830 0.406653 0.813785
O O5 0.808142 0.580845 0.826693
O O6 0.708567 0.463045 0.930679
O O7 0.000000 0.500000 0.901501
O O8 0.210018 0.885641 0.361839
O O9 0.231246 0.000000 0.250000
O O10 0.232380 0.041895 0.417736
O O11 0.000000 0.000000 0.339070
O O12 0.258530 0.736314 0.708701
O O13 0.000000 0.689703 0.750000
O O14 0.385577 0.771589 0.574174
O O15 0.392205 0.152234 0.500000
O O16 0.584506 0.321963 0.000000
#
# Coordination Sequence:
#
# PCOD9392993 Si02
#       8
#     4   8   8   8   8   4   4   4
#     4  10  19  32  62  87 110 167 212 257 349 361
#     4   9  18  35  58  92 122 159 205 257 321 382
#     4  11  24  39  68 103 123 160 228 282 347 396
#     4   9  19  34  60  90 124 159 200 261 333 373
#     4  11  22  40  60  91 130 164 213 280 317 399
#     4  11  21  46  62  86 136 175 210 284 325 408
#     4  10  27  42  62  94 131 183 222 245 345 401
#     4  11  21  37  60  89 124 162 216 267 297 390
#
# _framework density 20.432417000000001
#
# number of rings (size 3 to 8) (size 9 to 14) (size 15 to 20)
#    0.000    1.833    1.667    4.500    2.333    5.333 
#    0.000    5.833    0.000    2.000    0.000    0.000 
#    0.000    0.000    0.000    0.000    0.000    0.000 
#
# Total GULP energy -267270.630548 kJ/mol
# GULP energy per Si atom -5568.138136 kJ/mol
# Density = 2.038591 g / cm^3
# Si number density = 20.432417 Si / 1000 Ang^3
#
#
#
# Elastic Constant Matrix: (Units=GPa)
#
#
# Indices 1 2 3 4 5 6 
#
# 1 89.6142 98.7184 34.9506 0.0000 0.0000 0.0000
# 2 98.7184 520.3853 5.0449 0.0000 0.0000 0.0000
# 3 34.9506 5.0449 109.0151 0.0000 0.0000 0.0000
# 4 0.0000 0.0000 0.0000 5.2918 0.0000 0.0000
# 5 0.0000 0.0000 0.0000 0.0000 13.1437 0.0000
# 6 0.0000 0.0000 0.0000 0.0000 0.0000 18.4110
#
#
#
# Elastic Compliance Matrix: (Units=1/GPa)
#
#
# Indices 1 2 3 4 5 6 
#
# 1 0.016589 -0.003097 -0.005175 0.000000 0.000000 0.000000
# 2 -0.003097 0.002501 0.000877 0.000000 0.000000 0.000000
# 3 -0.005175 0.000877 0.010792 0.000000 0.000000 0.000000
# 4 0.000000 0.000000 0.000000 0.188971 0.000000 0.000000
# 5 0.000000 0.000000 0.000000 0.000000 0.076082 0.000000
# 6 0.000000 0.000000 0.000000 0.000000 0.000000 0.054315
#
#
# Mechanical properties :
#
#
# Convention : Reuss Voigt Hill
#
# Bulk Modulus (GPa) = 66.26272 110.71584 88.48928
# Shear Modulus (GPa) = 13.54760 46.05602 29.80181
#
# Velocity S-wave (km/s) = 2.57776 4.75285 3.82325
# Velocity P-wave (km/s) = 6.43120 9.18822 7.93044
#
# Compressibility (1/GPa) = 0.01509144
#
# Stress axis : x y z
#
# Youngs Moduli (GPa) = 60.28233 399.90278 92.66479
#
# Poissons Ratio (x) = 1.23839 0.47954
# Poissons Ratio (y) = 0.18668 -0.08128
# Poissons Ratio (z) = 0.31196 -0.35075
#
# Static dielectric constant tensor:
#      x y z
#    x 1.716460 0.000000 0.000000 
#    y 0.000000 1.681290 0.000000 
#    z 0.000000 0.000000 1.769020 
# 
# From -- ./inp_files/16389.got.cif
#   From: 2010.05.17/outbox.cif.g08.bks.cpg/sg49_9_cif.got.tgz:16389.got - 2010.06.03 21:02:19.
