data_PCOD9392725
_publ_section_title
;
Structure prediction by ZEFSAII (Michael W. Deem and Ramdas Pophale) SiO2 
 PCOD9392725
Probable space group: P C C M
;
_chemical_formula_sum "Si O2"
_cell_formula_units_Z 56
_cell_length_a 19.016649
_cell_length_b 21.583428
_cell_length_c 8.786955
_cell_angle_alpha 90.000000
_cell_angle_beta 90.000000
_cell_angle_gamma 90.000000
_cell_volume 3606.557127
_symmetry_space_group_name_H-M "P C C M"
_symmetry_group_IT_number 49
_symmetry_cell_setting 'orthorhombic'
loop_
_space_group_symop_operation_xyz
x,y,z
-x,-y,z
x,-y,1/2-z
-x,y,1/2-z
-x,-y,-z
x,y,-z
-x,y,1/2+z
x,-y,1/2+z
loop_
_atom_site_type_symbol
_atom_site_label
_atom_site_fract_x
_atom_site_fract_y
_atom_site_fract_z
Si Si1 0.783347 0.863230 0.818413
Si Si2 0.922502 0.566525 0.317996
Si Si3 0.423352 0.188334 0.317234
Si Si4 0.648609 0.934297 0.819603
Si Si5 0.159707 0.680560 0.318261
Si Si6 0.076623 0.807008 0.318735
Si Si7 0.712572 0.743228 0.679663
O O1 0.732190 0.921163 0.793624
O O2 0.866036 0.860578 0.782079
O O3 0.749446 0.808604 0.719615
O O4 0.777322 0.847283 0.000000
O O5 0.900801 0.500000 0.250000
O O6 0.926704 0.563109 0.500000
O O7 0.871524 0.621014 0.264436
O O8 0.000000 0.579650 0.250000
O O9 0.500000 0.199229 0.250000
O O10 0.425462 0.184240 0.500000
O O11 0.393082 0.123405 0.252676
O O12 0.368034 0.242943 0.276325
O O13 0.628351 0.000000 0.750000
O O14 0.636335 0.934190 0.000000
O O15 0.154981 0.673690 0.500000
O O16 0.113031 0.741342 0.274454
O O17 0.239855 0.694384 0.269469
O O18 0.068918 0.805404 0.500000
O O19 0.000000 0.814641 0.250000
O O20 0.716528 0.730854 0.500000
#
# Coordination Sequence:
#
# PCOD9392725 Si02
#       7
#     8   8   8   8   8   8   8
#     4   8  16  30  44  59  83 113 141 176 223 272
#     4  11  21  33  47  65  93 129 167 203 239 276
#     4  10  20  33  49  70  96 122 148 178 219 268
#     4  10  19  32  49  66  86 113 147 183 220 264
#     4  10  19  31  46  65  91 123 157 191 228 271
#     4   9  17  27  41  62  85 109 140 179 224 268
#     4   9  17  29  46  68  90 114 147 186 223 264
#
# _framework density 15.527274999999999
#
# number of rings (size 3 to 8) (size 9 to 14) (size 15 to 20)
#    0.000    2.429    0.000    4.714    0.000    6.571 
#    0.000    1.429    0.000    0.429    0.000    3.000 
#    0.000    0.571    0.000    6.000    0.000    3.286 
#
# Total GULP energy -311951.539944 kJ/mol
# GULP energy per Si atom -5570.563213 kJ/mol
# Density = 1.549193 g / cm^3
# Si number density = 15.527275 Si / 1000 Ang^3
#
#
#
# Elastic Constant Matrix: (Units=GPa)
#
#
# Indices 1 2 3 4 5 6 
#
# 1 112.5721 18.3796 31.3438 0.0000 0.0000 0.0000
# 2 18.3796 30.9010 19.4764 0.0000 0.0000 0.0000
# 3 31.3438 19.4764 59.2178 0.0000 0.0000 0.0000
# 4 0.0000 0.0000 0.0000 17.3306 0.0000 0.0000
# 5 0.0000 0.0000 0.0000 0.0000 26.0386 0.0000
# 6 0.0000 0.0000 0.0000 0.0000 0.0000 16.5551
#
#
#
# Elastic Compliance Matrix: (Units=1/GPa)
#
#
# Indices 1 2 3 4 5 6 
#
# 1 0.010716 -0.003531 -0.004510 0.000000 0.000000 0.000000
# 2 -0.003531 0.041987 -0.011941 0.000000 0.000000 0.000000
# 3 -0.004510 -0.011941 0.023201 0.000000 0.000000 0.000000
# 4 0.000000 0.000000 0.000000 0.057701 0.000000 0.000000
# 5 0.000000 0.000000 0.000000 0.000000 0.038404 0.000000
# 6 0.000000 0.000000 0.000000 0.000000 0.000000 0.060404
#
#
# Mechanical properties :
#
#
# Convention : Reuss Voigt Hill
#
# Bulk Modulus (GPa) = 27.82355 37.89894 32.86124
# Shear Modulus (GPa) = 17.58346 20.88428 19.23387
#
# Velocity S-wave (km/s) = 3.36880 3.67141 3.52336
# Velocity P-wave (km/s) = 5.75237 6.51409 6.14504
#
# Compressibility (1/GPa) = 0.03594077
#
# Stress axis : x y z
#
# Youngs Moduli (GPa) = 93.32274 23.81673 43.10087
#
# Poissons Ratio (x) = 0.08409 0.19441
# Poissons Ratio (y) = 0.32948 0.51465
# Poissons Ratio (z) = 0.42093 0.28439
#
# Static dielectric constant tensor:
#      x y z
#    x 1.546640 0.000000 0.000000 
#    y 0.000000 1.502100 0.000000 
#    z 0.000000 0.000000 1.521880 
# 
# From -- ./inp_files/5208.got.cif
#   From: 2010.05.17/outbox.cif.g08.bks.cpg/sg49_3_cif.got.tgz:5208.got - 2010.06.03 21:02:19.
