data_PCOD9392412
_publ_section_title
;
Structure prediction by ZEFSAII (Michael W. Deem and Ramdas Pophale) SiO2 
 PCOD9392412
Probable space group: P C C M
;
_chemical_formula_sum "Si O2"
_cell_formula_units_Z 56
_cell_length_a 18.829005
_cell_length_b 9.799887
_cell_length_c 14.651310
_cell_angle_alpha 90.000000
_cell_angle_beta 90.000000
_cell_angle_gamma 90.000000
_cell_volume 2703.490801
_symmetry_space_group_name_H-M "P C C M"
_symmetry_group_IT_number 49
_symmetry_cell_setting 'orthorhombic'
loop_
_space_group_symop_operation_xyz
x,y,z
-x,-y,z
x,-y,1/2-z
-x,y,1/2-z
-x,-y,-z
x,y,-z
-x,y,1/2+z
x,-y,1/2+z
loop_
_atom_site_type_symbol
_atom_site_label
_atom_site_fract_x
_atom_site_fract_y
_atom_site_fract_z
Si Si1 0.582045 0.996628 0.861617
Si Si2 0.309836 0.775978 0.152819
Si Si3 0.318676 0.244091 0.140054
Si Si4 0.211826 0.996087 0.392554
Si Si5 0.069701 0.415912 0.890822
Si Si6 0.058739 0.105135 0.110981
Si Si7 0.765868 0.504313 0.640021
O O1 0.617595 0.854135 0.893446
O O2 0.500000 0.000000 0.887221
O O3 0.586779 0.000000 0.750000
O O4 0.628023 0.129896 0.891065
O O5 0.335634 0.732508 0.253096
O O6 0.270166 0.646585 0.109423
O O7 0.247720 0.886453 0.165247
O O8 0.252863 0.143245 0.124902
O O9 0.287279 0.386042 0.104586
O O10 0.219207 0.031887 0.500000
O O11 0.131603 0.970671 0.370303
O O12 0.063282 0.260594 0.854249
O O13 0.149820 0.477594 0.878212
O O14 0.000000 0.500000 0.858284
O O15 0.062524 0.408258 0.000000
O O16 0.051507 0.115761 0.000000
O O17 0.000000 0.000000 0.143967
O O18 0.762818 0.500000 0.750000
#
# Coordination Sequence:
#
# PCOD9392412 Si02
#       7
#     8   8   8   8   8   8   8
#     4   8  14  28  51  75  99 129 165 203 241 288
#     4   9  19  31  49  74 101 131 162 200 246 292
#     4   9  17  33  51  70 100 133 162 197 245 296
#     4  10  18  30  51  73  93 124 166 207 246 290
#     4  10  21  35  52  72  97 130 168 211 255 293
#     4   9  18  31  47  69  94 119 156 205 251 290
#     4  10  20  34  51  72 103 138 166 201 248 303
#
# _framework density 20.713961000000001
#
# number of rings (size 3 to 8) (size 9 to 14) (size 15 to 20)
#    0.000    2.714    1.429    1.286    2.000    0.857 
#    0.000    0.714    0.000   12.857    0.000    0.000 
#    0.000   10.286    0.000    0.000    0.000    0.000 
#
# Total GULP energy -311776.253514 kJ/mol
# GULP energy per Si atom -5567.433098 kJ/mol
# Density = 2.066681 g / cm^3
# Si number density = 20.713961 Si / 1000 Ang^3
#
#
#
# Elastic Constant Matrix: (Units=GPa)
#
#
# Indices 1 2 3 4 5 6 
#
# 1 180.6573 87.7070 7.8953 0.0000 0.0000 0.0000
# 2 87.7070 163.2295 -4.0000 0.0000 0.0000 0.0000
# 3 7.8953 -4.0000 57.6230 0.0000 0.0000 0.0000
# 4 0.0000 0.0000 0.0000 0.0444 0.0000 0.0000
# 5 0.0000 0.0000 0.0000 0.0000 35.1106 0.0000
# 6 0.0000 0.0000 0.0000 0.0000 0.0000 7.3032
#
#
#
# Elastic Compliance Matrix: (Units=1/GPa)
#
#
# Indices 1 2 3 4 5 6 
#
# 1 0.007589 -0.004110 -0.001325 0.000000 0.000000 0.000000
# 2 -0.004110 0.008363 0.001144 0.000000 0.000000 0.000000
# 3 -0.001325 0.001144 0.017615 0.000000 0.000000 0.000000
# 4 0.000000 0.000000 0.000000 22.529615 0.000000 0.000000
# 5 0.000000 0.000000 0.000000 0.000000 0.028481 0.000000
# 6 0.000000 0.000000 0.000000 0.000000 0.000000 0.136927
#
#
# Mechanical properties :
#
#
# Convention : Reuss Voigt Hill
#
# Bulk Modulus (GPa) = 40.02613 64.96827 52.49720
# Shear Modulus (GPa) = 0.21982 29.15213 14.68598
#
# Velocity S-wave (km/s) = 0.32612 3.75556 2.66557
# Velocity P-wave (km/s) = 4.41667 7.08789 5.90530
#
# Compressibility (1/GPa) = 0.02498368
#
# Stress axis : x y z
#
# Youngs Moduli (GPa) = 131.77632 119.57748 56.76934
#
# Poissons Ratio (x) = 0.49147 0.07522
# Poissons Ratio (y) = 0.54160 -0.06492
# Poissons Ratio (z) = 0.17461 -0.13676
#
# Static dielectric constant tensor:
#      x y z
#    x 1.606040 0.000000 0.000000 
#    y 0.000000 1.737700 0.000000 
#    z 0.000000 0.000000 1.858310 
# 
# From -- ./inp_files/21021.got.cif
#   From: 2010.05.17/outbox.cif.g08.bks.cpg/sg49_11_cif.got.tgz:21021.got - 2010.06.03 21:02:19.
