data_PCOD9392280
_publ_section_title
;
Structure prediction by ZEFSAII (Michael W. Deem and Ramdas Pophale) SiO2 
 PCOD9392280
Probable space group: P C C M
;
_chemical_formula_sum "Si O2"
_cell_formula_units_Z 64
_cell_length_a 9.342881
_cell_length_b 15.448363
_cell_length_c 23.731567
_cell_angle_alpha 90.000000
_cell_angle_beta 90.000000
_cell_angle_gamma 90.000000
_cell_volume 3425.229682
_symmetry_space_group_name_H-M "P C C M"
_symmetry_group_IT_number 49
_symmetry_cell_setting 'orthorhombic'
loop_
_space_group_symop_operation_xyz
x,y,z
-x,-y,z
x,-y,1/2-z
-x,y,1/2-z
-x,-y,-z
x,y,-z
-x,y,1/2+z
x,-y,1/2+z
loop_
_atom_site_type_symbol
_atom_site_label
_atom_site_fract_x
_atom_site_fract_y
_atom_site_fract_z
Si Si1 0.753195 0.685281 0.162008
Si Si2 0.730302 0.407130 0.220257
Si Si3 0.325188 0.754079 0.066547
Si Si4 0.496289 0.595039 0.879843
Si Si5 0.395076 0.167953 0.791814
Si Si6 0.391045 0.069599 0.365245
Si Si7 0.920302 0.288765 0.853465
Si Si8 0.858608 0.110306 0.213399
O O1 0.742436 0.660048 0.227985
O O2 0.661702 0.615052 0.130211
O O3 0.665325 0.774119 0.158336
O O4 0.912553 0.695931 0.141608
O O5 0.750611 0.500000 0.250000
O O6 0.588069 0.408364 0.180895
O O7 0.851768 0.371709 0.177977
O O8 0.423942 0.673782 0.086737
O O9 0.366872 0.844716 0.096798
O O10 0.168298 0.728695 0.090022
O O11 0.329615 0.763664 0.000000
O O12 0.500000 0.500000 0.906181
O O13 0.500000 0.220876 0.750000
O O14 0.502659 0.097503 0.815143
O O15 0.260688 0.129967 0.759947
O O16 0.233634 0.054682 0.334243
O O17 0.500000 0.000000 0.394515
O O18 0.896465 0.201627 0.816476
O O19 0.000000 0.085326 0.250000
#
# Coordination Sequence:
#
# PCOD9392280 Si02
#       8
#     8   8   8   8   8   8   8   8
#     4  12  19  31  53  82 122 157 192 232 286 354
#     4  11  20  31  49  83 125 158 192 228 280 352
#     4  10  23  44  65  80 106 151 203 264 318 345
#     4  11  22  36  56  89 119 154 196 242 290 353
#     4  10  18  30  53  79 119 154 185 222 277 349
#     4  10  22  38  59  88 118 150 196 245 294 354
#     4  10  21  34  54  83 114 155 206 243 290 357
#     4  10  17  32  56  83 121 164 192 219 280 364
#
# _framework density 18.684878000000001
#
# number of rings (size 3 to 8) (size 9 to 14) (size 15 to 20)
#    0.000    1.500    5.000    1.500    0.000    3.750 
#    0.000    1.875    0.000    0.750    0.000    0.875 
#    0.000    0.000    0.000    0.000    0.000    0.500 
#
# Total GULP energy -356286.140286 kJ/mol
# GULP energy per Si atom -5566.970942 kJ/mol
# Density = 1.864235 g / cm^3
# Si number density = 18.684878 Si / 1000 Ang^3
#
#
#
# Elastic Constant Matrix: (Units=GPa)
#
#
# Indices 1 2 3 4 5 6 
#
# 1 163.0714 48.5780 41.5352 0.0000 0.0000 0.0000
# 2 48.5780 90.6321 33.9407 0.0000 0.0000 0.0000
# 3 41.5352 33.9407 76.6386 0.0000 0.0000 0.0000
# 4 0.0000 0.0000 0.0000 6.4817 0.0000 0.0000
# 5 0.0000 0.0000 0.0000 0.0000 9.4675 0.0000
# 6 0.0000 0.0000 0.0000 0.0000 0.0000 12.4492
#
#
#
# Elastic Compliance Matrix: (Units=1/GPa)
#
#
# Indices 1 2 3 4 5 6 
#
# 1 0.007781 -0.003107 -0.002841 0.000000 0.000000 0.000000
# 2 -0.003107 0.014468 -0.004724 0.000000 0.000000 0.000000
# 3 -0.002841 -0.004724 0.016680 0.000000 0.000000 0.000000
# 4 0.000000 0.000000 0.000000 0.154280 0.000000 0.000000
# 5 0.000000 0.000000 0.000000 0.000000 0.105625 0.000000
# 6 0.000000 0.000000 0.000000 0.000000 0.000000 0.080326
#
#
# Mechanical properties :
#
#
# Convention : Reuss Voigt Hill
#
# Bulk Modulus (GPa) = 56.86364 64.27221 60.56792
# Shear Modulus (GPa) = 12.30418 19.43223 15.86820
#
# Velocity S-wave (km/s) = 2.56893 3.22840 2.91736
# Velocity P-wave (km/s) = 6.26883 6.95481 6.62071
#
# Compressibility (1/GPa) = 0.01758593
#
# Stress axis : x y z
#
# Youngs Moduli (GPa) = 128.51024 69.11945 59.95176
#
# Poissons Ratio (x) = 0.21474 0.17035
# Poissons Ratio (y) = 0.39925 0.28318
# Poissons Ratio (z) = 0.36515 0.32649
#
# Static dielectric constant tensor:
#      x y z
#    x 1.696450 0.000000 0.000000 
#    y 0.000000 1.763350 0.000000 
#    z 0.000000 0.000000 1.659090 
# 
# From -- ./inp_files/22568.got.cif
#   From: 2010.05.17/outbox.cif.g08.bks.cpg/sg49_12_cif.got.tgz:22568.got - 2010.06.03 21:02:19.
