data_PCOD9392727
_publ_section_title
;
Structure prediction by ZEFSAII (Michael W. Deem and Ramdas Pophale) SiO2 
 PCOD9392727
Probable space group: P C C M
;
_chemical_formula_sum "Si O2"
_cell_formula_units_Z 56
_cell_length_a 16.063512
_cell_length_b 20.793465
_cell_length_c 8.183073
_cell_angle_alpha 90.000000
_cell_angle_beta 90.000000
_cell_angle_gamma 90.000000
_cell_volume 2733.277921
_symmetry_space_group_name_H-M "P C C M"
_symmetry_group_IT_number 49
_symmetry_cell_setting 'orthorhombic'
loop_
_space_group_symop_operation_xyz
x,y,z
-x,-y,z
x,-y,1/2-z
-x,y,1/2-z
-x,-y,-z
x,y,-z
-x,y,1/2+z
x,-y,1/2+z
loop_
_atom_site_type_symbol
_atom_site_label
_atom_site_fract_x
_atom_site_fract_y
_atom_site_fract_z
Si Si1 0.276816 0.679289 0.692603
Si Si2 0.913855 0.826417 0.695433
Si Si3 0.790827 0.065280 0.803445
Si Si4 0.909901 0.681522 0.695007
Si Si5 0.590402 0.214949 0.698448
Si Si6 0.392418 0.070066 0.814661
Si Si7 0.593586 0.573437 0.694972
O O1 0.265947 0.688822 0.500000
O O2 0.184861 0.661636 0.760671
O O3 0.329670 0.742415 0.755217
O O4 0.339390 0.620770 0.726992
O O5 0.912356 0.821736 0.500000
O O6 0.839283 0.871228 0.744789
O O7 0.910427 0.754616 0.763900
O O8 0.000000 0.856867 0.750000
O O9 0.706540 0.065929 0.701733
O O10 0.836664 0.000000 0.750000
O O11 0.775921 0.065103 0.000000
O O12 0.913860 0.681438 0.500000
O O13 0.000000 0.652221 0.750000
O O14 0.500000 0.242656 0.750000
O O15 0.594069 0.213789 0.500000
O O16 0.590360 0.140611 0.761883
O O17 0.418536 0.000000 0.750000
O O18 0.422120 0.073390 0.000000
O O19 0.608021 0.500000 0.750000
O O20 0.500000 0.590581 0.750000
O O21 0.598652 0.577633 0.500000
#
# Coordination Sequence:
#
# PCOD9392727 Si02
#       7
#     8   8   8   8   8   8   8
#     4  11  22  38  60  89 122 158 197 243 294 348
#     4   9  19  32  47  67  94 127 168 216 275 339
#     4  10  19  31  46  66  89 120 162 213 270 334
#     4  10  20  36  57  83 112 148 191 239 290 344
#     4  10  23  38  55  80 112 147 188 236 291 348
#     4  10  20  35  52  72  96 132 179 228 280 338
#     4  11  22  39  63  94 130 169 207 245 287 341
#
# _framework density 20.488219999999998
#
# number of rings (size 3 to 8) (size 9 to 14) (size 15 to 20)
#    0.000    1.857    0.000    5.571    0.000    5.714 
#    0.000    2.857    0.000    0.429    0.000    3.000 
#    0.000    0.000    0.000    0.000    0.000    0.000 
#
# Total GULP energy -312062.322761 kJ/mol
# GULP energy per Si atom -5572.541478 kJ/mol
# Density = 2.044159 g / cm^3
# Si number density = 20.488220 Si / 1000 Ang^3
#
#
#
# Elastic Constant Matrix: (Units=GPa)
#
#
# Indices 1 2 3 4 5 6 
#
# 1 147.2615 49.0686 13.2391 0.0000 0.0000 0.0000
# 2 49.0686 73.7037 1.0248 0.0000 0.0000 0.0000
# 3 13.2391 1.0248 37.4206 0.0000 0.0000 0.0000
# 4 0.0000 0.0000 0.0000 20.0251 0.0000 0.0000
# 5 0.0000 0.0000 0.0000 0.0000 93.7068 0.0000
# 6 0.0000 0.0000 0.0000 0.0000 0.0000 7.2002
#
#
#
# Elastic Compliance Matrix: (Units=1/GPa)
#
#
# Indices 1 2 3 4 5 6 
#
# 1 0.009060 -0.005989 -0.003041 0.000000 0.000000 0.000000
# 2 -0.005989 0.017532 0.001639 0.000000 0.000000 0.000000
# 3 -0.003041 0.001639 0.027754 0.000000 0.000000 0.000000
# 4 0.000000 0.000000 0.000000 0.049937 0.000000 0.000000
# 5 0.000000 0.000000 0.000000 0.000000 0.010672 0.000000
# 6 0.000000 0.000000 0.000000 0.000000 0.000000 0.138884
#
#
# Mechanical properties :
#
#
# Convention : Reuss Voigt Hill
#
# Bulk Modulus (GPa) = 25.27609 42.78344 34.02977
# Shear Modulus (GPa) = 17.74239 37.18997 27.46618
#
# Velocity S-wave (km/s) = 2.94595 4.26512 3.66537
# Velocity P-wave (km/s) = 4.89236 6.72178 5.87867
#
# Compressibility (1/GPa) = 0.03956308
#
# Stress axis : x y z
#
# Youngs Moduli (GPa) = 110.37859 57.03711 36.03041
#
# Poissons Ratio (x) = 0.34161 0.10958
# Poissons Ratio (y) = 0.66109 -0.05905
# Poissons Ratio (z) = 0.33569 -0.09347
#
# Static dielectric constant tensor:
#      x y z
#    x 1.766030 0.000000 0.000000 
#    y 0.000000 1.769910 0.000000 
#    z 0.000000 0.000000 1.732720 
# 
# From -- ./inp_files/4087.got.cif
#   From: 2010.05.17/outbox.cif.g08.bks.cpg/sg49_3_cif.got.tgz:4087.got - 2010.06.03 21:02:19.
