data_PCOD9392101
_publ_section_title
;
Structure prediction by ZEFSAII (Michael W. Deem and Ramdas Pophale) SiO2 
 PCOD9392101
Probable space group: P C C M
;
_chemical_formula_sum "Si O2"
_cell_formula_units_Z 64
_cell_length_a 18.815795
_cell_length_b 26.623318
_cell_length_c 8.759104
_cell_angle_alpha 90.000000
_cell_angle_beta 90.000000
_cell_angle_gamma 90.000000
_cell_volume 4387.775868
_symmetry_space_group_name_H-M "P C C M"
_symmetry_group_IT_number 49
_symmetry_cell_setting 'orthorhombic'
loop_
_space_group_symop_operation_xyz
x,y,z
-x,-y,z
x,-y,1/2-z
-x,y,1/2-z
-x,-y,-z
x,y,-z
-x,y,1/2+z
x,-y,1/2+z
loop_
_atom_site_type_symbol
_atom_site_label
_atom_site_fract_x
_atom_site_fract_y
_atom_site_fract_z
Si Si1 0.077157 0.847802 0.683805
Si Si2 0.419536 0.551272 0.817053
Si Si3 0.578266 0.858043 0.317360
Si Si4 0.850538 0.947130 0.318573
Si Si5 0.420857 0.345620 0.181449
Si Si6 0.287619 0.905897 0.674775
Si Si7 0.650731 0.750717 0.320163
Si Si8 0.783589 0.205058 0.674703
O O1 0.076044 0.850941 0.500000
O O2 0.105085 0.900881 0.749115
O O3 0.136070 0.805813 0.725581
O O4 0.000000 0.836964 0.750000
O O5 0.386724 0.500000 0.750000
O O6 0.500000 0.552221 0.750000
O O7 0.388773 0.603878 0.757057
O O8 0.421708 0.549636 0.000000
O O9 0.500000 0.864722 0.250000
O O10 0.577449 0.862745 0.500000
O O11 0.635425 0.896817 0.247775
O O12 0.606602 0.801520 0.281244
O O13 0.856669 0.946871 0.500000
O O14 0.768320 0.938597 0.269444
O O15 0.874920 0.000000 0.250000
O O16 0.500000 0.338869 0.250000
O O17 0.377457 0.296232 0.225449
O O18 0.425836 0.352196 0.000000
O O19 0.292230 0.923767 0.500000
O O20 0.251881 0.850441 0.672089
O O21 0.641601 0.741261 0.500000
O O22 0.732561 0.762246 0.279894
O O23 0.782659 0.223902 0.500000
#
# Coordination Sequence:
#
# PCOD9392101 Si02
#       8
#     8   8   8   8   8   8   8   8
#     4  10  20  34  51  72  95 117 142 170 201 237
#     4  10  17  27  40  54  73 100 138 180 223 266
#     4  10  19  29  43  63  85 110 139 173 213 254
#     4  11  21  34  51  70  91 114 140 168 202 242
#     4  11  20  29  40  56  80 109 143 184 228 265
#     4   9  17  31  48  65  85 109 138 170 204 245
#     4  10  19  29  42  61  84 110 141 175 213 255
#     4   8  16  30  46  63  85 112 139 167 200 242
#
# _framework density 14.585978000000001
#
# number of rings (size 3 to 8) (size 9 to 14) (size 15 to 20)
#    0.000    2.125    0.000    7.125    0.000    6.250 
#    0.000    1.250    0.000    0.375    0.000    2.625 
#    0.000    0.000    0.000    0.000    0.000    0.625 
#
# Total GULP energy -356897.517650 kJ/mol
# GULP energy per Si atom -5576.523713 kJ/mol
# Density = 1.455278 g / cm^3
# Si number density = 14.585978 Si / 1000 Ang^3
#
#
#
# Elastic Constant Matrix: (Units=GPa)
#
#
# Indices 1 2 3 4 5 6 
#
# 1 88.3752 8.7446 22.9285 0.0000 0.0000 0.0000
# 2 8.7446 29.0770 17.1562 0.0000 0.0000 0.0000
# 3 22.9285 17.1562 88.7069 0.0000 0.0000 0.0000
# 4 0.0000 0.0000 0.0000 21.4837 0.0000 0.0000
# 5 0.0000 0.0000 0.0000 0.0000 22.4784 0.0000
# 6 0.0000 0.0000 0.0000 0.0000 0.0000 7.4289
#
#
#
# Elastic Compliance Matrix: (Units=1/GPa)
#
#
# Indices 1 2 3 4 5 6 
#
# 1 0.012236 -0.002047 -0.002767 0.000000 0.000000 0.000000
# 2 -0.002047 0.039164 -0.007045 0.000000 0.000000 0.000000
# 3 -0.002767 -0.007045 0.013351 0.000000 0.000000 0.000000
# 4 0.000000 0.000000 0.000000 0.046547 0.000000 0.000000
# 5 0.000000 0.000000 0.000000 0.000000 0.044487 0.000000
# 6 0.000000 0.000000 0.000000 0.000000 0.000000 0.134610
#
#
# Mechanical properties :
#
#
# Convention : Reuss Voigt Hill
#
# Bulk Modulus (GPa) = 24.37127 33.75753 29.06440
# Shear Modulus (GPa) = 15.25363 20.76683 18.01023
#
# Velocity S-wave (km/s) = 3.23735 3.77736 3.51773
# Velocity P-wave (km/s) = 5.54246 6.49759 6.03894
#
# Compressibility (1/GPa) = 0.04103193
#
# Stress axis : x y z
#
# Youngs Moduli (GPa) = 81.72754 25.53364 74.90198
#
# Poissons Ratio (x) = 0.05228 0.20723
# Poissons Ratio (y) = 0.16733 0.52770
# Poissons Ratio (z) = 0.22611 0.17989
#
# Static dielectric constant tensor:
#      x y z
#    x 1.479610 0.000000 0.000000 
#    y 0.000000 1.495290 0.000000 
#    z 0.000000 0.000000 1.490460 
# 
# From -- ./inp_files/5417.got.cif
#   From: 2010.05.17/outbox.cif.g08.bks.cpg/sg49_3_cif.got.tgz:5417.got - 2010.06.03 21:02:19.
