data_PCOD9392998
_publ_section_title
;
Structure prediction by ZEFSAII (Michael W. Deem and Ramdas Pophale) SiO2 
 PCOD9392998
Probable space group: P C C M
;
_chemical_formula_sum "Si O2"
_cell_formula_units_Z 38
_cell_length_a 18.258494
_cell_length_b 11.235512
_cell_length_c 10.292052
_cell_angle_alpha 90.000000
_cell_angle_beta 90.000000
_cell_angle_gamma 90.000000
_cell_volume 2111.347862
_symmetry_space_group_name_H-M "P C C M"
_symmetry_group_IT_number 49
_symmetry_cell_setting 'orthorhombic'
loop_
_space_group_symop_operation_xyz
x,y,z
-x,-y,z
x,-y,1/2-z
-x,y,1/2-z
-x,-y,-z
x,y,-z
-x,y,1/2+z
x,-y,1/2+z
loop_
_atom_site_type_symbol
_atom_site_label
_atom_site_fract_x
_atom_site_fract_y
_atom_site_fract_z
Si Si1 0.416580 0.856393 0.746344
Si Si2 0.000000 0.000000 0.750000
Si Si3 0.849575 0.775395 0.000000
Si Si4 0.674124 0.837366 0.500000
Si Si5 0.827367 0.260963 0.000000
Si Si6 0.088321 0.961252 0.000000
Si Si7 0.913162 0.357069 0.249569
Si Si8 0.683625 0.127866 0.500000
O O1 0.500000 0.810743 0.750000
O O2 0.365057 0.833083 0.623051
O O3 0.421962 0.000000 0.750000
O O4 0.373935 0.816764 0.873228
O O5 0.950841 0.933858 0.639793
O O6 0.874673 0.701698 0.874252
O O7 0.894238 0.899745 0.000000
O O8 0.764108 0.812766 0.000000
O O9 0.740361 0.742813 0.500000
O O10 0.691215 0.982077 0.500000
O O11 0.841987 0.119811 0.000000
O O12 0.868411 0.314446 0.876023
O O13 0.909852 0.500000 0.250000
O O14 0.000000 0.325138 0.250000
#
# Coordination Sequence:
#
# PCOD9392998 Si02
#       8
#     8   2   4   4   4   4   8   4
#     4   9  17  29  49  72 110 158 189 210 249 323
#     4  10  24  34  48  74 114 138 186 214 260 352
#     4  12  23  38  60  83 116 146 184 234 294 341
#     4  10  19  33  48  80 117 145 180 221 274 334
#     4  12  23  38  60  83 116 146 184 234 294 341
#     4  11  24  36  54  86 111 148 176 226 293 348
#     4  11  26  44  61  79 105 149 199 247 284 324
#     4  10  19  33  48  80 117 145 180 221 274 334
#
# _framework density 17.997979999999998
#
# number of rings (size 3 to 8) (size 9 to 14) (size 15 to 20)
#    0.000    1.474    1.053    4.421    8.842    4.211 
#    0.000    0.000    0.000    0.000    0.000    0.000 
#    0.000   58.947    0.000    0.000    0.000    0.000 
#
# Total GULP energy -211755.559987 kJ/mol
# GULP energy per Si atom -5572.514737 kJ/mol
# Density = 1.795702 g / cm^3
# Si number density = 17.997980 Si / 1000 Ang^3
#
#
#
# Elastic Constant Matrix: (Units=GPa)
#
#
# Indices 1 2 3 4 5 6 
#
# 1 193.7512 45.1992 108.6806 0.0000 0.0000 0.0000
# 2 45.1992 72.6421 43.8196 0.0000 0.0000 0.0000
# 3 108.6806 43.8196 213.3321 0.0000 0.0000 0.0000
# 4 0.0000 0.0000 0.0000 11.2203 0.0000 0.0000
# 5 0.0000 0.0000 0.0000 0.0000 -10.8146 0.0000
# 6 0.0000 0.0000 0.0000 0.0000 0.0000 15.0291
#
#
#
# Elastic Compliance Matrix: (Units=1/GPa)
#
#
# Indices 1 2 3 4 5 6 
#
# 1 0.007683 -0.002762 -0.003347 0.000000 0.000000 0.000000
# 2 -0.002762 0.016706 -0.002025 0.000000 0.000000 0.000000
# 3 -0.003347 -0.002025 0.006808 0.000000 0.000000 0.000000
# 4 0.000000 0.000000 0.000000 0.089124 0.000000 0.000000
# 5 0.000000 0.000000 0.000000 0.000000 -0.092468 0.000000
# 6 0.000000 0.000000 0.000000 0.000000 0.000000 0.066538
#
#
# Mechanical properties :
#
#
# Convention : Reuss Voigt Hill
#
# Bulk Modulus (GPa) = 66.97413 97.23601 82.10507
# Shear Modulus (GPa) = 43.24000 21.88869 32.56435
#
# Velocity S-wave (km/s) = 4.90684 3.49115 4.25824
# Velocity P-wave (km/s) = 8.33040 8.39013 8.36032
#
# Compressibility (1/GPa) = 0.01493114
#
# Stress axis : x y z
#
# Youngs Moduli (GPa) = 130.16209 59.85985 146.87882
#
# Poissons Ratio (x) = 0.16530 0.49156
# Poissons Ratio (y) = 0.35945 0.29737
# Poissons Ratio (z) = 0.43561 0.12119
#
# Static dielectric constant tensor:
#      x y z
#    x 1.637950 0.000000 0.000000 
#    y 0.000000 1.610820 0.000000 
#    z 0.000000 0.000000 1.628410 
# 
# From -- ./inp_files/4714.got.cif
#   From: 2010.05.17/outbox.cif.g08.bks.cpg/sg49_3_cif.got.tgz:4714.got - 2010.06.03 21:02:19.
