data_PCOD9392276
_publ_section_title
;
Structure prediction by ZEFSAII (Michael W. Deem and Ramdas Pophale) SiO2 
 PCOD9392276
Probable space group: P C C M
;
_chemical_formula_sum "Si O2"
_cell_formula_units_Z 64
_cell_length_a 20.324156
_cell_length_b 20.346626
_cell_length_c 8.924155
_cell_angle_alpha 90.000000
_cell_angle_beta 90.000000
_cell_angle_gamma 90.000000
_cell_volume 3690.387977
_symmetry_space_group_name_H-M "P C C M"
_symmetry_group_IT_number 49
_symmetry_cell_setting 'orthorhombic'
loop_
_space_group_symop_operation_xyz
x,y,z
-x,-y,z
x,-y,1/2-z
-x,y,1/2-z
-x,-y,-z
x,y,-z
-x,y,1/2+z
x,-y,1/2+z
loop_
_atom_site_type_symbol
_atom_site_label
_atom_site_fract_x
_atom_site_fract_y
_atom_site_fract_z
Si Si1 0.720423 0.569767 0.681905
Si Si2 0.703366 0.193560 0.819976
Si Si3 0.908728 0.068413 0.329444
Si Si4 0.750988 0.935370 0.168120
Si Si5 0.434338 0.238670 0.678040
Si Si6 0.569651 0.394942 0.821342
Si Si7 0.194710 0.303590 0.318224
Si Si8 0.069636 0.787232 0.181349
O O1 0.739936 0.500000 0.750000
O O2 0.719820 0.568895 0.500000
O O3 0.643019 0.581610 0.727784
O O4 0.774020 0.625814 0.727811
O O5 0.733095 0.126637 0.765551
O O6 0.630201 0.203762 0.762863
O O7 0.749062 0.252891 0.769648
O O8 0.702406 0.195967 0.000000
O O9 0.935458 0.072829 0.500000
O O10 0.829942 0.061950 0.339818
O O11 0.920312 0.137742 0.243494
O O12 0.930034 0.000000 0.250000
O O13 0.726310 0.000000 0.250000
O O14 0.725282 0.929836 0.000000
O O15 0.500000 0.212611 0.750000
O O16 0.437557 0.231319 0.500000
O O17 0.428689 0.316596 0.707341
O O18 0.500000 0.419214 0.750000
O O19 0.565162 0.406309 0.000000
O O20 0.191768 0.306228 0.500000
O O21 0.126623 0.265976 0.274133
O O22 0.000000 0.765430 0.250000
O O23 0.068301 0.790350 0.000000
#
# Coordination Sequence:
#
# PCOD9392276 Si02
#       8
#     8   8   8   8   8   8   8   8
#     4  10  20  36  55  78 106 140 179 218 262 311
#     4  10  17  31  55  77  98 135 180 219 262 313
#     4  10  20  34  52  78 112 147 181 215 254 307
#     4  10  20  32  49  76 108 139 173 218 263 309
#     4   9  17  29  48  73 102 136 173 216 261 312
#     4   9  17  30  48  71 105 142 177 212 250 304
#     4   9  18  35  58  78 102 137 176 213 259 316
#     4  11  22  37  58  81 107 141 176 217 266 316
#
# _framework density 17.342348999999999
#
# number of rings (size 3 to 8) (size 9 to 14) (size 15 to 20)
#    0.000    2.250    2.500    1.125    0.000    2.500 
#    0.000    4.375    0.000    0.750    0.000    5.250 
#    0.000    0.000    0.000    0.000    0.000    0.000 
#
# Total GULP energy -356314.069193 kJ/mol
# GULP energy per Si atom -5567.407331 kJ/mol
# Density = 1.730288 g / cm^3
# Si number density = 17.342349 Si / 1000 Ang^3
#
#
#
# Elastic Constant Matrix: (Units=GPa)
#
#
# Indices 1 2 3 4 5 6 
#
# 1 110.4605 59.8868 30.7015 0.0000 0.0000 0.0000
# 2 59.8868 109.4910 25.7108 0.0000 0.0000 0.0000
# 3 30.7015 25.7108 26.7401 0.0000 0.0000 0.0000
# 4 0.0000 0.0000 0.0000 12.0236 0.0000 0.0000
# 5 0.0000 0.0000 0.0000 0.0000 12.3130 0.0000
# 6 0.0000 0.0000 0.0000 0.0000 0.0000 11.0120
#
#
#
# Elastic Compliance Matrix: (Units=1/GPa)
#
#
# Indices 1 2 3 4 5 6 
#
# 1 0.015544 -0.005568 -0.012493 0.000000 0.000000 0.000000
# 2 -0.005568 0.013791 -0.006867 0.000000 0.000000 0.000000
# 3 -0.012493 -0.006867 0.058344 0.000000 0.000000 0.000000
# 4 0.000000 0.000000 0.000000 0.083170 0.000000 0.000000
# 5 0.000000 0.000000 0.000000 0.000000 0.081215 0.000000
# 6 0.000000 0.000000 0.000000 0.000000 0.000000 0.090810
#
#
# Mechanical properties :
#
#
# Convention : Reuss Voigt Hill
#
# Bulk Modulus (GPa) = 26.43955 53.25442 39.84699
# Shear Modulus (GPa) = 12.33534 15.76253 14.04894
#
# Velocity S-wave (km/s) = 2.66988 3.01807 2.84930
# Velocity P-wave (km/s) = 4.97827 6.55129 5.81819
#
# Compressibility (1/GPa) = 0.03782213
#
# Stress axis : x y z
#
# Youngs Moduli (GPa) = 64.33237 72.50881 17.13982
#
# Poissons Ratio (x) = 0.40376 0.21413
# Poissons Ratio (y) = 0.35823 0.11770
# Poissons Ratio (z) = 0.80370 0.49793
#
# Static dielectric constant tensor:
#      x y z
#    x 1.612060 0.000000 0.000000 
#    y 0.000000 1.575700 0.000000 
#    z 0.000000 0.000000 1.602350 
# 
# From -- ./inp_files/5976.got.cif
#   From: 2010.05.17/outbox.cif.g08.bks.cpg/sg49_3_cif.got.tgz:5976.got - 2010.06.03 21:02:19.
