data_PCOD9392837
_publ_section_title
;
Structure prediction by ZEFSAII (Michael W. Deem and Ramdas Pophale) SiO2 
 PCOD9392837
Probable space group: P C C M
;
_chemical_formula_sum "Si O2"
_cell_formula_units_Z 64
_cell_length_a 5.546724
_cell_length_b 15.263038
_cell_length_c 31.688492
_cell_angle_alpha 90.000000
_cell_angle_beta 90.000000
_cell_angle_gamma 90.000000
_cell_volume 2682.743271
_symmetry_space_group_name_H-M "P C C M"
_symmetry_group_IT_number 49
_symmetry_cell_setting 'orthorhombic'
loop_
_space_group_symop_operation_xyz
x,y,z
-x,-y,z
x,-y,1/2-z
-x,y,1/2-z
-x,-y,-z
x,y,-z
-x,y,1/2+z
x,-y,1/2+z
loop_
_atom_site_type_symbol
_atom_site_label
_atom_site_fract_x
_atom_site_fract_y
_atom_site_fract_z
Si Si1 0.250000 0.331228 0.377513
Si Si2 0.750000 0.174893 0.725323
Si Si3 0.250000 0.490059 0.928069
Si Si4 0.250000 0.644350 0.356359
Si Si5 0.250000 0.094435 0.047726
Si Si6 0.750000 0.612936 0.228292
Si Si7 0.250000 0.048853 0.146999
Si Si8 0.750000 0.797050 0.454739
O O1 0.250000 0.432859 0.392308
O O2 0.493047 0.309755 0.353067
O O3 0.250000 0.273297 0.418693
O O4 0.006953 0.309755 0.353067
O O5 0.500000 0.149422 0.750000
O O6 0.750000 0.280934 0.724059
O O7 0.750000 0.132840 0.678289
O O8 0.000000 0.149422 0.750000
O O9 0.500000 0.500000 0.951543
O O10 0.250000 0.398843 0.902737
O O11 0.000000 0.500000 0.951543
O O12 0.250000 0.574854 0.318819
O O13 0.250000 0.055355 0.095253
O O14 0.502968 0.147454 0.047758
O O15 0.997032 0.147454 0.047758
O O16 0.250000 0.049777 0.000000
O O17 0.500000 0.590698 0.250000
O O18 0.000000 0.590698 0.250000
O O19 0.500000 0.000000 0.157164
O O20 0.000000 0.000000 0.157164
O O21 0.750000 0.751571 0.500000
#
# Coordination Sequence:
#
# PCOD9392837 Si02
#       8
#     8   8   8   8   8   8   8   8
#     4  10  19  31  56  83 109 152 191 240 286 346
#     4  10  23  41  60  87 125 160 195 253 301 345
#     4   8  16  30  48  73 110 142 190 233 278 342
#     4  10  19  33  55  82 110 150 194 241 287 348
#     4  10  23  43  63  91 130 157 193 252 301 349
#     4  10  21  37  55  82 115 149 192 242 303 350
#     4  12  26  42  65  95 121 162 208 236 286 372
#     4  10  21  37  59  89 120 153 192 243 301 350
#
# _framework density 23.856176999999999
#
# number of rings (size 3 to 8) (size 9 to 14) (size 15 to 20)
#    0.000    2.000    0.000    3.000    3.500    2.000 
#    0.000    0.000    0.000   27.000    0.000    0.000 
#    0.000    0.000    0.000    0.000    0.000    0.000 
#
# Total GULP energy -356895.480801 kJ/mol
# GULP energy per Si atom -5576.491888 kJ/mol
# Density = 2.380188 g / cm^3
# Si number density = 23.856177 Si / 1000 Ang^3
#
#
#
# Elastic Constant Matrix: (Units=GPa)
#
#
# Indices 1 2 3 4 5 6 
#
# 1 285.9043 38.9619 58.9228 0.0000 0.0000 0.0000
# 2 38.9619 70.0309 34.7267 0.0000 0.0000 0.0000
# 3 58.9228 34.7267 113.0914 0.0000 0.0000 0.0000
# 4 0.0000 0.0000 0.0000 80.8312 0.0000 0.0000
# 5 0.0000 0.0000 0.0000 0.0000 27.3006 0.0000
# 6 0.0000 0.0000 0.0000 0.0000 0.0000 25.5007
#
#
#
# Elastic Compliance Matrix: (Units=1/GPa)
#
#
# Indices 1 2 3 4 5 6 
#
# 1 0.004034 -0.001418 -0.001667 0.000000 0.000000 0.000000
# 2 -0.001418 0.017343 -0.004587 0.000000 0.000000 0.000000
# 3 -0.001667 -0.004587 0.011119 0.000000 0.000000 0.000000
# 4 0.000000 0.000000 0.000000 0.012371 0.000000 0.000000
# 5 0.000000 0.000000 0.000000 0.000000 0.036629 0.000000
# 6 0.000000 0.000000 0.000000 0.000000 0.000000 0.039215
#
#
# Mechanical properties :
#
#
# Convention : Reuss Voigt Hill
#
# Bulk Modulus (GPa) = 58.29603 81.58328 69.93966
# Shear Modulus (GPa) = 35.26793 49.15417 42.21105
#
# Velocity S-wave (km/s) = 3.84911 4.54413 4.21098
# Velocity P-wave (km/s) = 6.65159 7.86157 7.28176
#
# Compressibility (1/GPa) = 0.01715383
#
# Stress axis : x y z
#
# Youngs Moduli (GPa) = 247.86870 57.66101 89.93561
#
# Poissons Ratio (x) = 0.08177 0.14988
# Poissons Ratio (y) = 0.35152 0.41249
# Poissons Ratio (z) = 0.41308 0.26446
#
# Static dielectric constant tensor:
#      x y z
#    x 2.570600 0.000000 0.000000 
#    y 0.000000 1.913370 0.000000 
#    z 0.000000 0.000000 2.110770 
# 
# From -- ./inp_files/25928.got.cif
#   From: 2010.05.17/outbox.cif.g08.bks.cpg/sg49_13_cif.got.tgz:25928.got - 2010.06.03 21:02:19.
