data_PCOD9392178
_publ_section_title
;
Structure prediction by ZEFSAII (Michael W. Deem and Ramdas Pophale) SiO2 
 PCOD9392178
Probable space group: P C C M
;
_chemical_formula_sum "Si O2"
_cell_formula_units_Z 38
_cell_length_a 9.482541
_cell_length_b 22.935479
_cell_length_c 9.052678
_cell_angle_alpha 90.000000
_cell_angle_beta 90.000000
_cell_angle_gamma 90.000000
_cell_volume 1968.836340
_symmetry_space_group_name_H-M "P C C M"
_symmetry_group_IT_number 49
_symmetry_cell_setting 'orthorhombic'
loop_
_space_group_symop_operation_xyz
x,y,z
-x,-y,z
x,-y,1/2-z
-x,y,1/2-z
-x,-y,-z
x,y,-z
-x,y,1/2+z
x,-y,1/2+z
loop_
_atom_site_type_symbol
_atom_site_label
_atom_site_fract_x
_atom_site_fract_y
_atom_site_fract_z
Si Si1 0.500000 0.500000 0.000000
Si Si2 0.350170 0.287937 0.326422
Si Si3 0.152268 0.175100 0.324852
Si Si4 0.851848 0.378828 0.672661
Si Si5 0.157803 0.941706 0.321333
Si Si6 0.719471 0.500000 0.750000
O O1 0.386236 0.520907 0.124577
O O2 0.500000 0.278675 0.250000
O O3 0.368984 0.300134 0.500000
O O4 0.252224 0.230816 0.311461
O O5 0.269281 0.340710 0.248009
O O6 0.132535 0.161884 0.500000
O O7 0.217394 0.119239 0.239636
O O8 0.000000 0.187308 0.250000
O O9 0.860000 0.364773 0.500000
O O10 0.812236 0.446548 0.692040
O O11 0.000000 0.366288 0.750000
O O12 0.153129 0.944503 0.500000
O O13 0.000000 0.940227 0.250000
O O14 0.224179 0.000000 0.250000
#
# Coordination Sequence:
#
# PCOD9392178 Si02
#       6
#     2   8   8   8   8   4
#     4  10  24  42  66  98 128 162 202 246 298 362
#     4  11  26  43  65  89 120 159 203 250 302 364
#     4  10  20  36  57  85 118 155 196 245 297 352
#     4  12  27  44  67  94 126 160 202 252 306 361
#     4  10  17  27  48  79 115 154 193 241 292 349
#     4  11  25  42  68  94 128 164 202 250 300 360
#
# _framework density 19.300740999999999
#
# number of rings (size 3 to 8) (size 9 to 14) (size 15 to 20)
#    0.000    1.263    1.053    6.632    5.895    5.895 
#    0.000    0.000    0.000    0.632    0.000    4.421 
#    0.000    0.000    0.000    0.000    0.000    0.000 
#
# Total GULP energy -211661.168205 kJ/mol
# GULP energy per Si atom -5570.030742 kJ/mol
# Density = 1.925681 g / cm^3
# Si number density = 19.300741 Si / 1000 Ang^3
#
#
#
# Elastic Constant Matrix: (Units=GPa)
#
#
# Indices 1 2 3 4 5 6 
#
# 1 87.9767 29.1252 56.0240 0.0000 0.0000 0.0000
# 2 29.1252 100.4173 60.0747 0.0000 0.0000 0.0000
# 3 56.0240 60.0747 212.0659 0.0000 0.0000 0.0000
# 4 0.0000 0.0000 0.0000 45.5859 0.0000 0.0000
# 5 0.0000 0.0000 0.0000 0.0000 31.4397 0.0000
# 6 0.0000 0.0000 0.0000 0.0000 0.0000 -72.8458
#
#
#
# Elastic Compliance Matrix: (Units=1/GPa)
#
#
# Indices 1 2 3 4 5 6 
#
# 1 0.014071 -0.002236 -0.003084 0.000000 0.000000 0.000000
# 2 -0.002236 0.012346 -0.002907 0.000000 0.000000 0.000000
# 3 -0.003084 -0.002907 0.006354 0.000000 0.000000 0.000000
# 4 0.000000 0.000000 0.000000 0.021937 0.000000 0.000000
# 5 0.000000 0.000000 0.000000 0.000000 0.031807 0.000000
# 6 0.000000 0.000000 0.000000 0.000000 0.000000 -0.013728
#
#
# Mechanical properties :
#
#
# Convention : Reuss Voigt Hill
#
# Bulk Modulus (GPa) = 61.28571 76.76753 69.02662
# Shear Modulus (GPa) = 52.81041 17.85171 35.33106
#
# Velocity S-wave (km/s) = 5.23653 3.04455 4.28314
# Velocity P-wave (km/s) = 8.26944 7.22633 7.76542
#
# Compressibility (1/GPa) = 0.01631702
#
# Stress axis : x y z
#
# Youngs Moduli (GPa) = 71.06962 80.99829 157.39161
#
# Poissons Ratio (x) = 0.18113 0.48535
# Poissons Ratio (y) = 0.15893 0.45748
# Poissons Ratio (z) = 0.21916 0.23543
#
# Static dielectric constant tensor:
#      x y z
#    x 1.651180 0.000000 0.000000 
#    y 0.000000 1.741990 0.000000 
#    z 0.000000 0.000000 1.656900 
# 
# From -- ./inp_files/1763.got.cif
#   From: 2010.05.17/outbox.cif.g08.bks.cpg/sg49_1_cif.got.tgz:1763.got - 2010.06.03 21:02:19.
