data_PCOD9392120
_publ_section_title
;
Structure prediction by ZEFSAII (Michael W. Deem and Ramdas Pophale) SiO2 
 PCOD9392120
Probable space group: P C C M
;
_chemical_formula_sum "Si O2"
_cell_formula_units_Z 58
_cell_length_a 13.195085
_cell_length_b 27.183612
_cell_length_c 9.207093
_cell_angle_alpha 90.000000
_cell_angle_beta 90.000000
_cell_angle_gamma 90.000000
_cell_volume 3302.492841
_symmetry_space_group_name_H-M "P C C M"
_symmetry_group_IT_number 49
_symmetry_cell_setting 'orthorhombic'
loop_
_space_group_symop_operation_xyz
x,y,z
-x,-y,z
x,-y,1/2-z
-x,y,1/2-z
-x,-y,-z
x,y,-z
-x,y,1/2+z
x,-y,1/2+z
loop_
_atom_site_type_symbol
_atom_site_label
_atom_site_fract_x
_atom_site_fract_y
_atom_site_fract_z
Si Si1 0.390065 0.647028 0.824883
Si Si2 0.592585 0.838735 0.835675
Si Si3 0.895020 0.925825 0.328542
Si Si4 0.101183 0.191578 0.672042
Si Si5 0.696596 0.753523 0.327851
Si Si6 0.500000 0.000000 0.750000
Si Si7 0.697689 0.060842 0.339779
Si Si8 0.387079 0.450957 0.177363
O O1 0.500000 0.655745 0.750000
O O2 0.325119 0.696351 0.804083
O O3 0.343397 0.599942 0.741125
O O4 0.401350 0.637993 0.000000
O O5 0.500000 0.861407 0.750000
O O6 0.620833 0.788415 0.758254
O O7 0.677254 0.880646 0.832665
O O8 0.563991 0.828916 0.000000
O O9 0.905575 0.933705 0.500000
O O10 0.885092 0.866763 0.300292
O O11 0.788394 0.948270 0.273166
O O12 0.000000 0.941358 0.250000
O O13 0.089958 0.196547 0.500000
O O14 0.194497 0.225534 0.717625
O O15 0.000000 0.207726 0.750000
O O16 0.684996 0.762854 0.500000
O O17 0.586304 0.035004 0.675205
O O18 0.736203 0.048243 0.500000
O O19 0.339981 0.500000 0.250000
O O20 0.500000 0.449698 0.250000
O O21 0.609172 0.547120 0.000000
#
# Coordination Sequence:
#
# PCOD9392120 Si02
#       8
#     8   8   8   8   8   2   8   8
#     4  10  19  30  44  64  97 135 174 216 257 303
#     4  11  22  35  53  77 106 140 178 215 254 312
#     4  10  20  37  64  90 118 146 179 223 270 325
#     4   9  18  32  51  77 105 136 170 209 256 306
#     4  10  20  34  50  73 105 140 175 213 260 312
#     4  12  26  48  66  86 118 148 184 232 276 320
#     4  11  24  41  62  88 114 144 183 223 271 325
#     4  10  17  27  43  62  88 124 172 219 264 309
#
# _framework density 17.562491000000001
#
# number of rings (size 3 to 8) (size 9 to 14) (size 15 to 20)
#    0.000    1.793    2.069    4.345    0.000    4.966 
#    0.000    0.345    0.000    1.655    0.000    0.000 
#    0.000    0.552    0.000    6.345    0.000    1.931 
#
# Total GULP energy -323054.912457 kJ/mol
# GULP energy per Si atom -5569.912284 kJ/mol
# Density = 1.752252 g / cm^3
# Si number density = 17.562491 Si / 1000 Ang^3
#
#
#
# Elastic Constant Matrix: (Units=GPa)
#
#
# Indices 1 2 3 4 5 6 
#
# 1 96.0696 23.2230 52.0594 0.0000 0.0000 0.0000
# 2 23.2230 110.8550 55.2283 0.0000 0.0000 0.0000
# 3 52.0594 55.2283 101.0881 0.0000 0.0000 0.0000
# 4 0.0000 0.0000 0.0000 12.8426 0.0000 0.0000
# 5 0.0000 0.0000 0.0000 0.0000 26.2645 0.0000
# 6 0.0000 0.0000 0.0000 0.0000 0.0000 2.3839
#
#
#
# Elastic Compliance Matrix: (Units=1/GPa)
#
#
# Indices 1 2 3 4 5 6 
#
# 1 0.014509 0.000939 -0.007985 0.000000 0.000000 0.000000
# 2 0.000939 0.012455 -0.007288 0.000000 0.000000 0.000000
# 3 -0.007985 -0.007288 0.017986 0.000000 0.000000 0.000000
# 4 0.000000 0.000000 0.000000 0.077866 0.000000 0.000000
# 5 0.000000 0.000000 0.000000 0.000000 0.038074 0.000000
# 6 0.000000 0.000000 0.000000 0.000000 0.000000 0.419476
#
#
# Mechanical properties :
#
#
# Convention : Reuss Voigt Hill
#
# Bulk Modulus (GPa) = 61.41824 63.22601 62.32212
# Shear Modulus (GPa) = 8.13719 20.13167 14.13443
#
# Velocity S-wave (km/s) = 2.15484 3.38936 2.83999
# Velocity P-wave (km/s) = 6.42170 7.16908 6.80566
#
# Compressibility (1/GPa) = 0.01628181
#
# Stress axis : x y z
#
# Youngs Moduli (GPa) = 68.92200 80.28843 55.59818
#
# Poissons Ratio (x) = -0.07535 0.44394
# Poissons Ratio (y) = -0.06469 0.40520
# Poissons Ratio (z) = 0.55033 0.58515
#
# Static dielectric constant tensor:
#      x y z
#    x 1.600640 0.000000 0.000000 
#    y 0.000000 1.645770 0.000000 
#    z 0.000000 0.000000 1.605080 
# 
# From -- ./inp_files/3031.got.cif
#   From: 2010.05.17/outbox.cif.g08.bks.cpg/sg49_2_cif.got.tgz:3031.got - 2010.06.03 21:02:19.
