data_PCOD9392756
_publ_section_title
;
Structure prediction by ZEFSAII (Michael W. Deem and Ramdas Pophale) SiO2 
 PCOD9392756
Probable space group: P C C M
;
_chemical_formula_sum "Si O2"
_cell_formula_units_Z 64
_cell_length_a 20.722903
_cell_length_b 20.496881
_cell_length_c 8.670407
_cell_angle_alpha 90.000000
_cell_angle_beta 90.000000
_cell_angle_gamma 90.000000
_cell_volume 3682.797657
_symmetry_space_group_name_H-M "P C C M"
_symmetry_group_IT_number 49
_symmetry_cell_setting 'orthorhombic'
loop_
_space_group_symop_operation_xyz
x,y,z
-x,-y,z
x,-y,1/2-z
-x,y,1/2-z
-x,-y,-z
x,y,-z
-x,y,1/2+z
x,-y,1/2+z
loop_
_atom_site_type_symbol
_atom_site_label
_atom_site_fract_x
_atom_site_fract_y
_atom_site_fract_z
Si Si1 0.682846 0.831544 0.312776
Si Si2 0.755613 0.290600 0.186963
Si Si3 0.205884 0.931116 0.186132
Si Si4 0.793560 0.567674 0.683752
Si Si5 0.427950 0.070561 0.686336
Si Si6 0.933345 0.115068 0.182939
Si Si7 0.106573 0.249669 0.818868
Si Si8 0.067813 0.398201 0.180677
O O1 0.680844 0.831422 0.500000
O O2 0.697326 0.757113 0.264978
O O3 0.745050 0.874406 0.266425
O O4 0.619688 0.871234 0.263009
O O5 0.756215 0.366494 0.234514
O O6 0.821568 0.260529 0.253678
O O7 0.759981 0.288970 0.000000
O O8 0.132888 0.917554 0.240925
O O9 0.228519 0.000000 0.250000
O O10 0.205366 0.932447 0.000000
O O11 0.767799 0.500000 0.750000
O O12 0.792428 0.565076 0.500000
O O13 0.867911 0.575586 0.737635
O O14 0.500000 0.080707 0.750000
O O15 0.429214 0.067508 0.500000
O O16 0.405614 0.000000 0.750000
O O17 0.926415 0.191081 0.228000
O O18 0.000000 0.088720 0.250000
O O19 0.935240 0.108940 0.000000
O O20 0.072165 0.319548 0.802131
O O21 0.108339 0.233315 0.000000
O O22 0.000000 0.420685 0.250000
O O23 0.071267 0.414169 0.000000
#
# Coordination Sequence:
#
# PCOD9392756 Si02
#       8
#     8   8   8   8   8   8   8   8
#     4   9  17  33  55  77 100 132 171 208 244 288
#     4   9  17  33  54  73  96 127 164 201 245 292
#     4  10  21  36  52  69  92 122 159 205 250 297
#     4  10  20  33  51  70  94 126 155 195 246 301
#     4  10  19  32  52  77 112 148 179 210 243 290
#     4  11  22  35  50  65  88 119 156 205 256 310
#     4  10  19  31  48  71  94 118 152 199 252 303
#     4  10  20  32  46  66  91 117 154 197 243 302
#
# _framework density 17.378093
#
# number of rings (size 3 to 8) (size 9 to 14) (size 15 to 20)
#    0.000    2.125    1.250    3.000    0.000    4.500 
#    0.000    4.375    0.000    0.000    0.000    0.000 
#    0.000    0.500    0.000    6.250    0.000    0.000 
#
# Total GULP energy -357146.931271 kJ/mol
# GULP energy per Si atom -5580.420801 kJ/mol
# Density = 1.733854 g / cm^3
# Si number density = 17.378093 Si / 1000 Ang^3
#
#
#
# Elastic Constant Matrix: (Units=GPa)
#
#
# Indices 1 2 3 4 5 6 
#
# 1 76.9880 50.4613 16.8378 0.0000 0.0000 0.0000
# 2 50.4613 115.5608 21.3971 0.0000 0.0000 0.0000
# 3 16.8378 21.3971 26.7756 0.0000 0.0000 0.0000
# 4 0.0000 0.0000 0.0000 -43.4690 0.0000 0.0000
# 5 0.0000 0.0000 0.0000 0.0000 13.4988 0.0000
# 6 0.0000 0.0000 0.0000 0.0000 0.0000 -414.5751
#
#
#
# Elastic Compliance Matrix: (Units=1/GPa)
#
#
# Indices 1 2 3 4 5 6 
#
# 1 0.019051 -0.007160 -0.006258 0.000000 0.000000 0.000000
# 2 -0.007160 0.012847 -0.005764 0.000000 0.000000 0.000000
# 3 -0.006258 -0.005764 0.045889 0.000000 0.000000 0.000000
# 4 0.000000 0.000000 0.000000 -0.023005 0.000000 0.000000
# 5 0.000000 0.000000 0.000000 0.000000 0.074081 0.000000
# 6 0.000000 0.000000 0.000000 0.000000 0.000000 -0.002412
#
#
# Mechanical properties :
#
#
# Convention : Reuss Voigt Hill
#
# Bulk Modulus (GPa) = 25.36624 44.07965 34.72295
# Shear Modulus (GPa) = 28.09681 -80.20052 -26.05185
#
# Velocity S-wave (km/s) = 4.02530 -6.80078 -3.87605
# Velocity P-wave (km/s) = 6.01934 6.02057 0.08612
#
# Compressibility (1/GPa) = 0.03942247
#
# Stress axis : x y z
#
# Youngs Moduli (GPa) = 52.49134 77.83769 21.79167
#
# Poissons Ratio (x) = 0.55732 0.13638
# Poissons Ratio (y) = 0.37584 0.12561
# Poissons Ratio (z) = 0.32851 0.44866
#
# Static dielectric constant tensor:
#      x y z
#    x 1.580540 0.000000 0.000000 
#    y 0.000000 1.623590 0.000000 
#    z 0.000000 0.000000 1.587700 
# 
# From -- ./inp_files/6071.got.cif
#   From: 2010.05.17/outbox.cif.g08.bks.cpg/sg49_4_cif.got.tgz:6071.got - 2010.06.03 21:02:19.
