data_PCOD9392942
_publ_section_title
;
Structure prediction by ZEFSAII (Michael W. Deem and Ramdas Pophale) SiO2 
 PCOD9392942
Probable space group: P C C M
;
_chemical_formula_sum "Si O2"
_cell_formula_units_Z 38
_cell_length_a 17.290327
_cell_length_b 13.228660
_cell_length_c 9.440956
_cell_angle_alpha 90.000000
_cell_angle_beta 90.000000
_cell_angle_gamma 90.000000
_cell_volume 2159.409636
_symmetry_space_group_name_H-M "P C C M"
_symmetry_group_IT_number 49
_symmetry_cell_setting 'orthorhombic'
loop_
_space_group_symop_operation_xyz
x,y,z
-x,-y,z
x,-y,1/2-z
-x,y,1/2-z
-x,-y,-z
x,y,-z
-x,y,1/2+z
x,-y,1/2+z
loop_
_atom_site_type_symbol
_atom_site_label
_atom_site_fract_x
_atom_site_fract_y
_atom_site_fract_z
Si Si1 0.250355 0.239618 0.170919
Si Si2 0.650833 0.097065 0.837387
Si Si3 0.109157 0.093717 0.154426
Si Si4 0.000000 0.261370 0.250000
Si Si5 0.855099 0.395586 0.166658
Si Si6 0.500000 0.000000 0.250000
O O1 0.326074 0.196100 0.248589
O O2 0.187204 0.151176 0.197003
O O3 0.212796 0.335222 0.250622
O O4 0.257836 0.253391 0.000000
O O5 0.559206 0.071306 0.835359
O O6 0.682888 0.000000 0.750000
O O7 0.677980 0.101564 0.000000
O O8 0.046263 0.182892 0.152248
O O9 0.088388 0.000000 0.250000
O O10 0.120628 0.050352 0.000000
O O11 0.065746 0.330487 0.320271
O O12 0.867088 0.500000 0.250000
O O13 0.837821 0.409930 0.000000
#
# Coordination Sequence:
#
# PCOD9392942 Si02
#       6
#     8   8   8   4   8   2
#     4  10  21  36  54  76 106 142 183 226 273 326
#     4  10  19  32  52  80 116 152 184 217 258 309
#     4  10  21  34  48  71 101 137 178 220 266 319
#     4  10  22  36  54  74 100 136 180 230 280 332
#     4  11  23  39  58  78 102 134 179 234 290 339
#     4   8  22  32  54  84 124 154 186 216 254 308
#
# _framework density 17.597401999999999
#
# number of rings (size 3 to 8) (size 9 to 14) (size 15 to 20)
#    0.632    1.263    0.000    4.105    0.000   10.947 
#    0.000    0.000    0.000    0.000    0.000    0.737 
#    0.000    5.053    0.000    0.000    0.000    0.000 
#
# Total GULP energy -211587.844294 kJ/mol
# GULP energy per Si atom -5568.101166 kJ/mol
# Density = 1.755735 g / cm^3
# Si number density = 17.597402 Si / 1000 Ang^3
#
#
#
# Elastic Constant Matrix: (Units=GPa)
#
#
# Indices 1 2 3 4 5 6 
#
# 1 64.7589 28.3463 23.5804 0.0000 0.0000 0.0000
# 2 28.3463 102.9419 58.1708 0.0000 0.0000 0.0000
# 3 23.5804 58.1708 113.3107 0.0000 0.0000 0.0000
# 4 0.0000 0.0000 0.0000 21.2716 0.0000 0.0000
# 5 0.0000 0.0000 0.0000 0.0000 14.3137 0.0000
# 6 0.0000 0.0000 0.0000 0.0000 0.0000 21.9481
#
#
#
# Elastic Compliance Matrix: (Units=1/GPa)
#
#
# Indices 1 2 3 4 5 6 
#
# 1 0.017780 -0.003951 -0.001672 0.000000 0.000000 0.000000
# 2 -0.003951 0.014562 -0.006653 0.000000 0.000000 0.000000
# 3 -0.001672 -0.006653 0.012589 0.000000 0.000000 0.000000
# 4 0.000000 0.000000 0.000000 0.047011 0.000000 0.000000
# 5 0.000000 0.000000 0.000000 0.000000 0.069863 0.000000
# 6 0.000000 0.000000 0.000000 0.000000 0.000000 0.045562
#
#
# Mechanical properties :
#
#
# Convention : Reuss Voigt Hill
#
# Bulk Modulus (GPa) = 49.07210 55.68962 52.38086
# Shear Modulus (GPa) = 20.94565 22.90094 21.92329
#
# Velocity S-wave (km/s) = 3.45377 3.61138 3.53345
# Velocity P-wave (km/s) = 6.62203 7.00747 6.81747
#
# Compressibility (1/GPa) = 0.02037818
#
# Stress axis : x y z
#
# Youngs Moduli (GPa) = 56.24239 68.67155 79.43514
#
# Poissons Ratio (x) = 0.27135 0.13278
# Poissons Ratio (y) = 0.22224 0.52852
# Poissons Ratio (z) = 0.09401 0.45691
#
# Static dielectric constant tensor:
#      x y z
#    x 1.649870 0.000000 0.000000 
#    y 0.000000 1.531410 0.000000 
#    z 0.000000 0.000000 1.617380 
# 
# From -- ./inp_files/4667.got.cif
#   From: 2010.05.17/outbox.cif.g08.bks.cpg/sg49_3_cif.got.tgz:4667.got - 2010.06.03 21:02:19.
