data_PCOD9392385
_publ_section_title
;
Structure prediction by ZEFSAII (Michael W. Deem and Ramdas Pophale) SiO2 
 PCOD9392385
Probable space group: P C C M
;
_chemical_formula_sum "Si O2"
_cell_formula_units_Z 64
_cell_length_a 24.139988
_cell_length_b 19.457929
_cell_length_c 8.807598
_cell_angle_alpha 90.000000
_cell_angle_beta 90.000000
_cell_angle_gamma 90.000000
_cell_volume 4137.053607
_symmetry_space_group_name_H-M "P C C M"
_symmetry_group_IT_number 49
_symmetry_cell_setting 'orthorhombic'
loop_
_space_group_symop_operation_xyz
x,y,z
-x,-y,z
x,-y,1/2-z
-x,y,1/2-z
-x,-y,-z
x,y,-z
-x,y,1/2+z
x,-y,1/2+z
loop_
_atom_site_type_symbol
_atom_site_label
_atom_site_fract_x
_atom_site_fract_y
_atom_site_fract_z
Si Si1 0.110471 0.927899 0.682235
Si Si2 0.240276 0.927403 0.318402
Si Si3 0.333489 0.337551 0.182001
Si Si4 0.059765 0.217244 0.817366
Si Si5 0.224030 0.575666 0.681937
Si Si6 0.727385 0.212706 0.180745
Si Si7 0.559693 0.575367 0.182850
Si Si8 0.161808 0.701072 0.818116
O O1 0.108556 0.932326 0.500000
O O2 0.175206 0.919156 0.726808
O O3 0.076991 0.860466 0.729886
O O4 0.090385 0.000000 0.750000
O O5 0.242753 0.929475 0.500000
O O6 0.272838 0.861825 0.256329
O O7 0.259113 0.000000 0.250000
O O8 0.283780 0.390523 0.220580
O O9 0.318717 0.265627 0.259954
O O10 0.391762 0.371691 0.224015
O O11 0.332335 0.328109 0.000000
O O12 0.106849 0.267708 0.754553
O O13 0.000000 0.233835 0.750000
O O14 0.058993 0.219850 0.000000
O O15 0.219949 0.500000 0.750000
O O16 0.219213 0.573676 0.500000
O O17 0.178741 0.627341 0.751204
O O18 0.786440 0.248607 0.219749
O O19 0.724265 0.206332 0.000000
O O20 0.572831 0.500000 0.250000
O O21 0.500000 0.595273 0.250000
O O22 0.556553 0.570514 0.000000
O O23 0.157045 0.697710 0.000000
#
# Coordination Sequence:
#
# PCOD9392385 Si02
#       8
#     8   8   8   8   8   8   8   8
#     4   9  19  32  48  67  91 122 155 191 231 276
#     4  10  18  30  47  68  95 127 160 194 236 288
#     4   9  19  32  47  69  99 133 166 202 242 282
#     4  11  22  36  51  70  92 121 156 194 237 281
#     4  10  19  32  51  74  99 125 154 193 237 284
#     4  10  19  30  48  72  96 124 159 199 243 287
#     4  10  19  31  47  68  97 136 176 210 244 282
#     4  10  20  34  51  71  94 121 153 191 235 287
#
# _framework density 15.469946999999999
#
# number of rings (size 3 to 8) (size 9 to 14) (size 15 to 20)
#    0.000    2.125    1.250    3.000    0.000    4.250 
#    0.000    1.250    0.000    0.375    0.000    2.625 
#    0.000    0.500    0.000    5.250    0.000    2.875 
#
# Total GULP energy -357172.552988 kJ/mol
# GULP energy per Si atom -5580.821140 kJ/mol
# Density = 1.543474 g / cm^3
# Si number density = 15.469947 Si / 1000 Ang^3
#
#
#
# Elastic Constant Matrix: (Units=GPa)
#
#
# Indices 1 2 3 4 5 6 
#
# 1 97.4143 64.3551 40.8760 0.0000 0.0000 0.0000
# 2 64.3551 134.5974 52.5441 0.0000 0.0000 0.0000
# 3 40.8760 52.5441 48.5701 0.0000 0.0000 0.0000
# 4 0.0000 0.0000 0.0000 30.3917 0.0000 0.0000
# 5 0.0000 0.0000 0.0000 0.0000 19.9116 0.0000
# 6 0.0000 0.0000 0.0000 0.0000 0.0000 25.0282
#
#
#
# Elastic Compliance Matrix: (Units=1/GPa)
#
#
# Indices 1 2 3 4 5 6 
#
# 1 0.017301 -0.004480 -0.009714 0.000000 0.000000 0.000000
# 2 -0.004480 0.014021 -0.011398 0.000000 0.000000 0.000000
# 3 -0.009714 -0.011398 0.041094 0.000000 0.000000 0.000000
# 4 0.000000 0.000000 0.000000 0.032904 0.000000 0.000000
# 5 0.000000 0.000000 0.000000 0.000000 0.050222 0.000000
# 6 0.000000 0.000000 0.000000 0.000000 0.000000 0.039955
#
#
# Mechanical properties :
#
#
# Convention : Reuss Voigt Hill
#
# Bulk Modulus (GPa) = 47.09655 66.23692 56.66673
# Shear Modulus (GPa) = 19.70377 23.25342 21.47859
#
# Velocity S-wave (km/s) = 3.57274 3.88123 3.73018
# Velocity P-wave (km/s) = 6.89415 7.93692 7.43384
#
# Compressibility (1/GPa) = 0.02123298
#
# Stress axis : x y z
#
# Youngs Moduli (GPa) = 57.79959 71.32056 24.33426
#
# Poissons Ratio (x) = 0.31953 0.23638
# Poissons Ratio (y) = 0.25895 0.27736
# Poissons Ratio (z) = 0.56145 0.81291
#
# Static dielectric constant tensor:
#      x y z
#    x 1.498460 0.000000 0.000000 
#    y 0.000000 1.501340 0.000000 
#    z 0.000000 0.000000 1.514080 
# 
# From -- ./inp_files/5387.got.cif
#   From: 2010.05.17/outbox.cif.g08.bks.cpg/sg49_3_cif.got.tgz:5387.got - 2010.06.03 21:02:19.
