data_PCOD9392090
_publ_section_title
;
Structure prediction by ZEFSAII (Michael W. Deem and Ramdas Pophale) SiO2 
 PCOD9392090
Probable space group: P C C M
;
_chemical_formula_sum "Si O2"
_cell_formula_units_Z 56
_cell_length_a 21.148433
_cell_length_b 15.655871
_cell_length_c 8.174731
_cell_angle_alpha 90.000000
_cell_angle_beta 90.000000
_cell_angle_gamma 90.000000
_cell_volume 2706.630045
_symmetry_space_group_name_H-M "P C C M"
_symmetry_group_IT_number 49
_symmetry_cell_setting 'orthorhombic'
loop_
_space_group_symop_operation_xyz
x,y,z
-x,-y,z
x,-y,1/2-z
-x,y,1/2-z
-x,-y,-z
x,y,-z
-x,y,1/2+z
x,-y,1/2+z
loop_
_atom_site_type_symbol
_atom_site_label
_atom_site_fract_x
_atom_site_fract_y
_atom_site_fract_z
Si Si1 0.927427 0.725010 0.197576
Si Si2 0.432159 0.112662 0.312102
Si Si3 0.821809 0.597509 0.197699
Si Si4 0.564991 0.696017 0.803610
Si Si5 0.073519 0.910585 0.694536
Si Si6 0.294167 0.286693 0.198921
Si Si7 0.296881 0.908008 0.686187
O O1 0.884058 0.647923 0.256006
O O2 0.901598 0.818494 0.252426
O O3 0.000000 0.716855 0.250000
O O4 0.926007 0.725585 0.000000
O O5 0.500000 0.083647 0.250000
O O6 0.420647 0.089167 0.500000
O O7 0.436309 0.214816 0.293856
O O8 0.373274 0.086693 0.200783
O O9 0.820079 0.500000 0.250000
O O10 0.761719 0.652316 0.255318
O O11 0.821499 0.599802 0.000000
O O12 0.500000 0.649050 0.750000
O O13 0.637403 0.669973 0.766284
O O14 0.561617 0.709946 0.000000
O O15 0.074758 0.911263 0.500000
O O16 0.000000 0.911210 0.750000
O O17 0.103154 0.000000 0.750000
O O18 0.285686 0.187808 0.259765
O O19 0.291676 0.280091 0.000000
O O20 0.275599 0.903380 0.500000
O O21 0.272898 0.000000 0.750000
#
# Coordination Sequence:
#
# PCOD9392090 Si02
#       7
#     8   8   8   8   8   8   8
#     4   9  19  34  55  81 114 148 181 218 264 311
#     4  10  17  26  40  62  94 133 173 215 256 304
#     4  10  21  40  61  82 105 137 176 219 267 322
#     4   9  15  26  46  73 100 132 169 212 261 313
#     4   9  15  25  43  71 104 143 180 214 250 293
#     4   8  17  34  55  74 102 139 174 209 259 317
#     4  10  19  32  48  69  96 132 171 212 257 308
#
# _framework density 20.689934000000001
#
# number of rings (size 3 to 8) (size 9 to 14) (size 15 to 20)
#    0.000    2.714    0.000    4.714    0.000    1.714 
#    0.000    7.857    0.000    0.429    0.000    3.000 
#    0.000    0.000    0.000    0.000    0.000    0.000 
#
# Total GULP energy -311767.901360 kJ/mol
# GULP energy per Si atom -5567.283953 kJ/mol
# Density = 2.064284 g / cm^3
# Si number density = 20.689934 Si / 1000 Ang^3
#
#
#
# Elastic Constant Matrix: (Units=GPa)
#
#
# Indices 1 2 3 4 5 6 
#
# 1 98.7011 78.9122 9.4323 0.0000 0.0000 0.0000
# 2 78.9122 151.1785 12.8447 0.0000 0.0000 0.0000
# 3 9.4323 12.8447 35.2244 0.0000 0.0000 0.0000
# 4 0.0000 0.0000 0.0000 23.1968 0.0000 0.0000
# 5 0.0000 0.0000 0.0000 0.0000 11.6882 0.0000
# 6 0.0000 0.0000 0.0000 0.0000 0.0000 109.3393
#
#
#
# Elastic Compliance Matrix: (Units=1/GPa)
#
#
# Indices 1 2 3 4 5 6 
#
# 1 0.017454 -0.008992 -0.001395 0.000000 0.000000 0.000000
# 2 -0.008992 0.011459 -0.001771 0.000000 0.000000 0.000000
# 3 -0.001395 -0.001771 0.029409 0.000000 0.000000 0.000000
# 4 0.000000 0.000000 0.000000 0.043109 0.000000 0.000000
# 5 0.000000 0.000000 0.000000 0.000000 0.085556 0.000000
# 6 0.000000 0.000000 0.000000 0.000000 0.000000 0.009146
#
#
# Mechanical properties :
#
#
# Convention : Reuss Voigt Hill
#
# Bulk Modulus (GPa) = 29.40622 54.16471 41.78546
# Shear Modulus (GPa) = 21.57178 41.10585 31.33882
#
# Velocity S-wave (km/s) = 3.23247 4.46214 3.89612
# Velocity P-wave (km/s) = 5.30806 7.26524 6.36236
#
# Compressibility (1/GPa) = 0.03400642
#
# Stress axis : x y z
#
# Youngs Moduli (GPa) = 57.29251 87.26818 34.00370
#
# Poissons Ratio (x) = 0.78474 0.04743
# Poissons Ratio (y) = 0.51519 0.06021
# Poissons Ratio (z) = 0.07991 0.15452
#
# Static dielectric constant tensor:
#      x y z
#    x 1.877050 0.000000 0.000000 
#    y 0.000000 1.785310 0.000000 
#    z 0.000000 0.000000 1.743660 
# 
# From -- ./inp_files/5775.got.cif
#   From: 2010.05.17/outbox.cif.g08.bks.cpg/sg49_3_cif.got.tgz:5775.got - 2010.06.03 21:02:19.
