data_PCOD9392690
_publ_section_title
;
Structure prediction by ZEFSAII (Michael W. Deem and Ramdas Pophale) SiO2 
 PCOD9392690
Probable space group: P C C M
;
_chemical_formula_sum "Si O2"
_cell_formula_units_Z 56
_cell_length_a 15.647079
_cell_length_b 20.505089
_cell_length_c 9.043746
_cell_angle_alpha 90.000000
_cell_angle_beta 90.000000
_cell_angle_gamma 90.000000
_cell_volume 2901.638402
_symmetry_space_group_name_H-M "P C C M"
_symmetry_group_IT_number 49
_symmetry_cell_setting 'orthorhombic'
loop_
_space_group_symop_operation_xyz
x,y,z
-x,-y,z
x,-y,1/2-z
-x,y,1/2-z
-x,-y,-z
x,y,-z
-x,y,1/2+z
x,-y,1/2+z
loop_
_atom_site_type_symbol
_atom_site_label
_atom_site_fract_x
_atom_site_fract_y
_atom_site_fract_z
Si Si1 0.586479 0.887447 0.676050
Si Si2 0.352171 0.255849 0.329475
Si Si3 0.233280 0.565158 0.323236
Si Si4 0.773200 0.066982 0.822024
Si Si5 0.911953 0.176418 0.823563
Si Si6 0.821527 0.291840 0.325000
Si Si7 0.587214 0.401099 0.828302
O O1 0.500000 0.911876 0.750000
O O2 0.579942 0.896038 0.500000
O O3 0.597777 0.809977 0.705675
O O4 0.675648 0.919087 0.726682
O O5 0.320022 0.248866 0.500000
O O6 0.271922 0.265723 0.222843
O O7 0.406546 0.322014 0.324138
O O8 0.196866 0.500000 0.250000
O O9 0.238965 0.559012 0.500000
O O10 0.181333 0.631240 0.288448
O O11 0.328296 0.574880 0.255848
O O12 0.834995 0.127083 0.783672
O O13 0.803404 0.000000 0.750000
O O14 0.773047 0.061668 0.000000
O O15 0.888101 0.247716 0.762504
O O16 0.000000 0.154325 0.750000
O O17 0.919732 0.177761 0.000000
O O18 0.833855 0.284423 0.500000
O O19 0.500000 0.421660 0.750000
O O20 0.589655 0.421342 0.000000
#
# Coordination Sequence:
#
# PCOD9392690 Si02
#       7
#     8   8   8   8   8   8   8
#     4  10  20  35  54  81 115 156 203 248 296 346
#     4   9  17  32  52  75 110 150 192 243 298 351
#     4  10  21  36  54  79 111 149 196 240 289 353
#     4  10  23  42  62  85 122 162 200 246 297 353
#     4  11  23  42  67  95 125 155 193 241 295 359
#     4  10  20  35  59  89 118 150 192 240 290 349
#     4  10  19  30  47  71 104 146 191 245 302 353
#
# _framework density 19.299443
#
# number of rings (size 3 to 8) (size 9 to 14) (size 15 to 20)
#    0.000    2.000    1.429    2.143    0.000    5.429 
#    0.000    4.286    0.000    0.429    0.000    3.000 
#    0.000    0.000    0.000    0.000    0.000    0.000 
#
# Total GULP energy -312761.529214 kJ/mol
# GULP energy per Si atom -5585.027307 kJ/mol
# Density = 1.925552 g / cm^3
# Si number density = 19.299443 Si / 1000 Ang^3
#
#
#
# Elastic Constant Matrix: (Units=GPa)
#
#
# Indices 1 2 3 4 5 6 
#
# 1 85.3903 32.6632 34.9275 0.0000 0.0000 0.0000
# 2 32.6632 108.8571 45.7039 0.0000 0.0000 0.0000
# 3 34.9275 45.7039 56.6027 0.0000 0.0000 0.0000
# 4 0.0000 0.0000 0.0000 26.6238 0.0000 0.0000
# 5 0.0000 0.0000 0.0000 0.0000 30.5104 0.0000
# 6 0.0000 0.0000 0.0000 0.0000 0.0000 -0.4492
#
#
#
# Elastic Compliance Matrix: (Units=1/GPa)
#
#
# Indices 1 2 3 4 5 6 
#
# 1 0.015733 -0.000975 -0.008921 0.000000 0.000000 0.000000
# 2 -0.000975 0.013958 -0.010669 0.000000 0.000000 0.000000
# 3 -0.008921 -0.010669 0.031786 0.000000 0.000000 0.000000
# 4 0.000000 0.000000 0.000000 0.037560 0.000000 0.000000
# 5 0.000000 0.000000 0.000000 0.000000 0.032776 0.000000
# 6 0.000000 0.000000 0.000000 0.000000 0.000000 -2.226306
#
#
# Mechanical properties :
#
#
# Convention : Reuss Voigt Hill
#
# Bulk Modulus (GPa) = 49.14551 53.04881 51.09716
# Shear Modulus (GPa) = -2.44310 20.50737 9.03213
#
# Velocity S-wave (km/s) = -1.12634 3.26327 2.16568
# Velocity P-wave (km/s) = 4.88144 6.46108 5.72599
#
# Compressibility (1/GPa) = 0.02034774
#
# Stress axis : x y z
#
# Youngs Moduli (GPa) = 63.56115 71.64170 31.46026
#
# Poissons Ratio (x) = 0.06988 0.28064
# Poissons Ratio (y) = 0.06200 0.33564
# Poissons Ratio (z) = 0.56700 0.76433
#
# Static dielectric constant tensor:
#      x y z
#    x 1.656470 0.000000 0.000000 
#    y 0.000000 1.693770 0.000000 
#    z 0.000000 0.000000 1.648180 
# 
# From -- ./inp_files/3999.got.cif
#   From: 2010.05.17/outbox.cif.g08.bks.cpg/sg49_2_cif.got.tgz:3999.got - 2010.06.03 21:02:19.
