data_PCOD9392070
_publ_section_title
;
Structure prediction by ZEFSAII (Michael W. Deem and Ramdas Pophale) SiO2 
 PCOD9392070
Probable space group: P C C M
;
_chemical_formula_sum "Si O2"
_cell_formula_units_Z 64
_cell_length_a 11.509078
_cell_length_b 19.372891
_cell_length_c 16.261019
_cell_angle_alpha 90.000000
_cell_angle_beta 90.000000
_cell_angle_gamma 90.000000
_cell_volume 3625.623688
_symmetry_space_group_name_H-M "P C C M"
_symmetry_group_IT_number 49
_symmetry_cell_setting 'orthorhombic'
loop_
_space_group_symop_operation_xyz
x,y,z
-x,-y,z
x,-y,1/2-z
-x,y,1/2-z
-x,-y,-z
x,y,-z
-x,y,1/2+z
x,-y,1/2+z
loop_
_atom_site_type_symbol
_atom_site_label
_atom_site_fract_x
_atom_site_fract_y
_atom_site_fract_z
Si Si1 0.158647 0.474028 0.342242
Si Si2 0.411224 0.440093 0.400778
Si Si3 0.280551 0.117786 0.904024
Si Si4 0.632437 0.021837 0.900776
Si Si5 0.784253 0.264906 0.399506
Si Si6 0.518074 0.293811 0.400977
Si Si7 0.948503 0.389172 0.595747
Si Si8 0.465301 0.152365 0.343866
O O1 0.144309 0.500000 0.250000
O O2 0.287440 0.449715 0.359861
O O3 0.130780 0.541955 0.396844
O O4 0.066205 0.413555 0.360183
O O5 0.500000 0.500000 0.376823
O O6 0.396536 0.443019 0.500000
O O7 0.467118 0.367289 0.379087
O O8 0.210793 0.184408 0.870782
O O9 0.417526 0.138086 0.897306
O O10 0.282550 0.039230 0.869962
O O11 0.249771 0.112361 0.000000
O O12 0.636476 0.099676 0.868049
O O13 0.500000 0.000000 0.877896
O O14 0.638768 0.023254 0.000000
O O15 0.788529 0.263876 0.500000
O O16 0.653924 0.289142 0.377038
O O17 0.879282 0.321555 0.372755
O O18 0.512863 0.285454 0.500000
O O19 0.444653 0.232562 0.359957
O O20 0.975218 0.377383 0.500000
O O21 0.500000 0.140548 0.250000
#
# Coordination Sequence:
#
# PCOD9392070 Si02
#       8
#     8   8   8   8   8   8   8   8
#     4  11  22  35  48  72 101 125 155 205 263 309
#     4  10  20  36  55  72  91 126 175 212 242 294
#     4   8  14  25  39  58  85 117 157 195 234 287
#     4   8  13  22  37  54  78 118 159 191 229 282
#     4   8  14  26  46  70  89 115 154 201 244 283
#     4   9  17  31  47  63  91 126 168 209 242 293
#     4  10  18  32  55  73  90 120 163 206 252 300
#     4  10  17  24  35  58  89 122 162 199 243 291
#
# _framework density 17.652135999999999
#
# number of rings (size 3 to 8) (size 9 to 14) (size 15 to 20)
#    0.000    2.750    0.000    5.625    0.000    4.500 
#    6.750    0.000    0.000    0.000    0.000    0.000 
#    0.000    1.000    0.000    9.250    1.250    2.625 
#
# Total GULP energy -356274.847284 kJ/mol
# GULP energy per Si atom -5566.794489 kJ/mol
# Density = 1.761196 g / cm^3
# Si number density = 17.652136 Si / 1000 Ang^3
#
#
#
# Elastic Constant Matrix: (Units=GPa)
#
#
# Indices 1 2 3 4 5 6 
#
# 1 76.2568 70.2591 23.2689 0.0000 0.0000 0.0000
# 2 70.2591 176.1653 31.9203 0.0000 0.0000 0.0000
# 3 23.2689 31.9203 26.0100 0.0000 0.0000 0.0000
# 4 0.0000 0.0000 0.0000 29.5716 0.0000 0.0000
# 5 0.0000 0.0000 0.0000 0.0000 -4.0011 0.0000
# 6 0.0000 0.0000 0.0000 0.0000 0.0000 28.7014
#
#
#
# Elastic Compliance Matrix: (Units=1/GPa)
#
#
# Indices 1 2 3 4 5 6 
#
# 1 0.023395 -0.007122 -0.012189 0.000000 0.000000 0.000000
# 2 -0.007122 0.009468 -0.005248 0.000000 0.000000 0.000000
# 3 -0.012189 -0.005248 0.055792 0.000000 0.000000 0.000000
# 4 0.000000 0.000000 0.000000 0.033816 0.000000 0.000000
# 5 0.000000 0.000000 0.000000 0.000000 -0.249929 0.000000
# 6 0.000000 0.000000 0.000000 0.000000 0.000000 0.034841
#
#
# Mechanical properties :
#
#
# Convention : Reuss Voigt Hill
#
# Bulk Modulus (GPa) = 25.29310 58.81431 42.05371
# Shear Modulus (GPa) = -164.90000 21.05329 -71.92335
#
# Velocity S-wave (km/s) = -9.67570 3.45726 -6.39009
# Velocity P-wave (km/s) = 10.51028 7.02337 5.52893
#
# Compressibility (1/GPa) = 0.03953647
#
# Stress axis : x y z
#
# Youngs Moduli (GPa) = 42.74501 105.62233 17.92387
#
# Poissons Ratio (x) = 0.75221 0.21848
# Poissons Ratio (y) = 0.30442 0.09406
# Poissons Ratio (z) = 0.52102 0.55429
#
# Static dielectric constant tensor:
#      x y z
#    x 1.579100 0.000000 0.000000 
#    y 0.000000 1.689310 0.000000 
#    z 0.000000 0.000000 1.623860 
# 
# From -- ./inp_files/17387.got.cif
#   From: 2010.05.17/outbox.cif.g08.bks.cpg/sg49_9_cif.got.tgz:17387.got - 2010.06.03 21:02:19.
