data_PCOD9392103
_publ_section_title
;
Structure prediction by ZEFSAII (Michael W. Deem and Ramdas Pophale) SiO2 
 PCOD9392103
Probable space group: P C C M
;
_chemical_formula_sum "Si O2"
_cell_formula_units_Z 64
_cell_length_a 27.246375
_cell_length_b 18.712555
_cell_length_c 8.706196
_cell_angle_alpha 90.000000
_cell_angle_beta 90.000000
_cell_angle_gamma 90.000000
_cell_volume 4438.847856
_symmetry_space_group_name_H-M "P C C M"
_symmetry_group_IT_number 49
_symmetry_cell_setting 'orthorhombic'
loop_
_space_group_symop_operation_xyz
x,y,z
-x,-y,z
x,-y,1/2-z
-x,y,1/2-z
-x,-y,-z
x,y,-z
-x,y,1/2+z
x,-y,1/2+z
loop_
_atom_site_type_symbol
_atom_site_label
_atom_site_fract_x
_atom_site_fract_y
_atom_site_fract_z
Si Si1 0.248639 0.845695 0.814404
Si Si2 0.949612 0.918845 0.315664
Si Si3 0.847539 0.080538 0.315836
Si Si4 0.298441 0.704324 0.176088
Si Si5 0.345647 0.921978 0.682267
Si Si6 0.600149 0.795275 0.676489
Si Si7 0.552012 0.653023 0.315149
Si Si8 0.351784 0.422732 0.818564
O O1 0.199254 0.875435 0.740913
O O2 0.258755 0.762761 0.772400
O O3 0.295040 0.891813 0.755379
O O4 0.247253 0.850363 0.000000
O O5 0.950397 0.920412 0.500000
O O6 0.898388 0.888466 0.252746
O O7 0.000000 0.885932 0.250000
O O8 0.949113 0.000000 0.250000
O O9 0.850246 0.077396 0.500000
O O10 0.841972 0.000000 0.250000
O O11 0.348920 0.750339 0.174601
O O12 0.310172 0.635188 0.275511
O O13 0.288592 0.682902 0.000000
O O14 0.339931 0.925507 0.500000
O O15 0.388127 0.865402 0.726568
O O16 0.355568 0.000000 0.750000
O O17 0.589125 0.815166 0.500000
O O18 0.561722 0.735882 0.732852
O O19 0.500000 0.628609 0.250000
O O20 0.552651 0.651114 0.500000
O O21 0.597262 0.606366 0.253640
O O22 0.340620 0.500000 0.750000
O O23 0.357558 0.427058 0.000000
#
# Coordination Sequence:
#
# PCOD9392103 Si02
#       8
#     8   8   8   8   8   8   8   8
#     4  10  19  31  44  60  84 111 138 172 213 255
#     4  10  17  27  40  54  73 101 139 181 225 267
#     4  11  20  29  40  57  81 109 144 185 226 264
#     4   8  16  31  48  64  85 111 138 167 202 243
#     4  11  20  29  43  62  83 107 136 170 208 250
#     4   8  16  31  47  63  84 108 133 164 199 241
#     4  10  20  34  51  70  91 112 136 164 199 239
#     4  11  21  33  50  70  93 116 141 168 197 233
#
# _framework density 14.418156
#
# number of rings (size 3 to 8) (size 9 to 14) (size 15 to 20)
#    0.000    2.125    0.000    8.250    0.000    5.750 
#    0.000    1.250    0.000    0.375    0.000    2.625 
#    0.000    0.000    0.000    0.000    0.000    0.625 
#
# Total GULP energy -356796.988154 kJ/mol
# GULP energy per Si atom -5574.952940 kJ/mol
# Density = 1.438534 g / cm^3
# Si number density = 14.418156 Si / 1000 Ang^3
#
#
#
# Elastic Constant Matrix: (Units=GPa)
#
#
# Indices 1 2 3 4 5 6 
#
# 1 47.6731 23.0669 21.0820 0.0000 0.0000 0.0000
# 2 23.0669 82.0436 42.6711 0.0000 0.0000 0.0000
# 3 21.0820 42.6711 103.4107 0.0000 0.0000 0.0000
# 4 0.0000 0.0000 0.0000 20.9180 0.0000 0.0000
# 5 0.0000 0.0000 0.0000 0.0000 30.5903 0.0000
# 6 0.0000 0.0000 0.0000 0.0000 0.0000 10.1828
#
#
#
# Elastic Compliance Matrix: (Units=1/GPa)
#
#
# Indices 1 2 3 4 5 6 
#
# 1 0.024893 -0.005551 -0.002785 0.000000 0.000000 0.000000
# 2 -0.005551 0.016757 -0.005783 0.000000 0.000000 0.000000
# 3 -0.002785 -0.005783 0.012624 0.000000 0.000000 0.000000
# 4 0.000000 0.000000 0.000000 0.047806 0.000000 0.000000
# 5 0.000000 0.000000 0.000000 0.000000 0.032690 0.000000
# 6 0.000000 0.000000 0.000000 0.000000 0.000000 0.098205
#
#
# Mechanical properties :
#
#
# Convention : Reuss Voigt Hill
#
# Bulk Modulus (GPa) = 38.40520 45.19638 41.80079
# Shear Modulus (GPa) = 18.52602 22.09204 20.30903
#
# Velocity S-wave (km/s) = 3.58845 3.91863 3.75717
# Velocity P-wave (km/s) = 6.62298 7.20341 6.91928
#
# Compressibility (1/GPa) = 0.02603814
#
# Stress axis : x y z
#
# Youngs Moduli (GPa) = 40.17153 59.67668 79.21347
#
# Poissons Ratio (x) = 0.33124 0.22057
# Poissons Ratio (y) = 0.22298 0.45809
# Poissons Ratio (z) = 0.11186 0.34511
#
# Static dielectric constant tensor:
#      x y z
#    x 1.490580 0.000000 0.000000 
#    y 0.000000 1.473740 0.000000 
#    z 0.000000 0.000000 1.479020 
# 
# From -- ./inp_files/6802.got.cif
#   From: 2010.05.17/outbox.cif.g08.bks.cpg/sg49_4_cif.got.tgz:6802.got - 2010.06.03 21:02:19.
