data_PCOD9392225
_publ_section_title
;
Structure prediction by ZEFSAII (Michael W. Deem and Ramdas Pophale) SiO2 
 PCOD9392225
Probable space group: P C C M
;
_chemical_formula_sum "Si O2"
_cell_formula_units_Z 40
_cell_length_a 26.758760
_cell_length_b 9.290733
_cell_length_c 8.581875
_cell_angle_alpha 90.000000
_cell_angle_beta 90.000000
_cell_angle_gamma 90.000000
_cell_volume 2133.527024
_symmetry_space_group_name_H-M "P C C M"
_symmetry_group_IT_number 49
_symmetry_cell_setting 'orthorhombic'
loop_
_space_group_symop_operation_xyz
x,y,z
-x,-y,z
x,-y,1/2-z
-x,y,1/2-z
-x,-y,-z
x,y,-z
-x,y,1/2+z
x,-y,1/2+z
loop_
_atom_site_type_symbol
_atom_site_label
_atom_site_fract_x
_atom_site_fract_y
_atom_site_fract_z
Si Si1 0.250693 0.338219 0.312290
Si Si2 0.051575 0.835606 0.186207
Si Si3 0.553665 0.661877 0.312661
Si Si4 0.156357 0.836764 0.686299
Si Si5 0.650834 0.160987 0.812199
O O1 0.252561 0.500000 0.250000
O O2 0.247929 0.338596 0.500000
O O3 0.202742 0.256364 0.244485
O O4 0.300900 0.253419 0.264245
O O5 0.103859 0.774863 0.248702
O O6 0.000000 0.769098 0.250000
O O7 0.051929 0.000000 0.250000
O O8 0.050982 0.837874 0.000000
O O9 0.561140 0.500000 0.250000
O O10 0.500000 0.713049 0.250000
O O11 0.552102 0.657171 0.500000
O O12 0.599712 0.761122 0.261727
O O13 0.154318 0.841913 0.500000
O O14 0.161987 0.000000 0.750000
O O15 0.654106 0.000000 0.750000
O O16 0.650534 0.156844 0.000000
#
# Coordination Sequence:
#
# PCOD9392225 Si02
#       5
#     8   8   8   8   8
#     4  11  23  40  59  82 109 144 185 229 279 336
#     4  10  17  28  47  75 109 145 183 227 275 328
#     4  10  20  36  57  84 113 148 187 227 271 325
#     4  11  21  35  55  82 113 147 185 231 279 330
#     4  10  23  39  58  83 113 145 184 228 278 330
#
# _framework density 18.748297000000001
#
# number of rings (size 3 to 8) (size 9 to 14) (size 15 to 20)
#    0.000    1.600    0.000    8.400    0.000    5.200 
#    0.000    2.000    0.000    0.600    0.000    4.200 
#    0.000    0.000    0.000    0.000    0.000    0.000 
#
# Total GULP energy -223473.482758 kJ/mol
# GULP energy per Si atom -5586.837069 kJ/mol
# Density = 1.870563 g / cm^3
# Si number density = 18.748297 Si / 1000 Ang^3
#
#
#
# Elastic Constant Matrix: (Units=GPa)
#
#
# Indices 1 2 3 4 5 6 
#
# 1 229.7788 102.7136 72.1216 0.0000 0.0000 0.0000
# 2 102.7136 103.1464 40.0029 0.0000 0.0000 0.0000
# 3 72.1216 40.0029 123.6328 0.0000 0.0000 0.0000
# 4 0.0000 0.0000 0.0000 28.7421 0.0000 0.0000
# 5 0.0000 0.0000 0.0000 0.0000 31.4497 0.0000
# 6 0.0000 0.0000 0.0000 0.0000 0.0000 276.5325
#
#
#
# Elastic Compliance Matrix: (Units=1/GPa)
#
#
# Indices 1 2 3 4 5 6 
#
# 1 0.008485 -0.007467 -0.002534 0.000000 0.000000 0.000000
# 2 -0.007467 0.017657 -0.001357 0.000000 0.000000 0.000000
# 3 -0.002534 -0.001357 0.010006 0.000000 0.000000 0.000000
# 4 0.000000 0.000000 0.000000 0.034792 0.000000 0.000000
# 5 0.000000 0.000000 0.000000 0.000000 0.031797 0.000000
# 6 0.000000 0.000000 0.000000 0.000000 0.000000 0.003616
#
#
# Mechanical properties :
#
#
# Convention : Reuss Voigt Hill
#
# Bulk Modulus (GPa) = 74.45013 98.47048 86.46030
# Shear Modulus (GPa) = 37.44037 83.45952 60.44994
#
# Velocity S-wave (km/s) = 4.47363 6.67925 5.68444
# Velocity P-wave (km/s) = 8.15359 10.58865 9.44988
#
# Compressibility (1/GPa) = 0.01343181
#
# Stress axis : x y z
#
# Youngs Moduli (GPa) = 117.85476 56.63548 99.94245
#
# Poissons Ratio (x) = 0.42288 0.25324
# Poissons Ratio (y) = 0.87999 0.13565
# Poissons Ratio (z) = 0.29862 0.07687
#
# Static dielectric constant tensor:
#      x y z
#    x 1.678550 0.000000 0.000000 
#    y 0.000000 1.624120 0.000000 
#    z 0.000000 0.000000 1.630420 
# 
# From -- ./inp_files/1692.got.cif
#   From: 2010.05.17/outbox.cif.g08.bks.cpg/sg49_1_cif.got.tgz:1692.got - 2010.06.03 21:02:19.
