data_PCOD9392224
_publ_section_title
;
Structure prediction by ZEFSAII (Michael W. Deem and Ramdas Pophale) SiO2 
 PCOD9392224
Probable space group: P C C M
;
_chemical_formula_sum "Si O2"
_cell_formula_units_Z 48
_cell_length_a 9.261115
_cell_length_b 32.076223
_cell_length_c 8.577478
_cell_angle_alpha 90.000000
_cell_angle_beta 90.000000
_cell_angle_gamma 90.000000
_cell_volume 2548.039253
_symmetry_space_group_name_H-M "P C C M"
_symmetry_group_IT_number 49
_symmetry_cell_setting 'orthorhombic'
loop_
_space_group_symop_operation_xyz
x,y,z
-x,-y,z
x,-y,1/2-z
-x,y,1/2-z
-x,-y,-z
x,y,-z
-x,y,1/2+z
x,-y,1/2+z
loop_
_atom_site_type_symbol
_atom_site_label
_atom_site_fract_x
_atom_site_fract_y
_atom_site_fract_z
Si Si1 0.337640 0.290536 0.812250
Si Si2 0.338275 0.873716 0.311647
Si Si3 0.163810 0.369535 0.313656
Si Si4 0.162052 0.207817 0.811955
Si Si5 0.835061 0.456972 0.313745
Si Si6 0.162403 0.044724 0.187263
O O1 0.500000 0.288244 0.750000
O O2 0.257519 0.330848 0.744174
O O3 0.250235 0.248998 0.764918
O O4 0.338339 0.292944 0.000000
O O5 0.500000 0.870988 0.250000
O O6 0.341494 0.873213 0.500000
O O7 0.244774 0.833899 0.259247
O O8 0.261620 0.916714 0.262783
O O9 0.158488 0.371285 0.500000
O O10 0.225802 0.413333 0.248613
O O11 0.000000 0.364763 0.250000
O O12 0.000000 0.209012 0.750000
O O13 0.157288 0.207168 0.000000
O O14 0.768315 0.500000 0.250000
O O15 0.837334 0.457485 0.500000
O O16 0.000000 0.456674 0.250000
O O17 0.000000 0.050918 0.250000
O O18 0.214108 0.000000 0.250000
O O19 0.157440 0.043306 0.000000
#
# Coordination Sequence:
#
# PCOD9392224 Si02
#       6
#     8   8   8   8   8   8
#     4  11  23  39  58  82 111 145 183 226 276 332
#     4  10  22  38  56  82 113 147 184 226 274 330
#     4  11  21  35  55  81 112 147 187 232 278 329
#     4  10  22  39  60  85 112 142 182 226 274 328
#     4  10  17  28  47  75 109 144 183 229 279 329
#     4  10  20  35  56  81 110 144 187 231 277 327
#
# _framework density 18.838016
#
# number of rings (size 3 to 8) (size 9 to 14) (size 15 to 20)
#    0.000    1.667    0.000    7.500    0.000    5.000 
#    0.000    1.667    0.000    0.500    0.000    3.500 
#    0.000    0.000    0.000    0.000    0.000    0.000 
#
# Total GULP energy -268182.187983 kJ/mol
# GULP energy per Si atom -5587.128916 kJ/mol
# Density = 1.879514 g / cm^3
# Si number density = 18.838016 Si / 1000 Ang^3
#
#
#
# Elastic Constant Matrix: (Units=GPa)
#
#
# Indices 1 2 3 4 5 6 
#
# 1 124.8096 109.7093 38.2895 0.0000 0.0000 0.0000
# 2 109.7093 228.5660 64.9439 0.0000 0.0000 0.0000
# 3 38.2895 64.9439 98.7071 0.0000 0.0000 0.0000
# 4 0.0000 0.0000 0.0000 13.7054 0.0000 0.0000
# 5 0.0000 0.0000 0.0000 0.0000 30.5993 0.0000
# 6 0.0000 0.0000 0.0000 0.0000 0.0000 -22.9775
#
#
#
# Elastic Compliance Matrix: (Units=1/GPa)
#
#
# Indices 1 2 3 4 5 6 
#
# 1 0.013982 -0.006359 -0.001240 0.000000 0.000000 0.000000
# 2 -0.006359 0.008273 -0.002977 0.000000 0.000000 0.000000
# 3 -0.001240 -0.002977 0.012570 0.000000 0.000000 0.000000
# 4 0.000000 0.000000 0.000000 0.072964 0.000000 0.000000
# 5 0.000000 0.000000 0.000000 0.000000 0.032680 0.000000
# 6 0.000000 0.000000 0.000000 0.000000 0.000000 -0.043521
#
#
# Mechanical properties :
#
#
# Convention : Reuss Voigt Hill
#
# Bulk Modulus (GPa) = 73.12770 97.55200 85.33985
# Shear Modulus (GPa) = 40.76359 20.20811 30.48585
#
# Velocity S-wave (km/s) = 4.65682 3.27881 4.02719
# Velocity P-wave (km/s) = 8.23518 8.13825 8.18686
#
# Compressibility (1/GPa) = 0.01367471
#
# Stress axis : x y z
#
# Youngs Moduli (GPa) = 71.51906 120.87355 79.55214
#
# Poissons Ratio (x) = 0.76864 0.09864
# Poissons Ratio (y) = 0.45479 0.23679
# Poissons Ratio (z) = 0.08868 0.35978
#
# Static dielectric constant tensor:
#      x y z
#    x 1.615340 0.000000 0.000000 
#    y 0.000000 1.677580 0.000000 
#    z 0.000000 0.000000 1.644020 
# 
# From -- ./inp_files/2027.got.cif
#   From: 2010.05.17/outbox.cif.g08.bks.cpg/sg49_2_cif.got.tgz:2027.got - 2010.06.03 21:02:19.
