data_PCOD9392646
_publ_section_title
;
Structure prediction by ZEFSAII (Michael W. Deem and Ramdas Pophale) SiO2 
 PCOD9392646
Probable space group: P C C M
;
_chemical_formula_sum "Si O2"
_cell_formula_units_Z 52
_cell_length_a 20.290590
_cell_length_b 5.042040
_cell_length_c 29.523696
_cell_angle_alpha 90.000000
_cell_angle_beta 90.000000
_cell_angle_gamma 90.000000
_cell_volume 3020.450251
_symmetry_space_group_name_H-M "P C C M"
_symmetry_group_IT_number 49
_symmetry_cell_setting 'orthorhombic'
loop_
_space_group_symop_operation_xyz
x,y,z
-x,-y,z
x,-y,1/2-z
-x,y,1/2-z
-x,-y,-z
x,y,-z
-x,y,1/2+z
x,-y,1/2+z
loop_
_atom_site_type_symbol
_atom_site_label
_atom_site_fract_x
_atom_site_fract_y
_atom_site_fract_z
Si Si1 0.212773 0.441714 0.104390
Si Si2 0.951885 0.754571 0.500000
Si Si3 0.130843 0.060074 0.414983
Si Si4 0.842652 0.407653 0.702566
Si Si5 0.348811 0.374664 0.946790
Si Si6 0.564623 0.859326 0.552727
Si Si7 0.926679 0.913306 0.682456
O O1 0.190867 0.742557 0.095724
O O2 0.204101 0.405678 0.158536
O O3 0.283975 0.393822 0.083433
O O4 0.161351 0.234243 0.080955
O O5 0.906390 0.803397 0.456419
O O6 0.000000 0.500000 0.500000
O O7 0.000000 0.000000 0.500000
O O8 0.082885 0.056366 0.371653
O O9 0.811825 0.500000 0.750000
O O10 0.902304 0.618076 0.693878
O O11 0.875768 0.120702 0.704077
O O12 0.404314 0.584859 0.930451
O O13 0.378892 0.081471 0.945763
O O14 0.333641 0.437393 0.000000
O O15 0.547214 0.801986 0.500000
O O16 0.500000 0.000000 0.573300
O O17 0.000000 0.000000 0.695173
#
# Coordination Sequence:
#
# PCOD9392646 Si02
#       7
#     8   4   8   8   8   8   8
#     4  10  21  36  50  72  99 127 164 203 247 289
#     4  12  24  36  52  70  90 128 177 210 251 306
#     4  10  22  35  50  67  95 128 158 212 251 290
#     4  10  21  35  51  71  95 123 154 200 256 305
#     4  10  19  29  49  73  98 134 166 195 229 282
#     4   9  17  30  46  71 104 135 163 194 230 269
#     4  10  20  34  51  71  93 118 153 200 257 313
#
# _framework density 17.215975
#
# number of rings (size 3 to 8) (size 9 to 14) (size 15 to 20)
#    0.000    2.000    0.000    3.692    2.154    6.154 
#    0.000    0.000    0.000    0.000    0.000    0.000 
#    0.000    3.692    0.000    0.000    0.000    0.000 
#
# Total GULP energy -289976.986372 kJ/mol
# GULP energy per Si atom -5576.480507 kJ/mol
# Density = 1.717679 g / cm^3
# Si number density = 17.215975 Si / 1000 Ang^3
#
#
#
# Elastic Constant Matrix: (Units=GPa)
#
#
# Indices 1 2 3 4 5 6 
#
# 1 44.9128 -7.9014 25.3886 0.0000 0.0000 0.0000
# 2 -7.9014 76.2838 7.4403 0.0000 0.0000 0.0000
# 3 25.3886 7.4403 88.0537 0.0000 0.0000 0.0000
# 4 0.0000 0.0000 0.0000 18.7409 0.0000 0.0000
# 5 0.0000 0.0000 0.0000 0.0000 -15.8470 0.0000
# 6 0.0000 0.0000 0.0000 0.0000 0.0000 21.3558
#
#
#
# Elastic Compliance Matrix: (Units=1/GPa)
#
#
# Indices 1 2 3 4 5 6 
#
# 1 0.027580 0.003662 -0.008262 0.000000 0.000000 0.000000
# 2 0.003662 0.013704 -0.002214 0.000000 0.000000 0.000000
# 3 -0.008262 -0.002214 0.013926 0.000000 0.000000 0.000000
# 4 0.000000 0.000000 0.000000 0.053359 0.000000 0.000000
# 5 0.000000 0.000000 0.000000 0.000000 -0.063103 0.000000
# 6 0.000000 0.000000 0.000000 0.000000 0.000000 0.046826
#
#
# Mechanical properties :
#
#
# Convention : Reuss Voigt Hill
#
# Bulk Modulus (GPa) = 24.04782 28.78947 26.41865
# Shear Modulus (GPa) = 41.74347 17.13811 29.44079
#
# Velocity S-wave (km/s) = 4.92946 3.15854 4.13980
# Velocity P-wave (km/s) = 6.81161 5.48276 6.18299
#
# Compressibility (1/GPa) = 0.04158380
#
# Stress axis : x y z
#
# Youngs Moduli (GPa) = 36.25830 72.97009 71.80885
#
# Poissons Ratio (x) = -0.26725 0.59326
# Poissons Ratio (y) = -0.13280 0.15898
# Poissons Ratio (z) = 0.29955 0.16155
#
# Static dielectric constant tensor:
#      x y z
#    x 1.567330 0.000000 0.000000 
#    y 0.000000 1.594990 0.000000 
#    z 0.000000 0.000000 1.614820 
# 
# From -- ./inp_files/25143.got.cif
#   From: 2010.05.17/outbox.cif.g08.bks.cpg/sg49_13_cif.got.tgz:25143.got - 2010.06.03 21:02:19.
