data_PCOD9392798
_publ_section_title
;
Structure prediction by ZEFSAII (Michael W. Deem and Ramdas Pophale) SiO2 
 PCOD9392798
Probable space group: P C C M
;
_chemical_formula_sum "Si O2"
_cell_formula_units_Z 48
_cell_length_a 11.682896
_cell_length_b 7.309559
_cell_length_c 23.156157
_cell_angle_alpha 90.000000
_cell_angle_beta 90.000000
_cell_angle_gamma 90.000000
_cell_volume 1977.462116
_symmetry_space_group_name_H-M "P C C M"
_symmetry_group_IT_number 49
_symmetry_cell_setting 'orthorhombic'
loop_
_space_group_symop_operation_xyz
x,y,z
-x,-y,z
x,-y,1/2-z
-x,y,1/2-z
-x,-y,-z
x,y,-z
-x,y,1/2+z
x,-y,1/2+z
loop_
_atom_site_type_symbol
_atom_site_label
_atom_site_fract_x
_atom_site_fract_y
_atom_site_fract_z
Si Si1 0.134936 0.293819 0.737146
Si Si2 0.485598 0.280533 0.816830
Si Si3 0.062058 0.190842 0.938870
Si Si4 0.834662 0.635039 0.611394
Si Si5 0.227264 0.227529 0.849726
Si Si6 0.585553 0.319199 0.935093
O O1 0.182502 0.500000 0.750000
O O2 0.169108 0.253732 0.672020
O O3 0.181207 0.168903 0.787848
O O4 0.000000 0.300390 0.750000
O O5 0.500000 0.500000 0.811953
O O6 0.500000 0.212798 0.750000
O O7 0.359881 0.242746 0.840635
O O8 0.561082 0.221777 0.872675
O O9 0.173273 0.125007 0.902828
O O10 0.956610 0.312628 0.915045
O O11 0.101079 0.271408 0.000000
O O12 0.000000 0.000000 0.945810
O O13 0.829234 0.424654 0.633209
O O14 0.722182 0.647419 0.571626
O O15 0.500000 0.500000 0.933934
O O16 0.566002 0.239409 0.000000
#
# Coordination Sequence:
#
# PCOD9392798 Si02
#       6
#     8   8   8   8   8   8
#     4   9  17  29  50  85 120 140 182 238 290 361
#     4  10  19  33  54  91 129 157 191 244 317 372
#     4  11  26  43  57  81 122 167 210 257 315 375
#     4  11  19  36  61  88 120 155 196 249 309 373
#     4  11  20  35  61  91 119 158 198 248 306 369
#     4  10  19  31  49  84 121 147 189 251 301 347
#
# _framework density 24.273537000000001
#
# number of rings (size 3 to 8) (size 9 to 14) (size 15 to 20)
#    0.000    1.667    5.000    2.000    4.667    2.667 
#    0.000    1.667    0.000    1.000    0.000    5.833 
#    0.000    0.000    0.000    0.000    0.000    0.000 
#
# Total GULP energy -267224.166164 kJ/mol
# GULP energy per Si atom -5567.170128 kJ/mol
# Density = 2.421829 g / cm^3
# Si number density = 24.273537 Si / 1000 Ang^3
#
#
#
# Elastic Constant Matrix: (Units=GPa)
#
#
# Indices 1 2 3 4 5 6 
#
# 1 154.1145 6.6150 65.0491 0.0000 0.0000 0.0000
# 2 6.6150 44.2714 1.8241 0.0000 0.0000 0.0000
# 3 65.0491 1.8241 202.1357 0.0000 0.0000 0.0000
# 4 0.0000 0.0000 0.0000 -11.0367 0.0000 0.0000
# 5 0.0000 0.0000 0.0000 0.0000 25.1723 0.0000
# 6 0.0000 0.0000 0.0000 0.0000 0.0000 0.4557
#
#
#
# Elastic Compliance Matrix: (Units=1/GPa)
#
#
# Indices 1 2 3 4 5 6 
#
# 1 0.007555 -0.001029 -0.002422 0.000000 0.000000 0.000000
# 2 -0.001029 0.022737 0.000126 0.000000 0.000000 0.000000
# 3 -0.002422 0.000126 0.005725 0.000000 0.000000 0.000000
# 4 0.000000 0.000000 0.000000 -0.090607 0.000000 0.000000
# 5 0.000000 0.000000 0.000000 0.000000 0.039726 0.000000
# 6 0.000000 0.000000 0.000000 0.000000 0.000000 2.194515
#
#
# Mechanical properties :
#
#
# Convention : Reuss Voigt Hill
#
# Bulk Modulus (GPa) = 34.05197 60.83311 47.44254
# Shear Modulus (GPa) = 2.27677 24.72048 13.49863
#
# Velocity S-wave (km/s) = 0.96954 3.19472 2.36075
# Velocity P-wave (km/s) = 3.91308 6.22288 5.19791
#
# Compressibility (1/GPa) = 0.02936688
#
# Stress axis : x y z
#
# Youngs Moduli (GPa) = 132.36001 43.98210 174.65824
#
# Poissons Ratio (x) = 0.04526 0.42303
# Poissons Ratio (y) = 0.13621 -0.02201
# Poissons Ratio (z) = 0.32058 -0.00554
#
# Static dielectric constant tensor:
#      x y z
#    x 1.969990 0.000000 0.000000 
#    y 0.000000 2.207450 0.000000 
#    z 0.000000 0.000000 2.371150 
# 
# From -- ./inp_files/22871.got.cif
#   From: 2010.05.17/outbox.cif.g08.bks.cpg/sg49_12_cif.got.tgz:22871.got - 2010.06.03 21:02:19.
