data_PCOD9392604
_publ_section_title
;
Structure prediction by ZEFSAII (Michael W. Deem and Ramdas Pophale) SiO2 
 PCOD9392604
Probable space group: P C C M
;
_chemical_formula_sum "Si O2"
_cell_formula_units_Z 64
_cell_length_a 26.911509
_cell_length_b 18.770304
_cell_length_c 8.728755
_cell_angle_alpha 90.000000
_cell_angle_beta 90.000000
_cell_angle_gamma 90.000000
_cell_volume 4409.218904
_symmetry_space_group_name_H-M "P C C M"
_symmetry_group_IT_number 49
_symmetry_cell_setting 'orthorhombic'
loop_
_space_group_symop_operation_xyz
x,y,z
-x,-y,z
x,-y,1/2-z
-x,y,1/2-z
-x,-y,-z
x,y,-z
-x,y,1/2+z
x,-y,1/2+z
loop_
_atom_site_type_symbol
_atom_site_label
_atom_site_fract_x
_atom_site_fract_y
_atom_site_fract_z
Si Si1 0.741798 0.921798 0.681635
Si Si2 0.643468 0.833073 0.684053
Si Si3 0.243526 0.578664 0.816751
Si Si4 0.054177 0.421090 0.684172
Si Si5 0.798742 0.797882 0.823846
Si Si6 0.697597 0.703672 0.177350
Si Si7 0.554824 0.922534 0.183526
Si Si8 0.147399 0.339883 0.185535
O O1 0.740750 0.926919 0.500000
O O2 0.689815 0.884365 0.730062
O O3 0.785752 0.868423 0.731184
O O4 0.746400 0.000000 0.750000
O O5 0.639665 0.833819 0.500000
O O6 0.657419 0.754194 0.742029
O O7 0.594294 0.864811 0.759569
O O8 0.250344 0.500000 0.750000
O O9 0.287618 0.631378 0.763190
O O10 0.192503 0.611582 0.748471
O O11 0.240233 0.577184 0.000000
O O12 0.065430 0.500000 0.750000
O O13 0.053092 0.423560 0.500000
O O14 0.096529 0.368681 0.745115
O O15 0.000000 0.401651 0.750000
O O16 0.748461 0.750252 0.820595
O O17 0.840377 0.742015 0.770205
O O18 0.808551 0.817318 0.000000
O O19 0.685041 0.690238 0.000000
O O20 0.500000 0.907853 0.250000
O O21 0.569884 0.000000 0.250000
O O22 0.553070 0.926038 0.000000
O O23 0.147403 0.343852 0.000000
#
# Coordination Sequence:
#
# PCOD9392604 Si02
#       8
#     8   8   8   8   8   8   8   8
#     4  10  19  28  42  62  87 115 146 179 213 254
#     4  10  19  31  46  65  87 116 150 183 219 263
#     4  11  20  30  44  64  89 118 150 184 219 260
#     4  11  21  33  47  64  87 115 147 184 220 257
#     4   8  16  29  44  60  83 111 141 176 214 254
#     4   9  17  30  45  63  86 114 145 180 219 260
#     4  11  21  33  47  64  87 116 149 188 226 263
#     4  10  19  32  47  64  86 115 148 182 220 263
#
# _framework density 14.515041999999999
#
# number of rings (size 3 to 8) (size 9 to 14) (size 15 to 20)
#    0.000    2.000    0.000    7.125    0.000    6.000 
#    0.000    0.000    0.000    0.000    0.000    0.000 
#    0.000    1.000    0.000   10.250    0.000    5.250 
#
# Total GULP energy -357004.833152 kJ/mol
# GULP energy per Si atom -5578.200518 kJ/mol
# Density = 1.448201 g / cm^3
# Si number density = 14.515042 Si / 1000 Ang^3
#
#
#
# Elastic Constant Matrix: (Units=GPa)
#
#
# Indices 1 2 3 4 5 6 
#
# 1 68.4420 43.7273 34.8257 0.0000 0.0000 0.0000
# 2 43.7273 101.1628 47.3860 0.0000 0.0000 0.0000
# 3 34.8257 47.3860 103.2947 0.0000 0.0000 0.0000
# 4 0.0000 0.0000 0.0000 25.2994 0.0000 0.0000
# 5 0.0000 0.0000 0.0000 0.0000 18.7945 0.0000
# 6 0.0000 0.0000 0.0000 0.0000 0.0000 27.3621
#
#
#
# Elastic Compliance Matrix: (Units=1/GPa)
#
#
# Indices 1 2 3 4 5 6 
#
# 1 0.021275 -0.007433 -0.003763 0.000000 0.000000 0.000000
# 2 -0.007433 0.015188 -0.004461 0.000000 0.000000 0.000000
# 3 -0.003763 -0.004461 0.012996 0.000000 0.000000 0.000000
# 4 0.000000 0.000000 0.000000 0.039527 0.000000 0.000000
# 5 0.000000 0.000000 0.000000 0.000000 0.053207 0.000000
# 6 0.000000 0.000000 0.000000 0.000000 0.000000 0.036547
#
#
# Mechanical properties :
#
#
# Convention : Reuss Voigt Hill
#
# Bulk Modulus (GPa) = 55.11434 58.30861 56.71147
# Shear Modulus (GPa) = 23.13725 24.08856 23.61291
#
# Velocity S-wave (km/s) = 3.99685 4.07819 4.03772
# Velocity P-wave (km/s) = 7.70407 7.90151 7.80341
#
# Compressibility (1/GPa) = 0.01814410
#
# Stress axis : x y z
#
# Youngs Moduli (GPa) = 47.00423 65.84237 76.94574
#
# Poissons Ratio (x) = 0.48943 0.28952
# Poissons Ratio (y) = 0.34940 0.34327
# Poissons Ratio (z) = 0.17686 0.29373
#
# Static dielectric constant tensor:
#      x y z
#    x 1.467590 0.000000 0.000000 
#    y 0.000000 1.474590 0.000000 
#    z 0.000000 0.000000 1.485220 
# 
# From -- ./inp_files/6794.got.cif
#   From: 2010.05.17/outbox.cif.g08.bks.cpg/sg49_4_cif.got.tgz:6794.got - 2010.06.03 21:02:19.
