data_PCOD9392346
_publ_section_title
;
Structure prediction by ZEFSAII (Michael W. Deem and Ramdas Pophale) SiO2 
 PCOD9392346
Probable space group: P C C M
;
_chemical_formula_sum "Si O2"
_cell_formula_units_Z 56
_cell_length_a 21.727933
_cell_length_b 18.945728
_cell_length_c 8.861229
_cell_angle_alpha 90.000000
_cell_angle_beta 90.000000
_cell_angle_gamma 90.000000
_cell_volume 3647.738286
_symmetry_space_group_name_H-M "P C C M"
_symmetry_group_IT_number 49
_symmetry_cell_setting 'orthorhombic'
loop_
_space_group_symop_operation_xyz
x,y,z
-x,-y,z
x,-y,1/2-z
-x,y,1/2-z
-x,-y,-z
x,y,-z
-x,y,1/2+z
x,-y,1/2+z
loop_
_atom_site_type_symbol
_atom_site_label
_atom_site_fract_x
_atom_site_fract_y
_atom_site_fract_z
Si Si1 0.755024 0.715820 0.820204
Si Si2 0.676808 0.844056 0.177908
Si Si3 0.435028 0.922831 0.820677
Si Si4 0.870275 0.206360 0.178472
Si Si5 0.064202 0.334355 0.818946
Si Si6 0.185249 0.423747 0.820487
Si Si7 0.192971 0.077538 0.180258
O O1 0.694176 0.761910 0.796744
O O2 0.807289 0.752436 0.720149
O O3 0.760577 0.632958 0.787884
O O4 0.771392 0.725286 0.000000
O O5 0.620634 0.872223 0.274697
O O6 0.739397 0.888282 0.210623
O O7 0.663137 0.853894 0.000000
O O8 0.500000 0.899130 0.750000
O O9 0.422103 0.000000 0.750000
O O10 0.440634 0.929136 0.000000
O O11 0.921067 0.256148 0.255655
O O12 0.858128 0.129524 0.248972
O O13 0.879642 0.202493 0.000000
O O14 0.121183 0.385333 0.774516
O O15 0.000000 0.359373 0.750000
O O16 0.061589 0.332088 0.000000
O O17 0.192852 0.500000 0.750000
O O18 0.182430 0.432083 0.000000
O O19 0.190162 0.000000 0.250000
O O20 0.185800 0.075441 0.000000
#
# Coordination Sequence:
#
# PCOD9392346 Si02
#       7
#     8   8   8   8   8   8   8
#     4   8  16  31  47  64  89 120 150 183 223 266
#     4   9  17  30  47  65  88 118 153 190 226 263
#     4  11  21  32  45  62  89 124 161 195 230 268
#     4  10  18  29  46  66  87 113 145 182 225 269
#     4  10  20  34  49  66  88 116 151 185 219 262
#     4   9  18  31  47  68  95 123 148 178 219 264
#     4  10  19  30  45  66  91 117 146 185 229 271
#
# _framework density 15.351979
#
# number of rings (size 3 to 8) (size 9 to 14) (size 15 to 20)
#    0.000    2.429    0.000    6.000    0.000    7.143 
#    0.000    1.429    0.000    0.429    0.000    3.000 
#    0.000    0.571    0.000    6.571    0.000    2.000 
#
# Total GULP energy -312037.131520 kJ/mol
# GULP energy per Si atom -5572.091634 kJ/mol
# Density = 1.531704 g / cm^3
# Si number density = 15.351979 Si / 1000 Ang^3
#
#
#
# Elastic Constant Matrix: (Units=GPa)
#
#
# Indices 1 2 3 4 5 6 
#
# 1 34.5671 30.2687 22.8898 0.0000 0.0000 0.0000
# 2 30.2687 125.5590 40.8323 0.0000 0.0000 0.0000
# 3 22.8898 40.8323 65.6413 0.0000 0.0000 0.0000
# 4 0.0000 0.0000 0.0000 28.0835 0.0000 0.0000
# 5 0.0000 0.0000 0.0000 0.0000 14.1914 0.0000
# 6 0.0000 0.0000 0.0000 0.0000 0.0000 14.7706
#
#
#
# Elastic Compliance Matrix: (Units=1/GPa)
#
#
# Indices 1 2 3 4 5 6 
#
# 1 0.041633 -0.006663 -0.010373 0.000000 0.000000 0.000000
# 2 -0.006663 0.011051 -0.004550 0.000000 0.000000 0.000000
# 3 -0.010373 -0.004550 0.021682 0.000000 0.000000 0.000000
# 4 0.000000 0.000000 0.000000 0.035608 0.000000 0.000000
# 5 0.000000 0.000000 0.000000 0.000000 0.070465 0.000000
# 6 0.000000 0.000000 0.000000 0.000000 0.000000 0.067702
#
#
# Mechanical properties :
#
#
# Convention : Reuss Voigt Hill
#
# Bulk Modulus (GPa) = 32.05932 45.97211 39.01572
# Shear Modulus (GPa) = 16.57213 20.19420 18.38316
#
# Velocity S-wave (km/s) = 3.28911 3.63080 3.46417
# Velocity P-wave (km/s) = 5.94580 6.89836 6.43971
#
# Compressibility (1/GPa) = 0.03119218
#
# Stress axis : x y z
#
# Youngs Moduli (GPa) = 24.01963 90.49355 46.12106
#
# Poissons Ratio (x) = 0.60297 0.47841
# Poissons Ratio (y) = 0.16005 0.20987
# Poissons Ratio (z) = 0.24915 0.41179
#
# Static dielectric constant tensor:
#      x y z
#    x 1.507410 0.000000 0.000000 
#    y 0.000000 1.525970 0.000000 
#    z 0.000000 0.000000 1.512240 
# 
# From -- ./inp_files/5193.got.cif
#   From: 2010.05.17/outbox.cif.g08.bks.cpg/sg49_3_cif.got.tgz:5193.got - 2010.06.03 21:02:19.
