data_PCOD9392322
_publ_section_title
;
Structure prediction by ZEFSAII (Michael W. Deem and Ramdas Pophale) SiO2 
 PCOD9392322
Probable space group: P C C M
;
_chemical_formula_sum "Si O2"
_cell_formula_units_Z 48
_cell_length_a 23.754531
_cell_length_b 13.814074
_cell_length_c 8.451981
_cell_angle_alpha 90.000000
_cell_angle_beta 90.000000
_cell_angle_gamma 90.000000
_cell_volume 2773.490934
_symmetry_space_group_name_H-M "P C C M"
_symmetry_group_IT_number 49
_symmetry_cell_setting 'orthorhombic'
loop_
_space_group_symop_operation_xyz
x,y,z
-x,-y,z
x,-y,1/2-z
-x,y,1/2-z
-x,-y,-z
x,y,-z
-x,y,1/2+z
x,-y,1/2+z
loop_
_atom_site_type_symbol
_atom_site_label
_atom_site_fract_x
_atom_site_fract_y
_atom_site_fract_z
Si Si1 0.064063 0.105974 0.691444
Si Si2 0.436182 0.894162 0.309409
Si Si3 0.661398 0.239624 0.316352
Si Si4 0.249710 0.608464 0.189527
Si Si5 0.153437 0.256121 0.679643
Si Si6 0.747721 0.899888 0.678268
O O1 0.066273 0.105288 0.500000
O O2 0.100447 0.198326 0.750511
O O3 0.000000 0.114812 0.750000
O O4 0.084671 0.000000 0.750000
O O5 0.500000 0.883652 0.250000
O O6 0.435053 0.896053 0.500000
O O7 0.397699 0.803624 0.255284
O O8 0.415723 0.000000 0.250000
O O9 0.655196 0.264768 0.500000
O O10 0.696102 0.326212 0.235049
O O11 0.702152 0.147781 0.292338
O O12 0.255706 0.500000 0.250000
O O13 0.191195 0.657417 0.252576
O O14 0.245838 0.610415 0.000000
O O15 0.137382 0.285809 0.500000
O O16 0.200103 0.172056 0.669086
O O17 0.724631 0.909982 0.500000
O O18 0.766409 0.000000 0.750000
#
# Coordination Sequence:
#
# PCOD9392322 Si02
#       6
#     8   8   8   8   8   8
#     4  10  18  30  46  68  98 132 166 199 234 279
#     4  10  20  32  49  72 102 137 172 203 237 280
#     4  10  20  33  49  72  98 128 163 201 243 292
#     4  10  20  36  56  77  98 124 157 201 253 302
#     4   8  17  31  47  67  94 125 159 198 241 287
#     4  10  18  28  43  66  95 128 160 196 241 290
#
# _framework density 17.306708
#
# number of rings (size 3 to 8) (size 9 to 14) (size 15 to 20)
#    0.000    2.333    0.000    5.500    0.000    4.000 
#    0.000    9.167    0.000    1.000    0.000    7.000 
#    0.000    0.000    0.000    0.000    0.000    0.000 
#
# Total GULP energy -267219.939535 kJ/mol
# GULP energy per Si atom -5567.082074 kJ/mol
# Density = 1.726732 g / cm^3
# Si number density = 17.306708 Si / 1000 Ang^3
#
#
#
# Elastic Constant Matrix: (Units=GPa)
#
#
# Indices 1 2 3 4 5 6 
#
# 1 81.7707 51.5549 11.2745 0.0000 0.0000 0.0000
# 2 51.5549 103.3810 26.4038 0.0000 0.0000 0.0000
# 3 11.2745 26.4038 35.3602 0.0000 0.0000 0.0000
# 4 0.0000 0.0000 0.0000 6.6750 0.0000 0.0000
# 5 0.0000 0.0000 0.0000 0.0000 12.2955 0.0000
# 6 0.0000 0.0000 0.0000 0.0000 0.0000 22.3231
#
#
#
# Elastic Compliance Matrix: (Units=1/GPa)
#
#
# Indices 1 2 3 4 5 6 
#
# 1 0.017878 -0.009217 0.001182 0.000000 0.000000 0.000000
# 2 -0.009217 0.016705 -0.009535 0.000000 0.000000 0.000000
# 3 0.001182 -0.009535 0.035023 0.000000 0.000000 0.000000
# 4 0.000000 0.000000 0.000000 0.149812 0.000000 0.000000
# 5 0.000000 0.000000 0.000000 0.000000 0.081331 0.000000
# 6 0.000000 0.000000 0.000000 0.000000 0.000000 0.044797
#
#
# Mechanical properties :
#
#
# Convention : Reuss Voigt Hill
#
# Bulk Modulus (GPa) = 29.01389 44.33094 36.67241
# Shear Modulus (GPa) = 12.74947 17.01063 14.88005
#
# Velocity S-wave (km/s) = 2.71713 3.13851 2.93539
# Velocity P-wave (km/s) = 5.16184 6.22930 5.72052
#
# Compressibility (1/GPa) = 0.03446625
#
# Stress axis : x y z
#
# Youngs Moduli (GPa) = 55.93560 59.86316 28.55268
#
# Poissons Ratio (x) = 0.55178 -0.03376
# Poissons Ratio (y) = 0.51558 0.27224
# Poissons Ratio (z) = -0.06614 0.57078
#
# Static dielectric constant tensor:
#      x y z
#    x 1.622590 0.000000 0.000000 
#    y 0.000000 1.588460 0.000000 
#    z 0.000000 0.000000 1.620330 
# 
# From -- ./inp_files/6368.got.cif
#   From: 2010.05.17/outbox.cif.g08.bks.cpg/sg49_4_cif.got.tgz:6368.got - 2010.06.03 21:02:19.
