data_PCOD9392672
_publ_section_title
;
Structure prediction by ZEFSAII (Michael W. Deem and Ramdas Pophale) SiO2 
 PCOD9392672
Probable space group: P C C M
;
_chemical_formula_sum "Si O2"
_cell_formula_units_Z 64
_cell_length_a 19.772528
_cell_length_b 24.432101
_cell_length_c 8.485514
_cell_angle_alpha 90.000000
_cell_angle_beta 90.000000
_cell_angle_gamma 90.000000
_cell_volume 4099.219449
_symmetry_space_group_name_H-M "P C C M"
_symmetry_group_IT_number 49
_symmetry_cell_setting 'orthorhombic'
loop_
_space_group_symop_operation_xyz
x,y,z
-x,-y,z
x,-y,1/2-z
-x,y,1/2-z
-x,-y,-z
x,y,-z
-x,y,1/2+z
x,-y,1/2+z
loop_
_atom_site_type_symbol
_atom_site_label
_atom_site_fract_x
_atom_site_fract_y
_atom_site_fract_z
Si Si1 0.423767 0.559699 0.189340
Si Si2 0.653519 0.332613 0.190683
Si Si3 0.424851 0.773583 0.687049
Si Si4 0.787010 0.939695 0.690500
Si Si5 0.300294 0.163206 0.690196
Si Si6 0.927677 0.759516 0.309908
Si Si7 0.927517 0.887337 0.689858
Si Si8 0.216401 0.271800 0.308708
O O1 0.402478 0.500000 0.250000
O O2 0.500000 0.569573 0.250000
O O3 0.375764 0.609221 0.242946
O O4 0.425355 0.558740 0.000000
O O5 0.605115 0.283214 0.244647
O O6 0.729358 0.316963 0.244941
O O7 0.653652 0.332349 0.000000
O O8 0.500000 0.782818 0.750000
O O9 0.426088 0.769660 0.500000
O O10 0.372417 0.820594 0.739438
O O11 0.787575 0.939443 0.500000
O O12 0.733086 0.893680 0.741122
O O13 0.861994 0.920792 0.743997
O O14 0.771450 0.000000 0.750000
O O15 0.305988 0.163149 0.500000
O O16 0.249301 0.212951 0.731363
O O17 0.928386 0.758767 0.500000
O O18 0.920676 0.823495 0.261365
O O19 0.860941 0.727569 0.253705
O O20 0.000000 0.739333 0.250000
O O21 0.928174 0.888205 0.500000
O O22 0.000000 0.907772 0.750000
O O23 0.214544 0.274311 0.500000
#
# Coordination Sequence:
#
# PCOD9392672 Si02
#       8
#     8   8   8   8   8   8   8   8
#     4  10  19  30  45  65  91 127 164 193 223 259
#     4   9  18  31  48  69  93 124 159 191 224 265
#     4  11  21  32  49  73  96 118 144 180 225 268
#     4  10  20  33  49  66  87 116 150 185 226 271
#     4   9  17  33  51  65  86 116 147 180 222 274
#     4   9  15  25  42  62  85 115 147 178 217 266
#     4   9  17  29  44  63  85 116 150 182 220 262
#     4   8  13  26  47  64  83 114 149 182 220 268
#
# _framework density 15.612728000000001
#
# number of rings (size 3 to 8) (size 9 to 14) (size 15 to 20)
#    0.000    2.625    1.250    3.000    0.000    3.250 
#    0.000    3.750    0.000    0.375    0.000    2.625 
#    0.000    0.500    0.000    6.250    0.000    0.000 
#
# Total GULP energy -356694.408194 kJ/mol
# GULP energy per Si atom -5573.350128 kJ/mol
# Density = 1.557719 g / cm^3
# Si number density = 15.612728 Si / 1000 Ang^3
#
#
#
# Elastic Constant Matrix: (Units=GPa)
#
#
# Indices 1 2 3 4 5 6 
#
# 1 147.4673 76.1111 18.4821 0.0000 0.0000 0.0000
# 2 76.1111 111.1361 17.8767 0.0000 0.0000 0.0000
# 3 18.4821 17.8767 11.9747 0.0000 0.0000 0.0000
# 4 0.0000 0.0000 0.0000 26.0318 0.0000 0.0000
# 5 0.0000 0.0000 0.0000 0.0000 19.9776 0.0000
# 6 0.0000 0.0000 0.0000 0.0000 0.0000 24.6882
#
#
#
# Elastic Compliance Matrix: (Units=1/GPa)
#
#
# Indices 1 2 3 4 5 6 
#
# 1 0.010981 -0.006309 -0.007530 0.000000 0.000000 0.000000
# 2 -0.006309 0.015467 -0.013352 0.000000 0.000000 0.000000
# 3 -0.007530 -0.013352 0.115064 0.000000 0.000000 0.000000
# 4 0.000000 0.000000 0.000000 0.038415 0.000000 0.000000
# 5 0.000000 0.000000 0.000000 0.000000 0.050056 0.000000
# 6 0.000000 0.000000 0.000000 0.000000 0.000000 0.040505
#
#
# Mechanical properties :
#
#
# Convention : Reuss Voigt Hill
#
# Bulk Modulus (GPa) = 11.47713 55.05755 33.26734
# Shear Modulus (GPa) = 14.12780 24.68005 19.40393
#
# Velocity S-wave (km/s) = 3.01140 3.98020 3.52920
# Velocity P-wave (km/s) = 4.41118 7.51423 6.16126
#
# Compressibility (1/GPa) = 0.08712979
#
# Stress axis : x y z
#
# Youngs Moduli (GPa) = 91.06461 64.65585 8.69085
#
# Poissons Ratio (x) = 0.40793 0.06544
# Poissons Ratio (y) = 0.57455 0.11604
# Poissons Ratio (z) = 0.68570 0.86326
#
# Static dielectric constant tensor:
#      x y z
#    x 1.532370 0.000000 0.000000 
#    y 0.000000 1.506220 0.000000 
#    z 0.000000 0.000000 1.543660 
# 
# From -- ./inp_files/6120.got.cif
#   From: 2010.05.17/outbox.cif.g08.bks.cpg/sg49_4_cif.got.tgz:6120.got - 2010.06.03 21:02:19.
