data_PCOD9392405
_publ_section_title
;
Structure prediction by ZEFSAII (Michael W. Deem and Ramdas Pophale) SiO2 
 PCOD9392405
Probable space group: P C C M
;
_chemical_formula_sum "Si O2"
_cell_formula_units_Z 32
_cell_length_a 5.320795
_cell_length_b 7.213792
_cell_length_c 34.336127
_cell_angle_alpha 90.000000
_cell_angle_beta 90.000000
_cell_angle_gamma 90.000000
_cell_volume 1317.927285
_symmetry_space_group_name_H-M "P C C M"
_symmetry_group_IT_number 49
_symmetry_cell_setting 'orthorhombic'
loop_
_space_group_symop_operation_xyz
x,y,z
-x,-y,z
x,-y,1/2-z
-x,y,1/2-z
-x,-y,-z
x,y,-z
-x,y,1/2+z
x,-y,1/2+z
loop_
_atom_site_type_symbol
_atom_site_label
_atom_site_fract_x
_atom_site_fract_y
_atom_site_fract_z
Si Si1 0.194997 0.203342 0.424932
Si Si2 0.491280 0.725151 0.205168
Si Si3 0.696991 0.214899 0.544760
Si Si4 0.003883 0.275448 0.839887
O O1 0.471923 0.290402 0.428516
O O2 0.079679 0.202336 0.381941
O O3 0.974459 0.295984 0.449882
O O4 0.250430 0.998371 0.442129
O O5 0.500000 0.500000 0.205268
O O6 0.500000 0.784699 0.250000
O O7 0.222256 0.780391 0.188424
O O8 0.726615 0.781670 0.177860
O O9 0.617019 0.224554 0.500000
O O10 0.000000 0.500000 0.842768
#
# Coordination Sequence:
#
# PCOD9392405 Si02
#       4
#     8   8   8   8
#     4  10  18  30  49  73  96 120 154 203 246 279
#     4   9  17  30  47  68  96 130 164 193 225 277
#     4  10  19  33  53  71  89 121 167 210 237 271
#     4  10  19  30  47  73 102 127 153 193 246 296
#
# _framework density 24.280548
#
# number of rings (size 3 to 8) (size 9 to 14) (size 15 to 20)
#    0.000    2.250    0.000    6.000    0.000    3.000 
#    0.000    0.000    0.000    8.250    0.000   52.500 
#    0.000    0.000    0.000    0.000    0.000    0.000 
#
# Total GULP energy -178752.586679 kJ/mol
# GULP energy per Si atom -5586.018334 kJ/mol
# Density = 2.422528 g / cm^3
# Si number density = 24.280548 Si / 1000 Ang^3
#
#
#
# Elastic Constant Matrix: (Units=GPa)
#
#
# Indices 1 2 3 4 5 6 
#
# 1 222.9478 6.3779 51.6211 0.0000 0.0000 0.0000
# 2 6.3779 105.7863 -2.3603 0.0000 0.0000 0.0000
# 3 51.6211 -2.3603 161.9646 0.0000 0.0000 0.0000
# 4 0.0000 0.0000 0.0000 3.8551 0.0000 0.0000
# 5 0.0000 0.0000 0.0000 0.0000 52.2690 0.0000
# 6 0.0000 0.0000 0.0000 0.0000 0.0000 -14.2013
#
#
#
# Elastic Compliance Matrix: (Units=1/GPa)
#
#
# Indices 1 2 3 4 5 6 
#
# 1 0.004854 -0.000327 -0.001552 0.000000 0.000000 0.000000
# 2 -0.000327 0.009478 0.000242 0.000000 0.000000 0.000000
# 3 -0.001552 0.000242 0.006672 0.000000 0.000000 0.000000
# 4 0.000000 0.000000 0.000000 0.259398 0.000000 0.000000
# 5 0.000000 0.000000 0.000000 0.000000 0.019132 0.000000
# 6 0.000000 0.000000 0.000000 0.000000 0.000000 -0.070416
#
#
# Mechanical properties :
#
#
# Convention : Reuss Voigt Hill
#
# Bulk Modulus (GPa) = 56.39793 66.88624 61.64209
# Shear Modulus (GPa) = 20.98178 37.38855 29.18517
#
# Velocity S-wave (km/s) = 2.94281 3.92836 3.47075
# Velocity P-wave (km/s) = 5.90126 6.94140 6.44236
#
# Compressibility (1/GPa) = 0.01773115
#
# Stress axis : x y z
#
# Youngs Moduli (GPa) = 206.01439 105.50569 149.87289
#
# Poissons Ratio (x) = 0.03453 0.23258
# Poissons Ratio (y) = 0.06742 -0.03633
# Poissons Ratio (z) = 0.31970 -0.02558
#
# Static dielectric constant tensor:
#      x y z
#    x 2.121270 0.000000 0.000000 
#    y 0.000000 2.190580 0.000000 
#    z 0.000000 0.000000 1.910450 
# 
# From -- ./inp_files/23719.got.cif
#   From: 2010.05.17/outbox.cif.g08.bks.cpg/sg49_12_cif.got.tgz:23719.got - 2010.06.03 21:02:19.
