data_PCOD9392988
_publ_section_title
;
Structure prediction by ZEFSAII (Michael W. Deem and Ramdas Pophale) SiO2 
 PCOD9392988
Probable space group: P C C M
;
_chemical_formula_sum "Si O2"
_cell_formula_units_Z 40
_cell_length_a 23.514396
_cell_length_b 8.630036
_cell_length_c 10.086386
_cell_angle_alpha 90.000000
_cell_angle_beta 90.000000
_cell_angle_gamma 90.000000
_cell_volume 2046.831158
_symmetry_space_group_name_H-M "P C C M"
_symmetry_group_IT_number 49
_symmetry_cell_setting 'orthorhombic'
loop_
_space_group_symop_operation_xyz
x,y,z
-x,-y,z
x,-y,1/2-z
-x,y,1/2-z
-x,-y,-z
x,y,-z
-x,y,1/2+z
x,-y,1/2+z
loop_
_atom_site_type_symbol
_atom_site_label
_atom_site_fract_x
_atom_site_fract_y
_atom_site_fract_z
Si Si1 0.635182 0.198618 0.500000
Si Si2 0.564833 0.812126 0.744915
Si Si3 0.354124 0.175982 0.500000
Si Si4 0.947497 0.659050 0.163321
Si Si5 0.225528 0.687260 0.000000
Si Si6 0.241792 0.678357 0.500000
Si Si7 0.170216 0.816607 0.734968
O O1 0.597634 0.237052 0.625559
O O2 0.691732 0.296087 0.500000
O O3 0.649774 0.013249 0.500000
O O4 0.500000 0.754113 0.750000
O O5 0.606582 0.775635 0.623752
O O6 0.561108 0.000000 0.750000
O O7 0.290245 0.244595 0.500000
O O8 0.938344 0.500000 0.250000
O O9 0.890815 0.757165 0.184979
O O10 0.000000 0.729728 0.250000
O O11 0.956815 0.640213 0.000000
O O12 0.227390 0.502049 0.000000
O O13 0.190627 0.743438 0.127456
O O14 0.215444 0.761532 0.626961
O O15 0.169735 0.000000 0.750000
#
# Coordination Sequence:
#
# PCOD9392988 Si02
#       7
#     4   8   4   8   4   4   8
#     4  10  19  32  58  81 119 156 203 264 309 375
#     4   9  17  30  52  83 116 153 201 256 313 375
#     4  10  19  34  54  87 115 158 207 258 319 369
#     4  11  24  44  71 104 140 180 221 263 318 387
#     4  12  26  41  68  90 130 174 213 269 321 400
#     4  12  24  45  62  94 126 170 221 259 329 394
#     4  12  26  44  67  98 132 168 216 274 327 378
#
# _framework density 19.542404000000001
#
# number of rings (size 3 to 8) (size 9 to 14) (size 15 to 20)
#    0.000    1.200    1.000    6.600    2.800    4.400 
#    0.000    1.000    0.000    3.600    0.000    0.000 
#    0.000    0.000    0.000    0.000    0.000    0.000 
#
# Total GULP energy -223227.033993 kJ/mol
# GULP energy per Si atom -5580.675850 kJ/mol
# Density = 1.949792 g / cm^3
# Si number density = 19.542404 Si / 1000 Ang^3
#
#
#
# Elastic Constant Matrix: (Units=GPa)
#
#
# Indices 1 2 3 4 5 6 
#
# 1 140.5443 34.8138 70.9265 0.0000 0.0000 0.0000
# 2 34.8138 79.8120 36.4171 0.0000 0.0000 0.0000
# 3 70.9265 36.4171 210.1081 0.0000 0.0000 0.0000
# 4 0.0000 0.0000 0.0000 8.5029 0.0000 0.0000
# 5 0.0000 0.0000 0.0000 0.0000 80.8378 0.0000
# 6 0.0000 0.0000 0.0000 0.0000 0.0000 40.5651
#
#
#
# Elastic Compliance Matrix: (Units=1/GPa)
#
#
# Indices 1 2 3 4 5 6 
#
# 1 0.009116 -0.002793 -0.002593 0.000000 0.000000 0.000000
# 2 -0.002793 0.014461 -0.001564 0.000000 0.000000 0.000000
# 3 -0.002593 -0.001564 0.005906 0.000000 0.000000 0.000000
# 4 0.000000 0.000000 0.000000 0.117607 0.000000 0.000000
# 5 0.000000 0.000000 0.000000 0.000000 0.012370 0.000000
# 6 0.000000 0.000000 0.000000 0.000000 0.000000 0.024652
#
#
# Mechanical properties :
#
#
# Convention : Reuss Voigt Hill
#
# Bulk Modulus (GPa) = 64.17177 79.41989 71.79583
# Shear Modulus (GPa) = 24.60565 45.20164 34.90364
#
# Velocity S-wave (km/s) = 3.55222 4.81459 4.23075
# Velocity P-wave (km/s) = 7.05215 8.46375 7.78999
#
# Compressibility (1/GPa) = 0.01558318
#
# Stress axis : x y z
#
# Youngs Moduli (GPa) = 109.70134 69.15042 169.32432
#
# Poissons Ratio (x) = 0.19314 0.43907
# Poissons Ratio (y) = 0.30640 0.26476
# Poissons Ratio (z) = 0.28446 0.10813
#
# Static dielectric constant tensor:
#      x y z
#    x 1.680040 0.000000 0.000000 
#    y 0.000000 1.677670 0.000000 
#    z 0.000000 0.000000 1.706430 
# 
# From -- ./inp_files/6262.got.cif
#   From: 2010.05.17/outbox.cif.g08.bks.cpg/sg49_4_cif.got.tgz:6262.got - 2010.06.03 21:02:19.
