data_PCOD9392551
_publ_section_title
;
Structure prediction by ZEFSAII (Michael W. Deem and Ramdas Pophale) SiO2 
 PCOD9392551
Probable space group: P C C M
;
_chemical_formula_sum "Si O2"
_cell_formula_units_Z 26
_cell_length_a 9.203268
_cell_length_b 7.656381
_cell_length_c 21.239882
_cell_angle_alpha 90.000000
_cell_angle_beta 90.000000
_cell_angle_gamma 90.000000
_cell_volume 1496.641231
_symmetry_space_group_name_H-M "P C C M"
_symmetry_group_IT_number 49
_symmetry_cell_setting 'orthorhombic'
loop_
_space_group_symop_operation_xyz
x,y,z
-x,-y,z
x,-y,1/2-z
-x,y,1/2-z
-x,-y,-z
x,y,-z
-x,y,1/2+z
x,-y,1/2+z
loop_
_atom_site_type_symbol
_atom_site_label
_atom_site_fract_x
_atom_site_fract_y
_atom_site_fract_z
Si Si1 0.000000 0.000000 0.750000
Si Si2 0.855150 0.207282 0.425666
Si Si3 0.667814 0.551929 0.426133
Si Si4 0.163851 0.153961 0.364425
O O1 0.101863 0.118445 0.705289
O O2 0.850900 0.176139 0.500000
O O3 0.767043 0.382921 0.412604
O O4 0.021965 0.218190 0.403447
O O5 0.793802 0.036591 0.390814
O O6 0.500000 0.500000 0.420185
O O7 0.692762 0.602822 0.500000
O O8 0.713496 0.706230 0.379306
#
# Coordination Sequence:
#
# PCOD9392551 Si02
#       4
#     2   8   8   8
#     4   8  20  36  56  74  92 134 192 228 254 292
#     4   9  17  30  52  79 102 132 170 210 262 312
#     4  10  20  32  51  83 115 138 163 205 269 332
#     4  10  18  34  54  74 102 135 175 224 257 297
#
# _framework density 17.372233000000001
#
# number of rings (size 3 to 8) (size 9 to 14) (size 15 to 20)
#    0.000    2.769    0.000    4.615    0.000    3.692 
#    0.000   16.923    0.000   22.154    0.000    0.000 
#    0.000    0.000    0.000    0.000    0.000    0.000 
#
# Total GULP energy -144937.067002 kJ/mol
# GULP energy per Si atom -5574.502577 kJ/mol
# Density = 1.733269 g / cm^3
# Si number density = 17.372233 Si / 1000 Ang^3
#
#
#
# Elastic Constant Matrix: (Units=GPa)
#
#
# Indices 1 2 3 4 5 6 
#
# 1 35.4173 35.3522 23.6454 0.0000 0.0000 0.0000
# 2 35.3522 65.3007 45.2670 0.0000 0.0000 0.0000
# 3 23.6454 45.2670 90.1807 0.0000 0.0000 0.0000
# 4 0.0000 0.0000 0.0000 4.1782 0.0000 0.0000
# 5 0.0000 0.0000 0.0000 0.0000 4.8629 0.0000
# 6 0.0000 0.0000 0.0000 0.0000 0.0000 14.9640
#
#
#
# Elastic Compliance Matrix: (Units=1/GPa)
#
#
# Indices 1 2 3 4 5 6 
#
# 1 0.061478 -0.033907 0.000900 0.000000 0.000000 0.000000
# 2 -0.033907 0.042187 -0.012286 0.000000 0.000000 0.000000
# 3 0.000900 -0.012286 0.017020 0.000000 0.000000 0.000000
# 4 0.000000 0.000000 0.000000 0.239335 0.000000 0.000000
# 5 0.000000 0.000000 0.000000 0.000000 0.205637 0.000000
# 6 0.000000 0.000000 0.000000 0.000000 0.000000 0.066827
#
#
# Mechanical properties :
#
#
# Convention : Reuss Voigt Hill
#
# Bulk Modulus (GPa) = 33.22243 44.38090 38.80167
# Shear Modulus (GPa) = 6.82034 10.57664 8.69849
#
# Velocity S-wave (km/s) = 1.98356 2.47011 2.24009
# Velocity P-wave (km/s) = 4.94079 5.80842 5.39209
#
# Compressibility (1/GPa) = 0.03010015
#
# Stress axis : x y z
#
# Youngs Moduli (GPa) = 16.26589 23.70426 58.75569
#
# Poissons Ratio (x) = 0.80374 -0.05289
# Poissons Ratio (y) = 0.55153 0.72184
# Poissons Ratio (z) = -0.01464 0.29122
#
# Static dielectric constant tensor:
#      x y z
#    x 1.595950 0.000000 0.000000 
#    y 0.000000 1.600790 0.000000 
#    z 0.000000 0.000000 1.593240 
# 
# From -- ./inp_files/15646.got.cif
#   From: 2010.05.17/outbox.cif.g08.bks.cpg/sg49_8_cif.got.tgz:15646.got - 2010.06.03 21:02:19.
