data_PCOD9392574
_publ_section_title
;
Structure prediction by ZEFSAII (Michael W. Deem and Ramdas Pophale) SiO2 
 PCOD9392574
Probable space group: P C C M
;
_chemical_formula_sum "Si O2"
_cell_formula_units_Z 64
_cell_length_a 10.419272
_cell_length_b 9.635770
_cell_length_c 32.551000
_cell_angle_alpha 90.000000
_cell_angle_beta 90.000000
_cell_angle_gamma 90.000000
_cell_volume 3268.045811
_symmetry_space_group_name_H-M "P C C M"
_symmetry_group_IT_number 49
_symmetry_cell_setting 'orthorhombic'
loop_
_space_group_symop_operation_xyz
x,y,z
-x,-y,z
x,-y,1/2-z
-x,y,1/2-z
-x,-y,-z
x,y,-z
-x,y,1/2+z
x,-y,1/2+z
loop_
_atom_site_type_symbol
_atom_site_label
_atom_site_fract_x
_atom_site_fract_y
_atom_site_fract_z
Si Si1 0.686974 0.338952 0.243086
Si Si2 0.855404 0.026010 0.132259
Si Si3 0.203150 0.737945 0.325134
Si Si4 0.625676 0.591510 0.451494
Si Si5 0.583688 0.134639 0.902437
Si Si6 0.790320 0.467093 0.878394
Si Si7 0.549271 0.660518 0.665113
Si Si8 0.919163 0.292118 0.182368
O O1 0.658427 0.500000 0.250000
O O2 0.698355 0.269554 0.287533
O O3 0.583061 0.286720 0.210395
O O4 0.821128 0.335336 0.217757
O O5 0.730668 0.085324 0.108091
O O6 0.884447 0.137638 0.167863
O O7 0.810588 0.882745 0.152369
O O8 0.000000 0.000000 0.112742
O O9 0.226362 0.617293 0.358302
O O10 0.065963 0.703515 0.304586
O O11 0.500000 0.500000 0.439517
O O12 0.644377 0.579806 0.500000
O O13 0.595854 0.748674 0.437644
O O14 0.749872 0.538901 0.425745
O O15 0.506452 0.214327 0.864785
O O16 0.500000 0.000000 0.913313
O O17 0.683229 0.370161 0.857614
O O18 0.911152 0.387054 0.859113
O O19 0.500000 0.500000 0.666555
#
# Coordination Sequence:
#
# PCOD9392574 Si02
#       8
#     8   8   8   8   8   8   8   8
#     4  11  20  34  51  80 114 152 209 260 311 341
#     4  10  22  39  57  88 124 165 204 249 310 362
#     4  11  22  31  58  86 114 159 211 257 294 357
#     4  10  22  41  66  94 124 152 190 255 321 371
#     4  11  22  39  68  92 121 161 211 251 304 382
#     4  10  18  35  59  86 110 149 197 244 304 363
#     4  10  21  38  56  77 116 159 204 256 314 361
#     4  10  19  37  54  82 118 158 204 258 304 351
#
# _framework density 19.583568
#
# number of rings (size 3 to 8) (size 9 to 14) (size 15 to 20)
#    0.000    1.625    6.250    2.250    3.500    1.500 
#    0.000    1.875    0.000    1.875    0.000    0.000 
#    0.000    0.000    0.000    0.000    0.000    0.000 
#
# Total GULP energy -356418.462574 kJ/mol
# GULP energy per Si atom -5569.038478 kJ/mol
# Density = 1.953899 g / cm^3
# Si number density = 19.583568 Si / 1000 Ang^3
#
#
#
# Elastic Constant Matrix: (Units=GPa)
#
#
# Indices 1 2 3 4 5 6 
#
# 1 94.6183 20.9205 18.5498 0.0000 0.0000 0.0000
# 2 20.9205 107.6261 32.8585 0.0000 0.0000 0.0000
# 3 18.5498 32.8585 92.2362 0.0000 0.0000 0.0000
# 4 0.0000 0.0000 0.0000 16.3552 0.0000 0.0000
# 5 0.0000 0.0000 0.0000 0.0000 21.8226 0.0000
# 6 0.0000 0.0000 0.0000 0.0000 0.0000 36.1797
#
#
#
# Elastic Compliance Matrix: (Units=1/GPa)
#
#
# Indices 1 2 3 4 5 6 
#
# 1 0.011267 -0.001681 -0.001667 0.000000 0.000000 0.000000
# 2 -0.001681 0.010676 -0.003465 0.000000 0.000000 0.000000
# 3 -0.001667 -0.003465 0.012411 0.000000 0.000000 0.000000
# 4 0.000000 0.000000 0.000000 0.061143 0.000000 0.000000
# 5 0.000000 0.000000 0.000000 0.000000 0.045824 0.000000
# 6 0.000000 0.000000 0.000000 0.000000 0.000000 0.027640
#
#
# Mechanical properties :
#
#
# Convention : Reuss Voigt Hill
#
# Bulk Modulus (GPa) = 48.24392 48.79311 48.51852
# Shear Modulus (GPa) = 26.38553 29.68161 28.03357
#
# Velocity S-wave (km/s) = 3.67458 3.89734 3.78760
# Velocity P-wave (km/s) = 6.53389 6.72472 6.62999
#
# Compressibility (1/GPa) = 0.02072800
#
# Stress axis : x y z
#
# Youngs Moduli (GPa) = 88.75214 93.66670 80.57075
#
# Poissons Ratio (x) = 0.15747 0.13432
# Poissons Ratio (y) = 0.14921 0.27919
# Poissons Ratio (z) = 0.14796 0.32457
#
# Static dielectric constant tensor:
#      x y z
#    x 1.843020 0.000000 0.000000 
#    y 0.000000 1.696900 0.000000 
#    z 0.000000 0.000000 1.724750 
# 
# From -- ./inp_files/26693.got.cif
#   From: 2010.05.17/outbox.cif.g08.bks.cpg/sg49_14_cif.got.tgz:26693.got - 2010.06.03 21:02:19.
