data_PCOD9392341
_publ_section_title
;
Structure prediction by ZEFSAII (Michael W. Deem and Ramdas Pophale) SiO2 
 PCOD9392341
Probable space group: P C C M
;
_chemical_formula_sum "Si O2"
_cell_formula_units_Z 64
_cell_length_a 5.286913
_cell_length_b 31.567109
_cell_length_c 24.506682
_cell_angle_alpha 90.000000
_cell_angle_beta 90.000000
_cell_angle_gamma 90.000000
_cell_volume 4089.982870
_symmetry_space_group_name_H-M "P C C M"
_symmetry_group_IT_number 49
_symmetry_cell_setting 'orthorhombic'
loop_
_space_group_symop_operation_xyz
x,y,z
-x,-y,z
x,-y,1/2-z
-x,y,1/2-z
-x,-y,-z
x,y,-z
-x,y,1/2+z
x,-y,1/2+z
loop_
_atom_site_type_symbol
_atom_site_label
_atom_site_fract_x
_atom_site_fract_y
_atom_site_fract_z
Si Si1 0.513172 0.599249 0.566554
Si Si2 0.976969 0.071534 0.435764
Si Si3 0.013202 0.451163 0.933503
Si Si4 0.492555 0.696718 0.433745
Si Si5 0.018422 0.160475 0.121200
Si Si6 0.519466 0.135529 0.185850
Si Si7 0.475750 0.953024 0.129152
Si Si8 0.992379 0.748205 0.433974
O O1 0.512867 0.599804 0.500000
O O2 0.268009 0.572642 0.583690
O O3 0.502691 0.648002 0.584769
O O4 0.767973 0.575397 0.583580
O O5 0.989688 0.063954 0.500000
O O6 0.988666 0.121730 0.422019
O O7 0.714784 0.054744 0.410643
O O8 0.216176 0.051169 0.404909
O O9 0.000000 0.500000 0.915798
O O10 0.013870 0.451640 0.000000
O O11 0.493944 0.695458 0.500000
O O12 0.738530 0.723384 0.417402
O O13 0.236494 0.720601 0.417763
O O14 0.277305 0.154909 0.154908
O O15 0.776920 0.153946 0.160327
O O16 0.005290 0.205497 0.091895
O O17 0.500000 0.142699 0.250000
O O18 0.520222 0.085239 0.172274
O O19 0.500000 0.000000 0.152940
O O20 0.992292 0.751943 0.500000
#
# Coordination Sequence:
#
# PCOD9392341 Si02
#       8
#     8   8   8   8   8   8   8   8
#     4   9  15  23  32  44  67  95 129 173 218 263
#     4  10  20  33  49  70  98 126 148 174 212 255
#     4   9  15  21  30  43  60  89 131 179 227 262
#     4   9  17  26  38  57  80 110 140 170 217 268
#     4  10  20  34  51  71  91 114 146 180 216 260
#     4  10  21  37  54  70  90 115 144 181 223 256
#     4  10  21  34  50  73  95 119 152 180 208 255
#     4  10  18  29  45  65  89 113 140 173 215 267
#
# _framework density 15.647988
#
# number of rings (size 3 to 8) (size 9 to 14) (size 15 to 20)
#    0.000    2.375    0.000    3.375    0.000    6.250 
#    0.000    3.750    0.000    4.500    0.000    0.000 
#    0.000    0.000    0.000    0.000    0.000    0.000 
#
# Total GULP energy -356935.865147 kJ/mol
# GULP energy per Si atom -5577.122893 kJ/mol
# Density = 1.561237 g / cm^3
# Si number density = 15.647988 Si / 1000 Ang^3
#
#
#
# Elastic Constant Matrix: (Units=GPa)
#
#
# Indices 1 2 3 4 5 6 
#
# 1 61.8810 -16.9261 -5.1471 0.0000 0.0000 0.0000
# 2 -16.9261 68.4868 -4.9024 0.0000 0.0000 0.0000
# 3 -5.1471 -4.9024 20.8352 0.0000 0.0000 0.0000
# 4 0.0000 0.0000 0.0000 7.7106 0.0000 0.0000
# 5 0.0000 0.0000 0.0000 0.0000 6.0114 0.0000
# 6 0.0000 0.0000 0.0000 0.0000 0.0000 9.0615
#
#
#
# Elastic Compliance Matrix: (Units=1/GPa)
#
#
# Indices 1 2 3 4 5 6 
#
# 1 0.017946 0.004834 0.005571 0.000000 0.000000 0.000000
# 2 0.004834 0.016154 0.004995 0.000000 0.000000 0.000000
# 3 0.005571 0.004995 0.050547 0.000000 0.000000 0.000000
# 4 0.000000 0.000000 0.000000 0.129691 0.000000 0.000000
# 5 0.000000 0.000000 0.000000 0.000000 0.166349 0.000000
# 6 0.000000 0.000000 0.000000 0.000000 0.000000 0.110357
#
#
# Mechanical properties :
#
#
# Convention : Reuss Voigt Hill
#
# Bulk Modulus (GPa) = 8.66208 10.80573 9.73390
# Shear Modulus (GPa) = 10.02554 16.43529 13.23041
#
# Velocity S-wave (km/s) = 2.53393 3.24437 2.91091
# Velocity P-wave (km/s) = 3.75616 4.57767 4.18711
#
# Compressibility (1/GPa) = 0.11544577
#
# Stress axis : x y z
#
# Youngs Moduli (GPa) = 55.72389 61.90576 19.78348
#
# Poissons Ratio (x) = -0.29925 -0.11021
# Poissons Ratio (y) = -0.26936 -0.09882
# Poissons Ratio (z) = -0.31042 -0.30922
#
# Static dielectric constant tensor:
#      x y z
#    x 1.524950 0.000000 0.000000 
#    y 0.000000 1.520910 0.000000 
#    z 0.000000 0.000000 1.485470 
# 
# From -- ./inp_files/21958.got.cif
#   From: 2010.05.17/outbox.cif.g08.bks.cpg/sg49_11_cif.got.tgz:21958.got - 2010.06.03 21:02:19.
