data_PCOD9392279
_publ_section_title
;
Structure prediction by ZEFSAII (Michael W. Deem and Ramdas Pophale) SiO2 
 PCOD9392279
Probable space group: P C C M
;
_chemical_formula_sum "Si O2"
_cell_formula_units_Z 64
_cell_length_a 8.930234
_cell_length_b 14.635126
_cell_length_c 26.333610
_cell_angle_alpha 90.000000
_cell_angle_beta 90.000000
_cell_angle_gamma 90.000000
_cell_volume 3441.673787
_symmetry_space_group_name_H-M "P C C M"
_symmetry_group_IT_number 49
_symmetry_cell_setting 'orthorhombic'
loop_
_space_group_symop_operation_xyz
x,y,z
-x,-y,z
x,-y,1/2-z
-x,y,1/2-z
-x,-y,-z
x,y,-z
-x,y,1/2+z
x,-y,1/2+z
loop_
_atom_site_type_symbol
_atom_site_label
_atom_site_fract_x
_atom_site_fract_y
_atom_site_fract_z
Si Si1 0.347910 0.385526 0.686451
Si Si2 0.696177 0.809462 0.642911
Si Si3 0.301946 0.654402 0.704249
Si Si4 0.404907 0.857003 0.698317
Si Si5 0.837384 0.294048 0.057711
Si Si6 0.331157 0.523746 0.918653
Si Si7 0.832596 0.010803 0.189365
Si Si8 0.091106 0.406192 0.886173
O O1 0.281186 0.289331 0.668275
O O2 0.527746 0.373443 0.689264
O O3 0.281485 0.397022 0.742271
O O4 0.321414 0.457818 0.642388
O O5 0.522697 0.832478 0.653960
O O6 0.756091 0.789471 0.586581
O O7 0.780566 0.890339 0.671225
O O8 0.316307 0.764010 0.712229
O O9 0.177572 0.633565 0.662489
O O10 0.500000 0.882134 0.750000
O O11 0.293879 0.934852 0.678286
O O12 0.725218 0.381637 0.057951
O O13 0.979683 0.332585 0.089149
O O14 0.877123 0.272130 0.000000
O O15 0.500000 0.500000 0.932346
O O16 0.216165 0.441097 0.926500
O O17 0.841986 0.000000 0.250000
O O18 0.000000 0.000000 0.168424
O O19 0.000000 0.500000 0.874328
#
# Coordination Sequence:
#
# PCOD9392279 Si02
#       8
#     8   8   8   8   8   8   8   8
#     4   9  17  32  53  81 117 160 195 236 290 354
#     4  10  20  38  59  85 116 158 198 241 295 358
#     4  10  17  32  54  83 119 166 200 228 287 365
#     4  11  19  35  61  88 124 164 196 234 289 355
#     4  10  24  44  62  80 112 158 206 264 330 360
#     4  10  19  35  59  87 117 146 204 259 300 362
#     4  11  22  33  55  95 132 158 191 230 284 358
#     4  10  22  37  57  83 117 158 200 257 309 365
#
# _framework density 18.595604000000002
#
# number of rings (size 3 to 8) (size 9 to 14) (size 15 to 20)
#    0.000    1.875    5.000    0.375    1.750    3.000 
#    0.000    8.125    0.000    1.875    0.000    0.000 
#    0.000    0.000    0.000    0.000    0.000    0.000 
#
# Total GULP energy -356809.965195 kJ/mol
# GULP energy per Si atom -5575.155706 kJ/mol
# Density = 1.855328 g / cm^3
# Si number density = 18.595604 Si / 1000 Ang^3
#
#
#
# Elastic Constant Matrix: (Units=GPa)
#
#
# Indices 1 2 3 4 5 6 
#
# 1 101.0519 33.8107 34.5899 0.0000 0.0000 0.0000
# 2 33.8107 86.2570 25.1003 0.0000 0.0000 0.0000
# 3 34.5899 25.1003 99.9887 0.0000 0.0000 0.0000
# 4 0.0000 0.0000 0.0000 9.0616 0.0000 0.0000
# 5 0.0000 0.0000 0.0000 0.0000 8.4831 0.0000
# 6 0.0000 0.0000 0.0000 0.0000 0.0000 36.3251
#
#
#
# Elastic Compliance Matrix: (Units=1/GPa)
#
#
# Indices 1 2 3 4 5 6 
#
# 1 0.012317 -0.003871 -0.003289 0.000000 0.000000 0.000000
# 2 -0.003871 0.013723 -0.002106 0.000000 0.000000 0.000000
# 3 -0.003289 -0.002106 0.011668 0.000000 0.000000 0.000000
# 4 0.000000 0.000000 0.000000 0.110356 0.000000 0.000000
# 5 0.000000 0.000000 0.000000 0.000000 0.117882 0.000000
# 6 0.000000 0.000000 0.000000 0.000000 0.000000 0.027529
#
#
# Mechanical properties :
#
#
# Convention : Reuss Voigt Hill
#
# Bulk Modulus (GPa) = 52.14839 52.69991 52.42415
# Shear Modulus (GPa) = 15.70362 23.69375 19.69868
#
# Velocity S-wave (km/s) = 2.90915 3.57341 3.25825
# Velocity P-wave (km/s) = 6.27602 6.73997 6.51213
#
# Compressibility (1/GPa) = 0.01917605
#
# Stress axis : x y z
#
# Youngs Moduli (GPa) = 81.18919 72.86856 85.70716
#
# Poissons Ratio (x) = 0.28206 0.28191
# Poissons Ratio (y) = 0.31427 0.18049
# Poissons Ratio (z) = 0.26705 0.15346
#
# Static dielectric constant tensor:
#      x y z
#    x 1.699440 0.000000 0.000000 
#    y 0.000000 1.661110 0.000000 
#    z 0.000000 0.000000 1.668530 
# 
# From -- ./inp_files/22563.got.cif
#   From: 2010.05.17/outbox.cif.g08.bks.cpg/sg49_12_cif.got.tgz:22563.got - 2010.06.03 21:02:19.
