data_PCOD9392132
_publ_section_title
;
Structure prediction by ZEFSAII (Michael W. Deem and Ramdas Pophale) SiO2 
 PCOD9392132
Probable space group: P C C M
;
_chemical_formula_sum "Si O2"
_cell_formula_units_Z 40
_cell_length_a 19.948766
_cell_length_b 14.513479
_cell_length_c 8.437744
_cell_angle_alpha 90.000000
_cell_angle_beta 90.000000
_cell_angle_gamma 90.000000
_cell_volume 2442.946239
_symmetry_space_group_name_H-M "P C C M"
_symmetry_group_IT_number 49
_symmetry_cell_setting 'orthorhombic'
loop_
_space_group_symop_operation_xyz
x,y,z
-x,-y,z
x,-y,1/2-z
-x,y,1/2-z
-x,-y,-z
x,y,-z
-x,y,1/2+z
x,-y,1/2+z
loop_
_atom_site_type_symbol
_atom_site_label
_atom_site_fract_x
_atom_site_fract_y
_atom_site_fract_z
Si Si1 0.572741 0.895584 0.188102
Si Si2 0.329543 0.747196 0.185336
Si Si3 0.785515 0.606491 0.309707
Si Si4 0.069718 0.605446 0.310706
Si Si5 0.424240 0.595484 0.309676
O O1 0.500000 0.858581 0.250000
O O2 0.639127 0.839135 0.238636
O O3 0.577787 0.000000 0.250000
O O4 0.568420 0.894838 0.000000
O O5 0.266765 0.685394 0.246730
O O6 0.389509 0.676811 0.217338
O O7 0.318199 0.764676 0.000000
O O8 0.775015 0.500000 0.250000
O O9 0.781381 0.601608 0.500000
O O10 0.859624 0.639173 0.257381
O O11 0.068285 0.500000 0.250000
O O12 0.070916 0.606513 0.500000
O O13 0.000000 0.648915 0.250000
O O14 0.392331 0.500000 0.250000
O O15 0.500000 0.594169 0.250000
O O16 0.420113 0.603882 0.500000
#
# Coordination Sequence:
#
# PCOD9392132 Si02
#       5
#     8   8   8   8   8
#     4  11  22  38  58  77  97 121 155 199 247 297
#     4  11  22  35  50  70  96 125 157 195 240 289
#     4  10  20  32  47  68  98 132 166 201 238 281
#     4  10  17  27  44  64  91 125 165 203 237 276
#     4  11  21  33  47  64  88 120 158 196 233 276
#
# _framework density 16.373671999999999
#
# number of rings (size 3 to 8) (size 9 to 14) (size 15 to 20)
#    0.000    1.400    0.000   10.800    0.000    4.800 
#    0.000    0.000    0.000    0.000    0.000    0.000 
#    0.000    0.800    0.000    8.400    0.000    3.600 
#
# Total GULP energy -222889.863156 kJ/mol
# GULP energy per Si atom -5572.246579 kJ/mol
# Density = 1.633640 g / cm^3
# Si number density = 16.373672 Si / 1000 Ang^3
#
#
#
# Elastic Constant Matrix: (Units=GPa)
#
#
# Indices 1 2 3 4 5 6 
#
# 1 125.7999 42.3214 22.4698 0.0000 0.0000 0.0000
# 2 42.3214 59.6395 13.3049 0.0000 0.0000 0.0000
# 3 22.4698 13.3049 75.7150 0.0000 0.0000 0.0000
# 4 0.0000 0.0000 0.0000 18.9981 0.0000 0.0000
# 5 0.0000 0.0000 0.0000 0.0000 29.6445 0.0000
# 6 0.0000 0.0000 0.0000 0.0000 0.0000 -18.4079
#
#
#
# Elastic Compliance Matrix: (Units=1/GPa)
#
#
# Indices 1 2 3 4 5 6 
#
# 1 0.010703 -0.007167 -0.001917 0.000000 0.000000 0.000000
# 2 -0.007167 0.022251 -0.001783 0.000000 0.000000 0.000000
# 3 -0.001917 -0.001783 0.014090 0.000000 0.000000 0.000000
# 4 0.000000 0.000000 0.000000 0.052637 0.000000 0.000000
# 5 0.000000 0.000000 0.000000 0.000000 0.033733 0.000000
# 6 0.000000 0.000000 0.000000 0.000000 0.000000 -0.054324
#
#
# Mechanical properties :
#
#
# Convention : Reuss Voigt Hill
#
# Bulk Modulus (GPa) = 39.51105 46.37185 42.94145
# Shear Modulus (GPa) = 45.76258 18.25081 32.00669
#
# Velocity S-wave (km/s) = 5.29241 3.34225 4.42607
# Velocity P-wave (km/s) = 7.84406 6.57850 7.23899
#
# Compressibility (1/GPa) = 0.02530938
#
# Stress axis : x y z
#
# Youngs Moduli (GPa) = 93.43446 44.94138 70.97442
#
# Poissons Ratio (x) = 0.32211 0.13604
# Poissons Ratio (y) = 0.66967 0.12655
# Poissons Ratio (z) = 0.17909 0.08013
#
# Static dielectric constant tensor:
#      x y z
#    x 1.592120 0.000000 0.000000 
#    y 0.000000 1.477320 0.000000 
#    z 0.000000 0.000000 1.555400 
# 
# From -- ./inp_files/4779.got.cif
#   From: 2010.05.17/outbox.cif.g08.bks.cpg/sg49_3_cif.got.tgz:4779.got - 2010.06.03 21:02:19.
