data_PCOD9392114
_publ_section_title
;
Structure prediction by ZEFSAII (Michael W. Deem and Ramdas Pophale) SiO2 
 PCOD9392114
Probable space group: P C C M
;
_chemical_formula_sum "Si O2"
_cell_formula_units_Z 64
_cell_length_a 14.740042
_cell_length_b 31.981338
_cell_length_c 8.609332
_cell_angle_alpha 90.000000
_cell_angle_beta 90.000000
_cell_angle_gamma 90.000000
_cell_volume 4058.493045
_symmetry_space_group_name_H-M "P C C M"
_symmetry_group_IT_number 49
_symmetry_cell_setting 'orthorhombic'
loop_
_space_group_symop_operation_xyz
x,y,z
-x,-y,z
x,-y,1/2-z
-x,y,1/2-z
-x,-y,-z
x,y,-z
-x,y,1/2+z
x,-y,1/2+z
loop_
_atom_site_type_symbol
_atom_site_label
_atom_site_fract_x
_atom_site_fract_y
_atom_site_fract_z
Si Si1 0.902179 0.843598 0.813958
Si Si2 0.396660 0.456911 0.314374
Si Si3 0.601815 0.203680 0.313222
Si Si4 0.097418 0.745732 0.687002
Si Si5 0.397269 0.369215 0.812748
Si Si6 0.289193 0.713264 0.310927
Si Si7 0.399242 0.954482 0.186376
Si Si8 0.716575 0.874253 0.313799
O O1 0.889618 0.794591 0.768383
O O2 0.818577 0.869376 0.746839
O O3 0.000000 0.856854 0.750000
O O4 0.901538 0.845564 0.000000
O O5 0.354738 0.500000 0.250000
O O6 0.500000 0.456531 0.250000
O O7 0.398390 0.457653 0.500000
O O8 0.358829 0.413024 0.252290
O O9 0.500000 0.202397 0.250000
O O10 0.600510 0.202725 0.500000
O O11 0.651609 0.246520 0.263189
O O12 0.658479 0.164205 0.253249
O O13 0.094551 0.744382 0.500000
O O14 0.185517 0.720164 0.740700
O O15 0.000000 0.731755 0.750000
O O16 0.500000 0.363829 0.750000
O O17 0.599007 0.371301 0.500000
O O18 0.336899 0.329695 0.763276
O O19 0.288284 0.713342 0.500000
O O20 0.500000 0.945182 0.250000
O O21 0.331081 0.917641 0.232872
O O22 0.372697 0.000000 0.250000
O O23 0.403704 0.956279 0.000000
O O24 0.715740 0.871782 0.500000
#
# Coordination Sequence:
#
# PCOD9392114 Si02
#       8
#     8   8   8   8   8   8   8   8
#     4  10  19  33  54  76 102 130 162 203 246 290
#     4  10  17  27  42  61  85 114 154 199 239 282
#     4  11  21  34  48  68  97 133 168 203 239 281
#     4   9  17  32  49  69  92 122 159 199 241 282
#     4  10  18  29  44  62  89 126 161 197 236 280
#     4   9  18  32  47  64  94 129 162 195 237 285
#     4  10  21  36  55  77 102 130 163 201 242 291
#     4  11  22  35  52  77 102 129 165 202 242 291
#
# _framework density 15.769399999999999
#
# number of rings (size 3 to 8) (size 9 to 14) (size 15 to 20)
#    0.000    2.000    1.250    5.250    0.000    3.500 
#    0.000    3.125    0.000    0.375    0.000    2.625 
#    0.000    0.500    0.000    5.750    0.000    1.750 
#
# Total GULP energy -357074.858195 kJ/mol
# GULP energy per Si atom -5579.294659 kJ/mol
# Density = 1.573351 g / cm^3
# Si number density = 15.769400 Si / 1000 Ang^3
#
#
#
# Elastic Constant Matrix: (Units=GPa)
#
#
# Indices 1 2 3 4 5 6 
#
# 1 125.7432 85.4405 33.2070 0.0000 0.0000 0.0000
# 2 85.4405 142.5372 42.6932 0.0000 0.0000 0.0000
# 3 33.2070 42.6932 58.3848 0.0000 0.0000 0.0000
# 4 0.0000 0.0000 0.0000 32.7308 0.0000 0.0000
# 5 0.0000 0.0000 0.0000 0.0000 23.7392 0.0000
# 6 0.0000 0.0000 0.0000 0.0000 0.0000 9.5119
#
#
#
# Elastic Compliance Matrix: (Units=1/GPa)
#
#
# Indices 1 2 3 4 5 6 
#
# 1 0.013651 -0.007500 -0.002280 0.000000 0.000000 0.000000
# 2 -0.007500 0.013104 -0.005316 0.000000 0.000000 0.000000
# 3 -0.002280 -0.005316 0.022312 0.000000 0.000000 0.000000
# 4 0.000000 0.000000 0.000000 0.030552 0.000000 0.000000
# 5 0.000000 0.000000 0.000000 0.000000 0.042124 0.000000
# 6 0.000000 0.000000 0.000000 0.000000 0.000000 0.105131
#
#
# Mechanical properties :
#
#
# Convention : Reuss Voigt Hill
#
# Bulk Modulus (GPa) = 52.98178 72.14961 62.56570
# Shear Modulus (GPa) = 18.98559 24.21802 21.60180
#
# Velocity S-wave (km/s) = 3.47356 3.92313 3.70517
# Velocity P-wave (km/s) = 7.05396 8.14699 7.62010
#
# Compressibility (1/GPa) = 0.01887441
#
# Stress axis : x y z
#
# Youngs Moduli (GPa) = 73.25602 76.31495 44.81900
#
# Poissons Ratio (x) = 0.57234 0.10218
# Poissons Ratio (y) = 0.54940 0.23827
# Poissons Ratio (z) = 0.16702 0.40571
#
# Static dielectric constant tensor:
#      x y z
#    x 1.511670 0.000000 0.000000 
#    y 0.000000 1.540110 0.000000 
#    z 0.000000 0.000000 1.533620 
# 
# From -- ./inp_files/4534.got.cif
#   From: 2010.05.17/outbox.cif.g08.bks.cpg/sg49_3_cif.got.tgz:4534.got - 2010.06.03 21:02:19.
