data_PCOD9392186
_publ_section_title
;
Structure prediction by ZEFSAII (Michael W. Deem and Ramdas Pophale) SiO2 
 PCOD9392186
Probable space group: P C C M
;
_chemical_formula_sum "Si O2"
_cell_formula_units_Z 64
_cell_length_a 32.002110
_cell_length_b 14.689286
_cell_length_c 8.552451
_cell_angle_alpha 90.000000
_cell_angle_beta 90.000000
_cell_angle_gamma 90.000000
_cell_volume 4020.405838
_symmetry_space_group_name_H-M "P C C M"
_symmetry_group_IT_number 49
_symmetry_cell_setting 'orthorhombic'
loop_
_space_group_symop_operation_xyz
x,y,z
-x,-y,z
x,-y,1/2-z
-x,y,1/2-z
-x,-y,-z
x,y,-z
-x,y,1/2+z
x,-y,1/2+z
loop_
_atom_site_type_symbol
_atom_site_label
_atom_site_fract_x
_atom_site_fract_y
_atom_site_fract_z
Si Si1 0.868693 0.896592 0.813252
Si Si2 0.626235 0.213022 0.809596
Si Si3 0.757682 0.598631 0.813249
Si Si4 0.336732 0.402175 0.688024
Si Si5 0.545586 0.897984 0.688165
Si Si6 0.291853 0.102250 0.311311
Si Si7 0.043205 0.103895 0.313335
Si Si8 0.790408 0.215990 0.811860
O O1 0.912887 0.858649 0.749072
O O2 0.830505 0.835488 0.755243
O O3 0.863320 0.000000 0.750000
O O4 0.870146 0.900475 0.000000
O O5 0.635021 0.316865 0.762326
O O6 0.582762 0.168485 0.759233
O O7 0.665695 0.151996 0.758276
O O8 0.626314 0.211894 0.000000
O O9 0.771369 0.500000 0.750000
O O10 0.710313 0.612591 0.750711
O O11 0.785077 0.681910 0.750703
O O12 0.757033 0.597470 0.000000
O O13 0.351204 0.500000 0.750000
O O14 0.334616 0.404469 0.500000
O O15 0.500000 0.870436 0.750000
O O16 0.544601 0.900708 0.500000
O O17 0.553862 0.000000 0.750000
O O18 0.292419 0.100289 0.500000
O O19 0.251251 0.160108 0.263841
O O20 0.289553 0.000000 0.250000
O O21 0.042744 0.102690 0.500000
O O22 0.000000 0.145988 0.250000
O O23 0.043399 0.000000 0.250000
O O24 0.792227 0.216839 0.000000
#
# Coordination Sequence:
#
# PCOD9392186 Si02
#       8
#     8   8   8   8   8   8   8   8
#     4  11  21  33  47  68  98 135 175 211 251 301
#     4   9  18  33  51  70  96 128 157 195 243 287
#     4  11  21  34  52  74  97 126 163 204 248 294
#     4  10  18  33  52  73  98 124 157 197 244 290
#     4  10  19  33  52  73  98 127 158 194 238 284
#     4  10  20  33  47  66  94 128 162 197 236 280
#     4  10  17  28  45  66  91 124 166 213 259 300
#     4  11  21  35  51  68  97 133 167 205 248 293
#
# _framework density 15.918792
#
# number of rings (size 3 to 8) (size 9 to 14) (size 15 to 20)
#    0.000    1.750    1.250    7.500    0.000    2.000 
#    0.000    3.125    0.000    0.375    0.000    2.625 
#    0.000    0.500    0.000    5.000    0.000    3.000 
#
# Total GULP energy -357211.988185 kJ/mol
# GULP energy per Si atom -5581.437315 kJ/mol
# Density = 1.588256 g / cm^3
# Si number density = 15.918792 Si / 1000 Ang^3
#
#
#
# Elastic Constant Matrix: (Units=GPa)
#
#
# Indices 1 2 3 4 5 6 
#
# 1 143.3240 81.6810 46.7531 0.0000 0.0000 0.0000
# 2 81.6810 120.1341 39.2402 0.0000 0.0000 0.0000
# 3 46.7531 39.2402 96.3230 0.0000 0.0000 0.0000
# 4 0.0000 0.0000 0.0000 21.1040 0.0000 0.0000
# 5 0.0000 0.0000 0.0000 0.0000 8.9206 0.0000
# 6 0.0000 0.0000 0.0000 0.0000 0.0000 5.5344
#
#
#
# Elastic Compliance Matrix: (Units=1/GPa)
#
#
# Indices 1 2 3 4 5 6 
#
# 1 0.012054 -0.007249 -0.002897 0.000000 0.000000 0.000000
# 2 -0.007249 0.013961 -0.002169 0.000000 0.000000 0.000000
# 3 -0.002897 -0.002169 0.012672 0.000000 0.000000 0.000000
# 4 0.000000 0.000000 0.000000 0.047384 0.000000 0.000000
# 5 0.000000 0.000000 0.000000 0.000000 0.112100 0.000000
# 6 0.000000 0.000000 0.000000 0.000000 0.000000 0.180687
#
#
# Mechanical properties :
#
#
# Convention : Reuss Voigt Hill
#
# Bulk Modulus (GPa) = 71.14618 77.23666 74.19142
# Shear Modulus (GPa) = 12.24966 19.91891 16.08428
#
# Velocity S-wave (km/s) = 2.77701 3.54118 3.18212
# Velocity P-wave (km/s) = 7.42109 8.08359 7.75942
#
# Compressibility (1/GPa) = 0.01405557
#
# Stress axis : x y z
#
# Youngs Moduli (GPa) = 82.96263 71.62682 78.91584
#
# Poissons Ratio (x) = 0.51923 0.22865
# Poissons Ratio (y) = 0.60140 0.17117
# Poissons Ratio (z) = 0.24038 0.15536
#
# Static dielectric constant tensor:
#      x y z
#    x 1.542500 0.000000 0.000000 
#    y 0.000000 1.527770 0.000000 
#    z 0.000000 0.000000 1.556130 
# 
# From -- ./inp_files/7045.got.cif
#   From: 2010.05.17/outbox.cif.g08.bks.cpg/sg49_4_cif.got.tgz:7045.got - 2010.06.03 21:02:19.
