data_PCOD9392479
_publ_section_title
;
Structure prediction by ZEFSAII (Michael W. Deem and Ramdas Pophale) SiO2 
 PCOD9392479
Probable space group: P C C M
;
_chemical_formula_sum "Si O2"
_cell_formula_units_Z 64
_cell_length_a 25.414907
_cell_length_b 15.238288
_cell_length_c 8.742532
_cell_angle_alpha 90.000000
_cell_angle_beta 90.000000
_cell_angle_gamma 90.000000
_cell_volume 3385.804929
_symmetry_space_group_name_H-M "P C C M"
_symmetry_group_IT_number 49
_symmetry_cell_setting 'orthorhombic'
loop_
_space_group_symop_operation_xyz
x,y,z
-x,-y,z
x,-y,1/2-z
-x,y,1/2-z
-x,-y,-z
x,y,-z
-x,y,1/2+z
x,-y,1/2+z
loop_
_atom_site_type_symbol
_atom_site_label
_atom_site_fract_x
_atom_site_fract_y
_atom_site_fract_z
Si Si1 0.854536 0.720959 0.816553
Si Si2 0.058530 0.594354 0.816461
Si Si3 0.660838 0.664407 0.323033
Si Si4 0.769274 0.591768 0.315499
Si Si5 0.189577 0.092223 0.816823
Si Si6 0.696254 0.133435 0.822366
Si Si7 0.445838 0.282695 0.181973
Si Si8 0.586173 0.089486 0.681517
O O1 0.903472 0.671762 0.739399
O O2 0.803387 0.669582 0.755533
O O3 0.846382 0.823482 0.778719
O O4 0.858011 0.712372 0.000000
O O5 0.076896 0.500000 0.750000
O O6 0.000000 0.607708 0.750000
O O7 0.057334 0.589697 0.000000
O O8 0.648812 0.644973 0.500000
O O9 0.708252 0.603233 0.269225
O O10 0.686073 0.762057 0.317578
O O11 0.606702 0.666501 0.231422
O O12 0.789333 0.500000 0.250000
O O13 0.772676 0.594673 0.500000
O O14 0.247654 0.109446 0.747724
O O15 0.170105 0.000000 0.750000
O O16 0.193859 0.086841 0.000000
O O17 0.647458 0.094610 0.728958
O O18 0.693746 0.105389 0.000000
O O19 0.500000 0.317901 0.250000
O O20 0.438198 0.181485 0.238621
O O21 0.449047 0.280848 0.000000
O O22 0.581342 0.086858 0.500000
O O23 0.563729 0.000000 0.750000
#
# Coordination Sequence:
#
# PCOD9392479 Si02
#       8
#     8   8   8   8   8   8   8   8
#     4  11  23  39  59  87 123 162 202 246 292 343
#     4  11  22  39  64  93 127 164 204 248 294 349
#     4   9  19  35  55  77 106 141 179 223 275 335
#     4  11  22  37  58  88 121 155 189 229 285 348
#     4  11  23  36  54  79 113 155 200 246 291 342
#     4  10  18  32  52  73 102 140 184 230 277 333
#     4  10  21  35  53  73  96 129 174 222 276 337
#     4  10  20  32  46  68  96 130 171 219 275 334
#
# _framework density 18.902446999999999
#
# number of rings (size 3 to 8) (size 9 to 14) (size 15 to 20)
#    0.000    1.625    1.250    4.500    0.000    4.750 
#    0.000    1.250    0.000    0.750    0.000    5.250 
#    0.000    0.000    0.000    0.000    0.000    0.000 
#
# Total GULP energy -357566.187086 kJ/mol
# GULP energy per Si atom -5586.971673 kJ/mol
# Density = 1.885942 g / cm^3
# Si number density = 18.902447 Si / 1000 Ang^3
#
#
#
# Elastic Constant Matrix: (Units=GPa)
#
#
# Indices 1 2 3 4 5 6 
#
# 1 105.8903 46.7747 41.7372 0.0000 0.0000 0.0000
# 2 46.7747 90.9198 35.2096 0.0000 0.0000 0.0000
# 3 41.7372 35.2096 80.6741 0.0000 0.0000 0.0000
# 4 0.0000 0.0000 0.0000 17.4813 0.0000 0.0000
# 5 0.0000 0.0000 0.0000 0.0000 25.9457 0.0000
# 6 0.0000 0.0000 0.0000 0.0000 0.0000 0.9033
#
#
#
# Elastic Compliance Matrix: (Units=1/GPa)
#
#
# Indices 1 2 3 4 5 6 
#
# 1 0.013605 -0.005143 -0.004794 0.000000 0.000000 0.000000
# 2 -0.005143 0.015180 -0.003964 0.000000 0.000000 0.000000
# 3 -0.004794 -0.003964 0.016606 0.000000 0.000000 0.000000
# 4 0.000000 0.000000 0.000000 0.057204 0.000000 0.000000
# 5 0.000000 0.000000 0.000000 0.000000 0.038542 0.000000
# 6 0.000000 0.000000 0.000000 0.000000 0.000000 1.106999
#
#
# Mechanical properties :
#
#
# Convention : Reuss Voigt Hill
#
# Bulk Modulus (GPa) = 56.85623 58.32523 57.59073
# Shear Modulus (GPa) = 3.90076 19.11692 11.50884
#
# Velocity S-wave (km/s) = 1.43809 3.18362 2.47017
# Velocity P-wave (km/s) = 5.73599 6.66609 6.21845
#
# Compressibility (1/GPa) = 0.01758822
#
# Stress axis : x y z
#
# Youngs Moduli (GPa) = 73.50216 65.87754 60.21882
#
# Poissons Ratio (x) = 0.33879 0.28870
# Poissons Ratio (y) = 0.37800 0.23874
# Poissons Ratio (z) = 0.35238 0.26117
#
# Static dielectric constant tensor:
#      x y z
#    x 1.644830 0.000000 0.000000 
#    y 0.000000 1.691550 0.000000 
#    z 0.000000 0.000000 1.633270 
# 
# From -- ./inp_files/6492.got.cif
#   From: 2010.05.17/outbox.cif.g08.bks.cpg/sg49_4_cif.got.tgz:6492.got - 2010.06.03 21:02:19.
