data_PCOD9392049
_publ_section_title
;
Structure prediction by ZEFSAII (Michael W. Deem and Ramdas Pophale) SiO2 
 PCOD9392049
Probable space group: P C C M
;
_chemical_formula_sum "Si O2"
_cell_formula_units_Z 48
_cell_length_a 21.959968
_cell_length_b 5.226773
_cell_length_c 23.958161
_cell_angle_alpha 90.000000
_cell_angle_beta 90.000000
_cell_angle_gamma 90.000000
_cell_volume 2749.912157
_symmetry_space_group_name_H-M "P C C M"
_symmetry_group_IT_number 49
_symmetry_cell_setting 'orthorhombic'
loop_
_space_group_symop_operation_xyz
x,y,z
-x,-y,z
x,-y,1/2-z
-x,y,1/2-z
-x,-y,-z
x,y,-z
-x,y,1/2+z
x,-y,1/2+z
loop_
_atom_site_type_symbol
_atom_site_label
_atom_site_fract_x
_atom_site_fract_y
_atom_site_fract_z
Si Si1 0.472544 0.253608 0.813567
Si Si2 0.904239 0.915100 0.186547
Si Si3 0.193249 0.415819 0.434889
Si Si4 0.225883 0.085242 0.129337
Si Si5 0.331288 0.250803 0.787924
Si Si6 0.063556 0.587358 0.878114
O O1 0.500000 0.500000 0.842416
O O2 0.500000 0.252445 0.750000
O O3 0.400321 0.275554 0.809880
O O4 0.500000 0.000000 0.839905
O O5 0.832572 0.921935 0.170616
O O6 0.925232 0.630430 0.169492
O O7 0.913458 0.000000 0.250000
O O8 0.936579 0.132382 0.149183
O O9 0.201920 0.368445 0.500000
O O10 0.213819 0.698829 0.417093
O O11 0.121617 0.409734 0.418677
O O12 0.226936 0.195576 0.398601
O O13 0.283434 0.185943 0.163883
O O14 0.316331 0.500000 0.750000
O O15 0.331420 0.000000 0.750000
O O16 0.000000 0.500000 0.904918
#
# Coordination Sequence:
#
# PCOD9392049 Si02
#       6
#     8   8   8   8   8   8
#     4  10  16  29  43  68 107 150 175 199 234 291
#     4  10  20  34  49  69 108 141 163 202 246 298
#     4  10  21  40  58  71  99 131 163 232 285 304
#     4  10  22  35  51  80 101 131 186 208 251 320
#     4  12  20  30  51  76 113 153 171 206 245 299
#     4  10  21  34  52  78  98 124 173 213 251 324
#
# _framework density 17.455103000000001
#
# number of rings (size 3 to 8) (size 9 to 14) (size 15 to 20)
#    0.000    1.667    3.333    3.000    0.000    5.000 
#    0.000    0.000    0.000    6.000    0.000    0.000 
#    0.000   13.333    0.000    0.000    0.000    0.000 
#
# Total GULP energy -267648.942010 kJ/mol
# GULP energy per Si atom -5576.019625 kJ/mol
# Density = 1.741537 g / cm^3
# Si number density = 17.455103 Si / 1000 Ang^3
#
#
#
# Elastic Constant Matrix: (Units=GPa)
#
#
# Indices 1 2 3 4 5 6 
#
# 1 108.0111 19.3899 24.0898 0.0000 0.0000 0.0000
# 2 19.3899 123.2657 11.5441 0.0000 0.0000 0.0000
# 3 24.0898 11.5441 37.9071 0.0000 0.0000 0.0000
# 4 0.0000 0.0000 0.0000 17.1313 0.0000 0.0000
# 5 0.0000 0.0000 0.0000 0.0000 475.5901 0.0000
# 6 0.0000 0.0000 0.0000 0.0000 0.0000 74.8808
#
#
#
# Elastic Compliance Matrix: (Units=1/GPa)
#
#
# Indices 1 2 3 4 5 6 
#
# 1 0.010930 -0.001100 -0.006611 0.000000 0.000000 0.000000
# 2 -0.001100 0.008461 -0.001878 0.000000 0.000000 0.000000
# 3 -0.006611 -0.001878 0.031153 0.000000 0.000000 0.000000
# 4 0.000000 0.000000 0.000000 0.058373 0.000000 0.000000
# 5 0.000000 0.000000 0.000000 0.000000 0.002103 0.000000
# 6 0.000000 0.000000 0.000000 0.000000 0.000000 0.013355
#
#
# Mechanical properties :
#
#
# Convention : Reuss Voigt Hill
#
# Bulk Modulus (GPa) = 31.88038 42.13683 37.00860
# Shear Modulus (GPa) = 32.46570 127.79779 80.13174
#
# Velocity S-wave (km/s) = 4.31740 8.56587 6.78285
# Velocity P-wave (km/s) = 6.56941 11.04648 9.08795
#
# Compressibility (1/GPa) = 0.03136725
#
# Stress axis : x y z
#
# Youngs Moduli (GPa) = 91.48882 118.18282 32.09923
#
# Poissons Ratio (x) = 0.13003 0.21221
# Poissons Ratio (y) = 0.10066 0.06027
# Poissons Ratio (z) = 0.60484 0.22190
#
# Static dielectric constant tensor:
#      x y z
#    x 1.286420 0.000000 0.000000 
#    y 0.000000 1.600150 0.000000 
#    z 0.000000 0.000000 1.470740 
# 
# From -- ./inp_files/21140.got.cif
#   From: 2010.05.17/outbox.cif.g08.bks.cpg/sg49_11_cif.got.tgz:21140.got - 2010.06.03 21:02:19.
