data_PCOD9392669
_publ_section_title
;
Structure prediction by ZEFSAII (Michael W. Deem and Ramdas Pophale) SiO2 
 PCOD9392669
Probable space group: P C C M
;
_chemical_formula_sum "Si O2"
_cell_formula_units_Z 56
_cell_length_a 5.310581
_cell_length_b 20.315551
_cell_length_c 26.990061
_cell_angle_alpha 90.000000
_cell_angle_beta 90.000000
_cell_angle_gamma 90.000000
_cell_volume 2911.886944
_symmetry_space_group_name_H-M "P C C M"
_symmetry_group_IT_number 49
_symmetry_cell_setting 'orthorhombic'
loop_
_space_group_symop_operation_xyz
x,y,z
-x,-y,z
x,-y,1/2-z
-x,y,1/2-z
-x,-y,-z
x,y,-z
-x,y,1/2+z
x,-y,1/2+z
loop_
_atom_site_type_symbol
_atom_site_label
_atom_site_fract_x
_atom_site_fract_y
_atom_site_fract_z
Si Si1 0.864030 0.743498 0.443931
Si Si2 0.748090 0.426190 0.728177
Si Si3 0.348553 0.414135 0.113624
Si Si4 0.495618 0.154823 0.309362
Si Si5 0.634492 0.255498 0.611722
Si Si6 0.849537 0.416776 0.943311
Si Si7 0.993199 0.075319 0.310136
O O1 0.916321 0.764513 0.500000
O O2 0.587847 0.764096 0.426087
O O3 0.856916 0.663400 0.443832
O O4 0.090517 0.764722 0.407969
O O5 0.749629 0.500000 0.750000
O O6 0.500000 0.392324 0.750000
O O7 0.724782 0.433008 0.669407
O O8 0.000000 0.393881 0.750000
O O9 0.358473 0.334493 0.114723
O O10 0.622263 0.435228 0.093635
O O11 0.125072 0.435292 0.076742
O O12 0.500000 0.163023 0.250000
O O13 0.551844 0.222814 0.337010
O O14 0.729062 0.108098 0.323717
O O15 0.233832 0.119764 0.324194
O O16 0.802990 0.437794 0.000000
O O17 0.000000 0.072937 0.250000
O O18 0.000000 0.000000 0.327956
#
# Coordination Sequence:
#
# PCOD9392669 Si02
#       7
#     8   8   8   8   8   8   8
#     4   9  17  30  47  67  97 132 164 199 238 289
#     4  10  21  37  55  76  97 131 179 220 247 275
#     4  10  19  32  51  76 104 134 167 204 248 302
#     4  10  19  30  44  67 100 132 157 194 244 291
#     4  10  19  30  46  72 104 132 158 194 245 304
#     4   9  17  30  50  77 104 130 160 199 253 313
#     4   9  17  30  47  64  87 125 170 207 240 281
#
# _framework density 19.231515999999999
#
# number of rings (size 3 to 8) (size 9 to 14) (size 15 to 20)
#    0.000    2.429    0.000    3.000    0.000    5.714 
#    0.000    2.143    0.000    0.000    0.000   40.000 
#    0.000   40.000    0.000    0.000    0.000    0.000 
#
# Total GULP energy -312552.048989 kJ/mol
# GULP energy per Si atom -5581.286589 kJ/mol
# Density = 1.918774 g / cm^3
# Si number density = 19.231516 Si / 1000 Ang^3
#
#
#
# Elastic Constant Matrix: (Units=GPa)
#
#
# Indices 1 2 3 4 5 6 
#
# 1 160.8771 24.6612 48.3604 0.0000 0.0000 0.0000
# 2 24.6612 51.8309 12.1971 0.0000 0.0000 0.0000
# 3 48.3604 12.1971 104.8004 0.0000 0.0000 0.0000
# 4 0.0000 0.0000 0.0000 3.4666 0.0000 0.0000
# 5 0.0000 0.0000 0.0000 0.0000 26.9496 0.0000
# 6 0.0000 0.0000 0.0000 0.0000 0.0000 19.8138
#
#
#
# Elastic Compliance Matrix: (Units=1/GPa)
#
#
# Indices 1 2 3 4 5 6 
#
# 1 0.007612 -0.002874 -0.003178 0.000000 0.000000 0.000000
# 2 -0.002874 0.020922 -0.001109 0.000000 0.000000 0.000000
# 3 -0.003178 -0.001109 0.011138 0.000000 0.000000 0.000000
# 4 0.000000 0.000000 0.000000 0.288466 0.000000 0.000000
# 5 0.000000 0.000000 0.000000 0.000000 0.037106 0.000000
# 6 0.000000 0.000000 0.000000 0.000000 0.000000 0.050470
#
#
# Mechanical properties :
#
#
# Convention : Reuss Voigt Hill
#
# Bulk Modulus (GPa) = 39.44812 54.21621 46.83217
# Shear Modulus (GPa) = 11.40290 25.53196 18.46743
#
# Velocity S-wave (km/s) = 2.43765 3.64759 3.10218
# Velocity P-wave (km/s) = 5.33663 6.78177 6.10213
#
# Compressibility (1/GPa) = 0.02534975
#
# Stress axis : x y z
#
# Youngs Moduli (GPa) = 131.37516 47.79703 89.78669
#
# Poissons Ratio (x) = 0.13736 0.28534
# Poissons Ratio (y) = 0.37755 0.09956
# Poissons Ratio (z) = 0.41751 0.05300
#
# Static dielectric constant tensor:
#      x y z
#    x 1.579350 0.000000 0.000000 
#    y 0.000000 1.680600 0.000000 
#    z 0.000000 0.000000 1.655620 
# 
# From -- ./inp_files/21888.got.cif
#   From: 2010.05.17/outbox.cif.g08.bks.cpg/sg49_11_cif.got.tgz:21888.got - 2010.06.03 21:02:19.
