data_PCOD9392755
_publ_section_title
;
Structure prediction by ZEFSAII (Michael W. Deem and Ramdas Pophale) SiO2 
 PCOD9392755
Probable space group: P C C M
;
_chemical_formula_sum "Si O2"
_cell_formula_units_Z 48
_cell_length_a 5.131673
_cell_length_b 26.752603
_cell_length_c 14.812361
_cell_angle_alpha 90.000000
_cell_angle_beta 90.000000
_cell_angle_gamma 90.000000
_cell_volume 2033.524023
_symmetry_space_group_name_H-M "P C C M"
_symmetry_group_IT_number 49
_symmetry_cell_setting 'orthorhombic'
loop_
_space_group_symop_operation_xyz
x,y,z
-x,-y,z
x,-y,1/2-z
-x,y,1/2-z
-x,-y,-z
x,y,-z
-x,y,1/2+z
x,-y,1/2+z
loop_
_atom_site_type_symbol
_atom_site_label
_atom_site_fract_x
_atom_site_fract_y
_atom_site_fract_z
Si Si1 0.524135 0.312112 0.354884
Si Si2 0.485001 0.802035 0.104112
Si Si3 0.035088 0.360010 0.646011
Si Si4 0.257814 0.966731 0.396464
Si Si5 0.999863 0.133050 0.894779
Si Si6 0.259039 0.533089 0.104383
O O1 0.500000 0.327071 0.250000
O O2 0.542439 0.252615 0.356984
O O3 0.250103 0.325444 0.398390
O O4 0.754452 0.346496 0.394122
O O5 0.762653 0.828654 0.104697
O O6 0.257331 0.838650 0.143490
O O7 0.402925 0.794057 0.000000
O O8 0.162073 0.414950 0.646048
O O9 0.000000 0.345044 0.750000
O O10 0.342683 0.953364 0.500000
O O11 0.140604 0.916112 0.353180
O O12 0.500000 0.000000 0.359505
O O13 0.000000 0.000000 0.400579
O O14 0.932078 0.119122 0.000000
O O15 0.500000 0.500000 0.141823
O O16 0.000000 0.500000 0.106308
O O17 0.328737 0.544299 0.000000
#
# Coordination Sequence:
#
# PCOD9392755 Si02
#       6
#     8   8   8   8   8   8
#     4  10  21  36  53  74 102 133 169 214 256 300
#     4  10  19  31  48  70  97 130 166 206 255 304
#     4  10  21  37  55  77 104 135 171 211 255 302
#     4   9  15  23  37  58  88 127 162 193 241 299
#     4   9  17  28  42  65  97 128 163 207 249 298
#     4  10  21  37  57  82 111 140 171 211 257 306
#
# _framework density 23.604344999999999
#
# number of rings (size 3 to 8) (size 9 to 14) (size 15 to 20)
#    0.000    2.333    0.000    3.000    0.000    5.667 
#    0.000    0.833    0.000    0.000    0.000    0.000 
#    0.000   10.000    0.000    0.000    0.000    0.000 
#
# Total GULP energy -267388.789895 kJ/mol
# GULP energy per Si atom -5570.599789 kJ/mol
# Density = 2.355062 g / cm^3
# Si number density = 23.604345 Si / 1000 Ang^3
#
#
#
# Elastic Constant Matrix: (Units=GPa)
#
#
# Indices 1 2 3 4 5 6 
#
# 1 164.8757 49.2916 20.4697 0.0000 0.0000 0.0000
# 2 49.2916 78.1016 -16.5017 0.0000 0.0000 0.0000
# 3 20.4697 -16.5017 41.9530 0.0000 0.0000 0.0000
# 4 0.0000 0.0000 0.0000 9.5856 0.0000 0.0000
# 5 0.0000 0.0000 0.0000 0.0000 103.0415 0.0000
# 6 0.0000 0.0000 0.0000 0.0000 0.0000 48.5474
#
#
#
# Elastic Compliance Matrix: (Units=1/GPa)
#
#
# Indices 1 2 3 4 5 6 
#
# 1 0.009177 -0.007348 -0.007368 0.000000 0.000000 0.000000
# 2 -0.007348 0.019849 0.011393 0.000000 0.000000 0.000000
# 3 -0.007368 0.011393 0.031912 0.000000 0.000000 0.000000
# 4 0.000000 0.000000 0.000000 0.104323 0.000000 0.000000
# 5 0.000000 0.000000 0.000000 0.000000 0.009705 0.000000
# 6 0.000000 0.000000 0.000000 0.000000 0.000000 0.020598
#
#
# Mechanical properties :
#
#
# Convention : Reuss Voigt Hill
#
# Bulk Modulus (GPa) = 18.41942 43.49439 30.95691
# Shear Modulus (GPa) = 22.69548 47.67963 35.18755
#
# Velocity S-wave (km/s) = 3.10416 4.49926 3.86518
# Velocity P-wave (km/s) = 4.54622 6.74222 5.75003
#
# Compressibility (1/GPa) = 0.05429053
#
# Stress axis : x y z
#
# Youngs Moduli (GPa) = 108.96994 50.38108 31.33577
#
# Poissons Ratio (x) = 0.37022 0.23088
# Poissons Ratio (y) = 0.80076 -0.35700
# Poissons Ratio (z) = 0.80289 -0.57398
#
# Static dielectric constant tensor:
#      x y z
#    x 1.844990 0.000000 0.000000 
#    y 0.000000 1.930890 0.000000 
#    z 0.000000 0.000000 1.929730 
# 
# From -- ./inp_files/18977.got.cif
#   From: 2010.05.17/outbox.cif.g08.bks.cpg/sg49_10_cif.got.tgz:18977.got - 2010.06.03 21:02:19.
