data_PCOD9392206
_publ_section_title
;
Structure prediction by ZEFSAII (Michael W. Deem and Ramdas Pophale) SiO2 
 PCOD9392206
Probable space group: P C C M
;
_chemical_formula_sum "Si O2"
_cell_formula_units_Z 48
_cell_length_a 21.729851
_cell_length_b 15.272924
_cell_length_c 8.701636
_cell_angle_alpha 90.000000
_cell_angle_beta 90.000000
_cell_angle_gamma 90.000000
_cell_volume 2887.884710
_symmetry_space_group_name_H-M "P C C M"
_symmetry_group_IT_number 49
_symmetry_cell_setting 'orthorhombic'
loop_
_space_group_symop_operation_xyz
x,y,z
-x,-y,z
x,-y,1/2-z
-x,y,1/2-z
-x,-y,-z
x,y,-z
-x,y,1/2+z
x,-y,1/2+z
loop_
_atom_site_type_symbol
_atom_site_label
_atom_site_fract_x
_atom_site_fract_y
_atom_site_fract_z
Si Si1 0.564674 0.677153 0.673621
Si Si2 0.303677 0.708062 0.314711
Si Si3 0.563053 0.112212 0.173130
Si Si4 0.308249 0.909366 0.319930
Si Si5 0.936805 0.400535 0.315624
Si Si6 0.190827 0.598352 0.184112
O O1 0.500000 0.646709 0.750000
O O2 0.569925 0.641739 0.500000
O O3 0.629632 0.669397 0.763243
O O4 0.559721 0.782491 0.662469
O O5 0.301423 0.706146 0.500000
O O6 0.293008 0.810167 0.264284
O O7 0.249512 0.651987 0.240699
O O8 0.500000 0.086155 0.250000
O O9 0.619287 0.089230 0.282259
O O10 0.572166 0.078518 0.000000
O O11 0.296557 0.911774 0.500000
O O12 0.282000 0.000000 0.250000
O O13 0.936201 0.500000 0.250000
O O14 0.937856 0.402463 0.500000
O O15 0.872724 0.362521 0.253156
O O16 0.000000 0.360182 0.250000
O O17 0.196556 0.500000 0.250000
O O18 0.186912 0.595336 0.000000
#
# Coordination Sequence:
#
# PCOD9392206 Si02
#       6
#     8   8   8   8   8   8
#     4   9  16  27  44  65  87 116 152 195 244 294
#     4  10  20  34  50  70  95 125 160 202 246 291
#     4   9  16  26  40  58  82 109 142 181 228 284
#     4  10  20  32  46  63  87 117 152 192 237 285
#     4  10  17  28  46  71 103 136 166 194 227 273
#     4  11  21  34  52  75 102 133 166 200 237 281
#
# _framework density 16.621161000000001
#
# number of rings (size 3 to 8) (size 9 to 14) (size 15 to 20)
#    0.000    2.167    0.000    6.500    0.000    6.333 
#    0.000    1.667    0.000    0.500    0.000    3.500 
#    0.000    0.667    0.000    7.000    0.000    3.833 
#
# Total GULP energy -267347.548169 kJ/mol
# GULP energy per Si atom -5569.740587 kJ/mol
# Density = 1.658333 g / cm^3
# Si number density = 16.621161 Si / 1000 Ang^3
#
#
#
# Elastic Constant Matrix: (Units=GPa)
#
#
# Indices 1 2 3 4 5 6 
#
# 1 130.3880 42.1585 56.4244 0.0000 0.0000 0.0000
# 2 42.1585 39.9079 19.9931 0.0000 0.0000 0.0000
# 3 56.4244 19.9931 109.2802 0.0000 0.0000 0.0000
# 4 0.0000 0.0000 0.0000 19.0463 0.0000 0.0000
# 5 0.0000 0.0000 0.0000 0.0000 43.1126 0.0000
# 6 0.0000 0.0000 0.0000 0.0000 0.0000 -10.4263
#
#
#
# Elastic Compliance Matrix: (Units=1/GPa)
#
#
# Indices 1 2 3 4 5 6 
#
# 1 0.013643 -0.011982 -0.004852 0.000000 0.000000 0.000000
# 2 -0.011982 0.038109 -0.000786 0.000000 0.000000 0.000000
# 3 -0.004852 -0.000786 0.011800 0.000000 0.000000 0.000000
# 4 0.000000 0.000000 0.000000 0.052504 0.000000 0.000000
# 5 0.000000 0.000000 0.000000 0.000000 0.023195 0.000000
# 6 0.000000 0.000000 0.000000 0.000000 0.000000 -0.095911
#
#
# Mechanical properties :
#
#
# Convention : Reuss Voigt Hill
#
# Bulk Modulus (GPa) = 35.31993 57.41422 46.36707
# Shear Modulus (GPa) = 56.80735 21.07984 38.94359
#
# Velocity S-wave (km/s) = 5.85251 3.56512 4.84572
# Velocity P-wave (km/s) = 8.18324 7.18085 7.69837
#
# Compressibility (1/GPa) = 0.02831263
#
# Stress axis : x y z
#
# Youngs Moduli (GPa) = 73.29596 26.24067 84.74652
#
# Poissons Ratio (x) = 0.31441 0.41122
# Poissons Ratio (y) = 0.87822 0.06657
# Poissons Ratio (z) = 0.35566 0.02061
#
# Static dielectric constant tensor:
#      x y z
#    x 1.571920 0.000000 0.000000 
#    y 0.000000 1.608530 0.000000 
#    z 0.000000 0.000000 1.576460 
# 
# From -- ./inp_files/3862.got.cif
#   From: 2010.05.17/outbox.cif.g08.bks.cpg/sg49_2_cif.got.tgz:3862.got - 2010.06.03 21:02:19.
