data_PCOD9392292
_publ_section_title
;
Structure prediction by ZEFSAII (Michael W. Deem and Ramdas Pophale) SiO2 
 PCOD9392292
Probable space group: P C C M
;
_chemical_formula_sum "Si O2"
_cell_formula_units_Z 64
_cell_length_a 27.357731
_cell_length_b 19.150823
_cell_length_c 8.529518
_cell_angle_alpha 90.000000
_cell_angle_beta 90.000000
_cell_angle_gamma 90.000000
_cell_volume 4468.811206
_symmetry_space_group_name_H-M "P C C M"
_symmetry_group_IT_number 49
_symmetry_cell_setting 'orthorhombic'
loop_
_space_group_symop_operation_xyz
x,y,z
-x,-y,z
x,-y,1/2-z
-x,y,1/2-z
-x,-y,-z
x,y,-z
-x,y,1/2+z
x,-y,1/2+z
loop_
_atom_site_type_symbol
_atom_site_label
_atom_site_fract_x
_atom_site_fract_y
_atom_site_fract_z
Si Si1 0.854541 0.839411 0.311074
Si Si2 0.744359 0.421881 0.811460
Si Si3 0.240302 0.077650 0.812573
Si Si4 0.801402 0.706907 0.686539
Si Si5 0.553351 0.578391 0.811507
Si Si6 0.946320 0.077892 0.686860
Si Si7 0.707451 0.212180 0.311321
Si Si8 0.350971 0.659421 0.311047
O O1 0.855675 0.840593 0.500000
O O2 0.809195 0.887681 0.255560
O O3 0.843262 0.759812 0.255649
O O4 0.904368 0.870466 0.245081
O O5 0.748875 0.500000 0.750000
O O6 0.788465 0.370713 0.755046
O O7 0.693473 0.387375 0.754476
O O8 0.744029 0.422274 0.000000
O O9 0.284901 0.130836 0.773145
O O10 0.247110 0.000000 0.750000
O O11 0.235278 0.075292 0.000000
O O12 0.807762 0.701581 0.500000
O O13 0.752010 0.749291 0.725222
O O14 0.562978 0.500000 0.750000
O O15 0.500000 0.599553 0.750000
O O16 0.597144 0.628951 0.758862
O O17 0.552073 0.576406 0.000000
O O18 0.947443 0.075494 0.500000
O O19 0.000000 0.097097 0.750000
O O20 0.935332 0.000000 0.750000
O O21 0.714458 0.218369 0.500000
O O22 0.660589 0.259546 0.271110
O O23 0.349482 0.653536 0.500000
#
# Coordination Sequence:
#
# PCOD9392292 Si02
#       8
#     8   8   8   8   8   8   8   8
#     4  10  18  30  45  60  80 108 139 170 201 235
#     4  10  18  27  40  60  83 109 137 166 198 235
#     4  10  18  27  40  59  82 108 135 164 195 234
#     4   8  16  28  41  57  79 105 134 165 198 233
#     4  10  19  29  41  56  77 102 131 164 198 232
#     4  11  21  33  46  62  83 108 138 171 204 237
#     4   8  15  27  41  56  76 101 131 163 197 233
#     4   9  17  29  43  58  76 103 135 167 200 237
#
# _framework density 14.321483000000001
#
# number of rings (size 3 to 8) (size 9 to 14) (size 15 to 20)
#    0.000    2.500    0.000    4.125    0.000    3.500 
#    0.000    0.000    0.000    0.000    0.000    0.000 
#    0.000    1.000    0.000   12.000    0.000    1.750 
#
# Total GULP energy -356309.272640 kJ/mol
# GULP energy per Si atom -5567.332385 kJ/mol
# Density = 1.428889 g / cm^3
# Si number density = 14.321483 Si / 1000 Ang^3
#
#
#
# Elastic Constant Matrix: (Units=GPa)
#
#
# Indices 1 2 3 4 5 6 
#
# 1 97.3178 67.8482 25.7946 0.0000 0.0000 0.0000
# 2 67.8482 122.9330 26.1004 0.0000 0.0000 0.0000
# 3 25.7946 26.1004 41.1212 0.0000 0.0000 0.0000
# 4 0.0000 0.0000 0.0000 12.5897 0.0000 0.0000
# 5 0.0000 0.0000 0.0000 0.0000 13.7586 0.0000
# 6 0.0000 0.0000 0.0000 0.0000 0.0000 26.9047
#
#
#
# Elastic Compliance Matrix: (Units=1/GPa)
#
#
# Indices 1 2 3 4 5 6 
#
# 1 0.017785 -0.008607 -0.005693 0.000000 0.000000 0.000000
# 2 -0.008607 0.013567 -0.003212 0.000000 0.000000 0.000000
# 3 -0.005693 -0.003212 0.029928 0.000000 0.000000 0.000000
# 4 0.000000 0.000000 0.000000 0.079430 0.000000 0.000000
# 5 0.000000 0.000000 0.000000 0.000000 0.072682 0.000000
# 6 0.000000 0.000000 0.000000 0.000000 0.000000 0.037168
#
#
# Mechanical properties :
#
#
# Convention : Reuss Voigt Hill
#
# Bulk Modulus (GPa) = 38.08708 55.65092 46.86900
# Shear Modulus (GPa) = 16.98729 20.09253 18.53991
#
# Velocity S-wave (km/s) = 3.44778 3.74968 3.60189
# Velocity P-wave (km/s) = 6.51933 7.59536 7.07782
#
# Compressibility (1/GPa) = 0.02625562
#
# Stress axis : x y z
#
# Youngs Moduli (GPa) = 56.22569 73.70877 33.41313
#
# Poissons Ratio (x) = 0.63443 0.19023
# Poissons Ratio (y) = 0.48395 0.10732
# Poissons Ratio (z) = 0.32011 0.23675
#
# Static dielectric constant tensor:
#      x y z
#    x 1.461990 0.000000 0.000000 
#    y 0.000000 1.499240 0.000000 
#    z 0.000000 0.000000 1.489900 
# 
# From -- ./inp_files/6804.got.cif
#   From: 2010.05.17/outbox.cif.g08.bks.cpg/sg49_4_cif.got.tgz:6804.got - 2010.06.03 21:02:19.
