data_PCOD9392229
_publ_section_title
;
Structure prediction by ZEFSAII (Michael W. Deem and Ramdas Pophale) SiO2 
 PCOD9392229
Probable space group: P C C M
;
_chemical_formula_sum "Si O2"
_cell_formula_units_Z 48
_cell_length_a 31.697108
_cell_length_b 9.225897
_cell_length_c 8.620413
_cell_angle_alpha 90.000000
_cell_angle_beta 90.000000
_cell_angle_gamma 90.000000
_cell_volume 2520.904041
_symmetry_space_group_name_H-M "P C C M"
_symmetry_group_IT_number 49
_symmetry_cell_setting 'orthorhombic'
loop_
_space_group_symop_operation_xyz
x,y,z
-x,-y,z
x,-y,1/2-z
-x,y,1/2-z
-x,-y,-z
x,y,-z
-x,y,1/2+z
x,-y,1/2+z
loop_
_atom_site_type_symbol
_atom_site_label
_atom_site_fract_x
_atom_site_fract_y
_atom_site_fract_z
Si Si1 0.543401 0.665251 0.314586
Si Si2 0.046056 0.338291 0.314171
Si Si3 0.289120 0.161989 0.314121
Si Si4 0.631476 0.663773 0.814773
Si Si5 0.124487 0.161506 0.185327
Si Si6 0.203791 0.337935 0.314116
O O1 0.543839 0.500000 0.250000
O O2 0.500000 0.732390 0.250000
O O3 0.542606 0.662386 0.500000
O O4 0.587590 0.726717 0.253120
O O5 0.054851 0.500000 0.250000
O O6 0.045183 0.342375 0.500000
O O7 0.082154 0.231969 0.254367
O O8 0.000000 0.296193 0.250000
O O9 0.294222 0.159371 0.500000
O O10 0.329004 0.242084 0.239048
O O11 0.246531 0.250491 0.277946
O O12 0.285586 0.000000 0.250000
O O13 0.636642 0.500000 0.750000
O O14 0.628632 0.656953 0.000000
O O15 0.163993 0.257753 0.239248
O O16 0.129890 0.000000 0.250000
O O17 0.122066 0.159058 0.000000
O O18 0.206975 0.500000 0.250000
O O19 0.198492 0.341062 0.500000
#
# Coordination Sequence:
#
# PCOD9392229 Si02
#       6
#     8   8   8   8   8   8
#     4  10  17  28  47  75 110 146 187 235 288 341
#     4  11  22  40  64  92 124 161 205 251 300 351
#     4  11  24  41  61  86 117 153 193 238 291 348
#     4  11  21  35  56  83 115 151 193 240 290 344
#     4  12  25  42  63  90 124 161 201 246 298 354
#     4  11  24  42  65  92 121 155 196 242 292 347
#
# _framework density 19.040787000000002
#
# number of rings (size 3 to 8) (size 9 to 14) (size 15 to 20)
#    0.000    1.000    0.000   10.500    0.000    5.667 
#    0.000    1.667    0.000    0.500    0.000    3.500 
#    0.000    0.000    0.000    0.000    0.000    0.000 
#
# Total GULP energy -268507.476984 kJ/mol
# GULP energy per Si atom -5593.905771 kJ/mol
# Density = 1.899745 g / cm^3
# Si number density = 19.040787 Si / 1000 Ang^3
#
#
#
# Elastic Constant Matrix: (Units=GPa)
#
#
# Indices 1 2 3 4 5 6 
#
# 1 152.1038 91.9521 93.6031 0.0000 0.0000 0.0000
# 2 91.9521 122.7204 68.2180 0.0000 0.0000 0.0000
# 3 93.6031 68.2180 190.3408 0.0000 0.0000 0.0000
# 4 0.0000 0.0000 0.0000 30.4218 0.0000 0.0000
# 5 0.0000 0.0000 0.0000 0.0000 22.9211 0.0000
# 6 0.0000 0.0000 0.0000 0.0000 0.0000 -46.5814
#
#
#
# Elastic Compliance Matrix: (Units=1/GPa)
#
#
# Indices 1 2 3 4 5 6 
#
# 1 0.014013 -0.008328 -0.003906 0.000000 0.000000 0.000000
# 2 -0.008328 0.015126 -0.001325 0.000000 0.000000 0.000000
# 3 -0.003906 -0.001325 0.007650 0.000000 0.000000 0.000000
# 4 0.000000 0.000000 0.000000 0.032871 0.000000 0.000000
# 5 0.000000 0.000000 0.000000 0.000000 0.043628 0.000000
# 6 0.000000 0.000000 0.000000 0.000000 0.000000 -0.021468
#
#
# Mechanical properties :
#
#
# Convention : Reuss Voigt Hill
#
# Bulk Modulus (GPa) = 103.42983 108.07903 105.75443
# Shear Modulus (GPa) = 40.92900 15.44509 28.18704
#
# Velocity S-wave (km/s) = 4.64135 2.85117 3.85171
# Velocity P-wave (km/s) = 9.11926 8.22946 8.68576
#
# Compressibility (1/GPa) = 0.00966839
#
# Stress axis : x y z
#
# Youngs Moduli (GPa) = 71.36167 66.11290 130.72306
#
# Poissons Ratio (x) = 0.55061 0.51065
# Poissons Ratio (y) = 0.59432 0.17326
# Poissons Ratio (z) = 0.27876 0.08763
#
# Static dielectric constant tensor:
#      x y z
#    x 1.668530 0.000000 0.000000 
#    y 0.000000 1.638360 0.000000 
#    z 0.000000 0.000000 1.634900 
# 
# From -- ./inp_files/2109.got.cif
#   From: 2010.05.17/outbox.cif.g08.bks.cpg/sg49_2_cif.got.tgz:2109.got - 2010.06.03 21:02:19.
