data_PCOD9392900
_publ_section_title
;
Structure prediction by ZEFSAII (Michael W. Deem and Ramdas Pophale) SiO2 
 PCOD9392900
Probable space group: P C C M
;
_chemical_formula_sum "Si O2"
_cell_formula_units_Z 56
_cell_length_a 22.913819
_cell_length_b 15.323478
_cell_length_c 8.654462
_cell_angle_alpha 90.000000
_cell_angle_beta 90.000000
_cell_angle_gamma 90.000000
_cell_volume 3038.749516
_symmetry_space_group_name_H-M "P C C M"
_symmetry_group_IT_number 49
_symmetry_cell_setting 'orthorhombic'
loop_
_space_group_symop_operation_xyz
x,y,z
-x,-y,z
x,-y,1/2-z
-x,y,1/2-z
-x,-y,-z
x,y,-z
-x,y,1/2+z
x,-y,1/2+z
loop_
_atom_site_type_symbol
_atom_site_label
_atom_site_fract_x
_atom_site_fract_y
_atom_site_fract_z
Si Si1 0.841114 0.595051 0.185543
Si Si2 0.337680 0.779492 0.685623
Si Si3 0.896338 0.092492 0.185013
Si Si4 0.240759 0.905530 0.185564
Si Si5 0.705665 0.405879 0.314220
Si Si6 0.434973 0.094121 0.684630
Si Si7 0.061211 0.721709 0.814607
O O1 0.857609 0.500000 0.250000
O O2 0.773446 0.609719 0.231608
O O3 0.884472 0.666119 0.254267
O O4 0.844401 0.595706 0.000000
O O5 0.341929 0.783229 0.500000
O O6 0.279808 0.830870 0.739178
O O7 0.331426 0.678406 0.733962
O O8 0.391619 0.830687 0.759582
O O9 0.827725 0.104167 0.225362
O O10 0.930047 0.178165 0.239027
O O11 0.916735 0.000000 0.250000
O O12 0.899751 0.088558 0.000000
O O13 0.259484 0.000000 0.250000
O O14 0.246997 0.903744 0.000000
O O15 0.687441 0.500000 0.250000
O O16 0.704414 0.410328 0.500000
O O17 0.500000 0.108423 0.750000
O O18 0.436590 0.089697 0.500000
O O19 0.414972 0.000000 0.750000
O O20 0.000000 0.687643 0.750000
O O21 0.060710 0.719864 0.000000
#
# Coordination Sequence:
#
# PCOD9392900 Si02
#       7
#     8   8   8   8   8   8   8
#     4  10  20  37  59  83 108 138 171 212 265 322
#     4  11  21  34  53  81 113 146 181 221 265 315
#     4   9  20  36  54  74 101 135 173 215 264 316
#     4  10  19  32  50  76 106 138 173 215 264 318
#     4   9  20  36  57  83 112 142 176 217 266 319
#     4  11  22  38  58  82 113 152 191 230 269 312
#     4  11  23  38  54  76 102 133 173 219 264 316
#
# _framework density 18.428632
#
# number of rings (size 3 to 8) (size 9 to 14) (size 15 to 20)
#    0.000    1.857    0.000    4.714    0.000    4.000 
#    0.000    2.857    0.000    0.429    0.000    3.000 
#    0.000    0.000    0.000    0.000    0.000    0.000 
#
# Total GULP energy -312877.690601 kJ/mol
# GULP energy per Si atom -5587.101618 kJ/mol
# Density = 1.838669 g / cm^3
# Si number density = 18.428632 Si / 1000 Ang^3
#
#
#
# Elastic Constant Matrix: (Units=GPa)
#
#
# Indices 1 2 3 4 5 6 
#
# 1 61.7219 61.2898 29.1949 0.0000 0.0000 0.0000
# 2 61.2898 151.7476 41.8462 0.0000 0.0000 0.0000
# 3 29.1949 41.8462 73.6587 0.0000 0.0000 0.0000
# 4 0.0000 0.0000 0.0000 31.3487 0.0000 0.0000
# 5 0.0000 0.0000 0.0000 0.0000 -3.2827 0.0000
# 6 0.0000 0.0000 0.0000 0.0000 0.0000 75.9306
#
#
#
# Elastic Compliance Matrix: (Units=1/GPa)
#
#
# Indices 1 2 3 4 5 6 
#
# 1 0.028957 -0.010115 -0.005731 0.000000 0.000000 0.000000
# 2 -0.010115 0.011347 -0.002437 0.000000 0.000000 0.000000
# 3 -0.005731 -0.002437 0.017232 0.000000 0.000000 0.000000
# 4 0.000000 0.000000 0.000000 0.031899 0.000000 0.000000
# 5 0.000000 0.000000 0.000000 0.000000 -0.304628 0.000000
# 6 0.000000 0.000000 0.000000 0.000000 0.000000 0.013170
#
#
# Mechanical properties :
#
#
# Convention : Reuss Voigt Hill
#
# Bulk Modulus (GPa) = 47.68710 61.31001 54.49856
# Shear Modulus (GPa) = -31.55242 31.11915 -0.21663
#
# Velocity S-wave (km/s) = -4.14229 4.11375 -0.34323
# Velocity P-wave (km/s) = 1.74777 7.47697 5.42954
#
# Compressibility (1/GPa) = 0.02097003
#
# Stress axis : x y z
#
# Youngs Moduli (GPa) = 34.53451 88.12548 58.03095
#
# Poissons Ratio (x) = 0.89140 0.33255
# Poissons Ratio (y) = 0.34932 0.14145
# Poissons Ratio (z) = 0.19790 0.21480
#
# Static dielectric constant tensor:
#      x y z
#    x 1.624800 0.000000 0.000000 
#    y 0.000000 1.631780 0.000000 
#    z 0.000000 0.000000 1.512370 
# 
# From -- ./inp_files/5788.got.cif
#   From: 2010.05.17/outbox.cif.g08.bks.cpg/sg49_3_cif.got.tgz:5788.got - 2010.06.03 21:02:19.
