data_PCOD9392887
_publ_section_title
;
Structure prediction by ZEFSAII (Michael W. Deem and Ramdas Pophale) SiO2 
 PCOD9392887
Probable space group: P C C M
;
_chemical_formula_sum "Si O2"
_cell_formula_units_Z 40
_cell_length_a 9.320099
_cell_length_b 27.314357
_cell_length_c 8.661213
_cell_angle_alpha 90.000000
_cell_angle_beta 90.000000
_cell_angle_gamma 90.000000
_cell_volume 2204.906745
_symmetry_space_group_name_H-M "P C C M"
_symmetry_group_IT_number 49
_symmetry_cell_setting 'orthorhombic'
loop_
_space_group_symop_operation_xyz
x,y,z
-x,-y,z
x,-y,1/2-z
-x,y,1/2-z
-x,-y,-z
x,y,-z
-x,y,1/2+z
x,-y,1/2+z
loop_
_atom_site_type_symbol
_atom_site_label
_atom_site_fract_x
_atom_site_fract_y
_atom_site_fract_z
Si Si1 0.337034 0.549773 0.184743
Si Si2 0.339290 0.052014 0.185674
Si Si3 0.338393 0.242408 0.185242
Si Si4 0.662791 0.656519 0.685177
Si Si5 0.840440 0.147142 0.313809
O O1 0.268656 0.500000 0.250000
O O2 0.500000 0.550714 0.250000
O O3 0.272798 0.603131 0.225676
O O4 0.344040 0.546339 0.000000
O O5 0.500000 0.058762 0.250000
O O6 0.242563 0.097863 0.233940
O O7 0.285477 0.000000 0.250000
O O8 0.345109 0.049848 0.000000
O O9 0.500000 0.237801 0.250000
O O10 0.273703 0.293794 0.245467
O O11 0.246802 0.195482 0.234880
O O12 0.345729 0.243976 0.000000
O O13 0.500000 0.655636 0.750000
O O14 0.657900 0.660380 0.500000
O O15 0.844732 0.147359 0.500000
O O16 0.000000 0.147840 0.250000
#
# Coordination Sequence:
#
# PCOD9392887 Si02
#       5
#     8   8   8   8   8
#     4   9  15  21  31  49  77 112 150 187 231 283
#     4  10  20  36  57  82 107 134 168 204 242 288
#     4  10  19  32  50  72  95 125 164 204 245 292
#     4   9  16  25  38  59  85 117 155 196 239 286
#     4  10  23  38  53  75 103 133 167 204 246 293
#
# _framework density 18.141355999999998
#
# number of rings (size 3 to 8) (size 9 to 14) (size 15 to 20)
#    0.000    2.400    0.000    5.400    0.000    6.000 
#    0.000    2.000    0.000    0.000    0.000    0.000 
#    0.000    0.800    0.000    8.800    0.000    9.800 
#
# Total GULP energy -222942.786378 kJ/mol
# GULP energy per Si atom -5573.569659 kJ/mol
# Density = 1.810007 g / cm^3
# Si number density = 18.141356 Si / 1000 Ang^3
#
#
#
# Elastic Constant Matrix: (Units=GPa)
#
#
# Indices 1 2 3 4 5 6 
#
# 1 45.8222 70.2389 17.9983 0.0000 0.0000 0.0000
# 2 70.2389 241.7363 55.4809 0.0000 0.0000 0.0000
# 3 17.9983 55.4809 56.1073 0.0000 0.0000 0.0000
# 4 0.0000 0.0000 0.0000 34.4534 0.0000 0.0000
# 5 0.0000 0.0000 0.0000 0.0000 19.6497 0.0000
# 6 0.0000 0.0000 0.0000 0.0000 0.0000 -3.9200
#
#
#
# Elastic Compliance Matrix: (Units=1/GPa)
#
#
# Indices 1 2 3 4 5 6 
#
# 1 0.039475 -0.011078 -0.001709 0.000000 0.000000 0.000000
# 2 -0.011078 0.008460 -0.004812 0.000000 0.000000 0.000000
# 3 -0.001709 -0.004812 0.023129 0.000000 0.000000 0.000000
# 4 0.000000 0.000000 0.000000 0.029025 0.000000 0.000000
# 5 0.000000 0.000000 0.000000 0.000000 0.050891 0.000000
# 6 0.000000 0.000000 0.000000 0.000000 0.000000 -0.255103
#
#
# Mechanical properties :
#
#
# Convention : Reuss Voigt Hill
#
# Bulk Modulus (GPa) = 27.88046 70.12246 49.00146
# Shear Modulus (GPa) = -87.76544 23.36647 -32.19948
#
# Velocity S-wave (km/s) = -6.96302 3.59280 -4.21755
# Velocity P-wave (km/s) = 7.01734 7.47985 1.83100
#
# Compressibility (1/GPa) = 0.03586741
#
# Stress axis : x y z
#
# Youngs Moduli (GPa) = 25.33231 118.20525 43.23516
#
# Poissons Ratio (x) = 1.30945 0.07389
# Poissons Ratio (y) = 0.28062 0.20804
# Poissons Ratio (z) = 0.04329 0.56879
#
# Static dielectric constant tensor:
#      x y z
#    x 1.571190 0.000000 0.000000 
#    y 0.000000 1.697470 0.000000 
#    z 0.000000 0.000000 1.612040 
# 
# From -- ./inp_files/1925.got.cif
#   From: 2010.05.17/outbox.cif.g08.bks.cpg/sg49_1_cif.got.tgz:1925.got - 2010.06.03 21:02:19.
