data_PCOD9392399
_publ_section_title
;
Structure prediction by ZEFSAII (Michael W. Deem and Ramdas Pophale) SiO2 
 PCOD9392399
Probable space group: P C C M
;
_chemical_formula_sum "Si O2"
_cell_formula_units_Z 64
_cell_length_a 19.642010
_cell_length_b 24.053281
_cell_length_c 8.717644
_cell_angle_alpha 90.000000
_cell_angle_beta 90.000000
_cell_angle_gamma 90.000000
_cell_volume 4118.692630
_symmetry_space_group_name_H-M "P C C M"
_symmetry_group_IT_number 49
_symmetry_cell_setting 'orthorhombic'
loop_
_space_group_symop_operation_xyz
x,y,z
-x,-y,z
x,-y,1/2-z
-x,y,1/2-z
-x,-y,-z
x,y,-z
-x,y,1/2+z
x,-y,1/2+z
loop_
_atom_site_type_symbol
_atom_site_label
_atom_site_fract_x
_atom_site_fract_y
_atom_site_fract_z
Si Si1 0.574562 0.771982 0.683554
Si Si2 0.927974 0.758147 0.815779
Si Si3 0.790821 0.059549 0.183530
Si Si4 0.708441 0.168425 0.185110
Si Si5 0.425832 0.561199 0.316549
Si Si6 0.217946 0.276168 0.816136
Si Si7 0.927138 0.111546 0.315878
Si Si8 0.342312 0.661214 0.816010
O O1 0.500000 0.779366 0.750000
O O2 0.569446 0.771514 0.500000
O O3 0.630144 0.818769 0.726534
O O4 0.608426 0.712939 0.729185
O O5 0.861142 0.724113 0.768134
O O6 0.918816 0.823210 0.770892
O O7 0.000000 0.738856 0.750000
O O8 0.931284 0.757122 0.000000
O O9 0.737677 0.108312 0.225075
O O10 0.864195 0.077521 0.249149
O O11 0.771274 0.000000 0.250000
O O12 0.794962 0.056717 0.000000
O O13 0.752651 0.216169 0.265924
O O14 0.714715 0.175917 0.000000
O O15 0.411042 0.500000 0.250000
O O16 0.500000 0.577614 0.250000
O O17 0.429491 0.558942 0.500000
O O18 0.371126 0.605965 0.260922
O O19 0.267239 0.321121 0.738822
O O20 0.221883 0.281220 0.000000
O O21 0.927445 0.108017 0.500000
O O22 0.000000 0.092994 0.250000
O O23 0.343803 0.656299 0.000000
#
# Coordination Sequence:
#
# PCOD9392399 Si02
#       8
#     8   8   8   8   8   8   8   8
#     4   9  18  31  48  71  95 119 149 187 232 280
#     4   9  18  29  45  68  95 125 157 192 232 285
#     4  11  22  35  51  68  88 117 151 192 236 283
#     4   9  19  34  49  66  91 120 149 185 234 290
#     4  11  21  34  51  72 101 140 179 215 248 287
#     4  10  18  30  48  72  97 124 159 200 242 285
#     4  10  19  33  49  69  93 120 153 190 229 278
#     4  10  20  33  48  71 102 135 169 205 242 284
#
# _framework density 15.538911000000001
#
# number of rings (size 3 to 8) (size 9 to 14) (size 15 to 20)
#    0.000    2.125    1.250    4.125    0.000    5.750 
#    0.000    1.250    0.000    0.375    0.000    2.625 
#    0.000    0.500    0.000    5.250    0.000    2.875 
#
# Total GULP energy -357073.088392 kJ/mol
# GULP energy per Si atom -5579.267006 kJ/mol
# Density = 1.550354 g / cm^3
# Si number density = 15.538911 Si / 1000 Ang^3
#
#
#
# Elastic Constant Matrix: (Units=GPa)
#
#
# Indices 1 2 3 4 5 6 
#
# 1 123.9090 53.3569 35.0396 0.0000 0.0000 0.0000
# 2 53.3569 79.0869 35.2992 0.0000 0.0000 0.0000
# 3 35.0396 35.2992 55.3352 0.0000 0.0000 0.0000
# 4 0.0000 0.0000 0.0000 21.9582 0.0000 0.0000
# 5 0.0000 0.0000 0.0000 0.0000 26.8058 0.0000
# 6 0.0000 0.0000 0.0000 0.0000 0.0000 24.0858
#
#
#
# Elastic Compliance Matrix: (Units=1/GPa)
#
#
# Indices 1 2 3 4 5 6 
#
# 1 0.011802 -0.006469 -0.003347 0.000000 0.000000 0.000000
# 2 -0.006469 0.021223 -0.009442 0.000000 0.000000 0.000000
# 3 -0.003347 -0.009442 0.026215 0.000000 0.000000 0.000000
# 4 0.000000 0.000000 0.000000 0.045541 0.000000 0.000000
# 5 0.000000 0.000000 0.000000 0.000000 0.037305 0.000000
# 6 0.000000 0.000000 0.000000 0.000000 0.000000 0.041518
#
#
# Mechanical properties :
#
#
# Convention : Reuss Voigt Hill
#
# Bulk Modulus (GPa) = 48.25396 56.19141 52.22269
# Shear Modulus (GPa) = 21.83130 23.54565 22.68847
#
# Velocity S-wave (km/s) = 3.75232 3.89687 3.82528
# Velocity P-wave (km/s) = 7.06359 7.51583 7.29322
#
# Compressibility (1/GPa) = 0.02072369
#
# Stress axis : x y z
#
# Youngs Moduli (GPa) = 84.72793 47.11873 38.14672
#
# Poissons Ratio (x) = 0.30480 0.12768
# Poissons Ratio (y) = 0.54808 0.36019
# Poissons Ratio (z) = 0.28359 0.44491
#
# Static dielectric constant tensor:
#      x y z
#    x 1.519630 0.000000 0.000000 
#    y 0.000000 1.503570 0.000000 
#    z 0.000000 0.000000 1.530480 
# 
# From -- ./inp_files/5429.got.cif
#   From: 2010.05.17/outbox.cif.g08.bks.cpg/sg49_3_cif.got.tgz:5429.got - 2010.06.03 21:02:19.
