data_PCOD9392500
_publ_section_title
;
Structure prediction by ZEFSAII (Michael W. Deem and Ramdas Pophale) SiO2 
 PCOD9392500
Probable space group: P C C M
;
_chemical_formula_sum "Si O2"
_cell_formula_units_Z 64
_cell_length_a 9.519111
_cell_length_b 13.639158
_cell_length_c 24.214891
_cell_angle_alpha 90.000000
_cell_angle_beta 90.000000
_cell_angle_gamma 90.000000
_cell_volume 3143.883685
_symmetry_space_group_name_H-M "P C C M"
_symmetry_group_IT_number 49
_symmetry_cell_setting 'orthorhombic'
loop_
_space_group_symop_operation_xyz
x,y,z
-x,-y,z
x,-y,1/2-z
-x,y,1/2-z
-x,-y,-z
x,y,-z
-x,y,1/2+z
x,-y,1/2+z
loop_
_atom_site_type_symbol
_atom_site_label
_atom_site_fract_x
_atom_site_fract_y
_atom_site_fract_z
Si Si1 0.308155 0.103409 0.194905
Si Si2 0.017874 0.892863 0.650642
Si Si3 0.837541 0.617393 0.752746
Si Si4 0.300004 0.881415 0.178401
Si Si5 0.655589 0.690124 0.144279
Si Si6 0.874429 0.259161 0.438763
Si Si7 0.888660 0.421035 0.936930
Si Si8 0.338302 0.671218 0.143993
O O1 0.138644 0.103636 0.196238
O O2 0.350053 0.124388 0.258012
O O3 0.359700 0.194423 0.159219
O O4 0.338910 0.996361 0.168397
O O5 0.078723 0.822522 0.604350
O O6 0.867717 0.868594 0.674962
O O7 0.000000 0.000000 0.625217
O O8 0.841465 0.500000 0.750000
O O9 0.759385 0.648938 0.808612
O O10 0.743078 0.653738 0.701682
O O11 0.000000 0.652910 0.750000
O O12 0.344576 0.790614 0.139670
O O13 0.740892 0.684553 0.087169
O O14 0.502225 0.641434 0.145045
O O15 0.841745 0.222873 0.500000
O O16 0.010183 0.327808 0.441354
O O17 0.754969 0.387911 0.900840
O O18 0.000000 0.500000 0.912003
O O19 0.851130 0.452836 0.000000
#
# Coordination Sequence:
#
# PCOD9392500 Si02
#       8
#     8   8   8   8   8   8   8   8
#     4   9  19  32  53  84 127 165 199 244 302 366
#     4   9  17  31  54  87 116 152 203 260 303 349
#     4  11  26  43  64  88 120 165 207 251 306 371
#     4  10  18  32  55  86 121 164 205 243 298 373
#     4  11  24  40  58  93 129 161 201 255 312 373
#     4  10  21  39  62  84 116 160 205 256 307 361
#     4  10  23  44  68  92 117 156 213 265 311 370
#     4  12  24  38  65  91 125 162 201 253 314 373
#
# _framework density 20.356987
#
# number of rings (size 3 to 8) (size 9 to 14) (size 15 to 20)
#    0.000    1.750    2.500    1.500    5.250    3.750 
#    0.000    1.250    0.000    2.250    0.000    3.500 
#    0.000    0.000    0.000    0.000    0.000    0.000 
#
# Total GULP energy -356791.590621 kJ/mol
# GULP energy per Si atom -5574.868603 kJ/mol
# Density = 2.031065 g / cm^3
# Si number density = 20.356987 Si / 1000 Ang^3
#
#
#
# Elastic Constant Matrix: (Units=GPa)
#
#
# Indices 1 2 3 4 5 6 
#
# 1 187.6591 22.2491 49.1140 0.0000 0.0000 0.0000
# 2 22.2491 69.7204 15.3973 0.0000 0.0000 0.0000
# 3 49.1140 15.3973 92.1488 0.0000 0.0000 0.0000
# 4 0.0000 0.0000 0.0000 17.8990 0.0000 0.0000
# 5 0.0000 0.0000 0.0000 0.0000 -0.0318 0.0000
# 6 0.0000 0.0000 0.0000 0.0000 0.0000 8.6449
#
#
#
# Elastic Compliance Matrix: (Units=1/GPa)
#
#
# Indices 1 2 3 4 5 6 
#
# 1 0.006307 -0.001319 -0.003141 0.000000 0.000000 0.000000
# 2 -0.001319 0.015168 -0.001831 0.000000 0.000000 0.000000
# 3 -0.003141 -0.001831 0.012832 0.000000 0.000000 0.000000
# 4 0.000000 0.000000 0.000000 0.055869 0.000000 0.000000
# 5 0.000000 0.000000 0.000000 0.000000-31.463070 0.000000
# 6 0.000000 0.000000 0.000000 0.000000 0.000000 0.115675
#
#
# Mechanical properties :
#
#
# Convention : Reuss Voigt Hill
#
# Bulk Modulus (GPa) = 46.03128 58.11657 52.07393
# Shear Modulus (GPa) = -0.16006 22.82028 11.33011
#
# Velocity S-wave (km/s) = -0.28071 3.35177 2.36173
# Velocity P-wave (km/s) = 4.74932 6.60226 5.75091
#
# Compressibility (1/GPa) = 0.02172436
#
# Stress axis : x y z
#
# Youngs Moduli (GPa) = 158.54529 65.92652 77.92824
#
# Poissons Ratio (x) = 0.08696 0.24480
# Poissons Ratio (y) = 0.20913 0.14272
# Poissons Ratio (z) = 0.49804 0.12074
#
# Static dielectric constant tensor:
#      x y z
#    x 1.766930 0.000000 0.000000 
#    y 0.000000 1.871030 0.000000 
#    z 0.000000 0.000000 1.725490 
# 
# From -- ./inp_files/22577.got.cif
#   From: 2010.05.17/outbox.cif.g08.bks.cpg/sg49_12_cif.got.tgz:22577.got - 2010.06.03 21:02:19.
