data_PCOD9392463
_publ_section_title
;
Structure prediction by ZEFSAII (Michael W. Deem and Ramdas Pophale) SiO2 
 PCOD9392463
Probable space group: P C C M
;
_chemical_formula_sum "Si O2"
_cell_formula_units_Z 64
_cell_length_a 11.578993
_cell_length_b 14.801160
_cell_length_c 17.884900
_cell_angle_alpha 90.000000
_cell_angle_beta 90.000000
_cell_angle_gamma 90.000000
_cell_volume 3065.159376
_symmetry_space_group_name_H-M "P C C M"
_symmetry_group_IT_number 49
_symmetry_cell_setting 'orthorhombic'
loop_
_space_group_symop_operation_xyz
x,y,z
-x,-y,z
x,-y,1/2-z
-x,y,1/2-z
-x,-y,-z
x,y,-z
-x,y,1/2+z
x,-y,1/2+z
loop_
_atom_site_type_symbol
_atom_site_label
_atom_site_fract_x
_atom_site_fract_y
_atom_site_fract_z
Si Si1 0.410520 0.282414 0.088362
Si Si2 0.042503 0.139351 0.673707
Si Si3 0.544334 0.899930 0.590867
Si Si4 0.132095 0.464914 0.412311
Si Si5 0.782466 0.971306 0.589116
Si Si6 0.686876 0.425199 0.688704
Si Si7 0.178960 0.826557 0.586969
Si Si8 0.125956 0.323128 0.713155
O O1 0.484687 0.194265 0.113586
O O2 0.409964 0.368372 0.143593
O O3 0.278099 0.247314 0.091358
O O4 0.436918 0.302146 0.000000
O O5 0.100361 0.068660 0.619781
O O6 0.129831 0.217009 0.699283
O O7 0.000000 0.096444 0.750000
O O8 0.935527 0.188956 0.633917
O O9 0.531325 0.899759 0.500000
O O10 0.677779 0.907140 0.612850
O O11 0.500000 0.000000 0.614740
O O12 0.157341 0.456325 0.500000
O O13 0.227094 0.527696 0.371669
O O14 0.134793 0.372374 0.366303
O O15 0.000000 0.500000 0.404650
O O16 0.781822 0.970583 0.500000
O O17 0.769908 0.075978 0.611456
O O18 0.647640 0.500000 0.750000
O O19 0.771434 0.359188 0.735469
O O20 0.145860 0.834669 0.500000
O O21 0.000000 0.344760 0.750000
#
# Coordination Sequence:
#
# PCOD9392463 Si02
#       8
#     8   8   8   8   8   8   8   8
#     4  10  18  31  56  89 118 151 202 254 303 361
#     4  11  23  35  50  76 114 163 201 238 286 363
#     4   9  16  32  58  88 118 148 191 255 312 356
#     4  10  19  29  48  76 106 141 193 255 304 354
#     4  10  20  36  56  82 115 154 197 242 301 358
#     4  10  20  33  51  74 115 160 201 247 309 375
#     4  10  20  33  53  80 113 152 196 246 296 362
#     4  10  19  34  48  67 106 156 200 237 299 368
#
# _framework density 20.879826999999999
#
# number of rings (size 3 to 8) (size 9 to 14) (size 15 to 20)
#    0.000    2.000    2.500    2.625    0.000    3.000 
#    0.000    0.000    0.000    3.000    0.000    6.125 
#    0.000   13.000    0.000    3.875    0.000   13.250 
#
# Total GULP energy -357084.403328 kJ/mol
# GULP energy per Si atom -5579.443802 kJ/mol
# Density = 2.083230 g / cm^3
# Si number density = 20.879827 Si / 1000 Ang^3
#
#
#
# Elastic Constant Matrix: (Units=GPa)
#
#
# Indices 1 2 3 4 5 6 
#
# 1 40.4755 20.5978 16.3909 0.0000 0.0000 0.0000
# 2 20.5978 113.3925 47.5116 0.0000 0.0000 0.0000
# 3 16.3909 47.5116 74.2806 0.0000 0.0000 0.0000
# 4 0.0000 0.0000 0.0000 -11.6426 0.0000 0.0000
# 5 0.0000 0.0000 0.0000 0.0000 5.8089 0.0000
# 6 0.0000 0.0000 0.0000 0.0000 0.0000 29.3287
#
#
#
# Elastic Compliance Matrix: (Units=1/GPa)
#
#
# Indices 1 2 3 4 5 6 
#
# 1 0.028069 -0.003420 -0.004006 0.000000 0.000000 0.000000
# 2 -0.003420 0.012465 -0.007218 0.000000 0.000000 0.000000
# 3 -0.004006 -0.007218 0.018963 0.000000 0.000000 0.000000
# 4 0.000000 0.000000 0.000000 -0.085891 0.000000 0.000000
# 5 0.000000 0.000000 0.000000 0.000000 0.172151 0.000000
# 6 0.000000 0.000000 0.000000 0.000000 0.000000 0.034096
#
#
# Mechanical properties :
#
#
# Convention : Reuss Voigt Hill
#
# Bulk Modulus (GPa) = 33.10338 44.12769 38.61553
# Shear Modulus (GPa) = 22.80912 14.27554 18.54233
#
# Velocity S-wave (km/s) = 3.30873 2.61760 2.98325
# Velocity P-wave (km/s) = 5.52138 5.50598 5.51368
#
# Compressibility (1/GPa) = 0.03020840
#
# Stress axis : x y z
#
# Youngs Moduli (GPa) = 35.62633 80.22778 52.73368
#
# Poissons Ratio (x) = 0.27439 0.21126
# Poissons Ratio (y) = 0.12185 0.38063
# Poissons Ratio (z) = 0.14272 0.57908
#
# Static dielectric constant tensor:
#      x y z
#    x 1.787780 0.000000 0.000000 
#    y 0.000000 1.775780 0.000000 
#    z 0.000000 0.000000 1.732610 
# 
# From -- ./inp_files/17317.got.cif
#   From: 2010.05.17/outbox.cif.g08.bks.cpg/sg49_9_cif.got.tgz:17317.got - 2010.06.03 21:02:19.
