data_PCOD9392630
_publ_section_title
;
Structure prediction by ZEFSAII (Michael W. Deem and Ramdas Pophale) SiO2 
 PCOD9392630
Probable space group: P C C M
;
_chemical_formula_sum "Si O2"
_cell_formula_units_Z 56
_cell_length_a 18.804171
_cell_length_b 21.204872
_cell_length_c 8.831535
_cell_angle_alpha 90.000000
_cell_angle_beta 90.000000
_cell_angle_gamma 90.000000
_cell_volume 3521.486611
_symmetry_space_group_name_H-M "P C C M"
_symmetry_group_IT_number 49
_symmetry_cell_setting 'orthorhombic'
loop_
_space_group_symop_operation_xyz
x,y,z
-x,-y,z
x,-y,1/2-z
-x,y,1/2-z
-x,-y,-z
x,y,-z
-x,y,1/2+z
x,-y,1/2+z
loop_
_atom_site_type_symbol
_atom_site_label
_atom_site_fract_x
_atom_site_fract_y
_atom_site_fract_z
Si Si1 0.210574 0.620268 0.673698
Si Si2 0.845970 0.184185 0.821618
Si Si3 0.078139 0.317879 0.318850
Si Si4 0.577100 0.310970 0.682536
Si Si5 0.078563 0.065793 0.180227
Si Si6 0.715115 0.758340 0.827061
Si Si7 0.652810 0.566316 0.680541
O O1 0.205103 0.598192 0.500000
O O2 0.134197 0.632808 0.748058
O O3 0.247912 0.689250 0.670764
O O4 0.265495 0.578179 0.767975
O O5 0.891620 0.247385 0.785094
O O6 0.874670 0.125200 0.728598
O O7 0.764713 0.199776 0.778515
O O8 0.853432 0.172153 0.000000
O O9 0.076630 0.324611 0.500000
O O10 0.000000 0.324681 0.250000
O O11 0.500000 0.298242 0.750000
O O12 0.575477 0.316188 0.500000
O O13 0.634742 0.256727 0.721087
O O14 0.607012 0.376313 0.750973
O O15 0.000000 0.075369 0.250000
O O16 0.105831 0.000000 0.250000
O O17 0.073352 0.060600 0.000000
O O18 0.716281 0.782229 0.000000
O O19 0.628945 0.500000 0.750000
O O20 0.647649 0.566209 0.500000
#
# Coordination Sequence:
#
# PCOD9392630 Si02
#       7
#     8   8   8   8   8   8   8
#     4   9  17  31  48  66  89 116 148 188 232 276
#     4  10  19  30  46  68  93 122 159 196 232 274
#     4  10  19  29  44  67  92 119 151 191 236 280
#     4  10  20  34  51  73 100 127 154 186 228 275
#     4  11  21  33  47  64  92 128 166 203 241 280
#     4   8  16  30  47  67  92 121 152 187 228 272
#     4  11  21  34  51  70  92 120 155 189 224 270
#
# _framework density 15.902376
#
# number of rings (size 3 to 8) (size 9 to 14) (size 15 to 20)
#    0.000    2.143    0.000    6.000    0.000    7.143 
#    0.000    1.429    0.000    0.429    0.000    3.000 
#    0.000    0.571    0.000    6.000    0.000    3.286 
#
# Total GULP energy -312404.641296 kJ/mol
# GULP energy per Si atom -5578.654309 kJ/mol
# Density = 1.586618 g / cm^3
# Si number density = 15.902376 Si / 1000 Ang^3
#
#
#
# Elastic Constant Matrix: (Units=GPa)
#
#
# Indices 1 2 3 4 5 6 
#
# 1 107.8674 7.7706 30.1661 0.0000 0.0000 0.0000
# 2 7.7706 21.8931 15.4254 0.0000 0.0000 0.0000
# 3 30.1661 15.4254 87.5580 0.0000 0.0000 0.0000
# 4 0.0000 0.0000 0.0000 22.0264 0.0000 0.0000
# 5 0.0000 0.0000 0.0000 0.0000 28.0014 0.0000
# 6 0.0000 0.0000 0.0000 0.0000 0.0000 14.2081
#
#
#
# Elastic Compliance Matrix: (Units=1/GPa)
#
#
# Indices 1 2 3 4 5 6 
#
# 1 0.010292 -0.001318 -0.003314 0.000000 0.000000 0.000000
# 2 -0.001318 0.052319 -0.008763 0.000000 0.000000 0.000000
# 3 -0.003314 -0.008763 0.014106 0.000000 0.000000 0.000000
# 4 0.000000 0.000000 0.000000 0.045400 0.000000 0.000000
# 5 0.000000 0.000000 0.000000 0.000000 0.035712 0.000000
# 6 0.000000 0.000000 0.000000 0.000000 0.000000 0.070383
#
#
# Mechanical properties :
#
#
# Convention : Reuss Voigt Hill
#
# Bulk Modulus (GPa) = 20.02907 36.00473 28.01690
# Shear Modulus (GPa) = 18.40637 23.77759 21.09198
#
# Velocity S-wave (km/s) = 3.40584 3.87101 3.64585
# Velocity P-wave (km/s) = 5.29987 6.53222 5.94805
#
# Compressibility (1/GPa) = 0.04992743
#
# Stress axis : x y z
#
# Youngs Moduli (GPa) = 97.15971 19.11367 70.88948
#
# Poissons Ratio (x) = 0.02520 0.23491
# Poissons Ratio (y) = 0.12809 0.62120
# Poissons Ratio (z) = 0.32196 0.16749
#
# Static dielectric constant tensor:
#      x y z
#    x 1.535680 0.000000 0.000000 
#    y 0.000000 1.518370 0.000000 
#    z 0.000000 0.000000 1.532890 
# 
# From -- ./inp_files/5165.got.cif
#   From: 2010.05.17/outbox.cif.g08.bks.cpg/sg49_3_cif.got.tgz:5165.got - 2010.06.03 21:02:19.
