data_PCOD9392857
_publ_section_title
;
Structure prediction by ZEFSAII (Michael W. Deem and Ramdas Pophale) SiO2 
 PCOD9392857
Probable space group: P C C M
;
_chemical_formula_sum "Si O2"
_cell_formula_units_Z 56
_cell_length_a 15.456172
_cell_length_b 20.449059
_cell_length_c 9.049121
_cell_angle_alpha 90.000000
_cell_angle_beta 90.000000
_cell_angle_gamma 90.000000
_cell_volume 2860.102947
_symmetry_space_group_name_H-M "P C C M"
_symmetry_group_IT_number 49
_symmetry_cell_setting 'orthorhombic'
loop_
_space_group_symop_operation_xyz
x,y,z
-x,-y,z
x,-y,1/2-z
-x,y,1/2-z
-x,-y,-z
x,y,-z
-x,y,1/2+z
x,-y,1/2+z
loop_
_atom_site_type_symbol
_atom_site_label
_atom_site_fract_x
_atom_site_fract_y
_atom_site_fract_z
Si Si1 0.414640 0.660909 0.166579
Si Si2 0.911111 0.286788 0.321421
Si Si3 0.888608 0.435103 0.335496
Si Si4 0.317318 0.436866 0.162854
Si Si5 0.589803 0.182026 0.171348
Si Si6 0.223649 0.826351 0.321293
Si Si7 0.091729 0.928200 0.820337
O O1 0.500000 0.637903 0.250000
O O2 0.336165 0.629770 0.253201
O O3 0.414210 0.738958 0.167582
O O4 0.413780 0.637412 0.000000
O O5 0.918586 0.286778 0.500000
O O6 0.903129 0.362585 0.270458
O O7 0.827274 0.241996 0.287129
O O8 0.000000 0.260413 0.250000
O O9 0.914799 0.500000 0.250000
O O10 0.927026 0.435382 0.500000
O O11 0.785385 0.441940 0.348441
O O12 0.350341 0.500000 0.250000
O O13 0.355467 0.434477 0.000000
O O14 0.500000 0.159910 0.250000
O O15 0.678436 0.168421 0.260033
O O16 0.593945 0.159416 0.000000
O O17 0.223343 0.834085 0.500000
O O18 0.166101 0.880804 0.239534
O O19 0.000000 0.906175 0.750000
O O20 0.106356 0.000000 0.750000
O O21 0.087698 0.930329 0.000000
#
# Coordination Sequence:
#
# PCOD9392857 Si02
#       7
#     8   8   8   8   8   8   8
#     4  10  20  33  49  70  97 129 169 217 276 341
#     4  10  22  37  54  79 112 148 189 237 292 349
#     4   9  19  35  52  71  96 133 179 228 281 339
#     4  10  19  32  49  67  90 121 163 216 276 340
#     4  10  21  37  58  85 115 150 192 240 291 347
#     4  11  22  38  61  89 122 160 200 247 299 351
#     4  11  22  39  63  94 131 170 210 249 293 349
#
# _framework density 19.579716999999999
#
# number of rings (size 3 to 8) (size 9 to 14) (size 15 to 20)
#    0.000    1.857    0.000    4.714    0.000    6.857 
#    0.000    2.857    0.000    0.429    0.000    3.000 
#    0.000    0.000    0.000    0.000    0.000    0.000 
#
# Total GULP energy -312367.469783 kJ/mol
# GULP energy per Si atom -5577.990532 kJ/mol
# Density = 1.953515 g / cm^3
# Si number density = 19.579717 Si / 1000 Ang^3
#
#
#
# Elastic Constant Matrix: (Units=GPa)
#
#
# Indices 1 2 3 4 5 6 
#
# 1 132.3762 44.8438 65.9080 0.0000 0.0000 0.0000
# 2 44.8438 71.9488 43.4982 0.0000 0.0000 0.0000
# 3 65.9080 43.4982 142.1256 0.0000 0.0000 0.0000
# 4 0.0000 0.0000 0.0000 55.0773 0.0000 0.0000
# 5 0.0000 0.0000 0.0000 0.0000 23.4533 0.0000
# 6 0.0000 0.0000 0.0000 0.0000 0.0000 26.0778
#
#
#
# Elastic Compliance Matrix: (Units=1/GPa)
#
#
# Indices 1 2 3 4 5 6 
#
# 1 0.010937 -0.004602 -0.003663 0.000000 0.000000 0.000000
# 2 -0.004602 0.018991 -0.003678 0.000000 0.000000 0.000000
# 3 -0.003663 -0.003678 0.009861 0.000000 0.000000 0.000000
# 4 0.000000 0.000000 0.000000 0.018156 0.000000 0.000000
# 5 0.000000 0.000000 0.000000 0.000000 0.042638 0.000000
# 6 0.000000 0.000000 0.000000 0.000000 0.000000 0.038347
#
#
# Mechanical properties :
#
#
# Convention : Reuss Voigt Hill
#
# Bulk Modulus (GPa) = 62.88767 72.77230 67.82998
# Shear Modulus (GPa) = 29.74116 33.73506 31.73811
#
# Velocity S-wave (km/s) = 3.90164 4.15536 4.03049
# Velocity P-wave (km/s) = 7.24469 7.76341 7.50853
#
# Compressibility (1/GPa) = 0.01590137
#
# Stress axis : x y z
#
# Youngs Moduli (GPa) = 91.43123 52.65715 101.41401
#
# Poissons Ratio (x) = 0.24233 0.37152
# Poissons Ratio (y) = 0.42077 0.37301
# Poissons Ratio (z) = 0.33495 0.19368
#
# Static dielectric constant tensor:
#      x y z
#    x 1.715810 0.000000 0.000000 
#    y 0.000000 1.691790 0.000000 
#    z 0.000000 0.000000 1.745260 
# 
# From -- ./inp_files/4056.got.cif
#   From: 2010.05.17/outbox.cif.g08.bks.cpg/sg49_3_cif.got.tgz:4056.got - 2010.06.03 21:02:19.
