data_PCOD9392318
_publ_section_title
;
Structure prediction by ZEFSAII (Michael W. Deem and Ramdas Pophale) SiO2 
 PCOD9392318
Probable space group: P C C M
;
_chemical_formula_sum "Si O2"
_cell_formula_units_Z 56
_cell_length_a 21.907580
_cell_length_b 18.975934
_cell_length_c 8.746393
_cell_angle_alpha 90.000000
_cell_angle_beta 90.000000
_cell_angle_gamma 90.000000
_cell_volume 3636.022441
_symmetry_space_group_name_H-M "P C C M"
_symmetry_group_IT_number 49
_symmetry_cell_setting 'orthorhombic'
loop_
_space_group_symop_operation_xyz
x,y,z
-x,-y,z
x,-y,1/2-z
-x,y,1/2-z
-x,-y,-z
x,y,-z
-x,y,1/2+z
x,-y,1/2+z
loop_
_atom_site_type_symbol
_atom_site_label
_atom_site_fract_x
_atom_site_fract_y
_atom_site_fract_z
Si Si1 0.564506 0.656434 0.682408
Si Si2 0.311128 0.422644 0.682668
Si Si3 0.297321 0.077018 0.682368
Si Si4 0.639039 0.785643 0.682749
Si Si5 0.246708 0.295746 0.819449
Si Si6 0.066350 0.922212 0.816573
Si Si7 0.179912 0.840783 0.315721
O O1 0.500000 0.634589 0.750000
O O2 0.561038 0.650022 0.500000
O O3 0.623383 0.610852 0.733403
O O4 0.580055 0.738575 0.718935
O O5 0.304022 0.500000 0.750000
O O6 0.311855 0.425127 0.500000
O O7 0.257878 0.369413 0.735732
O O8 0.288728 0.072396 0.500000
O O9 0.353236 0.131510 0.712202
O O10 0.236646 0.112454 0.754178
O O11 0.307100 0.000000 0.750000
O O12 0.650845 0.775324 0.500000
O O13 0.693070 0.748986 0.776532
O O14 0.193257 0.241160 0.775725
O O15 0.243743 0.308019 0.000000
O O16 0.118608 0.870095 0.758511
O O17 0.000000 0.902745 0.750000
O O18 0.080475 0.000000 0.750000
O O19 0.064297 0.925364 0.000000
O O20 0.177980 0.846696 0.500000
#
# Coordination Sequence:
#
# PCOD9392318 Si02
#       7
#     8   8   8   8   8   8   8
#     4   9  18  31  46  64  84 111 145 180 215 259
#     4  10  20  33  48  67  94 121 146 176 216 263
#     4  10  18  28  43  63  86 111 142 183 228 271
#     4   8  16  30  44  59  83 112 141 176 221 267
#     4   9  17  29  47  68  89 114 146 182 220 262
#     4  11  21  33  47  64  91 127 164 199 234 269
#     4  10  19  31  46  66  91 119 153 188 222 266
#
# _framework density 15.401445000000001
#
# number of rings (size 3 to 8) (size 9 to 14) (size 15 to 20)
#    0.000    2.429    0.000    4.714    0.000    5.429 
#    0.000    1.429    0.000    0.429    0.000    3.000 
#    0.000    0.571    0.000    6.000    0.000    2.571 
#
# Total GULP energy -311916.136050 kJ/mol
# GULP energy per Si atom -5569.931001 kJ/mol
# Density = 1.536639 g / cm^3
# Si number density = 15.401445 Si / 1000 Ang^3
#
#
#
# Elastic Constant Matrix: (Units=GPa)
#
#
# Indices 1 2 3 4 5 6 
#
# 1 45.9794 38.0273 23.0675 0.0000 0.0000 0.0000
# 2 38.0273 128.2653 44.7555 0.0000 0.0000 0.0000
# 3 23.0675 44.7555 60.5904 0.0000 0.0000 0.0000
# 4 0.0000 0.0000 0.0000 -2.9786 0.0000 0.0000
# 5 0.0000 0.0000 0.0000 0.0000 19.9639 0.0000
# 6 0.0000 0.0000 0.0000 0.0000 0.0000 16.8986
#
#
#
# Elastic Compliance Matrix: (Units=1/GPa)
#
#
# Indices 1 2 3 4 5 6 
#
# 1 0.030703 -0.006768 -0.006689 0.000000 0.000000 0.000000
# 2 -0.006768 0.011996 -0.006284 0.000000 0.000000 0.000000
# 3 -0.006689 -0.006284 0.023693 0.000000 0.000000 0.000000
# 4 0.000000 0.000000 0.000000 -0.335726 0.000000 0.000000
# 5 0.000000 0.000000 0.000000 0.000000 0.050090 0.000000
# 6 0.000000 0.000000 0.000000 0.000000 0.000000 0.059176
#
#
# Mechanical properties :
#
#
# Convention : Reuss Voigt Hill
#
# Bulk Modulus (GPa) = 37.16409 49.61509 43.38959
# Shear Modulus (GPa) = -44.79634 15.37576 -14.71029
#
# Velocity S-wave (km/s) = -5.39898 3.16307 -3.09386
# Velocity P-wave (km/s) = 3.83179 6.75459 3.93331
#
# Compressibility (1/GPa) = 0.02690770
#
# Stress axis : x y z
#
# Youngs Moduli (GPa) = 32.57037 83.36373 42.20730
#
# Poissons Ratio (x) = 0.56424 0.28234
# Poissons Ratio (y) = 0.22045 0.26522
# Poissons Ratio (z) = 0.21787 0.52384
#
# Static dielectric constant tensor:
#      x y z
#    x 1.498370 0.000000 0.000000 
#    y 0.000000 1.535910 0.000000 
#    z 0.000000 0.000000 1.517750 
# 
# From -- ./inp_files/5184.got.cif
#   From: 2010.05.17/outbox.cif.g08.bks.cpg/sg49_3_cif.got.tgz:5184.got - 2010.06.03 21:02:19.
