data_PCOD9392852
_publ_section_title
;
Structure prediction by ZEFSAII (Michael W. Deem and Ramdas Pophale) SiO2 
 PCOD9392852
Probable space group: P C C M
;
_chemical_formula_sum "Si O2"
_cell_formula_units_Z 64
_cell_length_a 25.331523
_cell_length_b 15.418479
_cell_length_c 8.585914
_cell_angle_alpha 90.000000
_cell_angle_beta 90.000000
_cell_angle_gamma 90.000000
_cell_volume 3353.430957
_symmetry_space_group_name_H-M "P C C M"
_symmetry_group_IT_number 49
_symmetry_cell_setting 'orthorhombic'
loop_
_space_group_symop_operation_xyz
x,y,z
-x,-y,z
x,-y,1/2-z
-x,y,1/2-z
-x,-y,-z
x,y,-z
-x,y,1/2+z
x,-y,1/2+z
loop_
_atom_site_type_symbol
_atom_site_label
_atom_site_fract_x
_atom_site_fract_y
_atom_site_fract_z
Si Si1 0.854670 0.726187 0.687345
Si Si2 0.059388 0.405800 0.813338
Si Si3 0.664865 0.668468 0.186017
Si Si4 0.766047 0.589775 0.314267
Si Si5 0.181788 0.092518 0.812560
Si Si6 0.701125 0.138396 0.687901
Si Si7 0.555216 0.277270 0.185217
Si Si8 0.585798 0.089622 0.687136
O O1 0.856890 0.729239 0.500000
O O2 0.903574 0.671010 0.751906
O O3 0.802885 0.670233 0.734540
O O4 0.849333 0.823089 0.753274
O O5 0.077536 0.500000 0.750000
O O6 0.000000 0.393826 0.750000
O O7 0.059232 0.407890 0.000000
O O8 0.707092 0.600971 0.249206
O O9 0.691013 0.761458 0.227712
O O10 0.606485 0.670176 0.257087
O O11 0.660690 0.663153 0.000000
O O12 0.788702 0.500000 0.250000
O O13 0.764750 0.587386 0.500000
O O14 0.242724 0.104632 0.754487
O O15 0.162330 0.000000 0.750000
O O16 0.181605 0.092051 0.000000
O O17 0.702428 0.132069 0.500000
O O18 0.647347 0.092731 0.740244
O O19 0.500000 0.312325 0.250000
O O20 0.561545 0.178780 0.249562
O O21 0.554345 0.274618 0.000000
O O22 0.583385 0.091595 0.500000
O O23 0.562564 0.000000 0.750000
#
# Coordination Sequence:
#
# PCOD9392852 Si02
#       8
#     8   8   8   8   8   8   8   8
#     4  11  23  39  59  89 126 165 208 253 300 353
#     4  11  22  39  64  94 128 167 208 254 303 359
#     4  10  19  36  58  81 111 145 183 232 286 346
#     4  11  23  37  58  89 123 159 195 236 291 355
#     4  11  21  35  54  81 116 161 207 253 302 352
#     4   8  16  30  50  74 104 143 186 231 283 340
#     4  11  22  37  55  76 100 135 181 229 283 346
#     4  10  19  32  48  72 101 136 177 228 286 344
#
# _framework density 19.08493
#
# number of rings (size 3 to 8) (size 9 to 14) (size 15 to 20)
#    0.000    1.625    1.250    6.000    0.000    2.750 
#    0.000    2.500    0.000    0.750    0.000    5.250 
#    0.000    0.000    0.000    0.000    0.000    0.000 
#
# Total GULP energy -357508.411216 kJ/mol
# GULP energy per Si atom -5586.068925 kJ/mol
# Density = 1.904149 g / cm^3
# Si number density = 19.084930 Si / 1000 Ang^3
#
#
#
# Elastic Constant Matrix: (Units=GPa)
#
#
# Indices 1 2 3 4 5 6 
#
# 1 110.5907 56.3655 38.8425 0.0000 0.0000 0.0000
# 2 56.3655 118.6081 43.6327 0.0000 0.0000 0.0000
# 3 38.8425 43.6327 98.0752 0.0000 0.0000 0.0000
# 4 0.0000 0.0000 0.0000 29.2053 0.0000 0.0000
# 5 0.0000 0.0000 0.0000 0.0000 23.9150 0.0000
# 6 0.0000 0.0000 0.0000 0.0000 0.0000 -2.3911
#
#
#
# Elastic Compliance Matrix: (Units=1/GPa)
#
#
# Indices 1 2 3 4 5 6 
#
# 1 0.012530 -0.004937 -0.002766 0.000000 0.000000 0.000000
# 2 -0.004937 0.012026 -0.003395 0.000000 0.000000 0.000000
# 3 -0.002766 -0.003395 0.012802 0.000000 0.000000 0.000000
# 4 0.000000 0.000000 0.000000 0.034240 0.000000 0.000000
# 5 0.000000 0.000000 0.000000 0.000000 0.041815 0.000000
# 6 0.000000 0.000000 0.000000 0.000000 0.000000 -0.418213
#
#
# Mechanical properties :
#
#
# Convention : Reuss Voigt Hill
#
# Bulk Modulus (GPa) = 65.95349 67.21727 66.58538
# Shear Modulus (GPa) = -18.01486 22.70807 2.34660
#
# Velocity S-wave (km/s) = -3.07568 3.45315 1.11006
# Velocity P-wave (km/s) = 4.69253 7.15511 6.05043
#
# Compressibility (1/GPa) = 0.01516220
#
# Stress axis : x y z
#
# Youngs Moduli (GPa) = 79.80727 83.15112 78.11157
#
# Poissons Ratio (x) = 0.41052 0.21606
# Poissons Ratio (y) = 0.39401 0.26519
# Poissons Ratio (z) = 0.22075 0.28230
#
# Static dielectric constant tensor:
#      x y z
#    x 1.677540 0.000000 0.000000 
#    y 0.000000 1.647450 0.000000 
#    z 0.000000 0.000000 1.633520 
# 
# From -- ./inp_files/6494.got.cif
#   From: 2010.05.17/outbox.cif.g08.bks.cpg/sg49_4_cif.got.tgz:6494.got - 2010.06.03 21:02:19.
