data_PCOD9392079
_publ_section_title
;
Structure prediction by ZEFSAII (Michael W. Deem and Ramdas Pophale) SiO2 
 PCOD9392079
Probable space group: P C C M
;
_chemical_formula_sum "Si O2"
_cell_formula_units_Z 64
_cell_length_a 27.205784
_cell_length_b 18.898600
_cell_length_c 8.709485
_cell_angle_alpha 90.000000
_cell_angle_beta 90.000000
_cell_angle_gamma 90.000000
_cell_volume 4477.992421
_symmetry_space_group_name_H-M "P C C M"
_symmetry_group_IT_number 49
_symmetry_cell_setting 'orthorhombic'
loop_
_space_group_symop_operation_xyz
x,y,z
-x,-y,z
x,-y,1/2-z
-x,y,1/2-z
-x,-y,-z
x,y,-z
-x,y,1/2+z
x,-y,1/2+z
loop_
_atom_site_type_symbol
_atom_site_label
_atom_site_fract_x
_atom_site_fract_y
_atom_site_fract_z
Si Si1 0.747378 0.154483 0.816418
Si Si2 0.353506 0.921864 0.184697
Si Si3 0.552305 0.346092 0.182692
Si Si4 0.847592 0.079650 0.185633
Si Si5 0.296975 0.712375 0.324099
Si Si6 0.351598 0.422285 0.185439
Si Si7 0.949565 0.080368 0.684108
Si Si8 0.403483 0.789834 0.676789
O O1 0.700458 0.107449 0.764283
O O2 0.799230 0.122636 0.765594
O O3 0.738256 0.234933 0.765871
O O4 0.746790 0.151630 0.000000
O O5 0.393217 0.865466 0.246800
O O6 0.360988 0.000000 0.250000
O O7 0.354682 0.922735 0.000000
O O8 0.500000 0.368711 0.250000
O O9 0.596504 0.392375 0.253058
O O10 0.562199 0.264692 0.232691
O O11 0.552929 0.351901 0.000000
O O12 0.898243 0.110831 0.253678
O O13 0.842305 0.000000 0.250000
O O14 0.850753 0.077170 0.000000
O O15 0.280335 0.707687 0.500000
O O16 0.309687 0.634123 0.265067
O O17 0.350188 0.751176 0.323269
O O18 0.343083 0.500000 0.250000
O O19 0.353025 0.422020 0.000000
O O20 0.950590 0.078558 0.500000
O O21 0.000000 0.112892 0.750000
O O22 0.948912 0.000000 0.750000
O O23 0.419492 0.796603 0.500000
#
# Coordination Sequence:
#
# PCOD9392079 Si02
#       8
#     8   8   8   8   8   8   8   8
#     4   9  18  28  40  58  82 109 139 171 208 249
#     4  10  18  28  42  62  84 109 138 171 210 250
#     4  11  21  34  51  70  90 113 137 165 198 238
#     4  10  18  27  37  54  78 105 138 179 219 256
#     4   8  16  29  45  62  83 108 136 165 197 237
#     4  10  20  34  50  71  93 115 140 168 198 233
#     4  10  17  26  38  51  68  96 133 175 218 260
#     4   9  17  31  47  64  84 108 137 169 201 241
#
# _framework density 14.292118
#
# number of rings (size 3 to 8) (size 9 to 14) (size 15 to 20)
#    0.000    2.375    0.000    6.000    0.000    5.250 
#    0.000    1.250    0.000    0.375    0.000    2.625 
#    0.000    0.000    0.000    0.000    0.000    0.625 
#
# Total GULP energy -356644.935743 kJ/mol
# GULP energy per Si atom -5572.577121 kJ/mol
# Density = 1.425959 g / cm^3
# Si number density = 14.292118 Si / 1000 Ang^3
#
#
#
# Elastic Constant Matrix: (Units=GPa)
#
#
# Indices 1 2 3 4 5 6 
#
# 1 41.3021 20.0820 12.3638 0.0000 0.0000 0.0000
# 2 20.0820 94.3456 21.2770 0.0000 0.0000 0.0000
# 3 12.3638 21.2770 67.3876 0.0000 0.0000 0.0000
# 4 0.0000 0.0000 0.0000 22.6092 0.0000 0.0000
# 5 0.0000 0.0000 0.0000 0.0000 21.5918 0.0000
# 6 0.0000 0.0000 0.0000 0.0000 0.0000 11.1235
#
#
#
# Elastic Compliance Matrix: (Units=1/GPa)
#
#
# Indices 1 2 3 4 5 6 
#
# 1 0.027742 -0.005122 -0.003473 0.000000 0.000000 0.000000
# 2 -0.005122 0.012358 -0.002962 0.000000 0.000000 0.000000
# 3 -0.003473 -0.002962 0.016412 0.000000 0.000000 0.000000
# 4 0.000000 0.000000 0.000000 0.044230 0.000000 0.000000
# 5 0.000000 0.000000 0.000000 0.000000 0.046314 0.000000
# 6 0.000000 0.000000 0.000000 0.000000 0.000000 0.089900
#
#
# Mechanical properties :
#
#
# Convention : Reuss Voigt Hill
#
# Bulk Modulus (GPa) = 29.94185 34.49786 32.21985
# Shear Modulus (GPa) = 18.43655 21.01907 19.72781
#
# Velocity S-wave (km/s) = 3.59553 3.83910 3.71931
# Velocity P-wave (km/s) = 6.18324 6.62130 6.40602
#
# Compressibility (1/GPa) = 0.03339807
#
# Stress axis : x y z
#
# Youngs Moduli (GPa) = 36.04676 80.92224 60.93139
#
# Poissons Ratio (x) = 0.41447 0.21160
# Poissons Ratio (y) = 0.18462 0.18048
# Poissons Ratio (z) = 0.12518 0.23970
#
# Static dielectric constant tensor:
#      x y z
#    x 1.487690 0.000000 0.000000 
#    y 0.000000 1.465390 0.000000 
#    z 0.000000 0.000000 1.482620 
# 
# From -- ./inp_files/6784.got.cif
#   From: 2010.05.17/outbox.cif.g08.bks.cpg/sg49_4_cif.got.tgz:6784.got - 2010.06.03 21:02:19.
