data_PCOD9392338
_publ_section_title
;
Structure prediction by ZEFSAII (Michael W. Deem and Ramdas Pophale) SiO2 
 PCOD9392338
Probable space group: P C C M
;
_chemical_formula_sum "Si O2"
_cell_formula_units_Z 64
_cell_length_a 24.362041
_cell_length_b 19.734605
_cell_length_c 8.505313
_cell_angle_alpha 90.000000
_cell_angle_beta 90.000000
_cell_angle_gamma 90.000000
_cell_volume 4089.144036
_symmetry_space_group_name_H-M "P C C M"
_symmetry_group_IT_number 49
_symmetry_cell_setting 'orthorhombic'
loop_
_space_group_symop_operation_xyz
x,y,z
-x,-y,z
x,-y,1/2-z
-x,y,1/2-z
-x,-y,-z
x,y,-z
-x,y,1/2+z
x,-y,1/2+z
loop_
_atom_site_type_symbol
_atom_site_label
_atom_site_fract_x
_atom_site_fract_y
_atom_site_fract_z
Si Si1 0.759301 0.072121 0.189358
Si Si2 0.440331 0.576457 0.810818
Si Si3 0.887268 0.927594 0.310760
Si Si4 0.778567 0.424367 0.811298
Si Si5 0.332234 0.346725 0.308838
Si Si6 0.939357 0.786062 0.311158
Si Si7 0.730655 0.217445 0.809758
Si Si8 0.837271 0.704368 0.812730
O O1 0.823336 0.079011 0.239519
O O2 0.727710 0.139609 0.242856
O O3 0.738631 0.000000 0.250000
O O4 0.758843 0.070730 0.000000
O O5 0.431111 0.500000 0.750000
O O6 0.500000 0.598543 0.750000
O O7 0.390274 0.623751 0.755916
O O8 0.441214 0.574960 0.000000
O O9 0.887950 0.928838 0.500000
O O10 0.920441 0.861546 0.257931
O O11 0.908085 0.000000 0.250000
O O12 0.786121 0.500000 0.750000
O O13 0.718468 0.395460 0.762801
O O14 0.822559 0.371042 0.745191
O O15 0.780755 0.423202 0.000000
O O16 0.333397 0.346346 0.500000
O O17 0.315479 0.271022 0.256865
O O18 0.938463 0.785167 0.500000
O O19 0.894628 0.733137 0.248759
O O20 0.000000 0.771762 0.250000
O O21 0.788787 0.248308 0.756194
O O22 0.730711 0.217607 0.000000
O O23 0.835613 0.706944 0.000000
#
# Coordination Sequence:
#
# PCOD9392338 Si02
#       8
#     8   8   8   8   8   8   8   8
#     4   9  16  27  44  65  90 121 151 182 226 277
#     4  10  18  29  43  63  90 127 165 196 228 266
#     4   9  18  31  47  66  90 120 151 186 225 270
#     4  10  19  33  52  74  98 123 150 189 231 275
#     4   8  16  28  46  68  93 124 159 194 230 270
#     4  11  22  37  52  69  91 119 154 192 232 274
#     4   9  16  31  49  66  91 123 154 191 234 276
#     4  11  21  33  50  72  94 120 151 186 229 280
#
# _framework density 15.651197
#
# number of rings (size 3 to 8) (size 9 to 14) (size 15 to 20)
#    0.000    2.375    1.250    3.750    0.000    1.750 
#    0.000    6.875    0.000    0.375    0.000    2.625 
#    0.000    0.500    0.000    6.250    0.000    0.000 
#
# Total GULP energy -356864.760196 kJ/mol
# GULP energy per Si atom -5576.011878 kJ/mol
# Density = 1.561557 g / cm^3
# Si number density = 15.651197 Si / 1000 Ang^3
#
#
#
# Elastic Constant Matrix: (Units=GPa)
#
#
# Indices 1 2 3 4 5 6 
#
# 1 110.8244 75.9844 19.4633 0.0000 0.0000 0.0000
# 2 75.9844 148.3628 21.0403 0.0000 0.0000 0.0000
# 3 19.4633 21.0403 23.9408 0.0000 0.0000 0.0000
# 4 0.0000 0.0000 0.0000 23.0874 0.0000 0.0000
# 5 0.0000 0.0000 0.0000 0.0000 35.5070 0.0000
# 6 0.0000 0.0000 0.0000 0.0000 0.0000 25.2335
#
#
#
# Elastic Compliance Matrix: (Units=1/GPa)
#
#
# Indices 1 2 3 4 5 6 
#
# 1 0.014640 -0.006637 -0.006069 0.000000 0.000000 0.000000
# 2 -0.006637 0.010709 -0.004016 0.000000 0.000000 0.000000
# 3 -0.006069 -0.004016 0.050233 0.000000 0.000000 0.000000
# 4 0.000000 0.000000 0.000000 0.043314 0.000000 0.000000
# 5 0.000000 0.000000 0.000000 0.000000 0.028163 0.000000
# 6 0.000000 0.000000 0.000000 0.000000 0.000000 0.039630
#
#
# Mechanical properties :
#
#
# Convention : Reuss Voigt Hill
#
# Bulk Modulus (GPa) = 23.73143 57.34491 40.53817
# Shear Modulus (GPa) = 21.35134 27.87493 24.61313
#
# Velocity S-wave (km/s) = 3.69751 4.22478 3.96991
# Velocity P-wave (km/s) = 5.78139 7.77928 6.85352
#
# Compressibility (1/GPa) = 0.04213820
#
# Stress axis : x y z
#
# Youngs Moduli (GPa) = 68.30754 93.37997 19.90736
#
# Poissons Ratio (x) = 0.61977 0.12081
# Poissons Ratio (y) = 0.45336 0.07994
# Poissons Ratio (z) = 0.41454 0.37499
#
# Static dielectric constant tensor:
#      x y z
#    x 1.504500 0.000000 0.000000 
#    y 0.000000 1.533920 0.000000 
#    z 0.000000 0.000000 1.537120 
# 
# From -- ./inp_files/6094.got.cif
#   From: 2010.05.17/outbox.cif.g08.bks.cpg/sg49_4_cif.got.tgz:6094.got - 2010.06.03 21:02:19.
