data_PCOD9392792
_publ_section_title
;
Structure prediction by ZEFSAII (Michael W. Deem and Ramdas Pophale) SiO2 
 PCOD9392792
Probable space group: P C C M
;
_chemical_formula_sum "Si O2"
_cell_formula_units_Z 40
_cell_length_a 8.845519
_cell_length_b 11.905815
_cell_length_c 17.000842
_cell_angle_alpha 90.000000
_cell_angle_beta 90.000000
_cell_angle_gamma 90.000000
_cell_volume 1790.411591
_symmetry_space_group_name_H-M "P C C M"
_symmetry_group_IT_number 49
_symmetry_cell_setting 'orthorhombic'
loop_
_space_group_symop_operation_xyz
x,y,z
-x,-y,z
x,-y,1/2-z
-x,y,1/2-z
-x,-y,-z
x,y,-z
-x,y,1/2+z
x,-y,1/2+z
loop_
_atom_site_type_symbol
_atom_site_label
_atom_site_fract_x
_atom_site_fract_y
_atom_site_fract_z
Si Si1 0.366377 0.829353 0.301630
Si Si2 0.909336 0.116942 0.407652
Si Si3 0.121954 0.714920 0.809551
Si Si4 0.823426 0.518033 0.587839
Si Si5 0.434707 0.373075 0.908226
O O1 0.500000 0.883448 0.250000
O O2 0.255128 0.889198 0.365094
O O3 0.240563 0.786109 0.240009
O O4 0.453483 0.728857 0.348714
O O5 0.888694 0.142391 0.500000
O O6 0.020392 0.209098 0.367749
O O7 0.000000 0.000000 0.399664
O O8 0.211874 0.617651 0.853612
O O9 0.000000 0.661861 0.750000
O O10 0.779075 0.553717 0.500000
O O11 0.743183 0.400737 0.602015
O O12 0.000000 0.500000 0.590099
O O13 0.500000 0.500000 0.893216
O O14 0.464085 0.344906 0.000000
#
# Coordination Sequence:
#
# PCOD9392792 Si02
#       5
#     8   8   8   8   8
#     4  11  23  38  61  95 129 161 201 256 318 379
#     4  10  22  44  70  90 117 162 213 265 320 380
#     4  10  21  34  55  86 119 160 209 261 317 371
#     4  10  19  31  49  75 111 158 210 258 298 348
#     4  10  21  36  55  82 125 177 214 246 299 371
#
# _framework density 22.341232000000002
#
# number of rings (size 3 to 8) (size 9 to 14) (size 15 to 20)
#    0.000    1.800    0.000    4.800    0.000   10.000 
#    0.000    5.000    0.000    2.400    0.000    0.000 
#    0.000    0.000    0.000    0.000    0.000    0.000 
#
# Total GULP energy -223259.504510 kJ/mol
# GULP energy per Si atom -5581.487613 kJ/mol
# Density = 2.229038 g / cm^3
# Si number density = 22.341232 Si / 1000 Ang^3
#
#
#
# Elastic Constant Matrix: (Units=GPa)
#
#
# Indices 1 2 3 4 5 6 
#
# 1 111.4034 18.3672 42.8977 0.0000 0.0000 0.0000
# 2 18.3672 72.8478 59.5325 0.0000 0.0000 0.0000
# 3 42.8977 59.5325 135.1736 0.0000 0.0000 0.0000
# 4 0.0000 0.0000 0.0000 131.2673 0.0000 0.0000
# 5 0.0000 0.0000 0.0000 0.0000 33.7511 0.0000
# 6 0.0000 0.0000 0.0000 0.0000 0.0000 22.9416
#
#
#
# Elastic Compliance Matrix: (Units=1/GPa)
#
#
# Indices 1 2 3 4 5 6 
#
# 1 0.010227 0.000115 -0.003296 0.000000 0.000000 0.000000
# 2 0.000115 0.021447 -0.009482 0.000000 0.000000 0.000000
# 3 -0.003296 -0.009482 0.012620 0.000000 0.000000 0.000000
# 4 0.000000 0.000000 0.000000 0.007618 0.000000 0.000000
# 5 0.000000 0.000000 0.000000 0.000000 0.029629 0.000000
# 6 0.000000 0.000000 0.000000 0.000000 0.000000 0.043589
#
#
# Mechanical properties :
#
#
# Convention : Reuss Voigt Hill
#
# Bulk Modulus (GPa) = 52.72161 62.33551 57.52856
# Shear Modulus (GPa) = 31.89210 50.83382 41.36296
#
# Velocity S-wave (km/s) = 3.78233 4.77522 4.30748
# Velocity P-wave (km/s) = 6.53638 7.63975 7.10950
#
# Compressibility (1/GPa) = 0.01896755
#
# Stress axis : x y z
#
# Youngs Moduli (GPa) = 97.78374 46.62597 79.23863
#
# Poissons Ratio (x) = -0.00537 0.26119
# Poissons Ratio (y) = -0.01127 0.75136
# Poissons Ratio (z) = 0.32232 0.44212
#
# Static dielectric constant tensor:
#      x y z
#    x 1.973450 0.000000 0.000000 
#    y 0.000000 1.844500 0.000000 
#    z 0.000000 0.000000 1.837170 
# 
# From -- ./inp_files/11556.got.cif
#   From: 2010.05.17/outbox.cif.g08.bks.cpg/sg49_6_cif.got.tgz:11556.got - 2010.06.03 21:02:19.
