data_PCOD9392243
_publ_section_title
;
Structure prediction by ZEFSAII (Michael W. Deem and Ramdas Pophale) SiO2 
 PCOD9392243
Probable space group: P C C M
;
_chemical_formula_sum "Si O2"
_cell_formula_units_Z 64
_cell_length_a 29.206431
_cell_length_b 14.180543
_cell_length_c 8.774190
_cell_angle_alpha 90.000000
_cell_angle_beta 90.000000
_cell_angle_gamma 90.000000
_cell_volume 3633.945298
_symmetry_space_group_name_H-M "P C C M"
_symmetry_group_IT_number 49
_symmetry_cell_setting 'orthorhombic'
loop_
_space_group_symop_operation_xyz
x,y,z
-x,-y,z
x,-y,1/2-z
-x,y,1/2-z
-x,-y,-z
x,y,-z
-x,y,1/2+z
x,-y,1/2+z
loop_
_atom_site_type_symbol
_atom_site_label
_atom_site_fract_x
_atom_site_fract_y
_atom_site_fract_z
Si Si1 0.139651 0.898649 0.680964
Si Si2 0.641229 0.707532 0.183130
Si Si3 0.690945 0.897666 0.182724
Si Si4 0.948272 0.594960 0.317637
Si Si5 0.727666 0.398244 0.818040
Si Si6 0.949709 0.210304 0.681720
Si Si7 0.450969 0.395848 0.183191
Si Si8 0.222090 0.208887 0.682602
O O1 0.146448 0.899955 0.500000
O O2 0.087004 0.870948 0.711391
O O3 0.173489 0.822512 0.753688
O O4 0.150538 0.000000 0.750000
O O5 0.654718 0.814939 0.223459
O O6 0.678728 0.639180 0.258263
O O7 0.590480 0.673757 0.224501
O O8 0.645826 0.698967 0.000000
O O9 0.739218 0.859999 0.248038
O O10 0.680168 0.000000 0.250000
O O11 0.693815 0.903670 0.000000
O O12 0.926238 0.500000 0.250000
O O13 0.949531 0.591277 0.500000
O O14 0.929837 0.694128 0.257359
O O15 0.000000 0.596142 0.250000
O O16 0.738373 0.500000 0.750000
O O17 0.763315 0.315421 0.775521
O O18 0.726175 0.404812 0.000000
O O19 0.954158 0.224806 0.500000
O O20 0.000000 0.191610 0.750000
O O21 0.441259 0.500000 0.250000
O O22 0.500000 0.366042 0.250000
O O23 0.453942 0.402278 0.000000
O O24 0.222999 0.200819 0.500000
#
# Coordination Sequence:
#
# PCOD9392243 Si02
#       8
#     8   8   8   8   8   8   8   8
#     4  11  24  40  59  80 104 135 170 210 255 304
#     4   9  19  33  50  73 103 138 176 218 262 309
#     4  10  19  33  53  77 104 133 168 214 263 309
#     4  10  17  28  49  75 103 133 164 200 241 286
#     4  10  20  33  53  80 109 141 174 209 253 306
#     4  10  21  37  56  80 107 136 171 210 253 299
#     4  10  19  31  47  70  99 134 174 215 261 310
#     4  10  21  37  56  79 106 137 173 209 250 302
#
# _framework density 17.611712000000001
#
# number of rings (size 3 to 8) (size 9 to 14) (size 15 to 20)
#    0.000    2.000    0.000    5.625    0.000    6.250 
#    0.000    1.875    0.000    1.875    0.000    2.625 
#    0.000    0.000    0.000    0.000    0.000    0.000 
#
# Total GULP energy -357193.383143 kJ/mol
# GULP energy per Si atom -5581.146612 kJ/mol
# Density = 1.757163 g / cm^3
# Si number density = 17.611712 Si / 1000 Ang^3
#
#
#
# Elastic Constant Matrix: (Units=GPa)
#
#
# Indices 1 2 3 4 5 6 
#
# 1 104.7299 60.4216 46.0669 0.0000 0.0000 0.0000
# 2 60.4216 117.7461 46.6934 0.0000 0.0000 0.0000
# 3 46.0669 46.6934 72.1272 0.0000 0.0000 0.0000
# 4 0.0000 0.0000 0.0000 36.3895 0.0000 0.0000
# 5 0.0000 0.0000 0.0000 0.0000 11.7460 0.0000
# 6 0.0000 0.0000 0.0000 0.0000 0.0000 24.4056
#
#
#
# Elastic Compliance Matrix: (Units=1/GPa)
#
#
# Indices 1 2 3 4 5 6 
#
# 1 0.015478 -0.005411 -0.006382 0.000000 0.000000 0.000000
# 2 -0.005411 0.013318 -0.005166 0.000000 0.000000 0.000000
# 3 -0.006382 -0.005166 0.021285 0.000000 0.000000 0.000000
# 4 0.000000 0.000000 0.000000 0.027480 0.000000 0.000000
# 5 0.000000 0.000000 0.000000 0.000000 0.085135 0.000000
# 6 0.000000 0.000000 0.000000 0.000000 0.000000 0.040974
#
#
# Mechanical properties :
#
#
# Convention : Reuss Voigt Hill
#
# Bulk Modulus (GPa) = 61.87331 66.77413 64.32372
# Shear Modulus (GPa) = 20.57810 23.93629 22.25720
#
# Velocity S-wave (km/s) = 3.42194 3.69061 3.55881
# Velocity P-wave (km/s) = 7.12889 7.49385 7.31365
#
# Compressibility (1/GPa) = 0.01616206
#
# Stress axis : x y z
#
# Youngs Moduli (GPa) = 64.60903 75.08487 46.98192
#
# Poissons Ratio (x) = 0.40632 0.29985
# Poissons Ratio (y) = 0.34963 0.24269
# Poissons Ratio (z) = 0.41235 0.38786
#
# Static dielectric constant tensor:
#      x y z
#    x 1.594250 0.000000 0.000000 
#    y 0.000000 1.625670 0.000000 
#    z 0.000000 0.000000 1.588450 
# 
# From -- ./inp_files/7001.got.cif
#   From: 2010.05.17/outbox.cif.g08.bks.cpg/sg49_4_cif.got.tgz:7001.got - 2010.06.03 21:02:19.
