data_PCOD9392469
_publ_section_title
;
Structure prediction by ZEFSAII (Michael W. Deem and Ramdas Pophale) SiO2 
 PCOD9392469
Probable space group: P C C M
;
_chemical_formula_sum "Si O2"
_cell_formula_units_Z 54
_cell_length_a 15.242756
_cell_length_b 11.963435
_cell_length_c 14.169463
_cell_angle_alpha 90.000000
_cell_angle_beta 90.000000
_cell_angle_gamma 90.000000
_cell_volume 2583.882636
_symmetry_space_group_name_H-M "P C C M"
_symmetry_group_IT_number 49
_symmetry_cell_setting 'orthorhombic'
loop_
_space_group_symop_operation_xyz
x,y,z
-x,-y,z
x,-y,1/2-z
-x,y,1/2-z
-x,-y,-z
x,y,-z
-x,y,1/2+z
x,-y,1/2+z
loop_
_atom_site_type_symbol
_atom_site_label
_atom_site_fract_x
_atom_site_fract_y
_atom_site_fract_z
Si Si1 0.171866 0.758454 0.108642
Si Si2 0.000000 0.000000 0.750000
Si Si3 0.901702 0.479530 0.114321
Si Si4 0.653887 0.759801 0.268505
Si Si5 0.586649 0.553377 0.353759
Si Si6 0.306532 0.000000 0.250000
Si Si7 0.856304 0.988064 0.889537
Si Si8 0.732998 0.608113 0.106427
O O1 0.119507 0.648701 0.136033
O O2 0.255902 0.763271 0.173805
O O3 0.124664 0.878180 0.113142
O O4 0.200038 0.745019 0.000000
O O5 0.931761 0.062230 0.678303
O O6 0.826418 0.566237 0.146930
O O7 0.000000 0.500000 0.145439
O O8 0.898849 0.490176 0.000000
O O9 0.588316 0.684734 0.331750
O O10 0.680269 0.694378 0.172521
O O11 0.634289 0.889625 0.256620
O O12 0.500000 0.500000 0.398078
O O13 0.743327 0.347672 0.500000
O O14 0.674823 0.505468 0.398677
O O15 0.238352 0.022258 0.162223
O O16 0.856726 0.953137 0.000000
O O17 0.590329 0.500000 0.250000
#
# Coordination Sequence:
#
# PCOD9392469 Si02
#       8
#     8   2   8   8   8   4   8   8
#     4   9  17  32  52  71 101 146 189 235 287 340
#     4  10  18  32  48  70  98 138 202 262 302 348
#     4   9  17  31  48  73 107 144 188 229 279 349
#     4  10  19  35  57  81 115 145 186 236 286 339
#     4   9  18  33  57  83 110 143 182 227 285 349
#     4   9  20  35  54  81 106 147 196 236 277 357
#     4   9  18  33  51  71 102 145 195 250 297 340
#     4  10  20  34  54  81 116 148 182 235 290 342
#
# _framework density 20.898782000000001
#
# number of rings (size 3 to 8) (size 9 to 14) (size 15 to 20)
#    0.000    2.667    1.481    0.222    0.000    0.889 
#    8.000    0.741    0.000    7.111    0.000    1.037 
#    0.000    0.000    0.000    0.000    0.000    0.000 
#
# Total GULP energy -300763.515506 kJ/mol
# GULP energy per Si atom -5569.694732 kJ/mol
# Density = 2.085122 g / cm^3
# Si number density = 20.898782 Si / 1000 Ang^3
#
#
#
# Elastic Constant Matrix: (Units=GPa)
#
#
# Indices 1 2 3 4 5 6 
#
# 1 59.7989 21.6803 8.8859 0.0000 0.0000 0.0000
# 2 21.6803 124.1801 11.9271 0.0000 0.0000 0.0000
# 3 8.8859 11.9271 109.5689 0.0000 0.0000 0.0000
# 4 0.0000 0.0000 0.0000 9.0556 0.0000 0.0000
# 5 0.0000 0.0000 0.0000 0.0000 10.9093 0.0000
# 6 0.0000 0.0000 0.0000 0.0000 0.0000 19.0938
#
#
#
# Elastic Compliance Matrix: (Units=1/GPa)
#
#
# Indices 1 2 3 4 5 6 
#
# 1 0.017990 -0.003032 -0.001129 0.000000 0.000000 0.000000
# 2 -0.003032 0.008649 -0.000696 0.000000 0.000000 0.000000
# 3 -0.001129 -0.000696 0.009294 0.000000 0.000000 0.000000
# 4 0.000000 0.000000 0.000000 0.110428 0.000000 0.000000
# 5 0.000000 0.000000 0.000000 0.000000 0.091665 0.000000
# 6 0.000000 0.000000 0.000000 0.000000 0.000000 0.052373
#
#
# Mechanical properties :
#
#
# Convention : Reuss Voigt Hill
#
# Bulk Modulus (GPa) = 38.13995 42.05937 40.09966
# Shear Modulus (GPa) = 16.18897 24.54873 20.36885
#
# Velocity S-wave (km/s) = 2.78625 3.43103 3.12531
# Velocity P-wave (km/s) = 5.35167 5.98874 5.67914
#
# Compressibility (1/GPa) = 0.02621923
#
# Stress axis : x y z
#
# Youngs Moduli (GPa) = 55.58687 115.61971 107.59694
#
# Poissons Ratio (x) = 0.35060 0.12146
# Poissons Ratio (y) = 0.16856 0.07484
# Poissons Ratio (z) = 0.06275 0.08042
#
# Static dielectric constant tensor:
#      x y z
#    x 1.795940 0.000000 0.000000 
#    y 0.000000 1.822850 0.000000 
#    z 0.000000 0.000000 1.805330 
# 
# From -- ./inp_files/13617.got.cif
#   From: 2010.05.17/outbox.cif.g08.bks.cpg/sg49_7_cif.got.tgz:13617.got - 2010.06.03 21:02:19.
