data_PCOD9392040
_publ_section_title
;
Structure prediction by ZEFSAII (Michael W. Deem and Ramdas Pophale) SiO2 
 PCOD9392040
Probable space group: P C C M
;
_chemical_formula_sum "Si O2"
_cell_formula_units_Z 48
_cell_length_a 32.156783
_cell_length_b 9.198472
_cell_length_c 8.561756
_cell_angle_alpha 90.000000
_cell_angle_beta 90.000000
_cell_angle_gamma 90.000000
_cell_volume 2532.509787
_symmetry_space_group_name_H-M "P C C M"
_symmetry_group_IT_number 49
_symmetry_cell_setting 'orthorhombic'
loop_
_space_group_symop_operation_xyz
x,y,z
-x,-y,z
x,-y,1/2-z
-x,y,1/2-z
-x,-y,-z
x,y,-z
-x,y,1/2+z
x,-y,1/2+z
loop_
_atom_site_type_symbol
_atom_site_label
_atom_site_fract_x
_atom_site_fract_y
_atom_site_fract_z
Si Si1 0.203805 0.836466 0.687158
Si Si2 0.124085 0.663246 0.812890
Si Si3 0.456897 0.333312 0.313357
Si Si4 0.716517 0.334763 0.187027
Si Si5 0.045141 0.836100 0.312740
Si Si6 0.629233 0.333698 0.313220
O O1 0.204033 0.835245 0.500000
O O2 0.163199 0.753388 0.749033
O O3 0.244714 0.756293 0.751173
O O4 0.202972 0.000000 0.750000
O O5 0.127090 0.500000 0.750000
O O6 0.081879 0.736160 0.750750
O O7 0.124468 0.664351 0.000000
O O8 0.456780 0.500000 0.250000
O O9 0.500000 0.267161 0.250000
O O10 0.457053 0.336462 0.500000
O O11 0.413736 0.266960 0.250839
O O12 0.720542 0.500000 0.250000
O O13 0.672659 0.271920 0.250077
O O14 0.715755 0.338184 0.000000
O O15 0.044957 0.837821 0.500000
O O16 0.000000 0.788267 0.250000
O O17 0.051724 0.000000 0.250000
O O18 0.629604 0.500000 0.250000
O O19 0.628790 0.335472 0.500000
#
# Coordination Sequence:
#
# PCOD9392040 Si02
#       6
#     8   8   8   8   8   8
#     4  12  25  43  63  87 115 149 188 233 283 339
#     4  12  25  43  64  91 122 157 196 241 289 341
#     4  10  16  23  34  53  83 123 167 213 262 320
#     4  11  21  36  56  81 110 145 184 229 279 335
#     4  11  22  40  64  93 125 163 203 245 290 341
#     4  10  17  27  42  64  93 130 172 218 268 325
#
# _framework density 18.953531999999999
#
# number of rings (size 3 to 8) (size 9 to 14) (size 15 to 20)
#    0.000    1.000    0.000   13.000    0.000    0.333 
#    0.000    1.667    0.000    0.000    0.000    0.000 
#    0.000    0.667    0.000    6.667    0.000    6.500 
#
# Total GULP energy -268339.255588 kJ/mol
# GULP energy per Si atom -5590.401158 kJ/mol
# Density = 1.891039 g / cm^3
# Si number density = 18.953532 Si / 1000 Ang^3
#
#
#
# Elastic Constant Matrix: (Units=GPa)
#
#
# Indices 1 2 3 4 5 6 
#
# 1 223.8046 89.6777 101.6090 0.0000 0.0000 0.0000
# 2 89.6777 77.5710 52.3301 0.0000 0.0000 0.0000
# 3 101.6090 52.3301 256.4993 0.0000 0.0000 0.0000
# 4 0.0000 0.0000 0.0000 26.3752 0.0000 0.0000
# 5 0.0000 0.0000 0.0000 0.0000 41.2974 0.0000
# 6 0.0000 0.0000 0.0000 0.0000 0.0000 -69.3716
#
#
#
# Elastic Compliance Matrix: (Units=1/GPa)
#
#
# Indices 1 2 3 4 5 6 
#
# 1 0.008890 -0.009163 -0.001652 0.000000 0.000000 0.000000
# 2 -0.009163 0.024393 -0.001347 0.000000 0.000000 0.000000
# 3 -0.001652 -0.001347 0.004828 0.000000 0.000000 0.000000
# 4 0.000000 0.000000 0.000000 0.037914 0.000000 0.000000
# 5 0.000000 0.000000 0.000000 0.000000 0.024215 0.000000
# 6 0.000000 0.000000 0.000000 0.000000 0.000000 -0.014415
#
#
# Mechanical properties :
#
#
# Convention : Reuss Voigt Hill
#
# Bulk Modulus (GPa) = 72.53237 116.12316 94.32777
# Shear Modulus (GPa) = 43.57565 20.61074 32.09319
#
# Velocity S-wave (km/s) = 4.80007 3.30121 4.11938
# Velocity P-wave (km/s) = 8.31099 8.71383 8.51479
#
# Compressibility (1/GPa) = 0.01378695
#
# Stress axis : x y z
#
# Youngs Moduli (GPa) = 112.48971 40.99610 207.12761
#
# Poissons Ratio (x) = 0.37563 0.34222
# Poissons Ratio (y) = 1.03069 0.27897
# Poissons Ratio (z) = 0.18586 0.05522
#
# Static dielectric constant tensor:
#      x y z
#    x 1.698070 0.000000 0.000000 
#    y 0.000000 1.458890 0.000000 
#    z 0.000000 0.000000 1.625830 
# 
# From -- ./inp_files/6891.got.cif
#   From: 2010.05.17/outbox.cif.g08.bks.cpg/sg49_4_cif.got.tgz:6891.got - 2010.06.03 21:02:19.
