data_PCOD9392436
_publ_section_title
;
Structure prediction by ZEFSAII (Michael W. Deem and Ramdas Pophale) SiO2 
 PCOD9392436
Probable space group: P C C M
;
_chemical_formula_sum "Si O2"
_cell_formula_units_Z 56
_cell_length_a 16.019142
_cell_length_b 10.346819
_cell_length_c 14.892530
_cell_angle_alpha 90.000000
_cell_angle_beta 90.000000
_cell_angle_gamma 90.000000
_cell_volume 2468.394595
_symmetry_space_group_name_H-M "P C C M"
_symmetry_group_IT_number 49
_symmetry_cell_setting 'orthorhombic'
loop_
_space_group_symop_operation_xyz
x,y,z
-x,-y,z
x,-y,1/2-z
-x,y,1/2-z
-x,-y,-z
x,y,-z
-x,y,1/2+z
x,-y,1/2+z
loop_
_atom_site_type_symbol
_atom_site_label
_atom_site_fract_x
_atom_site_fract_y
_atom_site_fract_z
Si Si1 0.187389 0.731658 0.860029
Si Si2 0.276549 0.481323 0.145718
Si Si3 0.546279 0.637020 0.895587
Si Si4 0.004076 0.351015 0.359245
Si Si5 0.257825 0.990863 0.145622
Si Si6 0.562257 0.120611 0.895783
Si Si7 0.171833 0.250388 0.140226
O O1 0.258384 0.626688 0.888362
O O2 0.095013 0.694087 0.887985
O O3 0.208220 0.872367 0.895460
O O4 0.182720 0.741520 0.749792
O O5 0.258452 0.500000 0.250000
O O6 0.363564 0.403004 0.142076
O O7 0.210151 0.383850 0.105135
O O8 0.500000 0.500000 0.890747
O O9 0.486971 0.752409 0.858440
O O10 0.560607 0.671924 0.000000
O O11 0.000000 0.500000 0.388484
O O12 0.000000 0.353297 0.250000
O O13 0.925847 0.259389 0.383898
O O14 0.352861 0.938468 0.143728
O O15 0.235435 0.000000 0.250000
O O16 0.227872 0.129078 0.108819
O O17 0.500000 0.000000 0.891733
O O18 0.580997 0.151085 0.000000
#
# Coordination Sequence:
#
# PCOD9392436 Si02
#       7
#     8   8   8   8   8   8   8
#     4   9  17  28  46  72 105 136 165 204 253 307
#     4  10  18  31  50  74 100 129 168 212 257 309
#     4  10  21  36  53  74 100 131 173 220 260 306
#     4   9  14  25  45  71 102 138 169 199 246 304
#     4  10  20  33  48  76 108 131 162 215 267 305
#     4  10  21  38  57  74  98 137 181 216 254 317
#     4   9  17  28  46  72 103 134 168 206 249 303
#
# _framework density 22.686810999999999
#
# number of rings (size 3 to 8) (size 9 to 14) (size 15 to 20)
#    0.000    2.429    1.429    1.714    0.000    1.143 
#    0.000    4.286    0.000    0.000    0.000    6.000 
#    0.000    0.000    0.000    0.000    0.000    0.000 
#
# Total GULP energy -311960.560316 kJ/mol
# GULP energy per Si atom -5570.724291 kJ/mol
# Density = 2.263518 g / cm^3
# Si number density = 22.686811 Si / 1000 Ang^3
#
#
#
# Elastic Constant Matrix: (Units=GPa)
#
#
# Indices 1 2 3 4 5 6 
#
# 1 107.3914 78.6008 -6.6564 0.0000 0.0000 0.0000
# 2 78.6008 169.9563 22.8803 0.0000 0.0000 0.0000
# 3 -6.6564 22.8803 54.7547 0.0000 0.0000 0.0000
# 4 0.0000 0.0000 0.0000 -21.7912 0.0000 0.0000
# 5 0.0000 0.0000 0.0000 0.0000 26.0511 0.0000
# 6 0.0000 0.0000 0.0000 0.0000 0.0000 44.8007
#
#
#
# Elastic Compliance Matrix: (Units=1/GPa)
#
#
# Indices 1 2 3 4 5 6 
#
# 1 0.015316 -0.007771 0.005109 0.000000 0.000000 0.000000
# 2 -0.007771 0.010178 -0.005198 0.000000 0.000000 0.000000
# 3 0.005109 -0.005198 0.021056 0.000000 0.000000 0.000000
# 4 0.000000 0.000000 0.000000 -0.045890 0.000000 0.000000
# 5 0.000000 0.000000 0.000000 0.000000 0.038386 0.000000
# 6 0.000000 0.000000 0.000000 0.000000 0.000000 0.022321
#
#
# Mechanical properties :
#
#
# Convention : Reuss Voigt Hill
#
# Bulk Modulus (GPa) = 32.43477 57.97241 45.20359
# Shear Modulus (GPa) = 57.23216 25.63064 41.43140
#
# Velocity S-wave (km/s) = 5.02810 3.36484 4.27808
# Velocity P-wave (km/s) = 6.93087 6.38005 6.66115
#
# Compressibility (1/GPa) = 0.03083111
#
# Stress axis : x y z
#
# Youngs Moduli (GPa) = 65.28999 98.25483 47.49164
#
# Poissons Ratio (x) = 0.76356 -0.24265
# Poissons Ratio (y) = 0.50739 0.24684
# Poissons Ratio (z) = -0.33359 0.51069
#
# Static dielectric constant tensor:
#      x y z
#    x 1.668070 0.000000 0.000000 
#    y 0.000000 1.853050 0.000000 
#    z 0.000000 0.000000 1.897200 
# 
# From -- ./inp_files/20859.got.cif
#   From: 2010.05.17/outbox.cif.g08.bks.cpg/sg49_11_cif.got.tgz:20859.got - 2010.06.03 21:02:19.
