data_PCOD9392623
_publ_section_title
;
Structure prediction by ZEFSAII (Michael W. Deem and Ramdas Pophale) SiO2 
 PCOD9392623
Probable space group: P C C M
;
_chemical_formula_sum "Si O2"
_cell_formula_units_Z 48
_cell_length_a 24.814641
_cell_length_b 13.934830
_cell_length_c 8.709323
_cell_angle_alpha 90.000000
_cell_angle_beta 90.000000
_cell_angle_gamma 90.000000
_cell_volume 3011.577673
_symmetry_space_group_name_H-M "P C C M"
_symmetry_group_IT_number 49
_symmetry_cell_setting 'orthorhombic'
loop_
_space_group_symop_operation_xyz
x,y,z
-x,-y,z
x,-y,1/2-z
-x,y,1/2-z
-x,-y,-z
x,y,-z
-x,y,1/2+z
x,-y,1/2+z
loop_
_atom_site_type_symbol
_atom_site_label
_atom_site_fract_x
_atom_site_fract_y
_atom_site_fract_z
Si Si1 0.113820 0.395972 0.316269
Si Si2 0.057743 0.790638 0.315381
Si Si3 0.834260 0.102951 0.316172
Si Si4 0.326239 0.608157 0.184392
Si Si5 0.219929 0.699528 0.315343
Si Si6 0.554316 0.608104 0.316796
O O1 0.099695 0.500000 0.250000
O O2 0.112186 0.396702 0.500000
O O3 0.075145 0.312887 0.250813
O O4 0.173741 0.367328 0.258480
O O5 0.056411 0.785220 0.500000
O O6 0.105526 0.863547 0.269590
O O7 0.000000 0.818806 0.250000
O O8 0.833638 0.097072 0.500000
O O9 0.795519 0.191289 0.272133
O O10 0.820129 0.000000 0.250000
O O11 0.322539 0.500000 0.250000
O O12 0.278104 0.668695 0.256383
O O13 0.386302 0.647787 0.221165
O O14 0.320981 0.604270 0.000000
O O15 0.216475 0.690571 0.500000
O O16 0.555554 0.500000 0.250000
O O17 0.500000 0.654833 0.250000
O O18 0.549438 0.603114 0.500000
#
# Coordination Sequence:
#
# PCOD9392623 Si02
#       6
#     8   8   8   8   8   8
#     4  11  21  34  51  70  94 126 157 190 229 270
#     4  10  21  37  53  74  98 121 152 188 224 269
#     4   9  20  36  54  73  94 118 147 184 230 279
#     4  10  19  29  43  66  94 128 164 198 232 271
#     4  10  20  34  49  69  95 122 154 193 231 275
#     4   9  16  25  38  57  85 121 162 198 231 266
#
# _framework density 15.938489000000001
#
# number of rings (size 3 to 8) (size 9 to 14) (size 15 to 20)
#    0.000    2.167    0.000    5.500    0.000    6.667 
#    0.000    3.333    0.000    0.000    0.000    0.000 
#    0.000    0.667    0.000    7.333    0.000    5.333 
#
# Total GULP energy -267742.787595 kJ/mol
# GULP energy per Si atom -5577.974742 kJ/mol
# Density = 1.590221 g / cm^3
# Si number density = 15.938489 Si / 1000 Ang^3
#
#
#
# Elastic Constant Matrix: (Units=GPa)
#
#
# Indices 1 2 3 4 5 6 
#
# 1 114.9366 20.7072 30.3638 0.0000 0.0000 0.0000
# 2 20.7072 61.4445 15.0539 0.0000 0.0000 0.0000
# 3 30.3638 15.0539 68.4150 0.0000 0.0000 0.0000
# 4 0.0000 0.0000 0.0000 22.6152 0.0000 0.0000
# 5 0.0000 0.0000 0.0000 0.0000 29.4963 0.0000
# 6 0.0000 0.0000 0.0000 0.0000 0.0000 9.0800
#
#
#
# Elastic Compliance Matrix: (Units=1/GPa)
#
#
# Indices 1 2 3 4 5 6 
#
# 1 0.010196 -0.002460 -0.003984 0.000000 0.000000 0.000000
# 2 -0.002460 0.017796 -0.002824 0.000000 0.000000 0.000000
# 3 -0.003984 -0.002824 0.017006 0.000000 0.000000 0.000000
# 4 0.000000 0.000000 0.000000 0.044218 0.000000 0.000000
# 5 0.000000 0.000000 0.000000 0.000000 0.033903 0.000000
# 6 0.000000 0.000000 0.000000 0.000000 0.000000 0.110132
#
#
# Mechanical properties :
#
#
# Convention : Reuss Voigt Hill
#
# Bulk Modulus (GPa) = 37.78969 41.89398 39.84184
# Shear Modulus (GPa) = 19.18599 24.14973 21.66786
#
# Velocity S-wave (km/s) = 3.47328 3.89676 3.69110
# Velocity P-wave (km/s) = 6.31237 6.82555 6.57397
#
# Compressibility (1/GPa) = 0.02646224
#
# Stress axis : x y z
#
# Youngs Moduli (GPa) = 98.07642 56.19313 58.80216
#
# Poissons Ratio (x) = 0.13824 0.23426
# Poissons Ratio (y) = 0.24128 0.16605
# Poissons Ratio (z) = 0.39073 0.15868
#
# Static dielectric constant tensor:
#      x y z
#    x 1.562680 0.000000 0.000000 
#    y 0.000000 1.503730 0.000000 
#    z 0.000000 0.000000 1.528960 
# 
# From -- ./inp_files/4148.got.cif
#   From: 2010.05.17/outbox.cif.g08.bks.cpg/sg49_3_cif.got.tgz:4148.got - 2010.06.03 21:02:19.
