data_PCOD9392624
_publ_section_title
;
Structure prediction by ZEFSAII (Michael W. Deem and Ramdas Pophale) SiO2 
 PCOD9392624
Probable space group: P C C M
;
_chemical_formula_sum "Si O2"
_cell_formula_units_Z 48
_cell_length_a 24.631198
_cell_length_b 13.885265
_cell_length_c 8.886455
_cell_angle_alpha 90.000000
_cell_angle_beta 90.000000
_cell_angle_gamma 90.000000
_cell_volume 3039.262797
_symmetry_space_group_name_H-M "P C C M"
_symmetry_group_IT_number 49
_symmetry_cell_setting 'orthorhombic'
loop_
_space_group_symop_operation_xyz
x,y,z
-x,-y,z
x,-y,1/2-z
-x,y,1/2-z
-x,-y,-z
x,y,-z
-x,y,1/2+z
x,-y,1/2+z
loop_
_atom_site_type_symbol
_atom_site_label
_atom_site_fract_x
_atom_site_fract_y
_atom_site_fract_z
Si Si1 0.825384 0.107038 0.819864
Si Si2 0.611156 0.895521 0.820379
Si Si3 0.053763 0.892733 0.820437
Si Si4 0.332037 0.395902 0.320126
Si Si5 0.276590 0.212546 0.179592
Si Si6 0.443533 0.289093 0.679481
O O1 0.886127 0.147390 0.788069
O O2 0.777886 0.170860 0.751024
O O3 0.821583 0.000000 0.750000
O O4 0.819553 0.099724 0.000000
O O5 0.672807 0.859561 0.788929
O O6 0.572656 0.814309 0.748957
O O7 0.602140 0.000000 0.750000
O O8 0.603697 0.898153 0.000000
O O9 0.000000 0.845059 0.750000
O O10 0.055621 0.000000 0.750000
O O11 0.047301 0.899386 0.000000
O O12 0.322439 0.500000 0.250000
O O13 0.325789 0.398110 0.500000
O O14 0.293322 0.314594 0.250030
O O15 0.393451 0.360127 0.285867
O O16 0.271456 0.220482 0.000000
O O17 0.500000 0.322163 0.750000
O O18 0.448208 0.280678 0.500000
#
# Coordination Sequence:
#
# PCOD9392624 Si02
#       6
#     8   8   8   8   8   8
#     4  10  19  29  43  66  96 130 166 201 237 277
#     4  10  20  33  49  69  94 124 157 191 228 272
#     4   9  16  25  38  57  85 123 164 202 236 271
#     4  10  21  37  56  75  96 121 149 186 233 283
#     4  10  20  33  50  71  95 123 156 195 236 280
#     4  10  21  36  53  73  96 121 151 188 227 271
#
# _framework density 15.793303
#
# number of rings (size 3 to 8) (size 9 to 14) (size 15 to 20)
#    0.000    2.167    0.000    4.000    0.000    8.000 
#    0.000    3.333    0.000    0.000    0.000    0.000 
#    0.000    0.667    0.000    7.000    0.000    3.833 
#
# Total GULP energy -267801.624735 kJ/mol
# GULP energy per Si atom -5579.200515 kJ/mol
# Density = 1.575736 g / cm^3
# Si number density = 15.793303 Si / 1000 Ang^3
#
#
#
# Elastic Constant Matrix: (Units=GPa)
#
#
# Indices 1 2 3 4 5 6 
#
# 1 121.7991 29.7943 49.5634 0.0000 0.0000 0.0000
# 2 29.7943 70.7561 26.8804 0.0000 0.0000 0.0000
# 3 49.5634 26.8804 62.0238 0.0000 0.0000 0.0000
# 4 0.0000 0.0000 0.0000 23.3690 0.0000 0.0000
# 5 0.0000 0.0000 0.0000 0.0000 29.4802 0.0000
# 6 0.0000 0.0000 0.0000 0.0000 0.0000 9.5561
#
#
#
# Elastic Compliance Matrix: (Units=1/GPa)
#
#
# Indices 1 2 3 4 5 6 
#
# 1 0.012342 -0.001736 -0.009110 0.000000 0.000000 0.000000
# 2 -0.001736 0.017163 -0.006051 0.000000 0.000000 0.000000
# 3 -0.009110 -0.006051 0.026025 0.000000 0.000000 0.000000
# 4 0.000000 0.000000 0.000000 0.042792 0.000000 0.000000
# 5 0.000000 0.000000 0.000000 0.000000 0.033921 0.000000
# 6 0.000000 0.000000 0.000000 0.000000 0.000000 0.104645
#
#
# Mechanical properties :
#
#
# Convention : Reuss Voigt Hill
#
# Bulk Modulus (GPa) = 46.00700 51.89503 48.95101
# Shear Modulus (GPa) = 17.99030 22.37045 20.18037
#
# Velocity S-wave (km/s) = 3.37873 3.76766 3.57848
# Velocity P-wave (km/s) = 6.66446 7.20120 6.93802
#
# Compressibility (1/GPa) = 0.02173582
#
# Stress axis : x y z
#
# Youngs Moduli (GPa) = 81.02345 58.26544 38.42432
#
# Poissons Ratio (x) = 0.10115 0.35005
# Poissons Ratio (y) = 0.14066 0.23250
# Poissons Ratio (z) = 0.73814 0.35256
#
# Static dielectric constant tensor:
#      x y z
#    x 1.556030 0.000000 0.000000 
#    y 0.000000 1.484780 0.000000 
#    z 0.000000 0.000000 1.521610 
# 
# From -- ./inp_files/2878.got.cif
#   From: 2010.05.17/outbox.cif.g08.bks.cpg/sg49_2_cif.got.tgz:2878.got - 2010.06.03 21:02:19.
