data_PCOD9392752
_publ_section_title
;
Structure prediction by ZEFSAII (Michael W. Deem and Ramdas Pophale) SiO2 
 PCOD9392752
Probable space group: P C C M
;
_chemical_formula_sum "Si O2"
_cell_formula_units_Z 42
_cell_length_a 20.020669
_cell_length_b 13.932099
_cell_length_c 9.357580
_cell_angle_alpha 90.000000
_cell_angle_beta 90.000000
_cell_angle_gamma 90.000000
_cell_volume 2610.109252
_symmetry_space_group_name_H-M "P C C M"
_symmetry_group_IT_number 49
_symmetry_cell_setting 'orthorhombic'
loop_
_space_group_symop_operation_xyz
x,y,z
-x,-y,z
x,-y,1/2-z
-x,y,1/2-z
-x,-y,-z
x,y,-z
-x,y,1/2+z
x,-y,1/2+z
loop_
_atom_site_type_symbol
_atom_site_label
_atom_site_fract_x
_atom_site_fract_y
_atom_site_fract_z
Si Si1 0.432876 0.258453 0.169487
Si Si2 0.693056 0.599996 0.167966
Si Si3 0.649820 0.100314 0.831397
Si Si4 0.131646 0.089208 0.662127
Si Si5 0.225570 0.246418 0.333226
Si Si6 0.000000 0.000000 0.750000
O O1 0.500000 0.289118 0.250000
O O2 0.375256 0.338812 0.184316
O O3 0.405699 0.163538 0.249431
O O4 0.443525 0.241926 0.000000
O O5 0.688108 0.500000 0.250000
O O6 0.750766 0.665780 0.237188
O O7 0.704491 0.584976 0.000000
O O8 0.717028 0.164584 0.823244
O O9 0.657882 0.000000 0.750000
O O10 0.634296 0.087144 0.000000
O O11 0.154557 0.081190 0.500000
O O12 0.158100 0.191524 0.713788
O O13 0.052238 0.068708 0.668531
O O14 0.160770 0.000000 0.750000
O O15 0.220784 0.275815 0.500000
#
# Coordination Sequence:
#
# PCOD9392752 Si02
#       6
#     8   8   8   8   8   2
#     4  10  21  36  52  71  95 123 160 200 247 299
#     4  10  21  36  54  75  97 123 157 204 252 300
#     4  10  19  31  48  69  96 128 164 203 244 288
#     4   9  17  28  45  70 104 140 171 200 233 275
#     4   9  18  32  49  71  98 131 166 204 245 287
#     4   8  18  28  46  72 112 144 176 196 234 268
#
# _framework density 16.091280000000001
#
# number of rings (size 3 to 8) (size 9 to 14) (size 15 to 20)
#    0.571    1.905    0.000    2.571    0.000    4.571 
#    0.000    3.810    0.000    0.000    0.000    0.667 
#    0.000    4.571    0.000    0.000    0.000    0.000 
#
# Total GULP energy -233831.336066 kJ/mol
# GULP energy per Si atom -5567.412763 kJ/mol
# Density = 1.605466 g / cm^3
# Si number density = 16.091280 Si / 1000 Ang^3
#
#
#
# Elastic Constant Matrix: (Units=GPa)
#
#
# Indices 1 2 3 4 5 6 
#
# 1 62.1028 21.6598 33.0555 0.0000 0.0000 0.0000
# 2 21.6598 94.2955 66.2511 0.0000 0.0000 0.0000
# 3 33.0555 66.2511 113.4082 0.0000 0.0000 0.0000
# 4 0.0000 0.0000 0.0000 31.5770 0.0000 0.0000
# 5 0.0000 0.0000 0.0000 0.0000 6.8447 0.0000
# 6 0.0000 0.0000 0.0000 0.0000 0.0000 12.6895
#
#
#
# Elastic Compliance Matrix: (Units=1/GPa)
#
#
# Indices 1 2 3 4 5 6 
#
# 1 0.019095 -0.000807 -0.005094 0.000000 0.000000 0.000000
# 2 -0.000807 0.018022 -0.010293 0.000000 0.000000 0.000000
# 3 -0.005094 -0.010293 0.016316 0.000000 0.000000 0.000000
# 4 0.000000 0.000000 0.000000 0.031669 0.000000 0.000000
# 5 0.000000 0.000000 0.000000 0.000000 0.146099 0.000000
# 6 0.000000 0.000000 0.000000 0.000000 0.000000 0.078806
#
#
# Mechanical properties :
#
#
# Convention : Reuss Voigt Hill
#
# Bulk Modulus (GPa) = 47.51867 56.85992 52.18929
# Shear Modulus (GPa) = 14.30986 20.14490 17.22738
#
# Velocity S-wave (km/s) = 2.98534 3.54208 3.27556
# Velocity P-wave (km/s) = 6.44032 7.22087 6.84174
#
# Compressibility (1/GPa) = 0.02104436
#
# Stress axis : x y z
#
# Youngs Moduli (GPa) = 52.36870 55.48754 61.29123
#
# Poissons Ratio (x) = 0.04478 0.31224
# Poissons Ratio (y) = 0.04226 0.63087
# Poissons Ratio (z) = 0.26679 0.57113
#
# Static dielectric constant tensor:
#      x y z
#    x 1.562940 0.000000 0.000000 
#    y 0.000000 1.523830 0.000000 
#    z 0.000000 0.000000 1.546000 
# 
# From -- ./inp_files/2833.got.cif
#   From: 2010.05.17/outbox.cif.g08.bks.cpg/sg49_2_cif.got.tgz:2833.got - 2010.06.03 21:02:19.
