data_PCOD9392935
_publ_section_title
;
Structure prediction by ZEFSAII (Michael W. Deem and Ramdas Pophale) SiO2 
 PCOD9392935
Probable space group: P C C M
;
_chemical_formula_sum "Si O2"
_cell_formula_units_Z 58
_cell_length_a 26.552018
_cell_length_b 15.108146
_cell_length_c 8.331697
_cell_angle_alpha 90.000000
_cell_angle_beta 90.000000
_cell_angle_gamma 90.000000
_cell_volume 3342.274953
_symmetry_space_group_name_H-M "P C C M"
_symmetry_group_IT_number 49
_symmetry_cell_setting 'orthorhombic'
loop_
_space_group_symop_operation_xyz
x,y,z
-x,-y,z
x,-y,1/2-z
-x,y,1/2-z
-x,-y,-z
x,y,-z
-x,y,1/2+z
x,-y,1/2+z
loop_
_atom_site_type_symbol
_atom_site_label
_atom_site_fract_x
_atom_site_fract_y
_atom_site_fract_z
Si Si1 0.748740 0.101320 0.807539
Si Si2 0.323413 0.594813 0.309197
Si Si3 0.555031 0.100639 0.307820
Si Si4 0.651328 0.211438 0.694536
Si Si5 0.950517 0.167319 0.308482
Si Si6 0.791604 0.593287 0.692010
Si Si7 0.000000 0.000000 0.250000
Si Si8 0.157690 0.777078 0.194171
O O1 0.700949 0.158062 0.747976
O O2 0.800261 0.150769 0.755737
O O3 0.746433 0.000000 0.750000
O O4 0.747749 0.102012 0.000000
O O5 0.343446 0.500000 0.250000
O O6 0.327119 0.594191 0.500000
O O7 0.347167 0.686653 0.248588
O O8 0.264649 0.599400 0.261614
O O9 0.500000 0.130532 0.250000
O O10 0.554999 0.100307 0.500000
O O11 0.601187 0.160820 0.250402
O O12 0.562391 0.000000 0.250000
O O13 0.651369 0.212028 0.500000
O O14 0.953886 0.147802 0.500000
O O15 0.896725 0.206013 0.268598
O O16 0.000000 0.221547 0.250000
O O17 0.040788 0.076415 0.293983
O O18 0.813782 0.500000 0.750000
O O19 0.787590 0.592104 0.500000
O O20 0.822102 0.680154 0.740148
O O21 0.153771 0.780421 0.000000
#
# Coordination Sequence:
#
# PCOD9392935 Si02
#       8
#     8   8   8   8   8   8   2   8
#     4  11  23  36  50  74 109 146 179 214 262 318
#     4  10  19  32  52  78 107 139 176 219 263 318
#     4  10  20  35  54  78 104 136 180 224 267 313
#     4  10  21  36  54  77 107 141 178 221 266 319
#     4  10  21  35  55  76 102 135 175 218 260 306
#     4  10  19  34  54  79 107 139 175 218 264 315
#     4   8  22  36  54  80 100 132 182 220 264 304
#     4  10  22  37  53  77 110 140 176 218 261 314
#
# _framework density 17.353448
#
# number of rings (size 3 to 8) (size 9 to 14) (size 15 to 20)
#    0.414    1.517    1.379    3.931    0.966    4.966 
#    0.000    0.000    0.000    0.828    0.000    5.793 
#    0.000    0.000    0.000    0.000    0.000    0.000 
#
# Total GULP energy -322933.238043 kJ/mol
# GULP energy per Si atom -5567.814449 kJ/mol
# Density = 1.731395 g / cm^3
# Si number density = 17.353448 Si / 1000 Ang^3
#
#
#
# Elastic Constant Matrix: (Units=GPa)
#
#
# Indices 1 2 3 4 5 6 
#
# 1 132.7469 76.3942 26.5218 0.0000 0.0000 0.0000
# 2 76.3942 140.9210 26.5282 0.0000 0.0000 0.0000
# 3 26.5218 26.5282 36.4601 0.0000 0.0000 0.0000
# 4 0.0000 0.0000 0.0000 17.6585 0.0000 0.0000
# 5 0.0000 0.0000 0.0000 0.0000 15.8380 0.0000
# 6 0.0000 0.0000 0.0000 0.0000 0.0000 26.7277
#
#
#
# Elastic Compliance Matrix: (Units=1/GPa)
#
#
# Indices 1 2 3 4 5 6 
#
# 1 0.011541 -0.005418 -0.004453 0.000000 0.000000 0.000000
# 2 -0.005418 0.010766 -0.003892 0.000000 0.000000 0.000000
# 3 -0.004453 -0.003892 0.033498 0.000000 0.000000 0.000000
# 4 0.000000 0.000000 0.000000 0.056630 0.000000 0.000000
# 5 0.000000 0.000000 0.000000 0.000000 0.063139 0.000000
# 6 0.000000 0.000000 0.000000 0.000000 0.000000 0.037414
#
#
# Mechanical properties :
#
#
# Convention : Reuss Voigt Hill
#
# Bulk Modulus (GPa) = 35.36193 63.22404 49.29298
# Shear Modulus (GPa) = 20.00472 24.09043 22.04757
#
# Velocity S-wave (km/s) = 3.39895 3.72993 3.56828
# Velocity P-wave (km/s) = 5.98544 7.42038 6.74120
#
# Compressibility (1/GPa) = 0.02827900
#
# Stress axis : x y z
#
# Youngs Moduli (GPa) = 86.64880 92.88460 29.85237
#
# Poissons Ratio (x) = 0.50326 0.13293
# Poissons Ratio (y) = 0.46947 0.11619
# Poissons Ratio (z) = 0.38583 0.36151
#
# Static dielectric constant tensor:
#      x y z
#    x 1.590510 0.000000 0.000000 
#    y 0.000000 1.604440 0.000000 
#    z 0.000000 0.000000 1.627070 
# 
# From -- ./inp_files/6442.got.cif
#   From: 2010.05.17/outbox.cif.g08.bks.cpg/sg49_4_cif.got.tgz:6442.got - 2010.06.03 21:02:19.
