data_PCOD9392545
_publ_section_title
;
Structure prediction by ZEFSAII (Michael W. Deem and Ramdas Pophale) SiO2 
 PCOD9392545
Probable space group: P C C M
;
_chemical_formula_sum "Si O2"
_cell_formula_units_Z 18
_cell_length_a 6.992968
_cell_length_b 12.422578
_cell_length_c 8.880686
_cell_angle_alpha 90.000000
_cell_angle_beta 90.000000
_cell_angle_gamma 90.000000
_cell_volume 771.471324
_symmetry_space_group_name_H-M "P C C M"
_symmetry_group_IT_number 49
_symmetry_cell_setting 'orthorhombic'
loop_
_space_group_symop_operation_xyz
x,y,z
-x,-y,z
x,-y,1/2-z
-x,y,1/2-z
-x,-y,-z
x,y,-z
-x,y,1/2+z
x,-y,1/2+z
loop_
_atom_site_type_symbol
_atom_site_label
_atom_site_fract_x
_atom_site_fract_y
_atom_site_fract_z
Si Si1 0.298516 0.324189 0.329018
Si Si2 0.713463 0.108624 0.679718
Si Si3 0.000000 0.500000 0.250000
O O1 0.500000 0.355839 0.250000
O O2 0.340689 0.289130 0.500000
O O3 0.212985 0.223788 0.235765
O O4 0.146838 0.420308 0.332910
O O5 0.500000 0.111684 0.750000
O O6 0.712873 0.101300 0.500000
O O7 0.798736 0.000000 0.750000
#
# Coordination Sequence:
#
# PCOD9392545 Si02
#       3
#     8   8   2
#     4  11  24  43  67  96 130 169 215 266 321 381
#     4  10  18  33  60  93 128 165 207 257 316 381
#     4  12  28  44  66  92 126 172 222 272 318 374
#
# _framework density 23.332039000000002
#
# number of rings (size 3 to 8) (size 9 to 14) (size 15 to 20)
#    0.000    1.333    0.000   10.667    0.000    8.889 
#    0.000    1.111    0.000    5.333    0.000    0.000 
#    0.000    0.000    0.000    0.000    0.000    0.000 
#
# Total GULP energy -100553.178439 kJ/mol
# GULP energy per Si atom -5586.287691 kJ/mol
# Density = 2.327893 g / cm^3
# Si number density = 23.332039 Si / 1000 Ang^3
#
#
#
# Elastic Constant Matrix: (Units=GPa)
#
#
# Indices 1 2 3 4 5 6 
#
# 1 149.1611 51.2795 44.9587 0.0000 0.0000 0.0000
# 2 51.2795 181.6664 77.5404 0.0000 0.0000 0.0000
# 3 44.9587 77.5404 254.1501 0.0000 0.0000 0.0000
# 4 0.0000 0.0000 0.0000 3.0589 0.0000 0.0000
# 5 0.0000 0.0000 0.0000 0.0000 32.6287 0.0000
# 6 0.0000 0.0000 0.0000 0.0000 0.0000 -83.6579
#
#
#
# Elastic Compliance Matrix: (Units=1/GPa)
#
#
# Indices 1 2 3 4 5 6 
#
# 1 0.007560 -0.001797 -0.000789 0.000000 0.000000 0.000000
# 2 -0.001797 0.006756 -0.001743 0.000000 0.000000 0.000000
# 3 -0.000789 -0.001743 0.004606 0.000000 0.000000 0.000000
# 4 0.000000 0.000000 0.000000 0.326911 0.000000 0.000000
# 5 0.000000 0.000000 0.000000 0.000000 0.030648 0.000000
# 6 0.000000 0.000000 0.000000 0.000000 0.000000 -0.011953
#
#
# Mechanical properties :
#
#
# Convention : Reuss Voigt Hill
#
# Bulk Modulus (GPa) = 97.43774 103.61500 100.52637
# Shear Modulus (GPa) = 13.27644 17.81922 15.54783
#
# Velocity S-wave (km/s) = 2.38801 2.76655 2.58422
# Velocity P-wave (km/s) = 7.03246 7.39665 7.21685
#
# Compressibility (1/GPa) = 0.01026296
#
# Stress axis : x y z
#
# Youngs Moduli (GPa) = 132.27842 148.01699 217.10167
#
# Poissons Ratio (x) = 0.26601 0.17130
# Poissons Ratio (y) = 0.23773 0.37848
# Poissons Ratio (z) = 0.10437 0.25804
#
# Static dielectric constant tensor:
#      x y z
#    x 1.935720 0.000000 0.000000 
#    y 0.000000 1.986100 0.000000 
#    z 0.000000 0.000000 1.637780 
# 
# From -- ./inp_files/992.got.cif
#   From: 2010.05.17/outbox.cif.g08.bks.cpg/sg49_1_cif.got.tgz:992.got - 2010.06.03 21:02:19.
