data_PCOD9392928
_publ_section_title
;
Structure prediction by ZEFSAII (Michael W. Deem and Ramdas Pophale) SiO2 
 PCOD9392928
Probable space group: P C C M
;
_chemical_formula_sum "Si O2"
_cell_formula_units_Z 48
_cell_length_a 32.911135
_cell_length_b 9.630654
_cell_length_c 8.586731
_cell_angle_alpha 90.000000
_cell_angle_beta 90.000000
_cell_angle_gamma 90.000000
_cell_volume 2721.613798
_symmetry_space_group_name_H-M "P C C M"
_symmetry_group_IT_number 49
_symmetry_cell_setting 'orthorhombic'
loop_
_space_group_symop_operation_xyz
x,y,z
-x,-y,z
x,-y,1/2-z
-x,y,1/2-z
-x,-y,-z
x,y,-z
-x,y,1/2+z
x,-y,1/2+z
loop_
_atom_site_type_symbol
_atom_site_label
_atom_site_fract_x
_atom_site_fract_y
_atom_site_fract_z
Si Si1 0.541441 0.842150 0.686076
Si Si2 0.703644 0.342748 0.312886
Si Si3 0.118998 0.343092 0.811680
Si Si4 0.630952 0.156927 0.186706
Si Si5 0.792461 0.657351 0.187667
Si Si6 0.956630 0.156176 0.312650
O O1 0.500000 0.775219 0.750000
O O2 0.538767 0.846434 0.500000
O O3 0.585932 0.785627 0.730789
O O4 0.541952 0.000000 0.750000
O O5 0.700323 0.500000 0.250000
O O6 0.702127 0.346350 0.500000
O O7 0.667142 0.250250 0.250334
O O8 0.748418 0.284822 0.264059
O O9 0.115340 0.500000 0.750000
O O10 0.163547 0.284433 0.763081
O O11 0.081185 0.250019 0.760593
O O12 0.118319 0.347814 0.000000
O O13 0.634406 0.000000 0.250000
O O14 0.632740 0.152255 0.000000
O O15 0.792586 0.500000 0.250000
O O16 0.792408 0.655251 0.000000
O O17 0.957909 0.152893 0.500000
O O18 0.000000 0.208888 0.250000
O O19 0.951662 0.000000 0.250000
#
# Coordination Sequence:
#
# PCOD9392928 Si02
#       6
#     8   8   8   8   8   8
#     4   9  16  26  43  66  92 122 156 195 237 284
#     4  10  19  32  52  74  98 130 165 201 240 288
#     4   9  18  32  51  74  98 123 155 197 240 281
#     4  10  20  33  49  72 101 130 162 201 245 289
#     4   8  15  29  48  70  95 123 157 195 235 280
#     4  10  20  34  51  70  95 128 162 195 233 281
#
# _framework density 17.636595
#
# number of rings (size 3 to 8) (size 9 to 14) (size 15 to 20)
#    0.000    2.667    0.000    3.000    0.000    4.333 
#    0.000    2.500    0.000    2.500    0.000    3.500 
#    0.000    0.000    0.000    0.000    0.000    0.000 
#
# Total GULP energy -267251.470991 kJ/mol
# GULP energy per Si atom -5567.738979 kJ/mol
# Density = 1.759645 g / cm^3
# Si number density = 17.636595 Si / 1000 Ang^3
#
#
#
# Elastic Constant Matrix: (Units=GPa)
#
#
# Indices 1 2 3 4 5 6 
#
# 1 243.7361 68.6390 47.1708 0.0000 0.0000 0.0000
# 2 68.6390 38.9360 14.8844 0.0000 0.0000 0.0000
# 3 47.1708 14.8844 39.5711 0.0000 0.0000 0.0000
# 4 0.0000 0.0000 0.0000 20.2886 0.0000 0.0000
# 5 0.0000 0.0000 0.0000 0.0000 24.3427 0.0000
# 6 0.0000 0.0000 0.0000 0.0000 0.0000 30.1743
#
#
#
# Elastic Compliance Matrix: (Units=1/GPa)
#
#
# Indices 1 2 3 4 5 6 
#
# 1 0.009107 -0.013904 -0.005626 0.000000 0.000000 0.000000
# 2 -0.013904 0.051223 -0.002693 0.000000 0.000000 0.000000
# 3 -0.005626 -0.002693 0.032991 0.000000 0.000000 0.000000
# 4 0.000000 0.000000 0.000000 0.049289 0.000000 0.000000
# 5 0.000000 0.000000 0.000000 0.000000 0.041080 0.000000
# 6 0.000000 0.000000 0.000000 0.000000 0.000000 0.033141
#
#
# Mechanical properties :
#
#
# Convention : Reuss Voigt Hill
#
# Bulk Modulus (GPa) = 20.46052 64.84796 42.65424
# Shear Modulus (GPa) = 18.01350 27.73106 22.87228
#
# Velocity S-wave (km/s) = 3.19936 3.96960 3.60511
# Velocity P-wave (km/s) = 5.02734 7.60652 6.44722
#
# Compressibility (1/GPa) = 0.04887462
#
# Stress axis : x y z
#
# Youngs Moduli (GPa) = 109.80330 19.52230 30.31140
#
# Poissons Ratio (x) = 0.27144 0.17054
# Poissons Ratio (y) = 1.52670 0.08163
# Poissons Ratio (z) = 0.61779 0.05258
#
# Static dielectric constant tensor:
#      x y z
#    x 1.680120 0.000000 0.000000 
#    y 0.000000 1.550760 0.000000 
#    z 0.000000 0.000000 1.598510 
# 
# From -- ./inp_files/6877.got.cif
#   From: 2010.05.17/outbox.cif.g08.bks.cpg/sg49_4_cif.got.tgz:6877.got - 2010.06.03 21:02:19.
