data_PCOD9392535
_publ_section_title
;
Structure prediction by ZEFSAII (Michael W. Deem and Ramdas Pophale) SiO2 
 PCOD9392535
Probable space group: P C C M
;
_chemical_formula_sum "Si O2"
_cell_formula_units_Z 64
_cell_length_a 9.896798
_cell_length_b 19.837267
_cell_length_c 17.863524
_cell_angle_alpha 90.000000
_cell_angle_beta 90.000000
_cell_angle_gamma 90.000000
_cell_volume 3507.063930
_symmetry_space_group_name_H-M "P C C M"
_symmetry_group_IT_number 49
_symmetry_cell_setting 'orthorhombic'
loop_
_space_group_symop_operation_xyz
x,y,z
-x,-y,z
x,-y,1/2-z
-x,y,1/2-z
-x,-y,-z
x,y,-z
-x,y,1/2+z
x,-y,1/2+z
loop_
_atom_site_type_symbol
_atom_site_label
_atom_site_fract_x
_atom_site_fract_y
_atom_site_fract_z
Si Si1 0.638790 0.040359 0.082015
Si Si2 0.557703 0.160098 0.834000
Si Si3 0.342301 0.322029 0.158551
Si Si4 0.272474 0.819308 0.410056
Si Si5 0.346183 0.305187 0.336964
Si Si6 0.895315 0.944944 0.913582
Si Si7 0.858495 0.409162 0.910086
Si Si8 0.167778 0.436842 0.090199
O O1 0.641670 0.093691 0.148371
O O2 0.500000 0.000000 0.086379
O O3 0.757223 0.986790 0.084732
O O4 0.645366 0.074826 0.000000
O O5 0.500000 0.165683 0.750000
O O6 0.422506 0.156858 0.884915
O O7 0.649991 0.224913 0.850848
O O8 0.269898 0.256332 0.122788
O O9 0.334823 0.315520 0.247895
O O10 0.501254 0.324325 0.138454
O O11 0.273088 0.388746 0.129182
O O12 0.266360 0.817882 0.500000
O O13 0.154857 0.871668 0.383665
O O14 0.232172 0.350462 0.375219
O O15 0.942399 0.932995 0.000000
O O16 0.000000 0.000000 0.879484
O O17 0.811924 0.484903 0.888883
O O18 0.017256 0.410700 0.889695
O O19 0.850772 0.403877 0.000000
O O20 0.177944 0.432983 0.000000
#
# Coordination Sequence:
#
# PCOD9392535 Si02
#       8
#     8   8   8   8   8   8   8   8
#     4  10  19  33  56  84 104 136 189 231 270 333
#     4  11  20  36  54  79 112 144 181 229 282 330
#     4  10  20  36  56  83 116 148 188 231 281 341
#     4  10  18  33  58  80 106 148 188 226 278 334
#     4  10  21  37  54  81 117 149 184 233 283 335
#     4   9  18  34  54  79 112 141 177 232 283 328
#     4   9  20  38  59  83 113 146 186 236 281 330
#     4   9  19  38  60  83 112 147 189 232 276 337
#
# _framework density 18.248882999999999
#
# number of rings (size 3 to 8) (size 9 to 14) (size 15 to 20)
#    0.000    2.250    3.750    1.500    0.000    4.750 
#    2.250    3.750    0.000    1.500    0.000    0.000 
#    0.000    0.000    0.000    0.000    0.000    0.000 
#
# Total GULP energy -356450.482374 kJ/mol
# GULP energy per Si atom -5569.538787 kJ/mol
# Density = 1.820735 g / cm^3
# Si number density = 18.248883 Si / 1000 Ang^3
#
#
#
# Elastic Constant Matrix: (Units=GPa)
#
#
# Indices 1 2 3 4 5 6 
#
# 1 48.2188 31.2429 22.2839 0.0000 0.0000 0.0000
# 2 31.2429 90.0222 37.9749 0.0000 0.0000 0.0000
# 3 22.2839 37.9749 33.5479 0.0000 0.0000 0.0000
# 4 0.0000 0.0000 0.0000 23.2111 0.0000 0.0000
# 5 0.0000 0.0000 0.0000 0.0000 14.7643 0.0000
# 6 0.0000 0.0000 0.0000 0.0000 0.0000 38.9161
#
#
#
# Elastic Compliance Matrix: (Units=1/GPa)
#
#
# Indices 1 2 3 4 5 6 
#
# 1 0.030631 -0.003919 -0.015910 0.000000 0.000000 0.000000
# 2 -0.003919 0.021762 -0.022030 0.000000 0.000000 0.000000
# 3 -0.015910 -0.022030 0.065313 0.000000 0.000000 0.000000
# 4 0.000000 0.000000 0.000000 0.043083 0.000000 0.000000
# 5 0.000000 0.000000 0.000000 0.000000 0.067731 0.000000
# 6 0.000000 0.000000 0.000000 0.000000 0.000000 0.025696
#
#
# Mechanical properties :
#
#
# Convention : Reuss Voigt Hill
#
# Bulk Modulus (GPa) = 29.42255 39.42137 34.42196
# Shear Modulus (GPa) = 14.31583 20.73077 17.52330
#
# Velocity S-wave (km/s) = 2.80389 3.37412 3.10214
# Velocity P-wave (km/s) = 5.16143 6.06865 5.63333
#
# Compressibility (1/GPa) = 0.03398753
#
# Stress axis : x y z
#
# Youngs Moduli (GPa) = 32.64684 45.95209 15.31082
#
# Poissons Ratio (x) = 0.18010 0.24359
# Poissons Ratio (y) = 0.12795 0.33730
# Poissons Ratio (z) = 0.51940 1.01233
#
# Static dielectric constant tensor:
#      x y z
#    x 1.624260 0.000000 0.000000 
#    y 0.000000 1.646300 0.000000 
#    z 0.000000 0.000000 1.636490 
# 
# From -- ./inp_files/16556.got.cif
#   From: 2010.05.17/outbox.cif.g08.bks.cpg/sg49_9_cif.got.tgz:16556.got - 2010.06.03 21:02:19.
