data_PCOD9392844
_publ_section_title
;
Structure prediction by ZEFSAII (Michael W. Deem and Ramdas Pophale) SiO2 
 PCOD9392844
Probable space group: P C C M
;
_chemical_formula_sum "Si O2"
_cell_formula_units_Z 64
_cell_length_a 32.055163
_cell_length_b 14.697096
_cell_length_c 8.753662
_cell_angle_alpha 90.000000
_cell_angle_beta 90.000000
_cell_angle_gamma 90.000000
_cell_volume 4124.006053
_symmetry_space_group_name_H-M "P C C M"
_symmetry_group_IT_number 49
_symmetry_cell_setting 'orthorhombic'
loop_
_space_group_symop_operation_xyz
x,y,z
-x,-y,z
x,-y,1/2-z
-x,y,1/2-z
-x,-y,-z
x,y,-z
-x,y,1/2+z
x,-y,1/2+z
loop_
_atom_site_type_symbol
_atom_site_label
_atom_site_fract_x
_atom_site_fract_y
_atom_site_fract_z
Si Si1 0.865729 0.898290 0.684059
Si Si2 0.624606 0.219405 0.815879
Si Si3 0.754442 0.597476 0.817215
Si Si4 0.343117 0.597211 0.682515
Si Si5 0.545037 0.899938 0.683681
Si Si6 0.295062 0.101090 0.315825
Si Si7 0.041967 0.102369 0.317227
Si Si8 0.786076 0.218156 0.815331
O O1 0.864039 0.905932 0.500000
O O2 0.912031 0.860999 0.723188
O O3 0.828210 0.833151 0.733451
O O4 0.860842 0.000000 0.750000
O O5 0.630767 0.318446 0.745135
O O6 0.581670 0.169589 0.774084
O O7 0.663707 0.156373 0.767805
O O8 0.626095 0.227023 0.000000
O O9 0.767402 0.500000 0.750000
O O10 0.705631 0.611409 0.772242
O O11 0.780225 0.682041 0.753170
O O12 0.756558 0.594913 0.000000
O O13 0.356191 0.500000 0.750000
O O14 0.345046 0.594087 0.500000
O O15 0.500000 0.873191 0.750000
O O16 0.542699 0.905940 0.500000
O O17 0.554721 0.000000 0.750000
O O18 0.295295 0.095548 0.500000
O O19 0.253836 0.156975 0.269753
O O20 0.294751 0.000000 0.250000
O O21 0.038249 0.098378 0.500000
O O22 0.000000 0.146682 0.250000
O O23 0.042899 0.000000 0.250000
O O24 0.786009 0.224669 0.000000
#
# Coordination Sequence:
#
# PCOD9392844 Si02
#       8
#     8   8   8   8   8   8   8   8
#     4   9  18  29  42  62  89 124 161 195 233 276
#     4  10  20  34  51  73  98 126 159 196 235 276
#     4  10  20  33  50  71  92 120 156 195 235 276
#     4  10  20  33  52  75  98 124 155 194 236 280
#     4  10  20  34  53  75 101 130 161 197 236 278
#     4  10  20  31  45  65  93 126 158 191 226 266
#     4   9  15  24  38  57  81 111 152 196 236 275
#     4  10  19  32  47  64  92 127 157 191 232 274
#
# _framework density 15.518891
#
# number of rings (size 3 to 8) (size 9 to 14) (size 15 to 20)
#    0.000    2.250    1.250    3.000    0.000    4.000 
#    0.000    0.000    0.000    0.375    0.000    2.625 
#    0.000    0.500    0.000    5.750    0.000    1.750 
#
# Total GULP energy -356920.325375 kJ/mol
# GULP energy per Si atom -5576.880084 kJ/mol
# Density = 1.548357 g / cm^3
# Si number density = 15.518891 Si / 1000 Ang^3
#
#
#
# Elastic Constant Matrix: (Units=GPa)
#
#
# Indices 1 2 3 4 5 6 
#
# 1 137.7162 85.1208 39.7060 0.0000 0.0000 0.0000
# 2 85.1208 126.8169 34.0921 0.0000 0.0000 0.0000
# 3 39.7060 34.0921 28.2144 0.0000 0.0000 0.0000
# 4 0.0000 0.0000 0.0000 28.7837 0.0000 0.0000
# 5 0.0000 0.0000 0.0000 0.0000 16.4207 0.0000
# 6 0.0000 0.0000 0.0000 0.0000 0.0000 8.4075
#
#
#
# Elastic Compliance Matrix: (Units=1/GPa)
#
#
# Indices 1 2 3 4 5 6 
#
# 1 0.015215 -0.006600 -0.013437 0.000000 0.000000 0.000000
# 2 -0.006600 0.014542 -0.008283 0.000000 0.000000 0.000000
# 3 -0.013437 -0.008283 0.064361 0.000000 0.000000 0.000000
# 4 0.000000 0.000000 0.000000 0.034742 0.000000 0.000000
# 5 0.000000 0.000000 0.000000 0.000000 0.060899 0.000000
# 6 0.000000 0.000000 0.000000 0.000000 0.000000 0.118942
#
#
# Mechanical properties :
#
#
# Convention : Reuss Voigt Hill
#
# Bulk Modulus (GPa) = 26.68242 67.84282 47.26262
# Shear Modulus (GPa) = 13.23335 19.64428 16.43882
#
# Velocity S-wave (km/s) = 2.92331 3.56171 3.25819
# Velocity P-wave (km/s) = 5.35025 7.79266 6.68396
#
# Compressibility (1/GPa) = 0.03747786
#
# Stress axis : x y z
#
# Youngs Moduli (GPa) = 65.72545 68.76477 15.53737
#
# Poissons Ratio (x) = 0.45386 0.20877
# Poissons Ratio (y) = 0.43380 0.12870
# Poissons Ratio (z) = 0.88312 0.56961
#
# Static dielectric constant tensor:
#      x y z
#    x 1.541130 0.000000 0.000000 
#    y 0.000000 1.480150 0.000000 
#    z 0.000000 0.000000 1.523390 
# 
# From -- ./inp_files/7044.got.cif
#   From: 2010.05.17/outbox.cif.g08.bks.cpg/sg49_4_cif.got.tgz:7044.got - 2010.06.03 21:02:19.
