data_PCOD9392861
_publ_section_title
;
Structure prediction by ZEFSAII (Michael W. Deem and Ramdas Pophale) SiO2 
 PCOD9392861
Probable space group: P C C M
;
_chemical_formula_sum "Si O2"
_cell_formula_units_Z 64
_cell_length_a 28.921424
_cell_length_b 15.221464
_cell_length_c 8.673080
_cell_angle_alpha 90.000000
_cell_angle_beta 90.000000
_cell_angle_gamma 90.000000
_cell_volume 3818.118909
_symmetry_space_group_name_H-M "P C C M"
_symmetry_group_IT_number 49
_symmetry_cell_setting 'orthorhombic'
loop_
_space_group_symop_operation_xyz
x,y,z
-x,-y,z
x,-y,1/2-z
-x,y,1/2-z
-x,-y,-z
x,y,-z
-x,y,1/2+z
x,-y,1/2+z
loop_
_atom_site_type_symbol
_atom_site_label
_atom_site_fract_x
_atom_site_fract_y
_atom_site_fract_z
Si Si1 0.237403 0.403880 0.185129
Si Si2 0.808867 0.094591 0.685012
Si Si3 0.082657 0.092644 0.814980
Si Si4 0.951785 0.278466 0.686310
Si Si5 0.266712 0.776035 0.814879
Si Si6 0.130630 0.404768 0.814219
Si Si7 0.649345 0.098718 0.185769
Si Si8 0.546780 0.900802 0.315661
O O1 0.250023 0.500000 0.250000
O O2 0.266353 0.322348 0.249342
O O3 0.183647 0.386781 0.232514
O O4 0.239553 0.405597 0.000000
O O5 0.805120 0.095136 0.500000
O O6 0.863036 0.103980 0.726571
O O7 0.778151 0.171879 0.754036
O O8 0.793105 0.000000 0.750000
O O9 0.055446 0.178140 0.760682
O O10 0.066169 0.000000 0.750000
O O11 0.080489 0.089359 0.000000
O O12 0.952957 0.279404 0.500000
O O13 0.907094 0.333939 0.736159
O O14 0.000000 0.313743 0.750000
O O15 0.310683 0.834640 0.764573
O O16 0.265891 0.772965 0.000000
O O17 0.117975 0.500000 0.750000
O O18 0.130231 0.406887 0.000000
O O19 0.597828 0.133231 0.227146
O O20 0.655796 0.000000 0.250000
O O21 0.651020 0.091957 0.000000
O O22 0.500000 0.857924 0.250000
O O23 0.543164 0.903697 0.500000
O O24 0.547399 0.000000 0.250000
#
# Coordination Sequence:
#
# PCOD9392861 Si02
#       8
#     8   8   8   8   8   8   8   8
#     4  10  20  36  56  76  96 122 155 194 235 280
#     4  10  19  32  49  70  95 125 159 196 234 277
#     4   9  19  35  52  68  90 119 153 190 228 268
#     4  10  21  36  51  70  95 121 147 180 222 270
#     4  11  21  32  47  70  99 131 162 195 236 284
#     4   9  19  36  56  75  96 119 146 180 223 272
#     4   9  19  31  43  63  96 133 168 203 241 282
#     4   9  15  25  40  59  84 120 164 207 244 279
#
# _framework density 16.762180000000001
#
# number of rings (size 3 to 8) (size 9 to 14) (size 15 to 20)
#    0.000    2.375    0.000    3.000    0.000    7.000 
#    0.000    3.750    0.000    0.000    0.000    0.000 
#    0.000    0.500    0.000    5.750    0.000    1.750 
#
# Total GULP energy -356967.086618 kJ/mol
# GULP energy per Si atom -5577.610728 kJ/mol
# Density = 1.672403 g / cm^3
# Si number density = 16.762180 Si / 1000 Ang^3
#
#
#
# Elastic Constant Matrix: (Units=GPa)
#
#
# Indices 1 2 3 4 5 6 
#
# 1 69.0674 49.1172 19.0200 0.0000 0.0000 0.0000
# 2 49.1172 98.9651 21.7324 0.0000 0.0000 0.0000
# 3 19.0200 21.7324 26.7513 0.0000 0.0000 0.0000
# 4 0.0000 0.0000 0.0000 26.6047 0.0000 0.0000
# 5 0.0000 0.0000 0.0000 0.0000 19.6676 0.0000
# 6 0.0000 0.0000 0.0000 0.0000 0.0000 12.8395
#
#
#
# Elastic Compliance Matrix: (Units=1/GPa)
#
#
# Indices 1 2 3 4 5 6 
#
# 1 0.024035 -0.009952 -0.009004 0.000000 0.000000 0.000000
# 2 -0.009952 0.016419 -0.006263 0.000000 0.000000 0.000000
# 3 -0.009004 -0.006263 0.048871 0.000000 0.000000 0.000000
# 4 0.000000 0.000000 0.000000 0.037587 0.000000 0.000000
# 5 0.000000 0.000000 0.000000 0.000000 0.050845 0.000000
# 6 0.000000 0.000000 0.000000 0.000000 0.000000 0.077885
#
#
# Mechanical properties :
#
#
# Convention : Reuss Voigt Hill
#
# Bulk Modulus (GPa) = 25.71510 41.61366 33.66438
# Shear Modulus (GPa) = 15.67186 18.81666 17.24426
#
# Velocity S-wave (km/s) = 3.06102 3.35411 3.21091
# Velocity P-wave (km/s) = 5.27897 6.31505 5.82011
#
# Compressibility (1/GPa) = 0.03888765
#
# Stress axis : x y z
#
# Youngs Moduli (GPa) = 41.60545 60.90519 20.46185
#
# Poissons Ratio (x) = 0.60610 0.18425
# Poissons Ratio (y) = 0.41404 0.12815
# Poissons Ratio (z) = 0.37463 0.38145
#
# Static dielectric constant tensor:
#      x y z
#    x 1.597530 0.000000 0.000000 
#    y 0.000000 1.549260 0.000000 
#    z 0.000000 0.000000 1.565800 
# 
# From -- ./inp_files/7073.got.cif
#   From: 2010.05.17/outbox.cif.g08.bks.cpg/sg49_4_cif.got.tgz:7073.got - 2010.06.03 21:02:19.
