data_PCOD9392185
_publ_section_title
;
Structure prediction by ZEFSAII (Michael W. Deem and Ramdas Pophale) SiO2 
 PCOD9392185
Probable space group: P C C M
;
_chemical_formula_sum "Si O2"
_cell_formula_units_Z 64
_cell_length_a 31.902460
_cell_length_b 14.641089
_cell_length_c 8.627057
_cell_angle_alpha 90.000000
_cell_angle_beta 90.000000
_cell_angle_gamma 90.000000
_cell_volume 4029.584070
_symmetry_space_group_name_H-M "P C C M"
_symmetry_group_IT_number 49
_symmetry_cell_setting 'orthorhombic'
loop_
_space_group_symop_operation_xyz
x,y,z
-x,-y,z
x,-y,1/2-z
-x,y,1/2-z
-x,-y,-z
x,y,-z
-x,y,1/2+z
x,-y,1/2+z
loop_
_atom_site_type_symbol
_atom_site_label
_atom_site_fract_x
_atom_site_fract_y
_atom_site_fract_z
Si Si1 0.873971 0.782675 0.687129
Si Si2 0.045500 0.898354 0.813659
Si Si3 0.207260 0.102200 0.313183
Si Si4 0.368946 0.896717 0.314727
Si Si5 0.290502 0.214319 0.686327
Si Si6 0.456864 0.103908 0.685402
Si Si7 0.258042 0.400673 0.813855
Si Si8 0.160120 0.598451 0.685061
O O1 0.873015 0.778904 0.500000
O O2 0.917264 0.830638 0.733852
O O3 0.834536 0.844719 0.738690
O O4 0.866947 0.681777 0.751472
O O5 0.000000 0.870636 0.750000
O O6 0.054221 0.000000 0.750000
O O7 0.043937 0.902537 0.000000
O O8 0.206572 0.098625 0.500000
O O9 0.248657 0.158263 0.266917
O O10 0.208406 0.000000 0.250000
O O11 0.371373 0.901539 0.500000
O O12 0.330428 0.835099 0.260031
O O13 0.412852 0.858345 0.247474
O O14 0.363170 0.000000 0.250000
O O15 0.293723 0.212063 0.500000
O O16 0.284239 0.317550 0.743787
O O17 0.500000 0.146290 0.750000
O O18 0.457584 0.102310 0.500000
O O19 0.456554 0.000000 0.750000
O O20 0.270532 0.500000 0.750000
O O21 0.208991 0.386862 0.768075
O O22 0.260534 0.399928 0.000000
O O23 0.147221 0.500000 0.750000
O O24 0.158610 0.596659 0.500000
#
# Coordination Sequence:
#
# PCOD9392185 Si02
#       8
#     8   8   8   8   8   8   8   8
#     4  10  20  35  52  74 100 130 164 204 246 291
#     4  10  20  34  54  76 103 133 165 203 245 291
#     4  10  21  33  47  67  96 130 165 201 239 283
#     4  11  21  33  47  67  97 134 174 212 251 301
#     4  11  21  34  50  69  97 134 168 206 248 294
#     4  10  17  28  45  66  91 123 165 211 257 300
#     4  10  20  34  52  74  97 127 164 206 250 295
#     4  10  20  33  53  77 101 129 161 202 246 294
#
# _framework density 15.882533
#
# number of rings (size 3 to 8) (size 9 to 14) (size 15 to 20)
#    0.000    1.750    1.250    6.000    0.000    4.500 
#    0.000    0.000    0.000    0.375    0.000    2.625 
#    0.000    0.500    0.000    5.000    0.000    3.000 
#
# Total GULP energy -357286.696324 kJ/mol
# GULP energy per Si atom -5582.604630 kJ/mol
# Density = 1.584638 g / cm^3
# Si number density = 15.882533 Si / 1000 Ang^3
#
#
#
# Elastic Constant Matrix: (Units=GPa)
#
#
# Indices 1 2 3 4 5 6 
#
# 1 141.2520 79.6635 51.7184 0.0000 0.0000 0.0000
# 2 79.6635 117.0410 38.6790 0.0000 0.0000 0.0000
# 3 51.7184 38.6790 78.9768 0.0000 0.0000 0.0000
# 4 0.0000 0.0000 0.0000 28.0552 0.0000 0.0000
# 5 0.0000 0.0000 0.0000 0.0000 19.4537 0.0000
# 6 0.0000 0.0000 0.0000 0.0000 0.0000 6.6444
#
#
#
# Elastic Compliance Matrix: (Units=1/GPa)
#
#
# Indices 1 2 3 4 5 6 
#
# 1 0.012938 -0.007166 -0.004963 0.000000 0.000000 0.000000
# 2 -0.007166 0.014163 -0.002244 0.000000 0.000000 0.000000
# 3 -0.004963 -0.002244 0.017011 0.000000 0.000000 0.000000
# 4 0.000000 0.000000 0.000000 0.035644 0.000000 0.000000
# 5 0.000000 0.000000 0.000000 0.000000 0.051404 0.000000
# 6 0.000000 0.000000 0.000000 0.000000 0.000000 0.150502
#
#
# Mechanical properties :
#
#
# Convention : Reuss Voigt Hill
#
# Bulk Modulus (GPa) = 65.07640 75.26572 70.17106
# Shear Modulus (GPa) = 15.84634 21.97794 18.91214
#
# Velocity S-wave (km/s) = 3.16210 3.72396 3.45447
# Velocity P-wave (km/s) = 7.37525 8.12295 7.75811
#
# Compressibility (1/GPa) = 0.01536655
#
# Stress axis : x y z
#
# Youngs Moduli (GPa) = 77.28938 70.60568 58.78610
#
# Poissons Ratio (x) = 0.50598 0.29176
# Poissons Ratio (y) = 0.55388 0.13189
# Poissons Ratio (z) = 0.38359 0.15841
#
# Static dielectric constant tensor:
#      x y z
#    x 1.547610 0.000000 0.000000 
#    y 0.000000 1.502030 0.000000 
#    z 0.000000 0.000000 1.533680 
# 
# From -- ./inp_files/7056.got.cif
#   From: 2010.05.17/outbox.cif.g08.bks.cpg/sg49_4_cif.got.tgz:7056.got - 2010.06.03 21:02:19.
