data_PCOD9392302
_publ_section_title
;
Structure prediction by ZEFSAII (Michael W. Deem and Ramdas Pophale) SiO2 
 PCOD9392302
Probable space group: P C C M
;
_chemical_formula_sum "Si O2"
_cell_formula_units_Z 64
_cell_length_a 25.059405
_cell_length_b 18.908626
_cell_length_c 8.876937
_cell_angle_alpha 90.000000
_cell_angle_beta 90.000000
_cell_angle_gamma 90.000000
_cell_volume 4206.238214
_symmetry_space_group_name_H-M "P C C M"
_symmetry_group_IT_number 49
_symmetry_cell_setting 'orthorhombic'
loop_
_space_group_symop_operation_xyz
x,y,z
-x,-y,z
x,-y,1/2-z
-x,y,1/2-z
-x,-y,-z
x,y,-z
-x,y,1/2+z
x,-y,1/2+z
loop_
_atom_site_type_symbol
_atom_site_label
_atom_site_fract_x
_atom_site_fract_y
_atom_site_fract_z
Si Si1 0.660881 0.073075 0.321097
Si Si2 0.052475 0.203152 0.821785
Si Si3 0.386256 0.707917 0.821419
Si Si4 0.441023 0.426284 0.180050
Si Si5 0.714655 0.222595 0.320304
Si Si6 0.108536 0.076966 0.321066
Si Si7 0.831659 0.803711 0.179595
Si Si8 0.557820 0.857288 0.679802
O O1 0.655459 0.065194 0.500000
O O2 0.698833 0.140559 0.292302
O O3 0.603587 0.093477 0.250306
O O4 0.680317 0.000000 0.250000
O O5 0.061411 0.125920 0.746859
O O6 0.111661 0.236056 0.793905
O O7 0.000000 0.236757 0.750000
O O8 0.045320 0.196844 0.000000
O O9 0.406290 0.640259 0.730882
O O10 0.327184 0.730575 0.770541
O O11 0.423477 0.776396 0.788602
O O12 0.388684 0.694514 0.000000
O O13 0.420509 0.500000 0.250000
O O14 0.500000 0.416075 0.250000
O O15 0.444546 0.431444 0.000000
O O16 0.707803 0.235042 0.500000
O O17 0.776508 0.232897 0.279182
O O18 0.105240 0.073782 0.500000
O O19 0.159851 0.122608 0.267304
O O20 0.108404 0.000000 0.250000
O O21 0.829252 0.818736 0.000000
O O22 0.500000 0.870269 0.750000
O O23 0.556465 0.866652 0.500000
#
# Coordination Sequence:
#
# PCOD9392302 Si02
#       8
#     8   8   8   8   8   8   8   8
#     4  10  20  33  48  63  82 105 135 175 224 274
#     4   9  17  29  43  59  80 104 134 173 218 271
#     4  10  20  33  50  73  97 122 153 186 219 263
#     4  11  21  34  52  75 104 134 161 191 225 264
#     4   9  18  34  51  66  86 115 148 186 229 272
#     4  10  18  28  40  55  75 100 132 171 218 270
#     4   8  17  31  44  59  80 104 135 174 216 263
#     4  10  20  33  49  67  87 109 139 175 216 263
#
# _framework density 15.215496
#
# number of rings (size 3 to 8) (size 9 to 14) (size 15 to 20)
#    0.750    1.625    0.000    4.125    0.000    4.500 
#    0.000    3.750    0.000    0.000    0.000    0.000 
#    0.000    0.000    0.000    0.000    0.000    0.625 
#
# Total GULP energy -356398.382652 kJ/mol
# GULP energy per Si atom -5568.724729 kJ/mol
# Density = 1.518086 g / cm^3
# Si number density = 15.215496 Si / 1000 Ang^3
#
#
#
# Elastic Constant Matrix: (Units=GPa)
#
#
# Indices 1 2 3 4 5 6 
#
# 1 74.6499 6.1960 26.2786 0.0000 0.0000 0.0000
# 2 6.1960 47.3381 26.8099 0.0000 0.0000 0.0000
# 3 26.2786 26.8099 72.5859 0.0000 0.0000 0.0000
# 4 0.0000 0.0000 0.0000 19.1471 0.0000 0.0000
# 5 0.0000 0.0000 0.0000 0.0000 23.1493 0.0000
# 6 0.0000 0.0000 0.0000 0.0000 0.0000 10.0619
#
#
#
# Elastic Compliance Matrix: (Units=1/GPa)
#
#
# Indices 1 2 3 4 5 6 
#
# 1 0.015430 0.001447 -0.006121 0.000000 0.000000 0.000000
# 2 0.001447 0.026848 -0.010440 0.000000 0.000000 0.000000
# 3 -0.006121 -0.010440 0.019849 0.000000 0.000000 0.000000
# 4 0.000000 0.000000 0.000000 0.052227 0.000000 0.000000
# 5 0.000000 0.000000 0.000000 0.000000 0.043198 0.000000
# 6 0.000000 0.000000 0.000000 0.000000 0.000000 0.099385
#
#
# Mechanical properties :
#
#
# Convention : Reuss Voigt Hill
#
# Bulk Modulus (GPa) = 31.34892 34.79367 33.07130
# Shear Modulus (GPa) = 16.78987 19.49096 18.14041
#
# Velocity S-wave (km/s) = 3.32546 3.58298 3.45662
# Velocity P-wave (km/s) = 5.94919 6.32724 6.14112
#
# Compressibility (1/GPa) = 0.03189902
#
# Stress axis : x y z
#
# Youngs Moduli (GPa) = 64.80700 37.24658 50.38075
#
# Poissons Ratio (x) = -0.05389 0.30837
# Poissons Ratio (y) = -0.09376 0.52599
# Poissons Ratio (z) = 0.39667 0.38886
#
# Static dielectric constant tensor:
#      x y z
#    x 1.538740 0.000000 0.000000 
#    y 0.000000 1.479830 0.000000 
#    z 0.000000 0.000000 1.504280 
# 
# From -- ./inp_files/6783.got.cif
#   From: 2010.05.17/outbox.cif.g08.bks.cpg/sg49_4_cif.got.tgz:6783.got - 2010.06.03 21:02:19.
