data_PCOD9392389
_publ_section_title
;
Structure prediction by ZEFSAII (Michael W. Deem and Ramdas Pophale) SiO2 
 PCOD9392389
Probable space group: P C C M
;
_chemical_formula_sum "Si O2"
_cell_formula_units_Z 64
_cell_length_a 23.960543
_cell_length_b 19.440924
_cell_length_c 8.762995
_cell_angle_alpha 90.000000
_cell_angle_beta 90.000000
_cell_angle_gamma 90.000000
_cell_volume 4081.935352
_symmetry_space_group_name_H-M "P C C M"
_symmetry_group_IT_number 49
_symmetry_cell_setting 'orthorhombic'
loop_
_space_group_symop_operation_xyz
x,y,z
-x,-y,z
x,-y,1/2-z
-x,y,1/2-z
-x,-y,-z
x,y,-z
-x,y,1/2+z
x,-y,1/2+z
loop_
_atom_site_type_symbol
_atom_site_label
_atom_site_fract_x
_atom_site_fract_y
_atom_site_fract_z
Si Si1 0.110853 0.927514 0.683134
Si Si2 0.241976 0.926769 0.317015
Si Si3 0.339451 0.339482 0.182336
Si Si4 0.060177 0.217386 0.816729
Si Si5 0.226849 0.575912 0.682289
Si Si6 0.724154 0.214262 0.182316
Si Si7 0.561260 0.574721 0.317365
Si Si8 0.163184 0.701056 0.817823
O O1 0.108434 0.931349 0.500000
O O2 0.176214 0.918905 0.726248
O O3 0.077332 0.860158 0.733281
O O4 0.090824 0.000000 0.750000
O O5 0.245410 0.927020 0.500000
O O6 0.274702 0.862155 0.249122
O O7 0.260455 0.000000 0.250000
O O8 0.287165 0.390033 0.217619
O O9 0.321073 0.264903 0.243217
O O10 0.393805 0.369855 0.262795
O O11 0.346843 0.338088 0.000000
O O12 0.108026 0.268148 0.757182
O O13 0.000000 0.234812 0.750000
O O14 0.059077 0.218712 0.000000
O O15 0.223546 0.500000 0.750000
O O16 0.220912 0.574186 0.500000
O O17 0.181164 0.627120 0.753303
O O18 0.784568 0.248509 0.218111
O O19 0.717701 0.213386 0.000000
O O20 0.577769 0.500000 0.250000
O O21 0.500000 0.589849 0.250000
O O22 0.558749 0.570644 0.500000
O O23 0.157180 0.698159 0.000000
#
# Coordination Sequence:
#
# PCOD9392389 Si02
#       8
#     8   8   8   8   8   8   8   8
#     4   9  19  32  48  67  92 123 157 196 237 285
#     4  10  18  30  47  69  96 129 164 200 245 297
#     4  10  20  33  50  74 104 137 171 210 250 289
#     4  11  22  36  51  70  93 122 158 198 241 289
#     4  10  20  33  52  76 102 129 158 197 242 290
#     4  10  19  31  49  73  99 129 164 204 249 297
#     4  11  21  34  51  72 102 141 182 218 252 293
#     4  10  20  34  52  72  95 123 156 195 241 293
#
# _framework density 15.678838000000001
#
# number of rings (size 3 to 8) (size 9 to 14) (size 15 to 20)
#    0.000    1.875    1.250    4.125    0.000    5.250 
#    0.000    1.250    0.000    0.375    0.000    2.625 
#    0.000    0.500    0.000    5.000    0.000    3.000 
#
# Total GULP energy -357357.417628 kJ/mol
# GULP energy per Si atom -5583.709650 kJ/mol
# Density = 1.564315 g / cm^3
# Si number density = 15.678838 Si / 1000 Ang^3
#
#
#
# Elastic Constant Matrix: (Units=GPa)
#
#
# Indices 1 2 3 4 5 6 
#
# 1 77.5024 50.8889 43.8640 0.0000 0.0000 0.0000
# 2 50.8889 124.0956 51.5713 0.0000 0.0000 0.0000
# 3 43.8640 51.5713 69.5249 0.0000 0.0000 0.0000
# 4 0.0000 0.0000 0.0000 31.0545 0.0000 0.0000
# 5 0.0000 0.0000 0.0000 0.0000 18.5570 0.0000
# 6 0.0000 0.0000 0.0000 0.0000 0.0000 24.1521
#
#
#
# Elastic Compliance Matrix: (Units=1/GPa)
#
#
# Indices 1 2 3 4 5 6 
#
# 1 0.021784 -0.004657 -0.010289 0.000000 0.000000 0.000000
# 2 -0.004657 0.012645 -0.006441 0.000000 0.000000 0.000000
# 3 -0.010289 -0.006441 0.025653 0.000000 0.000000 0.000000
# 4 0.000000 0.000000 0.000000 0.032201 0.000000 0.000000
# 5 0.000000 0.000000 0.000000 0.000000 0.053888 0.000000
# 6 0.000000 0.000000 0.000000 0.000000 0.000000 0.041404
#
#
# Mechanical properties :
#
#
# Convention : Reuss Voigt Hill
#
# Bulk Modulus (GPa) = 57.78212 62.64127 60.21169
# Shear Modulus (GPa) = 21.17562 23.07265 22.12413
#
# Velocity S-wave (km/s) = 3.67902 3.84028 3.76051
# Velocity P-wave (km/s) = 7.41488 7.72678 7.57244
#
# Compressibility (1/GPa) = 0.01730639
#
# Stress axis : x y z
#
# Youngs Moduli (GPa) = 45.90469 79.08252 38.98180
#
# Poissons Ratio (x) = 0.36831 0.40110
# Poissons Ratio (y) = 0.21379 0.25110
# Poissons Ratio (z) = 0.47233 0.50940
#
# Static dielectric constant tensor:
#      x y z
#    x 1.502000 0.000000 0.000000 
#    y 0.000000 1.511560 0.000000 
#    z 0.000000 0.000000 1.518450 
# 
# From -- ./inp_files/5241.got.cif
#   From: 2010.05.17/outbox.cif.g08.bks.cpg/sg49_3_cif.got.tgz:5241.got - 2010.06.03 21:02:19.
