data_PCOD9392098
_publ_section_title
;
Structure prediction by ZEFSAII (Michael W. Deem and Ramdas Pophale) SiO2 
 PCOD9392098
Probable space group: P C C M
;
_chemical_formula_sum "Si O2"
_cell_formula_units_Z 64
_cell_length_a 18.949370
_cell_length_b 27.052755
_cell_length_c 8.766102
_cell_angle_alpha 90.000000
_cell_angle_beta 90.000000
_cell_angle_gamma 90.000000
_cell_volume 4493.790221
_symmetry_space_group_name_H-M "P C C M"
_symmetry_group_IT_number 49
_symmetry_cell_setting 'orthorhombic'
loop_
_space_group_symop_operation_xyz
x,y,z
-x,-y,z
x,-y,1/2-z
-x,y,1/2-z
-x,-y,-z
x,y,-z
-x,y,1/2+z
x,-y,1/2+z
loop_
_atom_site_type_symbol
_atom_site_label
_atom_site_fract_x
_atom_site_fract_y
_atom_site_fract_z
Si Si1 0.781543 0.193821 0.680009
Si Si2 0.151342 0.052081 0.683433
Si Si3 0.578573 0.347993 0.181264
Si Si4 0.579843 0.449587 0.682827
Si Si5 0.707364 0.100430 0.820861
Si Si6 0.422621 0.851241 0.318543
Si Si7 0.075583 0.851401 0.319247
Si Si8 0.349050 0.746131 0.319009
O O1 0.769803 0.180059 0.500000
O O2 0.747832 0.151695 0.785167
O O3 0.864892 0.190797 0.706503
O O4 0.733866 0.241915 0.704625
O O5 0.147854 0.052369 0.500000
O O6 0.233679 0.060904 0.729708
O O7 0.106384 0.097994 0.747318
O O8 0.126733 0.000000 0.750000
O O9 0.500000 0.340764 0.250000
O O10 0.610070 0.397743 0.257211
O O11 0.622989 0.299859 0.224772
O O12 0.573168 0.354588 0.000000
O O13 0.612506 0.500000 0.750000
O O14 0.500000 0.448660 0.750000
O O15 0.577725 0.451246 0.500000
O O16 0.632893 0.107536 0.738181
O O17 0.695104 0.094580 0.000000
O O18 0.500000 0.857051 0.250000
O O19 0.426155 0.853099 0.500000
O O20 0.391012 0.796790 0.278190
O O21 0.069038 0.858707 0.500000
O O22 0.000000 0.839613 0.250000
O O23 0.360691 0.737244 0.500000
#
# Coordination Sequence:
#
# PCOD9392098 Si02
#       8
#     8   8   8   8   8   8   8   8
#     4   8  16  30  46  61  81 109 137 162 194 236
#     4  10  20  33  49  68  87 109 134 162 195 235
#     4  11  20  28  38  55  78 106 139 177 218 254
#     4  10  17  27  40  53  71  98 134 176 217 257
#     4   9  17  29  45  63  82 103 131 162 195 236
#     4  10  19  29  43  61  82 106 133 165 204 245
#     4  10  19  32  49  69  91 113 136 164 194 230
#     4   9  17  29  42  58  79 105 135 167 203 243
#
# _framework density 14.241876
#
# number of rings (size 3 to 8) (size 9 to 14) (size 15 to 20)
#    0.000    2.375    0.000    6.000    0.000    5.750 
#    0.000    1.250    0.000    0.375    0.000    2.625 
#    0.000    0.000    0.000    0.000    0.000    0.625 
#
# Total GULP energy -356481.488098 kJ/mol
# GULP energy per Si atom -5570.023252 kJ/mol
# Density = 1.420946 g / cm^3
# Si number density = 14.241876 Si / 1000 Ang^3
#
#
#
# Elastic Constant Matrix: (Units=GPa)
#
#
# Indices 1 2 3 4 5 6 
#
# 1 90.4293 17.4851 29.5008 0.0000 0.0000 0.0000
# 2 17.4851 37.1316 19.4387 0.0000 0.0000 0.0000
# 3 29.5008 19.4387 65.2372 0.0000 0.0000 0.0000
# 4 0.0000 0.0000 0.0000 25.1390 0.0000 0.0000
# 5 0.0000 0.0000 0.0000 0.0000 16.5117 0.0000
# 6 0.0000 0.0000 0.0000 0.0000 0.0000 8.5253
#
#
#
# Elastic Compliance Matrix: (Units=1/GPa)
#
#
# Indices 1 2 3 4 5 6 
#
# 1 0.013391 -0.003715 -0.004949 0.000000 0.000000 0.000000
# 2 -0.003715 0.032939 -0.008135 0.000000 0.000000 0.000000
# 3 -0.004949 -0.008135 0.019990 0.000000 0.000000 0.000000
# 4 0.000000 0.000000 0.000000 0.039779 0.000000 0.000000
# 5 0.000000 0.000000 0.000000 0.000000 0.060563 0.000000
# 6 0.000000 0.000000 0.000000 0.000000 0.000000 0.117299
#
#
# Mechanical properties :
#
#
# Convention : Reuss Voigt Hill
#
# Bulk Modulus (GPa) = 30.55901 36.18306 33.37104
# Shear Modulus (GPa) = 15.22225 18.46009 16.84117
#
# Velocity S-wave (km/s) = 3.27286 3.60416 3.44250
# Velocity P-wave (km/s) = 5.98213 6.54074 6.26766
#
# Compressibility (1/GPa) = 0.03272357
#
# Stress axis : x y z
#
# Youngs Moduli (GPa) = 74.67650 30.35882 50.02400
#
# Poissons Ratio (x) = 0.11279 0.24755
# Poissons Ratio (y) = 0.27744 0.40694
# Poissons Ratio (z) = 0.36954 0.24697
#
# Static dielectric constant tensor:
#      x y z
#    x 1.481050 0.000000 0.000000 
#    y 0.000000 1.479090 0.000000 
#    z 0.000000 0.000000 1.477930 
# 
# From -- ./inp_files/6140.got.cif
#   From: 2010.05.17/outbox.cif.g08.bks.cpg/sg49_4_cif.got.tgz:6140.got - 2010.06.03 21:02:19.
