data_PCOD9392294
_publ_section_title
;
Structure prediction by ZEFSAII (Michael W. Deem and Ramdas Pophale) SiO2 
 PCOD9392294
Probable space group: P C C M
;
_chemical_formula_sum "Si O2"
_cell_formula_units_Z 64
_cell_length_a 27.104193
_cell_length_b 18.736176
_cell_length_c 8.770690
_cell_angle_alpha 90.000000
_cell_angle_beta 90.000000
_cell_angle_gamma 90.000000
_cell_volume 4454.010121
_symmetry_space_group_name_H-M "P C C M"
_symmetry_group_IT_number 49
_symmetry_cell_setting 'orthorhombic'
loop_
_space_group_symop_operation_xyz
x,y,z
-x,-y,z
x,-y,1/2-z
-x,y,1/2-z
-x,-y,-z
x,y,-z
-x,y,1/2+z
x,-y,1/2+z
loop_
_atom_site_type_symbol
_atom_site_label
_atom_site_fract_x
_atom_site_fract_y
_atom_site_fract_z
Si Si1 0.648225 0.330565 0.183592
Si Si2 0.446655 0.578282 0.183352
Si Si3 0.700540 0.201703 0.675657
Si Si4 0.199906 0.298019 0.824488
Si Si5 0.053652 0.078850 0.683418
Si Si6 0.241011 0.078352 0.681862
Si Si7 0.145930 0.159960 0.815447
Si Si8 0.255995 0.421879 0.680971
O O1 0.596345 0.366353 0.224542
O O2 0.659158 0.253669 0.256082
O O3 0.692578 0.384202 0.231207
O O4 0.650805 0.323921 0.000000
O O5 0.434598 0.500000 0.250000
O O6 0.500000 0.598432 0.250000
O O7 0.449440 0.573289 0.000000
O O8 0.690600 0.183506 0.500000
O O9 0.750348 0.249910 0.679414
O O10 0.714838 0.131611 0.769945
O O11 0.158229 0.242147 0.773236
O O12 0.212442 0.368113 0.729756
O O13 0.190871 0.318098 0.000000
O O14 0.052341 0.076068 0.500000
O O15 0.095747 0.131411 0.743588
O O16 0.000000 0.098423 0.750000
O O17 0.064921 0.000000 0.750000
O O18 0.236228 0.075740 0.500000
O O19 0.190944 0.111596 0.753330
O O20 0.248446 0.000000 0.750000
O O21 0.145267 0.155342 0.000000
O O22 0.251115 0.500000 0.750000
O O23 0.257479 0.427529 0.500000
#
# Coordination Sequence:
#
# PCOD9392294 Si02
#       8
#     8   8   8   8   8   8   8   8
#     4   9  18  30  43  60  82 112 145 178 214 256
#     4  10  19  30  43  60  84 112 146 183 220 256
#     4   9  17  29  44  62  83 109 140 175 213 254
#     4   8  16  29  43  59  82 109 138 172 209 249
#     4  11  21  33  47  64  87 115 147 183 219 254
#     4  11  20  30  44  63  88 116 146 178 211 251
#     4  10  19  32  47  64  86 114 147 180 216 257
#     4  10  18  27  41  60  84 111 142 175 210 251
#
# _framework density 14.369073
#
# number of rings (size 3 to 8) (size 9 to 14) (size 15 to 20)
#    0.000    2.250    0.000    6.000    0.000    5.000 
#    0.000    0.000    0.000    0.000    0.000    0.000 
#    0.000    1.000    0.000   10.500    0.000    5.125 
#
# Total GULP energy -356831.411100 kJ/mol
# GULP energy per Si atom -5575.490798 kJ/mol
# Density = 1.433637 g / cm^3
# Si number density = 14.369073 Si / 1000 Ang^3
#
#
#
# Elastic Constant Matrix: (Units=GPa)
#
#
# Indices 1 2 3 4 5 6 
#
# 1 81.7585 50.4005 35.9615 0.0000 0.0000 0.0000
# 2 50.4005 100.2911 48.8466 0.0000 0.0000 0.0000
# 3 35.9615 48.8466 83.4250 0.0000 0.0000 0.0000
# 4 0.0000 0.0000 0.0000 24.7148 0.0000 0.0000
# 5 0.0000 0.0000 0.0000 0.0000 19.4157 0.0000
# 6 0.0000 0.0000 0.0000 0.0000 0.0000 27.3729
#
#
#
# Elastic Compliance Matrix: (Units=1/GPa)
#
#
# Indices 1 2 3 4 5 6 
#
# 1 0.018435 -0.007546 -0.003528 0.000000 0.000000 0.000000
# 2 -0.007546 0.017037 -0.006723 0.000000 0.000000 0.000000
# 3 -0.003528 -0.006723 0.017444 0.000000 0.000000 0.000000
# 4 0.000000 0.000000 0.000000 0.040462 0.000000 0.000000
# 5 0.000000 0.000000 0.000000 0.000000 0.051505 0.000000
# 6 0.000000 0.000000 0.000000 0.000000 0.000000 0.036533
#
#
# Mechanical properties :
#
#
# Convention : Reuss Voigt Hill
#
# Bulk Modulus (GPa) = 57.72968 59.54355 58.63661
# Shear Modulus (GPa) = 22.44331 22.98507 22.71419
#
# Velocity S-wave (km/s) = 3.95640 4.00386 3.98020
# Velocity P-wave (km/s) = 7.81885 7.93116 7.87520
#
# Compressibility (1/GPa) = 0.01732211
#
# Stress axis : x y z
#
# Youngs Moduli (GPa) = 54.24546 58.69422 57.32566
#
# Poissons Ratio (x) = 0.44289 0.20227
# Poissons Ratio (y) = 0.40932 0.38540
# Poissons Ratio (z) = 0.19140 0.39460
#
# Static dielectric constant tensor:
#      x y z
#    x 1.465540 0.000000 0.000000 
#    y 0.000000 1.465150 0.000000 
#    z 0.000000 0.000000 1.483440 
# 
# From -- ./inp_files/6793.got.cif
#   From: 2010.05.17/outbox.cif.g08.bks.cpg/sg49_4_cif.got.tgz:6793.got - 2010.06.03 21:02:19.
