data_PCOD9392982
_publ_section_title
;
Structure prediction by ZEFSAII (Michael W. Deem and Ramdas Pophale) SiO2 
 PCOD9392982
Probable space group: P C C M
;
_chemical_formula_sum "Si O2"
_cell_formula_units_Z 64
_cell_length_a 11.813269
_cell_length_b 10.912641
_cell_length_c 22.230682
_cell_angle_alpha 90.000000
_cell_angle_beta 90.000000
_cell_angle_gamma 90.000000
_cell_volume 2865.845331
_symmetry_space_group_name_H-M "P C C M"
_symmetry_group_IT_number 49
_symmetry_cell_setting 'orthorhombic'
loop_
_space_group_symop_operation_xyz
x,y,z
-x,-y,z
x,-y,1/2-z
-x,y,1/2-z
-x,-y,-z
x,y,-z
-x,y,1/2+z
x,-y,1/2+z
loop_
_atom_site_type_symbol
_atom_site_label
_atom_site_fract_x
_atom_site_fract_y
_atom_site_fract_z
Si Si1 0.899128 0.255553 0.361776
Si Si2 0.362793 0.373557 0.431207
Si Si3 0.187000 0.983942 0.568266
Si Si4 0.111823 0.741083 0.067923
Si Si5 0.274709 0.802168 0.732295
Si Si6 0.702958 0.348535 0.568676
Si Si7 0.345372 0.945528 0.164792
Si Si8 0.465050 0.755818 0.655114
O O1 0.842467 0.243842 0.295893
O O2 0.820394 0.352075 0.396474
O O3 0.026380 0.289954 0.378158
O O4 0.869887 0.123722 0.392957
O O5 0.404395 0.341969 0.500000
O O6 0.236513 0.317310 0.426684
O O7 0.355567 0.519892 0.427684
O O8 0.439052 0.327382 0.376041
O O9 0.198456 0.943392 0.500000
O O10 0.118961 0.111166 0.568570
O O11 0.305119 0.027637 0.597798
O O12 0.069737 0.706619 0.000000
O O13 0.269825 0.841439 0.801241
O O14 0.384698 0.721102 0.712289
O O15 0.313126 0.929272 0.699334
O O16 0.720623 0.319056 0.500000
O O17 0.628234 0.246587 0.602079
O O18 0.467461 0.881251 0.167609
#
# Coordination Sequence:
#
# PCOD9392982 Si02
#       8
#     8   8   8   8   8   8   8   8
#     4  10  20  35  55  82 117 153 192 232 280 339
#     4  10  21  36  54  80 115 155 195 236 290 339
#     4  10  19  32  55  87 119 148 179 227 288 347
#     4  10  19  33  55  83 116 154 188 230 285 345
#     4   9  21  36  55  83 113 154 188 233 284 339
#     4  10  21  35  53  80 115 152 191 241 290 335
#     4  10  19  36  57  82 116 150 187 230 287 346
#     4  11  19  32  55  77 106 141 194 233 282 334
#
# _framework density 22.331979
#
# number of rings (size 3 to 8) (size 9 to 14) (size 15 to 20)
#    0.000    2.000    1.250    3.000    0.000    4.000 
#    0.000    3.125    0.000   21.000    0.000    0.000 
#    7.500    0.000    0.000    0.000    0.000    0.000 
#
# Total GULP energy -356671.099365 kJ/mol
# GULP energy per Si atom -5572.985928 kJ/mol
# Density = 2.228115 g / cm^3
# Si number density = 22.331979 Si / 1000 Ang^3
#
#
#
# Elastic Constant Matrix: (Units=GPa)
#
#
# Indices 1 2 3 4 5 6 
#
# 1 74.2382 7.7841 5.9259 0.0000 0.0000 0.0000
# 2 7.7841 47.8882 22.1598 0.0000 0.0000 0.0000
# 3 5.9259 22.1598 44.9497 0.0000 0.0000 0.0000
# 4 0.0000 0.0000 0.0000 24.9501 0.0000 0.0000
# 5 0.0000 0.0000 0.0000 0.0000 19.4197 0.0000
# 6 0.0000 0.0000 0.0000 0.0000 0.0000 22.7420
#
#
#
# Elastic Compliance Matrix: (Units=1/GPa)
#
#
# Indices 1 2 3 4 5 6 
#
# 1 0.013733 -0.001807 -0.000920 0.000000 0.000000 0.000000
# 2 -0.001807 0.027291 -0.013216 0.000000 0.000000 0.000000
# 3 -0.000920 -0.013216 0.028884 0.000000 0.000000 0.000000
# 4 0.000000 0.000000 0.000000 0.040080 0.000000 0.000000
# 5 0.000000 0.000000 0.000000 0.000000 0.051494 0.000000
# 6 0.000000 0.000000 0.000000 0.000000 0.000000 0.043972
#
#
# Mechanical properties :
#
#
# Convention : Reuss Voigt Hill
#
# Bulk Modulus (GPa) = 26.29999 26.53508 26.41754
# Shear Modulus (GPa) = 19.99892 22.16944 21.08418
#
# Velocity S-wave (km/s) = 2.99578 3.15417 3.07600
# Velocity P-wave (km/s) = 4.87531 5.01726 4.94680
#
# Compressibility (1/GPa) = 0.03802283
#
# Stress axis : x y z
#
# Youngs Moduli (GPa) = 72.81722 36.64165 34.62139
#
# Poissons Ratio (x) = 0.06620 0.03185
# Poissons Ratio (y) = 0.13155 0.45756
# Poissons Ratio (z) = 0.06698 0.48427
#
# Static dielectric constant tensor:
#      x y z
#    x 1.908920 0.000000 0.000000 
#    y 0.000000 1.850470 0.000000 
#    z 0.000000 0.000000 1.856780 
# 
# From -- ./inp_files/22999.got.cif
#   From: 2010.05.17/outbox.cif.g08.bks.cpg/sg49_12_cif.got.tgz:22999.got - 2010.06.03 21:02:19.
