data_PCOD9392257
_publ_section_title
;
Structure prediction by ZEFSAII (Michael W. Deem and Ramdas Pophale) SiO2 
 PCOD9392257
Probable space group: P C C M
;
_chemical_formula_sum "Si O2"
_cell_formula_units_Z 58
_cell_length_a 11.689885
_cell_length_b 27.743385
_cell_length_c 8.809783
_cell_angle_alpha 90.000000
_cell_angle_beta 90.000000
_cell_angle_gamma 90.000000
_cell_volume 2857.162218
_symmetry_space_group_name_H-M "P C C M"
_symmetry_group_IT_number 49
_symmetry_cell_setting 'orthorhombic'
loop_
_space_group_symop_operation_xyz
x,y,z
-x,-y,z
x,-y,1/2-z
-x,y,1/2-z
-x,-y,-z
x,y,-z
-x,y,1/2+z
x,-y,1/2+z
loop_
_atom_site_type_symbol
_atom_site_label
_atom_site_fract_x
_atom_site_fract_y
_atom_site_fract_z
Si Si1 0.384197 0.312673 0.176049
Si Si2 0.371543 0.951238 0.183381
Si Si3 0.152440 0.701637 0.177934
Si Si4 0.500000 0.500000 0.750000
Si Si5 0.323433 0.576396 0.660251
Si Si6 0.108926 0.592294 0.823837
Si Si7 0.880439 0.198241 0.321431
Si Si8 0.368319 0.152397 0.184379
O O1 0.500000 0.294941 0.250000
O O2 0.287347 0.297925 0.293271
O O3 0.380452 0.371103 0.174282
O O4 0.366994 0.296938 0.000000
O O5 0.500000 0.952535 0.250000
O O6 0.332443 0.900149 0.250047
O O7 0.314748 0.000000 0.250000
O O8 0.371577 0.951726 0.000000
O O9 0.118782 0.647988 0.232713
O O10 0.112417 0.745152 0.281790
O O11 0.124229 0.707979 0.000000
O O12 0.417908 0.535820 0.661100
O O13 0.258615 0.576580 0.500000
O O14 0.230166 0.568746 0.788809
O O15 0.000000 0.568033 0.750000
O O16 0.090401 0.595319 0.000000
O O17 0.887270 0.189726 0.500000
O O18 0.748488 0.182953 0.276500
O O19 0.000000 0.177200 0.250000
O O20 0.500000 0.163302 0.250000
O O21 0.379795 0.151971 0.000000
#
# Coordination Sequence:
#
# PCOD9392257 Si02
#       8
#     8   8   8   2   8   8   8   8
#     4  10  19  34  54  80 114 149 186 230 278 331
#     4  10  17  28  50  80 114 151 193 244 300 355
#     4  10  21  36  57  84 112 147 189 236 285 339
#     4  12  22  40  62  90 114 144 184 220 266 324
#     4  10  22  37  58  85 114 148 181 219 266 322
#     4  10  21  38  61  86 113 143 181 228 276 325
#     4  11  24  40  59  84 117 158 202 247 295 356
#     4  10  21  37  57  84 117 154 198 247 301 356
#
# _framework density 20.299862000000001
#
# number of rings (size 3 to 8) (size 9 to 14) (size 15 to 20)
#    0.000    1.793    0.690    5.172    0.000    7.172 
#    0.000    1.724    0.000    2.069    0.000    2.897 
#    0.000    0.000    0.000    0.000    0.000    0.000 
#
# Total GULP energy -322906.910081 kJ/mol
# GULP energy per Si atom -5567.360519 kJ/mol
# Density = 2.025366 g / cm^3
# Si number density = 20.299862 Si / 1000 Ang^3
#
#
#
# Elastic Constant Matrix: (Units=GPa)
#
#
# Indices 1 2 3 4 5 6 
#
# 1 122.3735 16.6691 23.3983 0.0000 0.0000 0.0000
# 2 16.6691 62.3627 15.1112 0.0000 0.0000 0.0000
# 3 23.3983 15.1112 74.7799 0.0000 0.0000 0.0000
# 4 0.0000 0.0000 0.0000 18.9195 0.0000 0.0000
# 5 0.0000 0.0000 0.0000 0.0000 30.3331 0.0000
# 6 0.0000 0.0000 0.0000 0.0000 0.0000 6.6331
#
#
#
# Elastic Compliance Matrix: (Units=1/GPa)
#
#
# Indices 1 2 3 4 5 6 
#
# 1 0.008877 -0.001787 -0.002416 0.000000 0.000000 0.000000
# 2 -0.001787 0.017221 -0.002921 0.000000 0.000000 0.000000
# 3 -0.002416 -0.002921 0.014719 0.000000 0.000000 0.000000
# 4 0.000000 0.000000 0.000000 0.052856 0.000000 0.000000
# 5 0.000000 0.000000 0.000000 0.000000 0.032967 0.000000
# 6 0.000000 0.000000 0.000000 0.000000 0.000000 0.150759
#
#
# Mechanical properties :
#
#
# Convention : Reuss Voigt Hill
#
# Bulk Modulus (GPa) = 37.63936 41.09705 39.36821
# Shear Modulus (GPa) = 16.63876 24.79963 20.71920
#
# Velocity S-wave (km/s) = 2.86606 3.49902 3.19824
# Velocity P-wave (km/s) = 5.43455 6.05088 5.75098
#
# Compressibility (1/GPa) = 0.02656793
#
# Stress axis : x y z
#
# Youngs Moduli (GPa) = 112.64814 58.06980 67.94000
#
# Poissons Ratio (x) = 0.10379 0.16417
# Poissons Ratio (y) = 0.20133 0.19843
# Poissons Ratio (z) = 0.27221 0.16960
#
# Static dielectric constant tensor:
#      x y z
#    x 1.665750 0.000000 0.000000 
#    y 0.000000 1.785950 0.000000 
#    z 0.000000 0.000000 1.728380 
# 
# From -- ./inp_files/3033.got.cif
#   From: 2010.05.17/outbox.cif.g08.bks.cpg/sg49_2_cif.got.tgz:3033.got - 2010.06.03 21:02:19.
