data_PCOD9392753
_publ_section_title
;
Structure prediction by ZEFSAII (Michael W. Deem and Ramdas Pophale) SiO2 
 PCOD9392753
Probable space group: P C C M
;
_chemical_formula_sum "Si O2"
_cell_formula_units_Z 64
_cell_length_a 35.258744
_cell_length_b 5.271074
_cell_length_c 14.041512
_cell_angle_alpha 90.000000
_cell_angle_beta 90.000000
_cell_angle_gamma 90.000000
_cell_volume 2609.635348
_symmetry_space_group_name_H-M "P C C M"
_symmetry_group_IT_number 49
_symmetry_cell_setting 'orthorhombic'
loop_
_space_group_symop_operation_xyz
x,y,z
-x,-y,z
x,-y,1/2-z
-x,y,1/2-z
-x,-y,-z
x,y,-z
-x,y,1/2+z
x,-y,1/2+z
loop_
_atom_site_type_symbol
_atom_site_label
_atom_site_fract_x
_atom_site_fract_y
_atom_site_fract_z
Si Si1 0.278411 0.654850 0.384918
Si Si2 0.977044 0.748930 0.115953
Si Si3 0.151726 0.322928 0.383573
Si Si4 0.235302 0.844742 0.116672
Si Si5 0.476674 0.251622 0.385518
Si Si6 0.891306 0.822776 0.116618
Si Si7 0.392973 0.919538 0.145613
Si Si8 0.635263 0.579202 0.856646
O O1 0.277266 0.658092 0.500000
O O2 0.263345 0.380882 0.354264
O O3 0.322147 0.682098 0.357816
O O4 0.251287 0.883258 0.352549
O O5 0.933701 0.759396 0.149568
O O6 0.000000 0.500000 0.144534
O O7 0.975369 0.745194 0.000000
O O8 0.000000 0.000000 0.142513
O O9 0.152751 0.328764 0.500000
O O10 0.193220 0.233361 0.351785
O O11 0.137937 0.601889 0.354060
O O12 0.122187 0.103248 0.355838
O O13 0.234245 0.850923 0.000000
O O14 0.500000 0.500000 0.355141
O O15 0.472646 0.268258 0.500000
O O16 0.434548 0.201978 0.347992
O O17 0.500000 0.000000 0.362519
O O18 0.891688 0.820937 0.000000
O O19 0.367395 0.702219 0.099145
O O20 0.378626 0.000000 0.250000
O O21 0.391564 0.201767 0.101408
O O22 0.623682 0.500000 0.750000
#
# Coordination Sequence:
#
# PCOD9392753 Si02
#       8
#     8   8   8   8   8   8   8   8
#     4  10  19  31  48  70  93 120 155 191 235 288
#     4   9  15  21  27  36  53  78 113 161 211 257
#     4   9  15  23  34  48  68  93 122 162 215 271
#     4   9  17  28  42  62  87 111 140 184 233 281
#     4  10  21  37  57  82 111 140 171 210 254 297
#     4   9  15  21  30  43  59  86 123 160 211 274
#     4  10  21  37  55  77 104 135 170 205 242 287
#     4  10  21  36  53  74 102 132 164 203 243 283
#
# _framework density 24.524501000000001
#
# number of rings (size 3 to 8) (size 9 to 14) (size 15 to 20)
#    0.000    2.500    0.000    3.000    0.000    7.250 
#    0.000    0.625    0.000    0.000    0.000    0.000 
#    0.000    0.000    0.000    0.000    0.000    0.000 
#
# Total GULP energy -357933.785688 kJ/mol
# GULP energy per Si atom -5592.715401 kJ/mol
# Density = 2.446868 g / cm^3
# Si number density = 24.524501 Si / 1000 Ang^3
#
#
#
# Elastic Constant Matrix: (Units=GPa)
#
#
# Indices 1 2 3 4 5 6 
#
# 1 134.5669 56.6060 -11.9195 0.0000 0.0000 0.0000
# 2 56.6060 200.8845 -1.3255 0.0000 0.0000 0.0000
# 3 -11.9195 -1.3255 85.9258 0.0000 0.0000 0.0000
# 4 0.0000 0.0000 0.0000 -45.2300 0.0000 0.0000
# 5 0.0000 0.0000 0.0000 0.0000 12.6411 0.0000
# 6 0.0000 0.0000 0.0000 0.0000 0.0000 54.8192
#
#
#
# Elastic Compliance Matrix: (Units=1/GPa)
#
#
# Indices 1 2 3 4 5 6 
#
# 1 0.008542 -0.002400 0.001148 0.000000 0.000000 0.000000
# 2 -0.002400 0.005653 -0.000246 0.000000 0.000000 0.000000
# 3 0.001148 -0.000246 0.011793 0.000000 0.000000 0.000000
# 4 0.000000 0.000000 0.000000 -0.022109 0.000000 0.000000
# 5 0.000000 0.000000 0.000000 0.000000 0.079107 0.000000
# 6 0.000000 0.000000 0.000000 0.000000 0.000000 0.018242
#
#
# Mechanical properties :
#
#
# Convention : Reuss Voigt Hill
#
# Bulk Modulus (GPa) = 43.49000 56.45546 49.97273
# Shear Modulus (GPa) = 44.68806 29.64713 37.16760
#
# Velocity S-wave (km/s) = 4.27333 3.48066 3.89720
# Velocity P-wave (km/s) = 6.49001 6.26286 6.37745
#
# Compressibility (1/GPa) = 0.02299379
#
# Stress axis : x y z
#
# Youngs Moduli (GPa) = 117.06459 176.91265 84.79316
#
# Poissons Ratio (x) = 0.42450 -0.09734
# Poissons Ratio (y) = 0.28090 0.02083
# Poissons Ratio (z) = -0.13439 0.04346
#
# Static dielectric constant tensor:
#      x y z
#    x 1.859600 0.000000 0.000000 
#    y 0.000000 1.967240 0.000000 
#    z 0.000000 0.000000 2.033940 
# 
# From -- ./inp_files/18430.got.cif
#   From: 2010.05.17/outbox.cif.g08.bks.cpg/sg49_10_cif.got.tgz:18430.got - 2010.06.03 21:02:19.
