data_PCOD9392107
_publ_section_title
;
Structure prediction by ZEFSAII (Michael W. Deem and Ramdas Pophale) SiO2 
 PCOD9392107
Probable space group: P C C M
;
_chemical_formula_sum "Si O2"
_cell_formula_units_Z 64
_cell_length_a 26.766395
_cell_length_b 18.816758
_cell_length_c 8.711851
_cell_angle_alpha 90.000000
_cell_angle_beta 90.000000
_cell_angle_gamma 90.000000
_cell_volume 4387.782799
_symmetry_space_group_name_H-M "P C C M"
_symmetry_group_IT_number 49
_symmetry_cell_setting 'orthorhombic'
loop_
_space_group_symop_operation_xyz
x,y,z
-x,-y,z
x,-y,1/2-z
-x,y,1/2-z
-x,-y,-z
x,y,-z
-x,y,1/2+z
x,-y,1/2+z
loop_
_atom_site_type_symbol
_atom_site_label
_atom_site_fract_x
_atom_site_fract_y
_atom_site_fract_z
Si Si1 0.746682 0.150532 0.817190
Si Si2 0.353450 0.921948 0.314356
Si Si3 0.552072 0.353318 0.181476
Si Si4 0.845149 0.079935 0.316158
Si Si5 0.296178 0.712739 0.323758
Si Si6 0.343216 0.422345 0.315491
Si Si7 0.948734 0.080691 0.815849
Si Si8 0.406651 0.783644 0.675290
O O1 0.699331 0.106009 0.752524
O O2 0.796875 0.122661 0.738558
O O3 0.737094 0.232402 0.771668
O O4 0.749085 0.141826 0.000000
O O5 0.350216 0.922133 0.500000
O O6 0.395880 0.863863 0.270890
O O7 0.363517 0.000000 0.250000
O O8 0.500000 0.378976 0.250000
O O9 0.601009 0.396771 0.234681
O O10 0.560872 0.270938 0.227408
O O11 0.549843 0.358893 0.000000
O O12 0.848483 0.076836 0.500000
O O13 0.896611 0.111239 0.246527
O O14 0.839730 0.000000 0.250000
O O15 0.279205 0.707614 0.500000
O O16 0.304952 0.636307 0.248669
O O17 0.351167 0.749120 0.326079
O O18 0.333389 0.500000 0.250000
O O19 0.341904 0.422260 0.500000
O O20 0.000000 0.113393 0.750000
O O21 0.948146 0.000000 0.750000
O O22 0.949664 0.078991 0.000000
O O23 0.425337 0.784494 0.500000
#
# Coordination Sequence:
#
# PCOD9392107 Si02
#       8
#     8   8   8   8   8   8   8   8
#     4  11  20  30  43  61  85 112 141 175 213 257
#     4  10  19  30  44  63  84 108 135 169 210 252
#     4  10  20  32  48  67  87 110 137 165 200 240
#     4  11  20  30  41  57  81 110 145 187 230 267
#     4   9  17  31  48  65  85 111 139 169 202 244
#     4  10  20  33  49  70  92 116 141 168 198 235
#     4  10  17  27  40  55  74 102 140 182 226 269
#     4   8  16  30  46  62  82 106 134 164 199 242
#
# _framework density 14.585955
#
# number of rings (size 3 to 8) (size 9 to 14) (size 15 to 20)
#    0.000    2.125    0.000    7.125    0.000    5.250 
#    0.000    1.250    0.000    0.375    0.000    2.625 
#    0.000    0.000    0.000    0.000    0.000    0.625 
#
# Total GULP energy -356846.175568 kJ/mol
# GULP energy per Si atom -5575.721493 kJ/mol
# Density = 1.455276 g / cm^3
# Si number density = 14.585955 Si / 1000 Ang^3
#
#
#
# Elastic Constant Matrix: (Units=GPa)
#
#
# Indices 1 2 3 4 5 6 
#
# 1 32.7558 8.2239 13.2639 0.0000 0.0000 0.0000
# 2 8.2239 87.1732 19.4863 0.0000 0.0000 0.0000
# 3 13.2639 19.4863 88.8661 0.0000 0.0000 0.0000
# 4 0.0000 0.0000 0.0000 20.3072 0.0000 0.0000
# 5 0.0000 0.0000 0.0000 0.0000 22.2244 0.0000
# 6 0.0000 0.0000 0.0000 0.0000 0.0000 9.2828
#
#
#
# Elastic Compliance Matrix: (Units=1/GPa)
#
#
# Indices 1 2 3 4 5 6 
#
# 1 0.032857 -0.002107 -0.004442 0.000000 0.000000 0.000000
# 2 -0.002107 0.012198 -0.002360 0.000000 0.000000 0.000000
# 3 -0.004442 -0.002360 0.012433 0.000000 0.000000 0.000000
# 4 0.000000 0.000000 0.000000 0.049244 0.000000 0.000000
# 5 0.000000 0.000000 0.000000 0.000000 0.044996 0.000000
# 6 0.000000 0.000000 0.000000 0.000000 0.000000 0.107726
#
#
# Mechanical properties :
#
#
# Convention : Reuss Voigt Hill
#
# Bulk Modulus (GPa) = 25.20817 32.30480 28.75649
# Shear Modulus (GPa) = 17.21201 21.55095 19.38148
#
# Velocity S-wave (km/s) = 3.43890 3.84801 3.64919
# Velocity P-wave (km/s) = 5.75222 6.47603 6.12482
#
# Compressibility (1/GPa) = 0.03966968
#
# Stress axis : x y z
#
# Youngs Moduli (GPa) = 30.43526 81.98227 80.42820
#
# Poissons Ratio (x) = 0.17271 0.35727
# Poissons Ratio (y) = 0.06412 0.18983
# Poissons Ratio (z) = 0.13520 0.19350
#
# Static dielectric constant tensor:
#      x y z
#    x 1.496180 0.000000 0.000000 
#    y 0.000000 1.477680 0.000000 
#    z 0.000000 0.000000 1.489420 
# 
# From -- ./inp_files/6786.got.cif
#   From: 2010.05.17/outbox.cif.g08.bks.cpg/sg49_4_cif.got.tgz:6786.got - 2010.06.03 21:02:19.
