data_PCOD9392882
_publ_section_title
;
Structure prediction by ZEFSAII (Michael W. Deem and Ramdas Pophale) SiO2 
 PCOD9392882
Probable space group: P C C M
;
_chemical_formula_sum "Si O2"
_cell_formula_units_Z 64
_cell_length_a 20.027488
_cell_length_b 19.901976
_cell_length_c 8.821505
_cell_angle_alpha 90.000000
_cell_angle_beta 90.000000
_cell_angle_gamma 90.000000
_cell_volume 3516.133557
_symmetry_space_group_name_H-M "P C C M"
_symmetry_group_IT_number 49
_symmetry_cell_setting 'orthorhombic'
loop_
_space_group_symop_operation_xyz
x,y,z
-x,-y,z
x,-y,1/2-z
-x,y,1/2-z
-x,-y,-z
x,y,-z
-x,y,1/2+z
x,-y,1/2+z
loop_
_atom_site_type_symbol
_atom_site_label
_atom_site_fract_x
_atom_site_fract_y
_atom_site_fract_z
Si Si1 0.427193 0.696999 0.182393
Si Si2 0.856345 0.067124 0.171204
Si Si3 0.066238 0.177394 0.178978
Si Si4 0.307800 0.785184 0.318724
Si Si5 0.661510 0.573413 0.681316
Si Si6 0.068761 0.674508 0.819003
Si Si7 0.696729 0.931344 0.671811
Si Si8 0.781482 0.328534 0.183279
O O1 0.500000 0.708231 0.250000
O O2 0.372729 0.746894 0.253839
O O3 0.400303 0.622106 0.219928
O O4 0.426872 0.704255 0.000000
O O5 0.873458 0.129978 0.275607
O O6 0.776805 0.060682 0.161367
O O7 0.883273 0.000000 0.250000
O O8 0.882178 0.076432 0.000000
O O9 0.071594 0.248629 0.261896
O O10 0.000000 0.144234 0.250000
O O11 0.060335 0.186816 0.000000
O O12 0.305650 0.782952 0.500000
O O13 0.312210 0.861880 0.261934
O O14 0.244944 0.741616 0.254176
O O15 0.657574 0.500000 0.750000
O O16 0.663911 0.567607 0.500000
O O17 0.727991 0.614607 0.728164
O O18 0.143041 0.649695 0.775772
O O19 0.000000 0.645032 0.750000
O O20 0.062793 0.672223 0.000000
O O21 0.670607 0.924923 0.500000
O O22 0.671153 0.000000 0.750000
O O23 0.779167 0.320385 0.000000
#
# Coordination Sequence:
#
# PCOD9392882 Si02
#       8
#     8   8   8   8   8   8   8   8
#     4  10  21  38  58  83 116 150 184 220 260 307
#     4  10  20  33  47  64  87 117 155 200 253 309
#     4  11  21  32  45  62  86 116 154 199 251 311
#     4  11  21  33  54  82 109 141 182 224 268 320
#     4   9  19  35  55  81 113 147 182 219 260 308
#     4  10  19  32  50  71  97 128 166 214 268 319
#     4  10  20  34  52  74 102 134 170 217 269 318
#     4   9  19  35  53  75 106 143 179 221 272 322
#
# _framework density 18.201810999999999
#
# number of rings (size 3 to 8) (size 9 to 14) (size 15 to 20)
#    0.000    2.000    0.000    6.000    0.000    8.500 
#    0.000    2.500    0.000    0.750    0.000    5.250 
#    0.000    0.000    0.000    0.000    0.000    0.000 
#
# Total GULP energy -356928.718919 kJ/mol
# GULP energy per Si atom -5577.011233 kJ/mol
# Density = 1.816038 g / cm^3
# Si number density = 18.201811 Si / 1000 Ang^3
#
#
#
# Elastic Constant Matrix: (Units=GPa)
#
#
# Indices 1 2 3 4 5 6 
#
# 1 80.8898 4.2204 30.5550 0.0000 0.0000 0.0000
# 2 4.2204 68.7700 25.0786 0.0000 0.0000 0.0000
# 3 30.5550 25.0786 76.9781 0.0000 0.0000 0.0000
# 4 0.0000 0.0000 0.0000 25.2356 0.0000 0.0000
# 5 0.0000 0.0000 0.0000 0.0000 26.7425 0.0000
# 6 0.0000 0.0000 0.0000 0.0000 0.0000 10.4834
#
#
#
# Elastic Compliance Matrix: (Units=1/GPa)
#
#
# Indices 1 2 3 4 5 6 
#
# 1 0.014659 0.001387 -0.006270 0.000000 0.000000 0.000000
# 2 0.001387 0.016633 -0.005969 0.000000 0.000000 0.000000
# 3 -0.006270 -0.005969 0.017424 0.000000 0.000000 0.000000
# 4 0.000000 0.000000 0.000000 0.039627 0.000000 0.000000
# 5 0.000000 0.000000 0.000000 0.000000 0.037394 0.000000
# 6 0.000000 0.000000 0.000000 0.000000 0.000000 0.095389
#
#
# Mechanical properties :
#
#
# Convention : Reuss Voigt Hill
#
# Bulk Modulus (GPa) = 37.02251 38.48287 37.75269
# Shear Modulus (GPa) = 19.85432 23.61122 21.73277
#
# Velocity S-wave (km/s) = 3.30629 3.60556 3.45916
# Velocity P-wave (km/s) = 5.91266 6.20658 6.06140
#
# Compressibility (1/GPa) = 0.02701059
#
# Stress axis : x y z
#
# Youngs Moduli (GPa) = 68.21900 60.12153 57.39091
#
# Poissons Ratio (x) = -0.08339 0.35986
# Poissons Ratio (y) = -0.09462 0.34259
# Poissons Ratio (z) = 0.42776 0.35889
#
# Static dielectric constant tensor:
#      x y z
#    x 1.679320 0.000000 0.000000 
#    y 0.000000 1.607640 0.000000 
#    z 0.000000 0.000000 1.626050 
# 
# From -- ./inp_files/6003.got.cif
#   From: 2010.05.17/outbox.cif.g08.bks.cpg/sg49_4_cif.got.tgz:6003.got - 2010.06.03 21:02:19.
