data_PCOD9392111
_publ_section_title
;
Structure prediction by ZEFSAII (Michael W. Deem and Ramdas Pophale) SiO2 
 PCOD9392111
Probable space group: P C C M
;
_chemical_formula_sum "Si O2"
_cell_formula_units_Z 48
_cell_length_a 24.697059
_cell_length_b 13.905262
_cell_length_c 8.615180
_cell_angle_alpha 90.000000
_cell_angle_beta 90.000000
_cell_angle_gamma 90.000000
_cell_volume 2958.617155
_symmetry_space_group_name_H-M "P C C M"
_symmetry_group_IT_number 49
_symmetry_cell_setting 'orthorhombic'
loop_
_space_group_symop_operation_xyz
x,y,z
-x,-y,z
x,-y,1/2-z
-x,y,1/2-z
-x,-y,-z
x,y,-z
-x,y,1/2+z
x,-y,1/2+z
loop_
_atom_site_type_symbol
_atom_site_label
_atom_site_fract_x
_atom_site_fract_y
_atom_site_fract_z
Si Si1 0.831088 0.891140 0.314396
Si Si2 0.944147 0.890417 0.814369
Si Si3 0.277811 0.801368 0.312825
Si Si4 0.558221 0.292899 0.686555
Si Si5 0.667238 0.396384 0.313984
Si Si6 0.386121 0.104446 0.314298
O O1 0.833655 0.894690 0.500000
O O2 0.887515 0.849359 0.247754
O O3 0.779124 0.833128 0.256634
O O4 0.825461 0.000000 0.250000
O O5 0.000000 0.846213 0.750000
O O6 0.943659 0.000000 0.750000
O O7 0.944940 0.892293 0.000000
O O8 0.277118 0.809210 0.500000
O O9 0.293968 0.692182 0.269253
O O10 0.326313 0.867810 0.248411
O O11 0.500000 0.322029 0.750000
O O12 0.557538 0.288289 0.500000
O O13 0.606675 0.364403 0.735351
O O14 0.574705 0.188259 0.751824
O O15 0.682070 0.500000 0.250000
O O16 0.667310 0.400712 0.500000
O O17 0.385999 0.104130 0.500000
O O18 0.401282 0.000000 0.250000
#
# Coordination Sequence:
#
# PCOD9392111 Si02
#       6
#     8   8   8   8   8   8
#     4  11  20  30  45  68  96 131 168 203 239 280
#     4  10  17  27  41  60  89 127 167 206 240 277
#     4  10  20  35  50  70  97 125 157 197 237 281
#     4  10  21  37  53  74  98 123 154 192 230 275
#     4   9  20  36  55  74  96 121 150 188 236 286
#     4  11  21  34  51  71  95 127 159 193 232 277
#
# _framework density 16.223794000000002
#
# number of rings (size 3 to 8) (size 9 to 14) (size 15 to 20)
#    0.000    1.833    0.000    8.500    0.000    4.667 
#    0.000    3.333    0.000    0.000    0.000    0.000 
#    0.000    0.667    0.000    7.000    0.000    3.833 
#
# Total GULP energy -267933.397572 kJ/mol
# GULP energy per Si atom -5581.945783 kJ/mol
# Density = 1.618687 g / cm^3
# Si number density = 16.223794 Si / 1000 Ang^3
#
#
#
# Elastic Constant Matrix: (Units=GPa)
#
#
# Indices 1 2 3 4 5 6 
#
# 1 116.7157 17.8119 37.5906 0.0000 0.0000 0.0000
# 2 17.8119 60.3492 17.2218 0.0000 0.0000 0.0000
# 3 37.5906 17.2218 115.9400 0.0000 0.0000 0.0000
# 4 0.0000 0.0000 0.0000 22.0532 0.0000 0.0000
# 5 0.0000 0.0000 0.0000 0.0000 32.6968 0.0000
# 6 0.0000 0.0000 0.0000 0.0000 0.0000 9.3004
#
#
#
# Elastic Compliance Matrix: (Units=1/GPa)
#
#
# Indices 1 2 3 4 5 6 
#
# 1 0.009810 -0.002076 -0.002872 0.000000 0.000000 0.000000
# 2 -0.002076 0.017743 -0.001963 0.000000 0.000000 0.000000
# 3 -0.002872 -0.001963 0.009848 0.000000 0.000000 0.000000
# 4 0.000000 0.000000 0.000000 0.045345 0.000000 0.000000
# 5 0.000000 0.000000 0.000000 0.000000 0.030584 0.000000
# 6 0.000000 0.000000 0.000000 0.000000 0.000000 0.107522
#
#
# Mechanical properties :
#
#
# Convention : Reuss Voigt Hill
#
# Bulk Modulus (GPa) = 42.40950 48.69483 45.55216
# Shear Modulus (GPa) = 20.61586 27.50213 24.05899
#
# Velocity S-wave (km/s) = 3.56858 4.12171 3.85508
# Velocity P-wave (km/s) = 6.57090 7.26161 6.92487
#
# Compressibility (1/GPa) = 0.02357962
#
# Stress axis : x y z
#
# Youngs Moduli (GPa) = 101.94047 56.36052 101.54436
#
# Poissons Ratio (x) = 0.11698 0.29166
# Poissons Ratio (y) = 0.21159 0.19929
# Poissons Ratio (z) = 0.29279 0.11061
#
# Static dielectric constant tensor:
#      x y z
#    x 1.571330 0.000000 0.000000 
#    y 0.000000 1.521770 0.000000 
#    z 0.000000 0.000000 1.540270 
# 
# From -- ./inp_files/2898.got.cif
#   From: 2010.05.17/outbox.cif.g08.bks.cpg/sg49_2_cif.got.tgz:2898.got - 2010.06.03 21:02:19.
