data_PCOD9392142
_publ_section_title
;
Structure prediction by ZEFSAII (Michael W. Deem and Ramdas Pophale) SiO2 
 PCOD9392142
Probable space group: P C C M
;
_chemical_formula_sum "Si O2"
_cell_formula_units_Z 48
_cell_length_a 16.289974
_cell_length_b 19.129893
_cell_length_c 8.669709
_cell_angle_alpha 90.000000
_cell_angle_beta 90.000000
_cell_angle_gamma 90.000000
_cell_volume 2701.702052
_symmetry_space_group_name_H-M "P C C M"
_symmetry_group_IT_number 49
_symmetry_cell_setting 'orthorhombic'
loop_
_space_group_symop_operation_xyz
x,y,z
-x,-y,z
x,-y,1/2-z
-x,y,1/2-z
-x,-y,-z
x,y,-z
-x,y,1/2+z
x,-y,1/2+z
loop_
_atom_site_type_symbol
_atom_site_label
_atom_site_fract_x
_atom_site_fract_y
_atom_site_fract_z
Si Si1 0.912981 0.668179 0.185359
Si Si2 0.754887 0.578649 0.185951
Si Si3 0.912336 0.169463 0.315095
Si Si4 0.764268 0.921306 0.315003
Si Si5 0.416949 0.920921 0.815734
Si Si6 0.584306 0.420431 0.815367
O O1 0.834428 0.623072 0.232423
O O2 0.903109 0.749209 0.232878
O O3 0.000000 0.642325 0.250000
O O4 0.917138 0.666429 0.000000
O O5 0.763744 0.500000 0.250000
O O6 0.670159 0.609702 0.253990
O O7 0.748809 0.576408 0.000000
O O8 0.913827 0.166158 0.500000
O O9 0.837121 0.124858 0.251835
O O10 0.000000 0.144595 0.250000
O O11 0.769707 0.924143 0.500000
O O12 0.673119 0.892007 0.274576
O O13 0.770243 0.000000 0.250000
O O14 0.500000 0.886956 0.750000
O O15 0.415417 0.000000 0.750000
O O16 0.423518 0.923914 0.000000
O O17 0.585371 0.500000 0.750000
O O18 0.500000 0.388176 0.750000
O O19 0.582463 0.422078 0.000000
#
# Coordination Sequence:
#
# PCOD9392142 Si02
#       6
#     8   8   8   8   8   8
#     4   9  20  36  54  73  97 129 165 202 244 294
#     4  10  19  32  49  74 103 130 163 204 246 290
#     4  10  20  36  55  74  96 128 165 203 246 295
#     4  10  20  33  50  76 104 131 163 204 246 289
#     4   9  16  26  43  67  97 128 160 194 234 280
#     4  10  17  27  44  68  97 130 163 199 242 290
#
# _framework density 17.766577999999999
#
# number of rings (size 3 to 8) (size 9 to 14) (size 15 to 20)
#    0.000    2.333    0.000    5.500    0.000    4.667 
#    0.000    3.333    0.000    1.000    0.000    2.333 
#    0.000    0.000    0.000    0.000    0.000    0.000 
#
# Total GULP energy -267578.464405 kJ/mol
# GULP energy per Si atom -5574.551342 kJ/mol
# Density = 1.772614 g / cm^3
# Si number density = 17.766578 Si / 1000 Ang^3
#
#
#
# Elastic Constant Matrix: (Units=GPa)
#
#
# Indices 1 2 3 4 5 6 
#
# 1 233.1667 61.4239 66.7273 0.0000 0.0000 0.0000
# 2 61.4239 31.7784 20.0838 0.0000 0.0000 0.0000
# 3 66.7273 20.0838 83.1957 0.0000 0.0000 0.0000
# 4 0.0000 0.0000 0.0000 7.3190 0.0000 0.0000
# 5 0.0000 0.0000 0.0000 0.0000 36.0188 0.0000
# 6 0.0000 0.0000 0.0000 0.0000 0.0000 -16.5587
#
#
#
# Elastic Compliance Matrix: (Units=1/GPa)
#
#
# Indices 1 2 3 4 5 6 
#
# 1 0.009672 -0.016275 -0.003828 0.000000 0.000000 0.000000
# 2 -0.016275 0.064519 -0.002522 0.000000 0.000000 0.000000
# 3 -0.003828 -0.002522 0.015699 0.000000 0.000000 0.000000
# 4 0.000000 0.000000 0.000000 0.136631 0.000000 0.000000
# 5 0.000000 0.000000 0.000000 0.000000 0.027763 0.000000
# 6 0.000000 0.000000 0.000000 0.000000 0.000000 -0.060391
#
#
# Mechanical properties :
#
#
# Convention : Reuss Voigt Hill
#
# Bulk Modulus (GPa) = 22.40162 71.62343 47.01252
# Shear Modulus (GPa) = 19.68326 18.68288 19.18307
#
# Velocity S-wave (km/s) = 3.33210 3.24632 3.28949
# Velocity P-wave (km/s) = 5.23833 7.37920 6.39893
#
# Compressibility (1/GPa) = 0.04463963
#
# Stress axis : x y z
#
# Youngs Moduli (GPa) = 103.39456 15.49934 63.69732
#
# Poissons Ratio (x) = 0.25225 0.24386
# Poissons Ratio (y) = 1.68272 0.16064
# Poissons Ratio (z) = 0.39584 0.03909
#
# Static dielectric constant tensor:
#      x y z
#    x 1.656770 0.000000 0.000000 
#    y 0.000000 1.581330 0.000000 
#    z 0.000000 0.000000 1.596490 
# 
# From -- ./inp_files/3866.got.cif
#   From: 2010.05.17/outbox.cif.g08.bks.cpg/sg49_2_cif.got.tgz:3866.got - 2010.06.03 21:02:19.
