data_PCOD9392622
_publ_section_title
;
Structure prediction by ZEFSAII (Michael W. Deem and Ramdas Pophale) SiO2 
 PCOD9392622
Probable space group: P C C M
;
_chemical_formula_sum "Si O2"
_cell_formula_units_Z 64
_cell_length_a 24.746176
_cell_length_b 19.272668
_cell_length_c 8.774920
_cell_angle_alpha 90.000000
_cell_angle_beta 90.000000
_cell_angle_gamma 90.000000
_cell_volume 4184.977267
_symmetry_space_group_name_H-M "P C C M"
_symmetry_group_IT_number 49
_symmetry_cell_setting 'orthorhombic'
loop_
_space_group_symop_operation_xyz
x,y,z
-x,-y,z
x,-y,1/2-z
-x,y,1/2-z
-x,-y,-z
x,y,-z
-x,y,1/2+z
x,-y,1/2+z
loop_
_atom_site_type_symbol
_atom_site_label
_atom_site_fract_x
_atom_site_fract_y
_atom_site_fract_z
Si Si1 0.111331 0.074743 0.817806
Si Si2 0.554155 0.077874 0.318124
Si Si3 0.058750 0.212168 0.683909
Si Si4 0.781517 0.864019 0.320465
Si Si5 0.831390 0.287343 0.820936
Si Si6 0.823563 0.423990 0.680587
Si Si7 0.326125 0.077826 0.817125
Si Si8 0.052059 0.423225 0.819449
O O1 0.075783 0.136165 0.744387
O O2 0.172948 0.092283 0.768639
O O3 0.096545 0.000000 0.750000
O O4 0.106258 0.075377 0.000000
O O5 0.500000 0.111780 0.250000
O O6 0.548726 0.073719 0.500000
O O7 0.613708 0.107099 0.282309
O O8 0.555664 0.000000 0.250000
O O9 0.057353 0.212191 0.500000
O O10 0.108217 0.262872 0.732992
O O11 0.000000 0.229230 0.750000
O O12 0.784869 0.881695 0.500000
O O13 0.797325 0.783371 0.304295
O O14 0.722700 0.879971 0.255765
O O15 0.800236 0.352063 0.744204
O O16 0.836972 0.304183 0.000000
O O17 0.810863 0.500000 0.750000
O O18 0.816965 0.429418 0.500000
O O19 0.886449 0.405629 0.716201
O O20 0.323154 0.000000 0.750000
O O21 0.320553 0.074621 0.000000
O O22 0.050461 0.500000 0.750000
O O23 0.000000 0.385308 0.750000
O O24 0.045504 0.424454 0.000000
#
# Coordination Sequence:
#
# PCOD9392622 Si02
#       8
#     8   8   8   8   8   8   8   8
#     4  11  21  34  51  69  89 112 139 177 221 264
#     4   9  16  25  38  57  84 117 153 190 228 262
#     4  10  21  37  53  70  89 111 139 171 211 263
#     4  10  20  34  49  66  88 115 146 182 223 266
#     4   9  20  36  51  66  87 111 137 171 212 258
#     4  10  20  32  48  67  86 107 134 165 201 246
#     4  10  19  29  43  65  90 119 155 194 229 264
#     4   9  16  25  37  55  76  98 120 146 180 220
#
# _framework density 15.292795999999999
#
# number of rings (size 3 to 8) (size 9 to 14) (size 15 to 20)
#    0.000    2.250    0.000    5.250    0.000    6.750 
#    0.000    3.750    0.000    0.000    0.000    0.000 
#    0.000    0.000    0.000    0.000    0.000    0.625 
#
# Total GULP energy -356508.077750 kJ/mol
# GULP energy per Si atom -5570.438715 kJ/mol
# Density = 1.525799 g / cm^3
# Si number density = 15.292796 Si / 1000 Ang^3
#
#
#
# Elastic Constant Matrix: (Units=GPa)
#
#
# Indices 1 2 3 4 5 6 
#
# 1 80.2789 14.2140 20.3127 0.0000 0.0000 0.0000
# 2 14.2140 87.6549 28.9015 0.0000 0.0000 0.0000
# 3 20.3127 28.9015 34.2664 0.0000 0.0000 0.0000
# 4 0.0000 0.0000 0.0000 11.3309 0.0000 0.0000
# 5 0.0000 0.0000 0.0000 0.0000 28.4123 0.0000
# 6 0.0000 0.0000 0.0000 0.0000 0.0000 1.1652
#
#
#
# Elastic Compliance Matrix: (Units=1/GPa)
#
#
# Indices 1 2 3 4 5 6 
#
# 1 0.014684 0.000677 -0.009275 0.000000 0.000000 0.000000
# 2 0.000677 0.015834 -0.013757 0.000000 0.000000 0.000000
# 3 -0.009275 -0.013757 0.046284 0.000000 0.000000 0.000000
# 4 0.000000 0.000000 0.000000 0.088254 0.000000 0.000000
# 5 0.000000 0.000000 0.000000 0.000000 0.035196 0.000000
# 6 0.000000 0.000000 0.000000 0.000000 0.000000 0.858216
#
#
# Mechanical properties :
#
#
# Convention : Reuss Voigt Hill
#
# Bulk Modulus (GPa) = 31.15999 36.56185 33.86092
# Shear Modulus (GPa) = 4.48883 17.43315 10.96099
#
# Velocity S-wave (km/s) = 1.71512 3.37999 2.68011
# Velocity P-wave (km/s) = 4.93376 6.26037 5.63623
#
# Compressibility (1/GPa) = 0.03209244
#
# Stress axis : x y z
#
# Youngs Moduli (GPa) = 68.10321 63.15344 21.60554
#
# Poissons Ratio (x) = -0.04277 0.20040
# Poissons Ratio (y) = -0.04612 0.29722
# Poissons Ratio (z) = 0.63169 0.86879
#
# Static dielectric constant tensor:
#      x y z
#    x 1.584770 0.000000 0.000000 
#    y 0.000000 1.519540 0.000000 
#    z 0.000000 0.000000 1.518440 
# 
# From -- ./inp_files/6619.got.cif
#   From: 2010.05.17/outbox.cif.g08.bks.cpg/sg49_4_cif.got.tgz:6619.got - 2010.06.03 21:02:19.
