data_PCOD9392941
_publ_section_title
;
Structure prediction by ZEFSAII (Michael W. Deem and Ramdas Pophale) SiO2 
 PCOD9392941
Probable space group: P C C M
;
_chemical_formula_sum "Si O2"
_cell_formula_units_Z 40
_cell_length_a 12.589313
_cell_length_b 8.977184
_cell_length_c 16.019071
_cell_angle_alpha 90.000000
_cell_angle_beta 90.000000
_cell_angle_gamma 90.000000
_cell_volume 1810.420607
_symmetry_space_group_name_H-M "P C C M"
_symmetry_group_IT_number 49
_symmetry_cell_setting 'orthorhombic'
loop_
_space_group_symop_operation_xyz
x,y,z
-x,-y,z
x,-y,1/2-z
-x,y,1/2-z
-x,-y,-z
x,y,-z
-x,y,1/2+z
x,-y,1/2+z
loop_
_atom_site_type_symbol
_atom_site_label
_atom_site_fract_x
_atom_site_fract_y
_atom_site_fract_z
Si Si1 0.968766 0.671064 0.658616
Si Si2 0.291793 0.736983 0.599493
Si Si3 0.098419 0.091112 0.906655
Si Si4 0.741045 0.391794 0.100246
Si Si5 0.514829 0.329867 0.150776
O O1 0.845139 0.682236 0.638799
O O2 0.000000 0.500000 0.657794
O O3 0.000000 0.729571 0.750000
O O4 0.041960 0.748840 0.590770
O O5 0.274630 0.735168 0.500000
O O6 0.211735 0.864563 0.632813
O O7 0.267605 0.566529 0.630156
O O8 0.416367 0.763119 0.615626
O O9 0.115517 0.027371 0.000000
O O10 0.000000 0.000000 0.866916
O O11 0.635978 0.301037 0.126543
O O12 0.748546 0.394210 0.000000
O O13 0.500000 0.500000 0.118319
O O14 0.500000 0.330521 0.250000
#
# Coordination Sequence:
#
# PCOD9392941 Si02
#       5
#     8   8   8   8   8
#     4  11  23  34  55  82 115 147 189 244 303 354
#     4   9  17  31  52  77 111 148 188 238 291 349
#     4  10  21  37  57  80 110 152 194 234 290 356
#     4  10  19  32  52  80 113 150 193 241 297 359
#     4   9  18  28  49  78 114 148 187 238 299 352
#
# _framework density 22.094315000000002
#
# number of rings (size 3 to 8) (size 9 to 14) (size 15 to 20)
#    0.000    2.200    2.000    1.200    2.800    5.200 
#    0.000    0.000    0.000    1.200    0.000    7.000 
#    0.000    0.000    0.000    0.000    0.000    0.000 
#
# Total GULP energy -222895.161849 kJ/mol
# GULP energy per Si atom -5572.379046 kJ/mol
# Density = 2.204403 g / cm^3
# Si number density = 22.094315 Si / 1000 Ang^3
#
#
#
# Elastic Constant Matrix: (Units=GPa)
#
#
# Indices 1 2 3 4 5 6 
#
# 1 229.4204 16.3876 30.4468 0.0000 0.0000 0.0000
# 2 16.3876 22.2947 9.8071 0.0000 0.0000 0.0000
# 3 30.4468 9.8071 60.6820 0.0000 0.0000 0.0000
# 4 0.0000 0.0000 0.0000 7.1776 0.0000 0.0000
# 5 0.0000 0.0000 0.0000 0.0000 73.5481 0.0000
# 6 0.0000 0.0000 0.0000 0.0000 0.0000 41.0801
#
#
#
# Elastic Compliance Matrix: (Units=1/GPa)
#
#
# Indices 1 2 3 4 5 6 
#
# 1 0.004812 -0.002665 -0.001984 0.000000 0.000000 0.000000
# 2 -0.002665 0.049762 -0.006705 0.000000 0.000000 0.000000
# 3 -0.001984 -0.006705 0.018558 0.000000 0.000000 0.000000
# 4 0.000000 0.000000 0.000000 0.139322 0.000000 0.000000
# 5 0.000000 0.000000 0.000000 0.000000 0.013597 0.000000
# 6 0.000000 0.000000 0.000000 0.000000 0.000000 0.024343
#
#
# Mechanical properties :
#
#
# Convention : Reuss Voigt Hill
#
# Bulk Modulus (GPa) = 19.83142 47.29780 33.56461
# Shear Modulus (GPa) = 17.24671 41.41152 29.32912
#
# Velocity S-wave (km/s) = 2.79694 4.33402 3.64737
# Velocity P-wave (km/s) = 4.40747 6.81900 5.74128
#
# Compressibility (1/GPa) = 0.05042502
#
# Stress axis : x y z
#
# Youngs Moduli (GPa) = 207.79469 20.09569 53.88381
#
# Poissons Ratio (x) = 0.05355 0.10690
# Poissons Ratio (y) = 0.55370 0.36131
# Poissons Ratio (z) = 0.41226 0.13475
#
# Static dielectric constant tensor:
#      x y z
#    x 2.015700 0.000000 0.000000 
#    y 0.000000 1.796880 0.000000 
#    z 0.000000 0.000000 1.875530 
# 
# From -- ./inp_files/15967.got.cif
#   From: 2010.05.17/outbox.cif.g08.bks.cpg/sg49_8_cif.got.tgz:15967.got - 2010.06.03 21:02:19.
