data_PCOD9392060
_publ_section_title
;
Structure prediction by ZEFSAII (Michael W. Deem and Ramdas Pophale) SiO2 
 PCOD9392060
Probable space group: P C C M
;
_chemical_formula_sum "Si O2"
_cell_formula_units_Z 60
_cell_length_a 23.302147
_cell_length_b 5.250061
_cell_length_c 26.127474
_cell_angle_alpha 90.000000
_cell_angle_beta 90.000000
_cell_angle_gamma 90.000000
_cell_volume 3196.374898
_symmetry_space_group_name_H-M "P C C M"
_symmetry_group_IT_number 49
_symmetry_cell_setting 'orthorhombic'
loop_
_space_group_symop_operation_xyz
x,y,z
-x,-y,z
x,-y,1/2-z
-x,y,1/2-z
-x,-y,-z
x,y,-z
-x,y,1/2+z
x,-y,1/2+z
loop_
_atom_site_type_symbol
_atom_site_label
_atom_site_fract_x
_atom_site_fract_y
_atom_site_fract_z
Si Si1 0.734027 0.656319 0.060715
Si Si2 0.058213 0.655016 0.556761
Si Si3 0.538120 0.749106 0.391430
Si Si4 0.000000 0.000000 0.859254
Si Si5 0.660120 0.141660 0.058903
Si Si6 0.435052 0.747541 0.227883
Si Si7 0.155111 0.458621 0.129210
Si Si8 0.882533 0.946769 0.689520
O O1 0.697313 0.397620 0.062408
O O2 0.787112 0.609490 0.098564
O O3 0.695741 0.897735 0.079114
O O4 0.750555 0.697681 0.000000
O O5 0.074398 0.753911 0.500000
O O6 0.108727 0.497070 0.583414
O O7 0.000000 0.500000 0.550650
O O8 0.039433 0.850205 0.600328
O O9 0.500000 0.500000 0.404722
O O10 0.597890 0.792406 0.419509
O O11 0.556217 0.732695 0.332059
O O12 0.500000 0.000000 0.398591
O O13 0.049968 0.883268 0.823391
O O14 0.650889 0.074397 0.000000
O O15 0.405043 0.500000 0.250000
O O16 0.500000 0.749018 0.250000
O O17 0.406798 0.000000 0.250000
O O18 0.152716 0.708114 0.165484
O O19 0.137155 0.209357 0.161944
O O20 0.876340 0.000000 0.750000
#
# Coordination Sequence:
#
# PCOD9392060 Si02
#       8
#     8   8   8   4   8   8   8   8
#     4  10  21  42  65  86 113 154 201 245 289 353
#     4  10  19  33  53  86 128 152 181 248 315 364
#     4  12  21  33  58  88 117 156 189 231 295 353
#     4  10  20  36  52  82 126 162 202 230 300 384
#     4  10  23  40  59  86 122 155 192 241 287 341
#     4  10  16  30  49  77 110 145 182 226 268 328
#     4  11  22  39  63  89 111 156 209 244 301 366
#     4  11  23  38  59  87 115 160 199 251 299 355
#
# _framework density 18.771266000000001
#
# number of rings (size 3 to 8) (size 9 to 14) (size 15 to 20)
#    0.000    1.467    4.000    2.800    0.000    0.533 
#    0.000    2.667    0.000    8.000    0.000    0.000 
#    0.000    0.000    0.000    0.000    0.000    0.000 
#
# Total GULP energy -334056.322742 kJ/mol
# GULP energy per Si atom -5567.605379 kJ/mol
# Density = 1.872854 g / cm^3
# Si number density = 18.771266 Si / 1000 Ang^3
#
#
#
# Elastic Constant Matrix: (Units=GPa)
#
#
# Indices 1 2 3 4 5 6 
#
# 1 95.5368 38.0701 71.4723 0.0000 0.0000 0.0000
# 2 38.0701 135.1618 44.2944 0.0000 0.0000 0.0000
# 3 71.4723 44.2944 114.2852 0.0000 0.0000 0.0000
# 4 0.0000 0.0000 0.0000 18.0909 0.0000 0.0000
# 5 0.0000 0.0000 0.0000 0.0000 9.6984 0.0000
# 6 0.0000 0.0000 0.0000 0.0000 0.0000 -24.9105
#
#
#
# Elastic Compliance Matrix: (Units=1/GPa)
#
#
# Indices 1 2 3 4 5 6 
#
# 1 0.020029 -0.001760 -0.011844 0.000000 0.000000 0.000000
# 2 -0.001760 0.008630 -0.002244 0.000000 0.000000 0.000000
# 3 -0.011844 -0.002244 0.017027 0.000000 0.000000 0.000000
# 4 0.000000 0.000000 0.000000 0.055276 0.000000 0.000000
# 5 0.000000 0.000000 0.000000 0.000000 0.103109 0.000000
# 6 0.000000 0.000000 0.000000 0.000000 0.000000 -0.040144
#
#
# Mechanical properties :
#
#
# Convention : Reuss Voigt Hill
#
# Bulk Modulus (GPa) = 71.48034 72.51747 71.99890
# Shear Modulus (GPa) = 24.96434 13.31891 19.14163
#
# Velocity S-wave (km/s) = 3.65077 2.66660 3.19679
# Velocity P-wave (km/s) = 7.47885 6.94241 7.21561
#
# Compressibility (1/GPa) = 0.01398986
#
# Stress axis : x y z
#
# Youngs Moduli (GPa) = 49.92789 115.87946 58.73179
#
# Poissons Ratio (x) = 0.20396 0.69560
# Poissons Ratio (y) = 0.08788 0.13179
# Poissons Ratio (z) = 0.59133 0.26003
#
# Static dielectric constant tensor:
#      x y z
#    x 1.648690 0.000000 0.000000 
#    y 0.000000 1.677560 0.000000 
#    z 0.000000 0.000000 1.739320 
# 
# From -- ./inp_files/23404.got.cif
#   From: 2010.05.17/outbox.cif.g08.bks.cpg/sg49_12_cif.got.tgz:23404.got - 2010.06.03 21:02:19.
