data_PCOD9392780
_publ_section_title
;
Structure prediction by ZEFSAII (Michael W. Deem and Ramdas Pophale) SiO2 
 PCOD9392780
Probable space group: P C C M
;
_chemical_formula_sum "Si O2"
_cell_formula_units_Z 64
_cell_length_a 20.357956
_cell_length_b 20.263982
_cell_length_c 8.899557
_cell_angle_alpha 90.000000
_cell_angle_beta 90.000000
_cell_angle_gamma 90.000000
_cell_volume 3671.363208
_symmetry_space_group_name_H-M "P C C M"
_symmetry_group_IT_number 49
_symmetry_cell_setting 'orthorhombic'
loop_
_space_group_symop_operation_xyz
x,y,z
-x,-y,z
x,-y,1/2-z
-x,y,1/2-z
-x,-y,-z
x,y,-z
-x,y,1/2+z
x,-y,1/2+z
loop_
_atom_site_type_symbol
_atom_site_label
_atom_site_fract_x
_atom_site_fract_y
_atom_site_fract_z
Si Si1 0.105951 0.066660 0.321514
Si Si2 0.569167 0.572493 0.179521
Si Si3 0.933287 0.786669 0.320106
Si Si4 0.787556 0.245630 0.180836
Si Si5 0.433764 0.204492 0.322587
Si Si6 0.389577 0.931601 0.677074
Si Si7 0.760855 0.105993 0.323216
Si Si8 0.664659 0.675984 0.677971
O O1 0.100401 0.062957 0.500000
O O2 0.075861 0.136665 0.270124
O O3 0.182223 0.072313 0.273705
O O4 0.078467 0.000000 0.250000
O O5 0.579562 0.500000 0.250000
O O6 0.500000 0.596970 0.250000
O O7 0.628235 0.620110 0.228094
O O8 0.563157 0.568526 0.000000
O O9 0.939104 0.786942 0.500000
O O10 0.864942 0.749988 0.282696
O O11 0.000000 0.759860 0.250000
O O12 0.761099 0.181806 0.268806
O O13 0.740388 0.307221 0.213806
O O14 0.782425 0.232699 0.000000
O O15 0.500000 0.231968 0.250000
O O16 0.442175 0.196988 0.500000
O O17 0.419850 0.133423 0.250993
O O18 0.375000 0.255794 0.296590
O O19 0.403164 0.931699 0.500000
O O20 0.310873 0.924342 0.699187
O O21 0.411923 0.000000 0.750000
O O22 0.777454 0.101752 0.500000
O O23 0.659402 0.660265 0.500000
#
# Coordination Sequence:
#
# PCOD9392780 Si02
#       8
#     8   8   8   8   8   8   8   8
#     4  10  20  32  46  65  90 121 160 206 259 322
#     4  11  22  37  58  85 121 159 194 226 261 309
#     4   9  19  33  49  69  97 132 167 209 261 318
#     4   9  18  34  54  76 103 135 171 213 261 311
#     4  11  23  38  56  75  99 131 167 213 265 316
#     4  11  23  36  51  70  93 122 163 213 268 326
#     4  10  19  31  49  72  95 122 158 207 261 318
#     4  10  20  36  59  84 110 143 180 221 265 309
#
# _framework density 17.432217000000001
#
# number of rings (size 3 to 8) (size 9 to 14) (size 15 to 20)
#    0.000    1.875    1.250    4.500    0.000    8.000 
#    0.000    2.500    0.000    0.000    0.000    0.000 
#    0.000    0.500    0.000    5.750    0.000    1.750 
#
# Total GULP energy -357378.463410 kJ/mol
# GULP energy per Si atom -5584.038491 kJ/mol
# Density = 1.739254 g / cm^3
# Si number density = 17.432217 Si / 1000 Ang^3
#
#
#
# Elastic Constant Matrix: (Units=GPa)
#
#
# Indices 1 2 3 4 5 6 
#
# 1 104.0939 36.4158 45.8225 0.0000 0.0000 0.0000
# 2 36.4158 63.9881 35.5701 0.0000 0.0000 0.0000
# 3 45.8225 35.5701 59.4209 0.0000 0.0000 0.0000
# 4 0.0000 0.0000 0.0000 20.0411 0.0000 0.0000
# 5 0.0000 0.0000 0.0000 0.0000 24.4174 0.0000
# 6 0.0000 0.0000 0.0000 0.0000 0.0000 99.7155
#
#
#
# Elastic Compliance Matrix: (Units=1/GPa)
#
#
# Indices 1 2 3 4 5 6 
#
# 1 0.014955 -0.003148 -0.009649 0.000000 0.000000 0.000000
# 2 -0.003148 0.024084 -0.011990 0.000000 0.000000 0.000000
# 3 -0.009649 -0.011990 0.031447 0.000000 0.000000 0.000000
# 4 0.000000 0.000000 0.000000 0.049897 0.000000 0.000000
# 5 0.000000 0.000000 0.000000 0.000000 0.040954 0.000000
# 6 0.000000 0.000000 0.000000 0.000000 0.000000 0.010029
#
#
# Mechanical properties :
#
#
# Convention : Reuss Voigt Hill
#
# Bulk Modulus (GPa) = 47.81411 51.45775 49.63593
# Shear Modulus (GPa) = 21.93848 36.14776 29.04312
#
# Velocity S-wave (km/s) = 3.55139 4.55864 4.08617
# Velocity P-wave (km/s) = 6.65617 7.56909 7.12726
#
# Compressibility (1/GPa) = 0.02091433
#
# Stress axis : x y z
#
# Youngs Moduli (GPa) = 66.86653 41.52105 31.79963
#
# Poissons Ratio (x) = 0.13069 0.30682
# Poissons Ratio (y) = 0.21046 0.38127
# Poissons Ratio (z) = 0.64517 0.49783
#
# Static dielectric constant tensor:
#      x y z
#    x 1.643900 0.000000 0.000000 
#    y 0.000000 1.579580 0.000000 
#    z 0.000000 0.000000 1.581300 
# 
# From -- ./inp_files/5961.got.cif
#   From: 2010.05.17/outbox.cif.g08.bks.cpg/sg49_3_cif.got.tgz:5961.got - 2010.06.03 21:02:19.
