data_PCOD9392699
_publ_section_title
;
Structure prediction by ZEFSAII (Michael W. Deem and Ramdas Pophale) SiO2 
 PCOD9392699
Probable space group: P C C M
;
_chemical_formula_sum "Si O2"
_cell_formula_units_Z 64
_cell_length_a 23.094149
_cell_length_b 16.285593
_cell_length_c 8.860506
_cell_angle_alpha 90.000000
_cell_angle_beta 90.000000
_cell_angle_gamma 90.000000
_cell_volume 3332.453242
_symmetry_space_group_name_H-M "P C C M"
_symmetry_group_IT_number 49
_symmetry_cell_setting 'orthorhombic'
loop_
_space_group_symop_operation_xyz
x,y,z
-x,-y,z
x,-y,1/2-z
-x,y,1/2-z
-x,-y,-z
x,y,-z
-x,y,1/2+z
x,-y,1/2+z
loop_
_atom_site_type_symbol
_atom_site_label
_atom_site_fract_x
_atom_site_fract_y
_atom_site_fract_z
Si Si1 0.849023 0.582126 0.175768
Si Si2 0.349393 0.264467 0.180997
Si Si3 0.938482 0.887002 0.327555
Si Si4 0.435925 0.413909 0.180938
Si Si5 0.771664 0.300998 0.177221
Si Si6 0.685475 0.084076 0.679937
Si Si7 0.058989 0.689090 0.173001
Si Si8 0.183895 0.134075 0.818586
O O1 0.872080 0.500000 0.250000
O O2 0.791736 0.611557 0.260488
O O3 0.893187 0.653399 0.217689
O O4 0.840033 0.573323 0.000000
O O5 0.399864 0.330307 0.212117
O O6 0.294465 0.291150 0.277894
O O7 0.351686 0.166337 0.215303
O O8 0.336776 0.269555 0.000000
O O9 0.937055 0.917820 0.500000
O O10 0.940506 0.787616 0.331123
O O11 0.876126 0.902960 0.247535
O O12 0.000000 0.910979 0.250000
O O13 0.411830 0.500000 0.250000
O O14 0.500000 0.404914 0.250000
O O15 0.439127 0.423299 0.000000
O O16 0.805981 0.226666 0.258560
O O17 0.782455 0.294404 0.000000
O O18 0.686234 0.076504 0.500000
O O19 0.753658 0.094783 0.726471
O O20 0.662977 0.000000 0.750000
O O21 0.000000 0.661819 0.250000
O O22 0.066253 0.660378 0.000000
O O23 0.179758 0.133758 0.000000
#
# Coordination Sequence:
#
# PCOD9392699 Si02
#       8
#     8   8   8   8   8   8   8   8
#     4  12  24  37  51  66  92 128 166 215 273 332
#     4   9  20  38  58  83 118 160 196 236 288 339
#     4  10  19  30  49  74 100 128 168 218 274 339
#     4  10  20  36  60  89 125 163 204 247 288 334
#     4  11  21  34  52  76 102 132 175 222 270 330
#     4   9  19  35  56  84 115 150 192 238 291 346
#     4  10  20  34  50  69  91 119 162 212 266 329
#     4  10  19  33  53  75 104 138 173 218 276 337
#
# _framework density 19.205069999999999
#
# number of rings (size 3 to 8) (size 9 to 14) (size 15 to 20)
#    0.000    1.875    1.250    4.875    0.000    5.250 
#    0.000    2.500    0.000    0.750    0.000    5.250 
#    0.000    0.000    0.000    0.000    0.000    0.000 
#
# Total GULP energy -356788.238016 kJ/mol
# GULP energy per Si atom -5574.816219 kJ/mol
# Density = 1.916136 g / cm^3
# Si number density = 19.205070 Si / 1000 Ang^3
#
#
#
# Elastic Constant Matrix: (Units=GPa)
#
#
# Indices 1 2 3 4 5 6 
#
# 1 64.6883 52.1234 33.9389 0.0000 0.0000 0.0000
# 2 52.1234 103.1960 35.2154 0.0000 0.0000 0.0000
# 3 33.9389 35.2154 71.0284 0.0000 0.0000 0.0000
# 4 0.0000 0.0000 0.0000 41.4955 0.0000 0.0000
# 5 0.0000 0.0000 0.0000 0.0000 -14.2944 0.0000
# 6 0.0000 0.0000 0.0000 0.0000 0.0000 -1.3375
#
#
#
# Elastic Compliance Matrix: (Units=1/GPa)
#
#
# Indices 1 2 3 4 5 6 
#
# 1 0.029463 -0.012130 -0.008064 0.000000 0.000000 0.000000
# 2 -0.012130 0.016657 -0.002463 0.000000 0.000000 0.000000
# 3 -0.008064 -0.002463 0.019153 0.000000 0.000000 0.000000
# 4 0.000000 0.000000 0.000000 0.024099 0.000000 0.000000
# 5 0.000000 0.000000 0.000000 0.000000 -0.069957 0.000000
# 6 0.000000 0.000000 0.000000 0.000000 0.000000 -0.747649
#
#
# Mechanical properties :
#
#
# Convention : Reuss Voigt Hill
#
# Bulk Modulus (GPa) = 50.09972 53.49647 51.79810
# Shear Modulus (GPa) = -7.39355 13.01504 2.81075
#
# Velocity S-wave (km/s) = -1.96422 2.60607 1.21108
# Velocity P-wave (km/s) = 4.58248 6.08040 5.38379
#
# Compressibility (1/GPa) = 0.01996019
#
# Stress axis : x y z
#
# Youngs Moduli (GPa) = 33.94031 60.03362 52.21048
#
# Poissons Ratio (x) = 0.72819 0.42105
# Poissons Ratio (y) = 0.41169 0.12858
# Poissons Ratio (z) = 0.27371 0.14785
#
# Static dielectric constant tensor:
#      x y z
#    x 1.587820 0.000000 0.000000 
#    y 0.000000 1.692300 0.000000 
#    z 0.000000 0.000000 1.697080 
# 
# From -- ./inp_files/5937.got.cif
#   From: 2010.05.17/outbox.cif.g08.bks.cpg/sg49_3_cif.got.tgz:5937.got - 2010.06.03 21:02:19.
