data_PCOD9392163
_publ_section_title
;
Structure prediction by ZEFSAII (Michael W. Deem and Ramdas Pophale) SiO2 
 PCOD9392163
Probable space group: P C C M
;
_chemical_formula_sum "Si O2"
_cell_formula_units_Z 48
_cell_length_a 9.257076
_cell_length_b 32.023866
_cell_length_c 8.639145
_cell_angle_alpha 90.000000
_cell_angle_beta 90.000000
_cell_angle_gamma 90.000000
_cell_volume 2561.051740
_symmetry_space_group_name_H-M "P C C M"
_symmetry_group_IT_number 49
_symmetry_cell_setting 'orthorhombic'
loop_
_space_group_symop_operation_xyz
x,y,z
-x,-y,z
x,-y,1/2-z
-x,y,1/2-z
-x,-y,-z
x,y,-z
-x,y,1/2+z
x,-y,1/2+z
loop_
_atom_site_type_symbol
_atom_site_label
_atom_site_fract_x
_atom_site_fract_y
_atom_site_fract_z
Si Si1 0.661300 0.712441 0.813540
Si Si2 0.835406 0.542905 0.314963
Si Si3 0.163081 0.629946 0.313662
Si Si4 0.838195 0.794655 0.813863
Si Si5 0.338542 0.873135 0.185903
Si Si6 0.161358 0.044718 0.314445
O O1 0.500000 0.714103 0.750000
O O2 0.742808 0.669938 0.767419
O O3 0.752490 0.752964 0.764196
O O4 0.655535 0.712869 0.000000
O O5 0.768531 0.500000 0.250000
O O6 0.838628 0.541968 0.500000
O O7 0.773903 0.586663 0.253772
O O8 0.000000 0.543428 0.250000
O O9 0.156697 0.627040 0.500000
O O10 0.000000 0.635074 0.250000
O O11 0.755010 0.835102 0.751875
O O12 0.000000 0.793784 0.750000
O O13 0.841848 0.795842 0.000000
O O14 0.500000 0.870821 0.250000
O O15 0.263707 0.916958 0.230282
O O16 0.340716 0.870541 0.000000
O O17 0.153844 0.042500 0.500000
O O18 0.000000 0.051928 0.250000
O O19 0.211489 0.000000 0.250000
#
# Coordination Sequence:
#
# PCOD9392163 Si02
#       6
#     8   8   8   8   8   8
#     4  10  23  39  57  81 111 145 183 225 274 328
#     4  10  17  27  45  72 104 139 176 220 270 319
#     4  10  19  33  52  78 108 140 179 224 270 322
#     4  11  23  40  62  88 115 148 188 232 279 333
#     4  11  24  40  59  86 118 154 191 234 284 338
#     4  10  21  37  59  85 114 149 192 237 285 335
#
# _framework density 18.742298999999999
#
# number of rings (size 3 to 8) (size 9 to 14) (size 15 to 20)
#    0.000    1.667    0.000    7.000    0.000    8.333 
#    0.000    1.667    0.000    0.500    0.000    3.500 
#    0.000    0.000    0.000    0.000    0.000    0.000 
#
# Total GULP energy -268186.929163 kJ/mol
# GULP energy per Si atom -5587.227691 kJ/mol
# Density = 1.869964 g / cm^3
# Si number density = 18.742299 Si / 1000 Ang^3
#
#
#
# Elastic Constant Matrix: (Units=GPa)
#
#
# Indices 1 2 3 4 5 6 
#
# 1 128.0351 112.0308 40.7023 0.0000 0.0000 0.0000
# 2 112.0308 221.7981 66.7461 0.0000 0.0000 0.0000
# 3 40.7023 66.7461 81.6333 0.0000 0.0000 0.0000
# 4 0.0000 0.0000 0.0000 31.6194 0.0000 0.0000
# 5 0.0000 0.0000 0.0000 0.0000 26.6361 0.0000
# 6 0.0000 0.0000 0.0000 0.0000 0.0000 -11.0692
#
#
#
# Elastic Compliance Matrix: (Units=1/GPa)
#
#
# Indices 1 2 3 4 5 6 
#
# 1 0.014153 -0.006665 -0.001607 0.000000 0.000000 0.000000
# 2 -0.006665 0.009119 -0.004133 0.000000 0.000000 0.000000
# 3 -0.001607 -0.004133 0.016430 0.000000 0.000000 0.000000
# 4 0.000000 0.000000 0.000000 0.031626 0.000000 0.000000
# 5 0.000000 0.000000 0.000000 0.000000 0.037543 0.000000
# 6 0.000000 0.000000 0.000000 0.000000 0.000000 -0.090341
#
#
# Mechanical properties :
#
#
# Convention : Reuss Voigt Hill
#
# Bulk Modulus (GPa) = 67.14813 96.71387 81.93100
# Shear Modulus (GPa) = 103.50930 23.56975 63.53952
#
# Velocity S-wave (km/s) = 7.43959 3.55007 5.82883
# Velocity P-wave (km/s) = 10.47385 8.27756 9.43980
#
# Compressibility (1/GPa) = 0.01489245
#
# Stress axis : x y z
#
# Youngs Moduli (GPa) = 70.65456 109.66253 60.86362
#
# Poissons Ratio (x) = 0.73093 0.09781
# Poissons Ratio (y) = 0.47093 0.25153
# Poissons Ratio (z) = 0.11355 0.45319
#
# Static dielectric constant tensor:
#      x y z
#    x 1.533570 0.000000 0.000000 
#    y 0.000000 1.672570 0.000000 
#    z 0.000000 0.000000 1.632430 
# 
# From -- ./inp_files/2092.got.cif
#   From: 2010.05.17/outbox.cif.g08.bks.cpg/sg49_2_cif.got.tgz:2092.got - 2010.06.03 21:02:19.
