data_PCOD9392746
_publ_section_title
;
Structure prediction by ZEFSAII (Michael W. Deem and Ramdas Pophale) SiO2 
 PCOD9392746
Probable space group: P C C M
;
_chemical_formula_sum "Si O2"
_cell_formula_units_Z 64
_cell_length_a 20.916769
_cell_length_b 8.409978
_cell_length_c 14.492329
_cell_angle_alpha 90.000000
_cell_angle_beta 90.000000
_cell_angle_gamma 90.000000
_cell_volume 2549.339321
_symmetry_space_group_name_H-M "P C C M"
_symmetry_group_IT_number 49
_symmetry_cell_setting 'orthorhombic'
loop_
_space_group_symop_operation_xyz
x,y,z
-x,-y,z
x,-y,1/2-z
-x,y,1/2-z
-x,-y,-z
x,y,-z
-x,y,1/2+z
x,-y,1/2+z
loop_
_atom_site_type_symbol
_atom_site_label
_atom_site_fract_x
_atom_site_fract_y
_atom_site_fract_z
Si Si1 0.713250 0.169053 0.606078
Si Si2 0.391506 0.646097 0.323180
Si Si3 0.350444 0.831216 0.847028
Si Si4 0.783340 0.695276 0.610979
Si Si5 0.039634 0.775599 0.612374
Si Si6 0.489886 0.182581 0.361933
Si Si7 0.093398 0.875967 0.112509
Si Si8 0.168576 0.352940 0.886479
O O1 0.726977 0.136687 0.500000
O O2 0.670063 0.330397 0.612673
O O3 0.781803 0.217654 0.648380
O O4 0.677113 0.005336 0.632970
O O5 0.398838 0.500000 0.250000
O O6 0.373268 0.794029 0.256082
O O7 0.454677 0.689418 0.382147
O O8 0.289230 0.723713 0.861542
O O9 0.417680 0.784726 0.894645
O O10 0.784208 0.702605 0.500000
O O11 0.837069 0.820410 0.644032
O O12 0.804841 0.522446 0.640816
O O13 0.036329 0.768257 0.500000
O O14 0.095199 0.658885 0.643018
O O15 0.966384 0.766544 0.643744
O O16 0.070300 0.947352 0.636292
O O17 0.500000 0.182231 0.250000
O O18 0.500000 0.000000 0.391200
O O19 0.095293 0.871804 0.000000
O O20 0.168549 0.345069 0.000000
#
# Coordination Sequence:
#
# PCOD9392746 Si02
#       8
#     8   8   8   8   8   8   8   8
#     4  11  22  38  60  90 126 164 201 251 308 364
#     4  11  23  41  66  94 122 156 201 255 306 359
#     4  11  21  36  61  84 116 153 201 243 293 363
#     4  10  19  31  47  77 116 155 194 248 310 365
#     4   8  13  24  41  65  97 144 196 246 291 350
#     4   9  18  36  60  86 114 142 193 246 282 355
#     4   8  14  24  42  67 101 142 195 246 297 355
#     4   9  18  30  46  70 111 154 195 244 301 355
#
# _framework density 25.104544000000001
#
# number of rings (size 3 to 8) (size 9 to 14) (size 15 to 20)
#    0.000    2.375    1.250    3.000    0.000    4.750 
#    0.000    5.000    0.000    0.000    0.000   15.750 
#    0.000    7.000    0.000    0.375    0.000    0.125 
#
# Total GULP energy -356707.383962 kJ/mol
# GULP energy per Si atom -5573.552874 kJ/mol
# Density = 2.504741 g / cm^3
# Si number density = 25.104544 Si / 1000 Ang^3
#
#
#
# Elastic Constant Matrix: (Units=GPa)
#
#
# Indices 1 2 3 4 5 6 
#
# 1 164.6118 27.5791 5.4535 0.0000 0.0000 0.0000
# 2 27.5791 37.3998 -3.6379 0.0000 0.0000 0.0000
# 3 5.4535 -3.6379 52.7244 0.0000 0.0000 0.0000
# 4 0.0000 0.0000 0.0000 7.0497 0.0000 0.0000
# 5 0.0000 0.0000 0.0000 0.0000 37.5584 0.0000
# 6 0.0000 0.0000 0.0000 0.0000 0.0000 53.2368
#
#
#
# Elastic Compliance Matrix: (Units=1/GPa)
#
#
# Indices 1 2 3 4 5 6 
#
# 1 0.006992 -0.005262 -0.001086 0.000000 0.000000 0.000000
# 2 -0.005262 0.030879 0.002675 0.000000 0.000000 0.000000
# 3 -0.001086 0.002675 0.019263 0.000000 0.000000 0.000000
# 4 0.000000 0.000000 0.000000 0.141851 0.000000 0.000000
# 5 0.000000 0.000000 0.000000 0.000000 0.026625 0.000000
# 6 0.000000 0.000000 0.000000 0.000000 0.000000 0.018784
#
#
# Mechanical properties :
#
#
# Convention : Reuss Voigt Hill
#
# Bulk Modulus (GPa) = 20.08534 34.83615 27.46074
# Shear Modulus (GPa) = 18.63328 34.59174 26.61251
#
# Velocity S-wave (km/s) = 2.72734 3.71604 3.25940
# Velocity P-wave (km/s) = 4.23508 5.68494 5.01271
#
# Compressibility (1/GPa) = 0.04978757
#
# Stress axis : x y z
#
# Youngs Moduli (GPa) = 143.01058 32.38487 51.91170
#
# Poissons Ratio (x) = 0.17041 0.05639
# Poissons Ratio (y) = 0.75253 -0.13886
# Poissons Ratio (z) = 0.15536 -0.08662
#
# Static dielectric constant tensor:
#      x y z
#    x 2.201100 0.000000 0.000000 
#    y 0.000000 1.902980 0.000000 
#    z 0.000000 0.000000 2.094610 
# 
# From -- ./inp_files/18305.got.cif
#   From: 2010.05.17/outbox.cif.g08.bks.cpg/sg49_10_cif.got.tgz:18305.got - 2010.06.03 21:02:19.
