data_PCOD9392554
_publ_section_title
;
Structure prediction by ZEFSAII (Michael W. Deem and Ramdas Pophale) SiO2 
 PCOD9392554
Probable space group: P C C M
;
_chemical_formula_sum "Si O2"
_cell_formula_units_Z 40
_cell_length_a 11.741620
_cell_length_b 7.218824
_cell_length_c 20.318327
_cell_angle_alpha 90.000000
_cell_angle_beta 90.000000
_cell_angle_gamma 90.000000
_cell_volume 1722.195381
_symmetry_space_group_name_H-M "P C C M"
_symmetry_group_IT_number 49
_symmetry_cell_setting 'orthorhombic'
loop_
_space_group_symop_operation_xyz
x,y,z
-x,-y,z
x,-y,1/2-z
-x,y,1/2-z
-x,-y,-z
x,y,-z
-x,y,1/2+z
x,-y,1/2+z
loop_
_atom_site_type_symbol
_atom_site_label
_atom_site_fract_x
_atom_site_fract_y
_atom_site_fract_z
Si Si1 0.186903 0.012413 0.571427
Si Si2 0.652644 0.299629 0.605993
Si Si3 0.661743 0.703119 0.743606
Si Si4 0.399517 0.740688 0.105279
Si Si5 0.886104 0.167499 0.792330
O O1 0.132691 0.038566 0.500000
O O2 0.303000 0.133082 0.574269
O O3 0.112836 0.090883 0.633103
O O4 0.236138 0.802251 0.577068
O O5 0.660583 0.232999 0.681894
O O6 0.642387 0.524379 0.600869
O O7 0.528061 0.239490 0.579787
O O8 0.613117 0.500000 0.750000
O O9 0.597798 0.795634 0.682988
O O10 0.790368 0.680186 0.715039
O O11 0.000000 0.209353 0.750000
O O12 0.832714 0.000000 0.750000
#
# Coordination Sequence:
#
# PCOD9392554 Si02
#       5
#     8   8   8   8   8
#     4  11  23  38  57  85 118 154 191 234 290 347
#     4  10  18  34  54  84 121 158 196 233 280 335
#     4   9  17  32  55  85 114 149 192 245 291 334
#     4   9  20  32  54  86 121 157 195 237 276 335
#     4  10  20  38  61  83 109 140 192 250 292 347
#
# _framework density 23.226168999999999
#
# number of rings (size 3 to 8) (size 9 to 14) (size 15 to 20)
#    0.000    2.200    2.000    1.200    0.000    5.200 
#    0.000    6.000    0.000    0.000    0.000    4.200 
#    0.000    0.000    0.000    0.000    0.000    0.000 
#
# Total GULP energy -222725.299175 kJ/mol
# GULP energy per Si atom -5568.132479 kJ/mol
# Density = 2.317331 g / cm^3
# Si number density = 23.226169 Si / 1000 Ang^3
#
#
#
# Elastic Constant Matrix: (Units=GPa)
#
#
# Indices 1 2 3 4 5 6 
#
# 1 127.9547 17.1508 29.2044 0.0000 0.0000 0.0000
# 2 17.1508 63.7794 -0.4345 0.0000 0.0000 0.0000
# 3 29.2044 -0.4345 174.8239 0.0000 0.0000 0.0000
# 4 0.0000 0.0000 0.0000 81.0347 0.0000 0.0000
# 5 0.0000 0.0000 0.0000 0.0000 -21.0390 0.0000
# 6 0.0000 0.0000 0.0000 0.0000 0.0000 17.3931
#
#
#
# Elastic Compliance Matrix: (Units=1/GPa)
#
#
# Indices 1 2 3 4 5 6 
#
# 1 0.008444 -0.002280 -0.001416 0.000000 0.000000 0.000000
# 2 -0.002280 0.016295 0.000421 0.000000 0.000000 0.000000
# 3 -0.001416 0.000421 0.005958 0.000000 0.000000 0.000000
# 4 0.000000 0.000000 0.000000 0.012340 0.000000 0.000000
# 5 0.000000 0.000000 0.000000 0.000000 -0.047531 0.000000
# 6 0.000000 0.000000 0.000000 0.000000 0.000000 0.057494
#
#
# Mechanical properties :
#
#
# Convention : Reuss Voigt Hill
#
# Bulk Modulus (GPa) = 41.41370 50.93326 46.17348
# Shear Modulus (GPa) = 73.96474 36.85359 55.40917
#
# Velocity S-wave (km/s) = 5.64930 3.98770 4.88960
# Velocity P-wave (km/s) = 7.77316 6.57108 7.19726
#
# Compressibility (1/GPa) = 0.02414660
#
# Stress axis : x y z
#
# Youngs Moduli (GPa) = 118.42493 61.36804 167.85060
#
# Poissons Ratio (x) = 0.13994 0.23772
# Poissons Ratio (y) = 0.27005 -0.07074
# Poissons Ratio (z) = 0.16772 -0.02586
#
# Static dielectric constant tensor:
#      x y z
#    x 1.918540 0.000000 0.000000 
#    y 0.000000 1.934040 0.000000 
#    z 0.000000 0.000000 1.972220 
# 
# From -- ./inp_files/17592.got.cif
#   From: 2010.05.17/outbox.cif.g08.bks.cpg/sg49_9_cif.got.tgz:17592.got - 2010.06.03 21:02:19.
