data_PCOD9392068
_publ_section_title
;
Structure prediction by ZEFSAII (Michael W. Deem and Ramdas Pophale) SiO2 
 PCOD9392068
Probable space group: P C C M
;
_chemical_formula_sum "Si O2"
_cell_formula_units_Z 56
_cell_length_a 5.322557
_cell_length_b 22.127821
_cell_length_c 27.805696
_cell_angle_alpha 90.000000
_cell_angle_beta 90.000000
_cell_angle_gamma 90.000000
_cell_volume 3274.860017
_symmetry_space_group_name_H-M "P C C M"
_symmetry_group_IT_number 49
_symmetry_cell_setting 'orthorhombic'
loop_
_space_group_symop_operation_xyz
x,y,z
-x,-y,z
x,-y,1/2-z
-x,y,1/2-z
-x,-y,-z
x,y,-z
-x,y,1/2+z
x,-y,1/2+z
loop_
_atom_site_type_symbol
_atom_site_label
_atom_site_fract_x
_atom_site_fract_y
_atom_site_fract_z
Si Si1 0.260425 0.872280 0.584176
Si Si2 0.621850 0.258728 0.443881
Si Si3 0.759452 0.063945 0.052997
Si Si4 0.002481 0.427301 0.137704
Si Si5 0.493291 0.426687 0.695114
Si Si6 0.869109 0.336749 0.055525
Si Si7 0.751554 0.978753 0.850989
O O1 0.319589 0.801778 0.585721
O O2 0.498055 0.900886 0.556799
O O3 0.252108 0.908907 0.634421
O O4 0.995151 0.890625 0.559910
O O5 0.577775 0.240872 0.500000
O O6 0.377030 0.297836 0.429036
O O7 0.877837 0.296998 0.442673
O O8 0.758116 0.016965 0.097651
O O9 0.773525 0.035678 0.000000
O O10 0.268528 0.409232 0.161934
O O11 0.000000 0.500000 0.131586
O O12 0.774029 0.410298 0.172879
O O13 0.932766 0.393699 0.088640
O O14 0.500000 0.500000 0.696682
O O15 0.500000 0.404773 0.750000
O O16 0.822733 0.354304 0.000000
O O17 0.500000 0.000000 0.826232
O O18 0.000000 0.000000 0.824949
#
# Coordination Sequence:
#
# PCOD9392068 Si02
#       7
#     8   8   8   8   8   8   8
#     4  10  18  26  36  48  63  89 124 162 216 272
#     4  10  19  30  42  54  73 104 143 189 230 257
#     4  10  17  23  32  47  65  83 110 155 212 270
#     4  10  19  32  51  71  92 120 146 173 220 268
#     4   9  17  30  50  77 102 117 133 162 207 270
#     4  10  21  34  45  61  85 114 154 196 223 248
#     4   8  16  24  31  45  64  83 108 151 209 267
#
# _framework density 17.099969000000002
#
# number of rings (size 3 to 8) (size 9 to 14) (size 15 to 20)
#    0.000    2.429    0.000    3.429    0.000    8.857 
#    0.000    0.000    0.000    5.143    0.000    0.000 
#    0.000    0.000    0.000    0.000    0.000    0.000 
#
# Total GULP energy -311888.446431 kJ/mol
# GULP energy per Si atom -5569.436543 kJ/mol
# Density = 1.706105 g / cm^3
# Si number density = 17.099969 Si / 1000 Ang^3
#
#
#
# Elastic Constant Matrix: (Units=GPa)
#
#
# Indices 1 2 3 4 5 6 
#
# 1 153.6518 32.1276 17.2730 0.0000 0.0000 0.0000
# 2 32.1276 64.0405 29.7711 0.0000 0.0000 0.0000
# 3 17.2730 29.7711 33.8386 0.0000 0.0000 0.0000
# 4 0.0000 0.0000 0.0000 -1.5453 0.0000 0.0000
# 5 0.0000 0.0000 0.0000 0.0000 14.2534 0.0000
# 6 0.0000 0.0000 0.0000 0.0000 0.0000 18.8150
#
#
#
# Elastic Compliance Matrix: (Units=1/GPa)
#
#
# Indices 1 2 3 4 5 6 
#
# 1 0.007285 -0.003259 -0.000852 0.000000 0.000000 0.000000
# 2 -0.003259 0.027879 -0.022865 0.000000 0.000000 0.000000
# 3 -0.000852 -0.022865 0.050103 0.000000 0.000000 0.000000
# 4 0.000000 0.000000 0.000000 -0.647115 0.000000 0.000000
# 5 0.000000 0.000000 0.000000 0.000000 0.070159 0.000000
# 6 0.000000 0.000000 0.000000 0.000000 0.000000 0.053149
#
#
# Mechanical properties :
#
#
# Convention : Reuss Voigt Hill
#
# Bulk Modulus (GPa) = 31.93120 45.54158 38.73639
# Shear Modulus (GPa) = -13.36364 17.79523 2.21580
#
# Velocity S-wave (km/s) = -2.79857 3.22942 1.13956
# Velocity P-wave (km/s) = 2.87596 6.37149 4.94303
#
# Compressibility (1/GPa) = 0.03131733
#
# Stress axis : x y z
#
# Youngs Moduli (GPa) = 137.26089 35.86883 19.95891
#
# Poissons Ratio (x) = 0.11690 0.01700
# Poissons Ratio (y) = 0.44734 0.45635
# Poissons Ratio (z) = 0.11688 0.82013
#
# Static dielectric constant tensor:
#      x y z
#    x 1.643870 0.000000 0.000000 
#    y 0.000000 1.588720 0.000000 
#    z 0.000000 0.000000 1.579690 
# 
# From -- ./inp_files/21889.got.cif
#   From: 2010.05.17/outbox.cif.g08.bks.cpg/sg49_11_cif.got.tgz:21889.got - 2010.06.03 21:02:19.
