data_PCOD9392305
_publ_section_title
;
Structure prediction by ZEFSAII (Michael W. Deem and Ramdas Pophale) SiO2 
 PCOD9392305
Probable space group: P C C M
;
_chemical_formula_sum "Si O2"
_cell_formula_units_Z 56
_cell_length_a 18.903601
_cell_length_b 21.711906
_cell_length_c 8.954161
_cell_angle_alpha 90.000000
_cell_angle_beta 90.000000
_cell_angle_gamma 90.000000
_cell_volume 3675.085024
_symmetry_space_group_name_H-M "P C C M"
_symmetry_group_IT_number 49
_symmetry_cell_setting 'orthorhombic'
loop_
_space_group_symop_operation_xyz
x,y,z
-x,-y,z
x,-y,1/2-z
-x,y,1/2-z
-x,-y,-z
x,y,-z
-x,y,1/2+z
x,-y,1/2+z
loop_
_atom_site_type_symbol
_atom_site_label
_atom_site_fract_x
_atom_site_fract_y
_atom_site_fract_z
Si Si1 0.714786 0.620302 0.671284
Si Si2 0.796471 0.248238 0.828156
Si Si3 0.578001 0.936007 0.680520
Si Si4 0.076140 0.689624 0.678200
Si Si5 0.576624 0.312781 0.180874
Si Si6 0.845422 0.563481 0.177472
Si Si7 0.342528 0.811430 0.818561
O O1 0.713518 0.597724 0.500000
O O2 0.753121 0.687187 0.669390
O O3 0.635340 0.635865 0.722656
O O4 0.765401 0.577915 0.769173
O O5 0.866328 0.260977 0.734288
O O6 0.738036 0.200477 0.768363
O O7 0.815050 0.233647 0.000000
O O8 0.500000 0.927070 0.750000
O O9 0.573425 0.940374 0.500000
O O10 0.624846 0.876893 0.721780
O O11 0.605250 0.000000 0.750000
O O12 0.071410 0.690962 0.500000
O O13 0.107029 0.622248 0.723130
O O14 0.000000 0.699203 0.750000
O O15 0.500000 0.322820 0.250000
O O16 0.607838 0.245901 0.228617
O O17 0.572780 0.312669 0.000000
O O18 0.869926 0.500000 0.250000
O O19 0.847390 0.558655 0.000000
O O20 0.340196 0.808283 0.000000
#
# Coordination Sequence:
#
# PCOD9392305 Si02
#       7
#     8   8   8   8   8   8   8
#     4   8  15  28  44  60  81 107 135 168 210 254
#     4   8  14  28  47  63  81 109 141 174 211 251
#     4  10  18  28  40  57  85 121 158 191 222 256
#     4  10  20  32  46  67  92 116 138 165 202 246
#     4   9  16  26  41  62  84 107 136 173 216 259
#     4  10  20  32  47  65  84 108 141 172 201 240
#     4   8  15  27  43  61  83 113 148 181 215 255
#
# _framework density 15.237743
#
# number of rings (size 3 to 8) (size 9 to 14) (size 15 to 20)
#    0.000    3.000    0.000    3.857    0.000    2.571 
#    0.000    5.714    0.000    0.429    0.000    3.000 
#    0.000    0.571    0.000    6.571    0.000    2.000 
#
# Total GULP energy -311849.006229 kJ/mol
# GULP energy per Si atom -5568.732254 kJ/mol
# Density = 1.520306 g / cm^3
# Si number density = 15.237743 Si / 1000 Ang^3
#
#
#
# Elastic Constant Matrix: (Units=GPa)
#
#
# Indices 1 2 3 4 5 6 
#
# 1 112.7067 20.6035 27.9109 0.0000 0.0000 0.0000
# 2 20.6035 33.9574 12.4674 0.0000 0.0000 0.0000
# 3 27.9109 12.4674 29.9053 0.0000 0.0000 0.0000
# 4 0.0000 0.0000 0.0000 4.9822 0.0000 0.0000
# 5 0.0000 0.0000 0.0000 0.0000 22.1433 0.0000
# 6 0.0000 0.0000 0.0000 0.0000 0.0000 16.3792
#
#
#
# Elastic Compliance Matrix: (Units=1/GPa)
#
#
# Indices 1 2 3 4 5 6 
#
# 1 0.011924 -0.003718 -0.009579 0.000000 0.000000 0.000000
# 2 -0.003718 0.035930 -0.011509 0.000000 0.000000 0.000000
# 3 -0.009579 -0.011509 0.047177 0.000000 0.000000 0.000000
# 4 0.000000 0.000000 0.000000 0.200713 0.000000 0.000000
# 5 0.000000 0.000000 0.000000 0.000000 0.045160 0.000000
# 6 0.000000 0.000000 0.000000 0.000000 0.000000 0.061053
#
#
# Mechanical properties :
#
#
# Convention : Reuss Voigt Hill
#
# Bulk Modulus (GPa) = 22.01706 33.17034 27.59370
# Shear Modulus (GPa) = 10.71328 16.40678 13.56003
#
# Velocity S-wave (km/s) = 2.65443 3.28490 2.98635
# Velocity P-wave (km/s) = 4.88621 6.01691 5.48080
#
# Compressibility (1/GPa) = 0.04541932
#
# Stress axis : x y z
#
# Youngs Moduli (GPa) = 83.86098 27.83180 21.19669
#
# Poissons Ratio (x) = 0.10348 0.20305
# Poissons Ratio (y) = 0.31181 0.24395
# Poissons Ratio (z) = 0.80332 0.32031
#
# Static dielectric constant tensor:
#      x y z
#    x 1.509030 0.000000 0.000000 
#    y 0.000000 1.506640 0.000000 
#    z 0.000000 0.000000 1.511730 
# 
# From -- ./inp_files/5211.got.cif
#   From: 2010.05.17/outbox.cif.g08.bks.cpg/sg49_3_cif.got.tgz:5211.got - 2010.06.03 21:02:19.
