data_PCOD9392947
_publ_section_title
;
Structure prediction by ZEFSAII (Michael W. Deem and Ramdas Pophale) SiO2 
 PCOD9392947
Probable space group: P C C M
;
_chemical_formula_sum "Si O2"
_cell_formula_units_Z 48
_cell_length_a 8.712684
_cell_length_b 15.272482
_cell_length_c 17.408064
_cell_angle_alpha 90.000000
_cell_angle_beta 90.000000
_cell_angle_gamma 90.000000
_cell_volume 2316.392017
_symmetry_space_group_name_H-M "P C C M"
_symmetry_group_IT_number 49
_symmetry_cell_setting 'orthorhombic'
loop_
_space_group_symop_operation_xyz
x,y,z
-x,-y,z
x,-y,1/2-z
-x,y,1/2-z
-x,-y,-z
x,y,-z
-x,y,1/2+z
x,-y,1/2+z
loop_
_atom_site_type_symbol
_atom_site_label
_atom_site_fract_x
_atom_site_fract_y
_atom_site_fract_z
Si Si1 0.683943 0.752982 0.622544
Si Si2 0.743103 0.795478 0.200631
Si Si3 0.153457 0.546181 0.587563
Si Si4 0.970951 0.256200 0.417568
Si Si5 0.555062 0.099026 0.585200
Si Si6 0.556547 0.618345 0.165340
O O1 0.722149 0.788250 0.708733
O O2 0.581502 0.829547 0.586642
O O3 0.591035 0.660454 0.622351
O O4 0.847289 0.738988 0.585109
O O5 0.907287 0.789581 0.159184
O O6 0.659209 0.874532 0.157448
O O7 0.654412 0.707495 0.174797
O O8 0.173058 0.512637 0.500000
O O9 0.098924 0.646649 0.583077
O O10 0.321261 0.549965 0.628791
O O11 0.000000 0.500000 0.622639
O O12 0.924627 0.215918 0.500000
O O13 0.627656 0.106268 0.500000
O O14 0.500000 0.000000 0.593572
O O15 0.500000 0.592821 0.250000
#
# Coordination Sequence:
#
# PCOD9392947 Si02
#       6
#     8   8   8   8   8   8
#     4  10  19  32  53  79 105 139 185 228 265 318
#     4   9  18  33  53  75 104 142 179 218 266 323
#     4   9  18  33  54  81 112 146 182 223 275 330
#     4  10  19  32  53  79 108 142 180 222 271 327
#     4  10  20  34  53  78 107 137 173 221 274 325
#     4   8  16  31  53  77 105 141 182 224 266 317
#
# _framework density 20.721882999999998
#
# number of rings (size 3 to 8) (size 9 to 14) (size 15 to 20)
#    0.000    2.667    0.000    3.000    0.000    6.000 
#    0.000    1.667    0.000   31.000    0.000    0.000 
#    0.000    0.667    0.000    0.000    0.000    0.000 
#
# Total GULP energy -267219.645374 kJ/mol
# GULP energy per Si atom -5567.075945 kJ/mol
# Density = 2.067472 g / cm^3
# Si number density = 20.721883 Si / 1000 Ang^3
#
#
#
# Elastic Constant Matrix: (Units=GPa)
#
#
# Indices 1 2 3 4 5 6 
#
# 1 132.9967 34.3833 39.1106 0.0000 0.0000 0.0000
# 2 34.3833 72.7019 30.1609 0.0000 0.0000 0.0000
# 3 39.1106 30.1609 107.7068 0.0000 0.0000 0.0000
# 4 0.0000 0.0000 0.0000 2.1963 0.0000 0.0000
# 5 0.0000 0.0000 0.0000 0.0000 103.9998 0.0000
# 6 0.0000 0.0000 0.0000 0.0000 0.0000 15.8312
#
#
#
# Elastic Compliance Matrix: (Units=1/GPa)
#
#
# Indices 1 2 3 4 5 6 
#
# 1 0.009070 -0.003308 -0.002367 0.000000 0.000000 0.000000
# 2 -0.003308 0.016769 -0.003495 0.000000 0.000000 0.000000
# 3 -0.002367 -0.003495 0.011123 0.000000 0.000000 0.000000
# 4 0.000000 0.000000 0.000000 0.455310 0.000000 0.000000
# 5 0.000000 0.000000 0.000000 0.000000 0.009615 0.000000
# 6 0.000000 0.000000 0.000000 0.000000 0.000000 0.063166
#
#
# Mechanical properties :
#
#
# Convention : Reuss Voigt Hill
#
# Bulk Modulus (GPa) = 53.69828 57.85723 55.77776
# Shear Modulus (GPa) = 8.48032 38.38882 23.43457
#
# Velocity S-wave (km/s) = 2.02517 4.30882 3.36655
# Velocity P-wave (km/s) = 5.60700 7.26196 6.48747
#
# Compressibility (1/GPa) = 0.01862257
#
# Stress axis : x y z
#
# Youngs Moduli (GPa) = 110.25047 59.63437 89.90590
#
# Poissons Ratio (x) = 0.19724 0.21284
# Poissons Ratio (y) = 0.36465 0.31420
# Poissons Ratio (z) = 0.26101 0.20841
#
# Static dielectric constant tensor:
#      x y z
#    x 1.817510 0.000000 0.000000 
#    y 0.000000 1.729430 0.000000 
#    z 0.000000 0.000000 1.788640 
# 
# From -- ./inp_files/16266.got.cif
#   From: 2010.05.17/outbox.cif.g08.bks.cpg/sg49_9_cif.got.tgz:16266.got - 2010.06.03 21:02:19.
