data_PCOD9392635
_publ_section_title
;
Structure prediction by ZEFSAII (Michael W. Deem and Ramdas Pophale) SiO2 
 PCOD9392635
Probable space group: P C C M
;
_chemical_formula_sum "Si O2"
_cell_formula_units_Z 64
_cell_length_a 18.977605
_cell_length_b 23.238447
_cell_length_c 8.741219
_cell_angle_alpha 90.000000
_cell_angle_beta 90.000000
_cell_angle_gamma 90.000000
_cell_volume 3854.965585
_symmetry_space_group_name_H-M "P C C M"
_symmetry_group_IT_number 49
_symmetry_cell_setting 'orthorhombic'
loop_
_space_group_symop_operation_xyz
x,y,z
-x,-y,z
x,-y,1/2-z
-x,y,1/2-z
-x,-y,-z
x,y,-z
-x,y,1/2+z
x,-y,1/2+z
loop_
_atom_site_type_symbol
_atom_site_label
_atom_site_fract_x
_atom_site_fract_y
_atom_site_fract_z
Si Si1 0.828123 0.664012 0.828663
Si Si2 0.382900 0.561548 0.814863
Si Si3 0.075146 0.764749 0.677627
Si Si4 0.924440 0.935555 0.183683
Si Si5 0.574733 0.685990 0.815188
Si Si6 0.185781 0.848223 0.179416
Si Si7 0.779774 0.556064 0.323262
Si Si8 0.708913 0.762041 0.819234
O O1 0.900235 0.698883 0.822482
O O2 0.821505 0.613405 0.710608
O O3 0.767043 0.711337 0.803807
O O4 0.817596 0.640324 0.000000
O O5 0.410349 0.500000 0.750000
O O6 0.413904 0.621098 0.749522
O O7 0.300474 0.563867 0.764947
O O8 0.389018 0.561575 0.000000
O O9 0.080046 0.785035 0.500000
O O10 0.129450 0.798472 0.783532
O O11 0.000000 0.772031 0.750000
O O12 0.854460 0.900999 0.236576
O O13 0.000000 0.912082 0.250000
O O14 0.919292 0.000000 0.250000
O O15 0.929115 0.936020 0.000000
O O16 0.500000 0.706141 0.750000
O O17 0.636584 0.730938 0.768124
O O18 0.574851 0.683021 0.000000
O O19 0.258784 0.819224 0.239730
O O20 0.191432 0.860415 0.000000
O O21 0.812800 0.500000 0.250000
O O22 0.772676 0.545239 0.500000
O O23 0.703230 0.774947 0.000000
#
# Coordination Sequence:
#
# PCOD9392635 Si02
#       8
#     8   8   8   8   8   8   8   8
#     4   9  17  31  49  67  90 117 150 191 242 291
#     4  10  20  33  49  70  94 123 160 200 246 302
#     4  10  20  33  48  70  97 127 160 200 245 290
#     4  11  21  35  53  77 112 150 188 221 255 296
#     4  11  22  36  53  72  99 131 164 205 256 310
#     4  11  21  33  52  76 103 137 175 214 250 289
#     4  10  19  29  46  68  89 113 147 189 235 289
#     4   9  19  35  52  71  97 129 164 206 251 296
#
# _framework density 16.601963999999999
#
# number of rings (size 3 to 8) (size 9 to 14) (size 15 to 20)
#    0.000    1.875    1.250    5.250    0.000    4.750 
#    0.000    1.250    0.000    0.375    0.000    2.625 
#    0.000    0.500    0.000    5.250    0.000    2.875 
#
# Total GULP energy -356608.884826 kJ/mol
# GULP energy per Si atom -5572.013825 kJ/mol
# Density = 1.656418 g / cm^3
# Si number density = 16.601964 Si / 1000 Ang^3
#
#
#
# Elastic Constant Matrix: (Units=GPa)
#
#
# Indices 1 2 3 4 5 6 
#
# 1 73.0924 42.4818 24.6069 0.0000 0.0000 0.0000
# 2 42.4818 65.7914 35.4955 0.0000 0.0000 0.0000
# 3 24.6069 35.4955 79.2071 0.0000 0.0000 0.0000
# 4 0.0000 0.0000 0.0000 25.6030 0.0000 0.0000
# 5 0.0000 0.0000 0.0000 0.0000 26.8196 0.0000
# 6 0.0000 0.0000 0.0000 0.0000 0.0000 9.3081
#
#
#
# Elastic Compliance Matrix: (Units=1/GPa)
#
#
# Indices 1 2 3 4 5 6 
#
# 1 0.021923 -0.013823 -0.000616 0.000000 0.000000 0.000000
# 2 -0.013823 0.028763 -0.008595 0.000000 0.000000 0.000000
# 3 -0.000616 -0.008595 0.016668 0.000000 0.000000 0.000000
# 4 0.000000 0.000000 0.000000 0.039058 0.000000 0.000000
# 5 0.000000 0.000000 0.000000 0.000000 0.037286 0.000000
# 6 0.000000 0.000000 0.000000 0.000000 0.000000 0.107434
#
#
# Mechanical properties :
#
#
# Convention : Reuss Voigt Hill
#
# Bulk Modulus (GPa) = 46.98168 47.02881 47.00524
# Shear Modulus (GPa) = 16.43140 20.04659 18.23899
#
# Velocity S-wave (km/s) = 3.14940 3.47866 3.31812
# Velocity P-wave (km/s) = 6.44867 6.67259 6.56158
#
# Compressibility (1/GPa) = 0.02128489
#
# Stress axis : x y z
#
# Youngs Moduli (GPa) = 45.61437 34.76738 59.99434
#
# Poissons Ratio (x) = 0.48060 0.03695
# Poissons Ratio (y) = 0.63055 0.51566
# Poissons Ratio (z) = 0.02809 0.29883
#
# Static dielectric constant tensor:
#      x y z
#    x 1.604890 0.000000 0.000000 
#    y 0.000000 1.583640 0.000000 
#    z 0.000000 0.000000 1.574970 
# 
# From -- ./inp_files/5394.got.cif
#   From: 2010.05.17/outbox.cif.g08.bks.cpg/sg49_3_cif.got.tgz:5394.got - 2010.06.03 21:02:19.
