data_PCOD9392031
_publ_section_title
;
Structure prediction by ZEFSAII (Michael W. Deem and Ramdas Pophale) SiO2 
 PCOD9392031
Probable space group: P C C M
;
_chemical_formula_sum "Si O2"
_cell_formula_units_Z 64
_cell_length_a 30.956414
_cell_length_b 15.651589
_cell_length_c 8.739215
_cell_angle_alpha 90.000000
_cell_angle_beta 90.000000
_cell_angle_gamma 90.000000
_cell_volume 4234.298836
_symmetry_space_group_name_H-M "P C C M"
_symmetry_group_IT_number 49
_symmetry_cell_setting 'orthorhombic'
loop_
_space_group_symop_operation_xyz
x,y,z
-x,-y,z
x,-y,1/2-z
-x,y,1/2-z
-x,-y,-z
x,y,-z
-x,y,1/2+z
x,-y,1/2+z
loop_
_atom_site_type_symbol
_atom_site_label
_atom_site_fract_x
_atom_site_fract_y
_atom_site_fract_z
Si Si1 0.391726 0.588575 0.824000
Si Si2 0.222839 0.904544 0.182624
Si Si3 0.867055 0.903275 0.183736
Si Si4 0.546901 0.907592 0.318397
Si Si5 0.711855 0.229725 0.681656
Si Si6 0.390625 0.231658 0.819043
Si Si7 0.044409 0.902819 0.816021
Si Si8 0.713341 0.589150 0.676239
O O1 0.406842 0.500000 0.750000
O O2 0.403986 0.673087 0.731539
O O3 0.339185 0.586280 0.822011
O O4 0.405401 0.595253 0.000000
O O5 0.178466 0.867968 0.256300
O O6 0.261429 0.841979 0.229584
O O7 0.229888 0.000000 0.250000
O O8 0.218152 0.910771 0.000000
O O9 0.910924 0.863653 0.252825
O O10 0.866132 0.000000 0.250000
O O11 0.868850 0.904917 0.000000
O O12 0.500000 0.884987 0.250000
O O13 0.543522 0.914219 0.500000
O O14 0.581707 0.837753 0.270137
O O15 0.558769 0.000000 0.250000
O O16 0.718290 0.219968 0.500000
O O17 0.660555 0.221879 0.713512
O O18 0.725457 0.324988 0.733704
O O19 0.396918 0.221144 0.000000
O O20 0.000000 0.863949 0.750000
O O21 0.044703 0.000000 0.750000
O O22 0.043938 0.905284 0.000000
O O23 0.728288 0.500000 0.750000
O O24 0.727016 0.595227 0.500000
#
# Coordination Sequence:
#
# PCOD9392031 Si02
#       8
#     8   8   8   8   8   8   8   8
#     4   9  16  27  45  70  98 126 153 180 214 255
#     4  11  21  33  46  60  82 115 153 190 226 267
#     4  10  17  27  40  54  73 101 138 178 220 265
#     4  11  22  38  58  77  97 120 149 183 222 266
#     4  10  20  33  48  68  93 120 151 187 223 262
#     4  10  20  34  52  74  98 122 150 184 222 261
#     4  10  16  23  34  51  72  95 127 171 221 265
#     4   9  16  27  44  66  91 118 147 181 220 262
#
# _framework density 15.114663
#
# number of rings (size 3 to 8) (size 9 to 14) (size 15 to 20)
#    0.000    2.000    0.000    8.250    0.000    5.000 
#    0.000    0.000    0.000    0.375    0.000    2.625 
#    0.000    0.000    0.000    0.000    0.000    0.625 
#
# Total GULP energy -356836.444440 kJ/mol
# GULP energy per Si atom -5575.569444 kJ/mol
# Density = 1.508026 g / cm^3
# Si number density = 15.114663 Si / 1000 Ang^3
#
#
#
# Elastic Constant Matrix: (Units=GPa)
#
#
# Indices 1 2 3 4 5 6 
#
# 1 48.3659 44.4472 47.8344 0.0000 0.0000 0.0000
# 2 44.4472 67.1052 43.8285 0.0000 0.0000 0.0000
# 3 47.8344 43.8285 141.9319 0.0000 0.0000 0.0000
# 4 0.0000 0.0000 0.0000 25.3947 0.0000 0.0000
# 5 0.0000 0.0000 0.0000 0.0000 26.0176 0.0000
# 6 0.0000 0.0000 0.0000 0.0000 0.0000 -1.5446
#
#
#
# Elastic Compliance Matrix: (Units=1/GPa)
#
#
# Indices 1 2 3 4 5 6 
#
# 1 0.063270 -0.035049 -0.010500 0.000000 0.000000 0.000000
# 2 -0.035049 0.038082 0.000052 0.000000 0.000000 0.000000
# 3 -0.010500 0.000052 0.010568 0.000000 0.000000 0.000000
# 4 0.000000 0.000000 0.000000 0.039378 0.000000 0.000000
# 5 0.000000 0.000000 0.000000 0.000000 0.038436 0.000000
# 6 0.000000 0.000000 0.000000 0.000000 0.000000 -0.647412
#
#
# Mechanical properties :
#
#
# Convention : Reuss Voigt Hill
#
# Bulk Modulus (GPa) = 47.78494 58.84704 53.31599
# Shear Modulus (GPa) = -13.90012 18.05972 2.07980
#
# Velocity S-wave (km/s) = -3.03585 3.46041 1.17431
# Velocity P-wave (km/s) = 4.40398 7.41513 6.09833
#
# Compressibility (1/GPa) = 0.02092709
#
# Stress axis : x y z
#
# Youngs Moduli (GPa) = 15.80534 26.25896 94.62249
#
# Poissons Ratio (x) = 0.92034 0.99357
# Poissons Ratio (y) = 0.55396 -0.00496
# Poissons Ratio (z) = 0.16596 -0.00138
#
# Static dielectric constant tensor:
#      x y z
#    x 1.536800 0.000000 0.000000 
#    y 0.000000 1.482550 0.000000 
#    z 0.000000 0.000000 1.506560 
# 
# From -- ./inp_files/7078.got.cif
#   From: 2010.05.17/outbox.cif.g08.bks.cpg/sg49_4_cif.got.tgz:7078.got - 2010.06.03 21:02:19.
