data_PCOD9392244
_publ_section_title
;
Structure prediction by ZEFSAII (Michael W. Deem and Ramdas Pophale) SiO2 
 PCOD9392244
Probable space group: P C C M
;
_chemical_formula_sum "Si O2"
_cell_formula_units_Z 64
_cell_length_a 29.042166
_cell_length_b 14.152652
_cell_length_c 8.741518
_cell_angle_alpha 90.000000
_cell_angle_beta 90.000000
_cell_angle_gamma 90.000000
_cell_volume 3592.970799
_symmetry_space_group_name_H-M "P C C M"
_symmetry_group_IT_number 49
_symmetry_cell_setting 'orthorhombic'
loop_
_space_group_symop_operation_xyz
x,y,z
-x,-y,z
x,-y,1/2-z
-x,y,1/2-z
-x,-y,-z
x,y,-z
-x,y,1/2+z
x,-y,1/2+z
loop_
_atom_site_type_symbol
_atom_site_label
_atom_site_fract_x
_atom_site_fract_y
_atom_site_fract_z
Si Si1 0.276677 0.789929 0.817361
Si Si2 0.189250 0.102573 0.182900
Si Si3 0.359369 0.101261 0.181850
Si Si4 0.552106 0.404578 0.183032
Si Si5 0.135594 0.291224 0.183253
Si Si6 0.050446 0.603341 0.183124
Si Si7 0.223584 0.397723 0.683378
Si Si8 0.550821 0.208406 0.682937
O O1 0.237291 0.858846 0.750688
O O2 0.325120 0.820992 0.749442
O O3 0.261093 0.683159 0.779610
O O4 0.277309 0.799383 0.000000
O O5 0.152002 0.184419 0.219223
O O6 0.178325 0.000000 0.250000
O O7 0.193334 0.096529 0.000000
O O8 0.412188 0.127777 0.217475
O O9 0.347150 0.000000 0.250000
O O10 0.354202 0.099239 0.000000
O O11 0.574230 0.500000 0.250000
O O12 0.500000 0.403680 0.250000
O O13 0.570526 0.305276 0.244083
O O14 0.550969 0.407715 0.000000
O O15 0.088344 0.322466 0.261092
O O16 0.175921 0.359679 0.245012
O O17 0.132210 0.300732 0.000000
O O18 0.063223 0.500000 0.250000
O O19 0.000000 0.625550 0.250000
O O20 0.048605 0.598236 0.000000
O O21 0.234871 0.500000 0.750000
O O22 0.218803 0.402744 0.500000
O O23 0.500000 0.190464 0.750000
O O24 0.546906 0.220549 0.500000
#
# Coordination Sequence:
#
# PCOD9392244 Si02
#       8
#     8   8   8   8   8   8   8   8
#     4  10  21  37  57  80 108 140 177 215 258 310
#     4  10  20  34  55  80 108 139 175 221 270 318
#     4  11  24  40  59  80 105 136 172 213 260 311
#     4  10  17  28  49  75 103 133 164 201 242 289
#     4  10  20  34  52  77 108 144 183 224 270 320
#     4  11  21  34  52  75 106 143 183 228 273 323
#     4  10  20  34  54  81 111 145 179 216 261 313
#     4  10  21  37  56  80 107 137 172 213 257 305
#
# _framework density 17.812559
#
# number of rings (size 3 to 8) (size 9 to 14) (size 15 to 20)
#    0.000    1.750    0.000    6.750    0.000    5.250 
#    0.000    1.875    0.000    1.875    0.000    2.625 
#    0.000    0.000    0.000    0.000    0.000    0.000 
#
# Total GULP energy -357384.118995 kJ/mol
# GULP energy per Si atom -5584.126859 kJ/mol
# Density = 1.777202 g / cm^3
# Si number density = 17.812559 Si / 1000 Ang^3
#
#
#
# Elastic Constant Matrix: (Units=GPa)
#
#
# Indices 1 2 3 4 5 6 
#
# 1 93.5451 57.2795 49.9813 0.0000 0.0000 0.0000
# 2 57.2795 118.4214 53.9951 0.0000 0.0000 0.0000
# 3 49.9813 53.9951 101.0303 0.0000 0.0000 0.0000
# 4 0.0000 0.0000 0.0000 36.5764 0.0000 0.0000
# 5 0.0000 0.0000 0.0000 0.0000 7.0947 0.0000
# 6 0.0000 0.0000 0.0000 0.0000 0.0000 18.9962
#
#
#
# Elastic Compliance Matrix: (Units=1/GPa)
#
#
# Indices 1 2 3 4 5 6 
#
# 1 0.017127 -0.005845 -0.005349 0.000000 0.000000 0.000000
# 2 -0.005845 0.013160 -0.004142 0.000000 0.000000 0.000000
# 3 -0.005349 -0.004142 0.014758 0.000000 0.000000 0.000000
# 4 0.000000 0.000000 0.000000 0.027340 0.000000 0.000000
# 5 0.000000 0.000000 0.000000 0.000000 0.140950 0.000000
# 6 0.000000 0.000000 0.000000 0.000000 0.000000 0.052642
#
#
# Mechanical properties :
#
#
# Convention : Reuss Voigt Hill
#
# Bulk Modulus (GPa) = 69.57452 70.61209 70.09330
# Shear Modulus (GPa) = 16.58701 22.64952 19.61826
#
# Velocity S-wave (km/s) = 3.05486 3.56975 3.32229
# Velocity P-wave (km/s) = 7.18241 7.53117 7.35886
#
# Compressibility (1/GPa) = 0.01437308
#
# Stress axis : x y z
#
# Youngs Moduli (GPa) = 58.38622 75.98683 67.76093
#
# Poissons Ratio (x) = 0.44417 0.36246
# Poissons Ratio (y) = 0.34129 0.28064
# Poissons Ratio (z) = 0.31232 0.31471
#
# Static dielectric constant tensor:
#      x y z
#    x 1.600550 0.000000 0.000000 
#    y 0.000000 1.628560 0.000000 
#    z 0.000000 0.000000 1.591960 
# 
# From -- ./inp_files/3083.got.cif
#   From: 2010.05.17/outbox.cif.g08.bks.cpg/sg49_2_cif.got.tgz:3083.got - 2010.06.03 21:02:19.
