data_PCOD9392198
_publ_section_title
;
Structure prediction by ZEFSAII (Michael W. Deem and Ramdas Pophale) SiO2 
 PCOD9392198
Probable space group: P C C M
;
_chemical_formula_sum "Si O2"
_cell_formula_units_Z 64
_cell_length_a 30.411949
_cell_length_b 14.377320
_cell_length_c 8.556597
_cell_angle_alpha 90.000000
_cell_angle_beta 90.000000
_cell_angle_gamma 90.000000
_cell_volume 3741.306346
_symmetry_space_group_name_H-M "P C C M"
_symmetry_group_IT_number 49
_symmetry_cell_setting 'orthorhombic'
loop_
_space_group_symop_operation_xyz
x,y,z
-x,-y,z
x,-y,1/2-z
-x,y,1/2-z
-x,-y,-z
x,y,-z
-x,y,1/2+z
x,-y,1/2+z
loop_
_atom_site_type_symbol
_atom_site_label
_atom_site_fract_x
_atom_site_fract_y
_atom_site_fract_z
Si Si1 0.955158 0.104235 0.685008
Si Si2 0.768385 0.595344 0.181608
Si Si3 0.713005 0.747284 0.680998
Si Si4 0.360632 0.393085 0.813256
Si Si5 0.454643 0.605879 0.186947
Si Si6 0.132237 0.804565 0.183841
Si Si7 0.862983 0.411219 0.815332
Si Si8 0.777463 0.894339 0.186848
O O1 0.957892 0.102936 0.500000
O O2 0.909298 0.146806 0.738651
O O3 0.000000 0.150259 0.750000
O O4 0.954790 0.000000 0.750000
O O5 0.748886 0.500000 0.250000
O O6 0.753444 0.676765 0.294639
O O7 0.820208 0.588273 0.203610
O O8 0.756537 0.609931 0.000000
O O9 0.702610 0.762218 0.500000
O O10 0.674516 0.685005 0.759852
O O11 0.733064 0.841035 0.755688
O O12 0.353587 0.500000 0.750000
O O13 0.408244 0.358788 0.751756
O O14 0.360679 0.399957 0.000000
O O15 0.455154 0.500000 0.250000
O O16 0.500000 0.649958 0.250000
O O17 0.454724 0.605772 0.000000
O O18 0.122174 0.694704 0.199104
O O19 0.178627 0.839083 0.256447
O O20 0.134637 0.827044 0.000000
O O21 0.889880 0.500000 0.750000
O O22 0.852605 0.424542 0.000000
O O23 0.779007 0.000000 0.250000
O O24 0.777578 0.894650 0.000000
#
# Coordination Sequence:
#
# PCOD9392198 Si02
#       8
#     8   8   8   8   8   8   8   8
#     4  11  22  38  60  86 115 143 175 217 267 323
#     4  11  20  31  48  70  99 134 173 213 257 304
#     4  12  23  37  52  72 102 137 177 222 267 316
#     4  11  21  34  50  74 105 142 184 227 272 323
#     4  10  17  28  45  68  98 137 179 223 269 319
#     4  11  22  38  59  84 113 145 179 218 262 314
#     4  10  20  33  52  76 107 139 175 216 257 301
#     4  12  25  41  59  80 105 139 178 221 267 318
#
# _framework density 17.106324999999998
#
# number of rings (size 3 to 8) (size 9 to 14) (size 15 to 20)
#    0.000    1.000    1.250   10.500    0.000    1.500 
#    0.000    0.000    0.000    0.375    0.000    2.625 
#    0.000    0.500    0.000    5.000    0.000    3.000 
#
# Total GULP energy -356765.329524 kJ/mol
# GULP energy per Si atom -5574.458274 kJ/mol
# Density = 1.706739 g / cm^3
# Si number density = 17.106325 Si / 1000 Ang^3
#
#
#
# Elastic Constant Matrix: (Units=GPa)
#
#
# Indices 1 2 3 4 5 6 
#
# 1 110.6286 40.7806 55.5226 0.0000 0.0000 0.0000
# 2 40.7806 88.1426 45.7752 0.0000 0.0000 0.0000
# 3 55.5226 45.7752 169.8474 0.0000 0.0000 0.0000
# 4 0.0000 0.0000 0.0000 19.8807 0.0000 0.0000
# 5 0.0000 0.0000 0.0000 0.0000 44.5351 0.0000
# 6 0.0000 0.0000 0.0000 0.0000 0.0000 4.6693
#
#
#
# Elastic Compliance Matrix: (Units=1/GPa)
#
#
# Indices 1 2 3 4 5 6 
#
# 1 0.011949 -0.004070 -0.002809 0.000000 0.000000 0.000000
# 2 -0.004070 0.014578 -0.002598 0.000000 0.000000 0.000000
# 3 -0.002809 -0.002598 0.007506 0.000000 0.000000 0.000000
# 4 0.000000 0.000000 0.000000 0.050300 0.000000 0.000000
# 5 0.000000 0.000000 0.000000 0.000000 0.022454 0.000000
# 6 0.000000 0.000000 0.000000 0.000000 0.000000 0.214165
#
#
# Mechanical properties :
#
#
# Convention : Reuss Voigt Hill
#
# Bulk Modulus (GPa) = 66.32000 72.53062 69.42531
# Shear Modulus (GPa) = 14.49557 28.91970 21.70763
#
# Velocity S-wave (km/s) = 2.91414 4.11613 3.56614
# Velocity P-wave (km/s) = 7.08353 8.06734 7.59139
#
# Compressibility (1/GPa) = 0.01507841
#
# Stress axis : x y z
#
# Youngs Moduli (GPa) = 83.68613 68.59863 133.22081
#
# Poissons Ratio (x) = 0.27917 0.37428
# Poissons Ratio (y) = 0.34057 0.34617
# Poissons Ratio (z) = 0.23511 0.17825
#
# Static dielectric constant tensor:
#      x y z
#    x 1.629500 0.000000 0.000000 
#    y 0.000000 1.618890 0.000000 
#    z 0.000000 0.000000 1.577750 
# 
# From -- ./inp_files/7058.got.cif
#   From: 2010.05.17/outbox.cif.g08.bks.cpg/sg49_4_cif.got.tgz:7058.got - 2010.06.03 21:02:19.
