data_PCOD9392108
_publ_section_title
;
Structure prediction by ZEFSAII (Michael W. Deem and Ramdas Pophale) SiO2 
 PCOD9392108
Probable space group: P C C M
;
_chemical_formula_sum "Si O2"
_cell_formula_units_Z 56
_cell_length_a 17.745441
_cell_length_b 23.543692
_cell_length_c 8.892772
_cell_angle_alpha 90.000000
_cell_angle_beta 90.000000
_cell_angle_gamma 90.000000
_cell_volume 3715.339647
_symmetry_space_group_name_H-M "P C C M"
_symmetry_group_IT_number 49
_symmetry_cell_setting 'orthorhombic'
loop_
_space_group_symop_operation_xyz
x,y,z
-x,-y,z
x,-y,1/2-z
-x,y,1/2-z
-x,-y,-z
x,y,-z
-x,y,1/2+z
x,-y,1/2+z
loop_
_atom_site_type_symbol
_atom_site_label
_atom_site_fract_x
_atom_site_fract_y
_atom_site_fract_z
Si Si1 0.084869 0.823149 0.318399
Si Si2 0.929726 0.366599 0.166088
Si Si3 0.304396 0.350948 0.827523
Si Si4 0.915305 0.942508 0.317926
Si Si5 0.174305 0.554346 0.667350
Si Si6 0.583625 0.560522 0.318745
Si Si7 0.194558 0.731419 0.828172
O O1 0.078377 0.825920 0.500000
O O2 0.113361 0.882945 0.247878
O O3 0.146565 0.776905 0.266982
O O4 0.000000 0.812269 0.250000
O O5 0.898446 0.421247 0.250216
O O6 0.862711 0.321615 0.160459
O O7 0.000000 0.339914 0.250000
O O8 0.953830 0.381819 0.000000
O O9 0.235583 0.395893 0.835317
O O10 0.366985 0.385720 0.734695
O O11 0.269219 0.294776 0.749813
O O12 0.328555 0.339826 0.000000
O O13 0.916496 0.943378 0.500000
O O14 0.000000 0.942737 0.250000
O O15 0.879225 0.000000 0.250000
O O16 0.206140 0.500000 0.750000
O O17 0.154671 0.537669 0.500000
O O18 0.611616 0.500000 0.250000
O O19 0.500000 0.567316 0.250000
O O20 0.582052 0.556554 0.500000
O O21 0.209026 0.751053 0.000000
#
# Coordination Sequence:
#
# PCOD9392108 Si02
#       7
#     8   8   8   8   8   8   8
#     4  11  20  30  44  63  86 115 151 192 232 270
#     4  10  20  32  45  58  75  97 127 166 209 251
#     4  10  20  34  50  68  89 113 138 169 208 254
#     4  10  17  27  41  59  83 111 144 184 229 274
#     4  10  20  32  46  61  78  99 127 160 200 247
#     4  11  21  34  52  74  97 119 143 174 211 257
#     4  10  20  33  47  64  84 110 142 177 216 259
#
# _framework density 15.072647
#
# number of rings (size 3 to 8) (size 9 to 14) (size 15 to 20)
#    0.000    1.714    0.000    8.143    0.000    6.000 
#    0.000    1.429    0.000    0.000    0.000    0.000 
#    0.000    0.000    0.000    0.000    0.000    0.714 
#
# Total GULP energy -312047.988675 kJ/mol
# GULP energy per Si atom -5572.285512 kJ/mol
# Density = 1.503834 g / cm^3
# Si number density = 15.072647 Si / 1000 Ang^3
#
#
#
# Elastic Constant Matrix: (Units=GPa)
#
#
# Indices 1 2 3 4 5 6 
#
# 1 45.6777 25.0140 33.7343 0.0000 0.0000 0.0000
# 2 25.0140 81.1552 49.1916 0.0000 0.0000 0.0000
# 3 33.7343 49.1916 165.6237 0.0000 0.0000 0.0000
# 4 0.0000 0.0000 0.0000 23.2565 0.0000 0.0000
# 5 0.0000 0.0000 0.0000 0.0000 10.3498 0.0000
# 6 0.0000 0.0000 0.0000 0.0000 0.0000 11.4152
#
#
#
# Elastic Compliance Matrix: (Units=1/GPa)
#
#
# Indices 1 2 3 4 5 6 
#
# 1 0.028226 -0.006360 -0.003860 0.000000 0.000000 0.000000
# 2 -0.006360 0.016461 -0.003593 0.000000 0.000000 0.000000
# 3 -0.003860 -0.003593 0.007891 0.000000 0.000000 0.000000
# 4 0.000000 0.000000 0.000000 0.042999 0.000000 0.000000
# 5 0.000000 0.000000 0.000000 0.000000 0.096621 0.000000
# 6 0.000000 0.000000 0.000000 0.000000 0.000000 0.087603
#
#
# Mechanical properties :
#
#
# Convention : Reuss Voigt Hill
#
# Bulk Modulus (GPa) = 40.07928 56.48183 48.28055
# Shear Modulus (GPa) = 15.83556 21.30539 18.57048
#
# Velocity S-wave (km/s) = 3.24484 3.76375 3.51389
# Velocity P-wave (km/s) = 6.37864 7.51280 6.96883
#
# Compressibility (1/GPa) = 0.02495055
#
# Stress axis : x y z
#
# Youngs Moduli (GPa) = 35.42791 60.75105 126.72177
#
# Poissons Ratio (x) = 0.38639 0.48916
# Poissons Ratio (y) = 0.22533 0.45537
# Poissons Ratio (z) = 0.13675 0.21831
#
# Static dielectric constant tensor:
#      x y z
#    x 1.493800 0.000000 0.000000 
#    y 0.000000 1.538410 0.000000 
#    z 0.000000 0.000000 1.535230 
# 
# From -- ./inp_files/5155.got.cif
#   From: 2010.05.17/outbox.cif.g08.bks.cpg/sg49_3_cif.got.tgz:5155.got - 2010.06.03 21:02:19.
