data_PCOD9392722
_publ_section_title
;
Structure prediction by ZEFSAII (Michael W. Deem and Ramdas Pophale) SiO2 
 PCOD9392722
Probable space group: P C C M
;
_chemical_formula_sum "Si O2"
_cell_formula_units_Z 38
_cell_length_a 16.394298
_cell_length_b 5.170958
_cell_length_c 26.893890
_cell_angle_alpha 90.000000
_cell_angle_beta 90.000000
_cell_angle_gamma 90.000000
_cell_volume 2279.908720
_symmetry_space_group_name_H-M "P C C M"
_symmetry_group_IT_number 49
_symmetry_cell_setting 'orthorhombic'
loop_
_space_group_symop_operation_xyz
x,y,z
-x,-y,z
x,-y,1/2-z
-x,y,1/2-z
-x,-y,-z
x,y,-z
-x,y,1/2+z
x,-y,1/2+z
loop_
_atom_site_type_symbol
_atom_site_label
_atom_site_fract_x
_atom_site_fract_y
_atom_site_fract_z
Si Si1 0.625027 0.857158 0.331443
Si Si2 0.500000 0.000000 0.750000
Si Si3 0.440764 0.254596 0.000000
Si Si4 0.189901 0.001986 0.809187
Si Si5 0.411252 0.365720 0.892186
Si Si6 0.905447 0.505032 0.310858
O O1 0.561851 0.834767 0.285063
O O2 0.714665 0.955747 0.316919
O O3 0.635811 0.589406 0.361777
O O4 0.589490 0.094881 0.363554
O O5 0.500000 0.500000 0.000000
O O6 0.390409 0.288035 0.948974
O O7 0.500000 0.000000 0.000000
O O8 0.137631 0.763843 0.828993
O O9 0.177939 0.000000 0.750000
O O10 0.149966 0.265880 0.827906
O O11 0.500000 0.500000 0.893550
O O12 0.904971 0.500000 0.250000
O O13 0.000000 0.500000 0.325672
#
# Coordination Sequence:
#
# PCOD9392722 Si02
#       6
#     8   2   4   8   8   8
#     4  12  23  35  50  72 103 142 181 214 240 292
#     4  12  24  38  48  68 106 158 188 206 240 276
#     4  10  20  36  58  74  92 120 167 238 281 316
#     4  10  19  31  45  68  97 131 166 208 245 286
#     4  11  21  36  52  73  93 129 178 220 266 300
#     4   9  17  30  48  66  88 123 168 208 252 299
#
# _framework density 16.667335999999999
#
# number of rings (size 3 to 8) (size 9 to 14) (size 15 to 20)
#    0.000    1.474    3.158    4.421    0.000    4.211 
#    0.000    0.000    0.000    0.000    0.000    0.000 
#    0.000    0.000    0.000   66.316    0.000    0.000 
#
# Total GULP energy -211630.398663 kJ/mol
# GULP energy per Si atom -5569.221017 kJ/mol
# Density = 1.662940 g / cm^3
# Si number density = 16.667336 Si / 1000 Ang^3
#
#
#
# Elastic Constant Matrix: (Units=GPa)
#
#
# Indices 1 2 3 4 5 6 
#
# 1 107.0247 35.9077 16.0718 0.0000 0.0000 0.0000
# 2 35.9077 128.0205 40.1043 0.0000 0.0000 0.0000
# 3 16.0718 40.1043 66.8914 0.0000 0.0000 0.0000
# 4 0.0000 0.0000 0.0000 -2.2134 0.0000 0.0000
# 5 0.0000 0.0000 0.0000 0.0000 2.6340 0.0000
# 6 0.0000 0.0000 0.0000 0.0000 0.0000 26.4312
#
#
#
# Elastic Compliance Matrix: (Units=1/GPa)
#
#
# Indices 1 2 3 4 5 6 
#
# 1 0.010360 -0.002618 -0.000920 0.000000 0.000000 0.000000
# 2 -0.002618 0.010279 -0.005534 0.000000 0.000000 0.000000
# 3 -0.000920 -0.005534 0.018488 0.000000 0.000000 0.000000
# 4 0.000000 0.000000 0.000000 -0.451799 0.000000 0.000000
# 5 0.000000 0.000000 0.000000 0.000000 0.379658 0.000000
# 6 0.000000 0.000000 0.000000 0.000000 0.000000 0.037834
#
#
# Mechanical properties :
#
#
# Convention : Reuss Voigt Hill
#
# Bulk Modulus (GPa) = 47.65324 54.01156 50.83240
# Shear Modulus (GPa) = 166.90487 19.36053 93.13270
#
# Velocity S-wave (km/s) = 10.01780 3.41190 7.48323
# Velocity P-wave (km/s) = 12.74603 6.92802 10.25814
#
# Compressibility (1/GPa) = 0.02098493
#
# Stress axis : x y z
#
# Youngs Moduli (GPa) = 96.52495 97.28567 54.08815
#
# Poissons Ratio (x) = 0.25466 0.04975
# Poissons Ratio (y) = 0.25267 0.29931
# Poissons Ratio (z) = 0.08878 0.53836
#
# Static dielectric constant tensor:
#      x y z
#    x 1.569690 0.000000 0.000000 
#    y 0.000000 1.609450 0.000000 
#    z 0.000000 0.000000 1.622900 
# 
# From -- ./inp_files/23122.got.cif
#   From: 2010.05.17/outbox.cif.g08.bks.cpg/sg49_12_cif.got.tgz:23122.got - 2010.06.03 21:02:19.
