data_PCOD9392648
_publ_section_title
;
Structure prediction by ZEFSAII (Michael W. Deem and Ramdas Pophale) SiO2 
 PCOD9392648
Probable space group: P C C M
;
_chemical_formula_sum "Si O2"
_cell_formula_units_Z 64
_cell_length_a 20.420751
_cell_length_b 20.306629
_cell_length_c 8.433382
_cell_angle_alpha 90.000000
_cell_angle_beta 90.000000
_cell_angle_gamma 90.000000
_cell_volume 3497.126296
_symmetry_space_group_name_H-M "P C C M"
_symmetry_group_IT_number 49
_symmetry_cell_setting 'orthorhombic'
loop_
_space_group_symop_operation_xyz
x,y,z
-x,-y,z
x,-y,1/2-z
-x,y,1/2-z
-x,-y,-z
x,y,-z
-x,y,1/2+z
x,-y,1/2+z
loop_
_atom_site_type_symbol
_atom_site_label
_atom_site_fract_x
_atom_site_fract_y
_atom_site_fract_z
Si Si1 0.782473 0.680523 0.309000
Si Si2 0.070114 0.320099 0.313998
Si Si3 0.323778 0.785266 0.189061
Si Si4 0.831006 0.067551 0.309905
Si Si5 0.681697 0.930143 0.189821
Si Si6 0.426254 0.321708 0.189657
Si Si7 0.934013 0.173125 0.690733
Si Si8 0.320472 0.425935 0.810608
O O1 0.786582 0.685935 0.500000
O O2 0.856426 0.665249 0.249075
O O3 0.743496 0.747329 0.253406
O O4 0.735672 0.620169 0.263358
O O5 0.070206 0.334305 0.500000
O O6 0.067408 0.242157 0.280331
O O7 0.000000 0.346941 0.250000
O O8 0.340452 0.857435 0.257428
O O9 0.382057 0.735611 0.234402
O O10 0.318633 0.791225 0.000000
O O11 0.828939 0.066286 0.500000
O O12 0.756959 0.070151 0.249363
O O13 0.872043 0.130394 0.262159
O O14 0.861880 0.000000 0.250000
O O15 0.652204 0.000000 0.250000
O O16 0.680324 0.932503 0.000000
O O17 0.500000 0.320579 0.250000
O O18 0.388980 0.389869 0.229057
O O19 0.425017 0.313563 0.000000
O O20 0.935131 0.182824 0.500000
O O21 0.000000 0.138308 0.750000
O O22 0.317727 0.500000 0.750000
O O23 0.312852 0.424958 0.000000
#
# Coordination Sequence:
#
# PCOD9392648 Si02
#       8
#     8   8   8   8   8   8   8   8
#     4   9  19  34  53  77 106 139 178 220 266 318
#     4  10  19  31  48  71  97 128 165 211 263 314
#     4  10  19  33  54  79 106 139 177 221 268 316
#     4   9  19  31  43  59  82 114 153 199 252 308
#     4  10  19  32  49  71  98 129 168 216 267 319
#     4  10  21  37  57  84 115 149 183 216 253 299
#     4  10  19  30  42  59  83 114 153 199 251 309
#     4  10  21  36  57  84 115 148 182 216 255 301
#
# _framework density 18.300740000000001
#
# number of rings (size 3 to 8) (size 9 to 14) (size 15 to 20)
#    0.000    2.250    0.000    3.750    0.000    5.000 
#    0.000    2.500    0.000    0.750    0.000    5.250 
#    0.000    0.000    0.000    0.000    0.000    0.000 
#
# Total GULP energy -356493.474053 kJ/mol
# GULP energy per Si atom -5570.210532 kJ/mol
# Density = 1.825909 g / cm^3
# Si number density = 18.300740 Si / 1000 Ang^3
#
#
#
# Elastic Constant Matrix: (Units=GPa)
#
#
# Indices 1 2 3 4 5 6 
#
# 1 105.7769 29.4293 13.2222 0.0000 0.0000 0.0000
# 2 29.4293 101.9495 13.3116 0.0000 0.0000 0.0000
# 3 13.2222 13.3116 23.3117 0.0000 0.0000 0.0000
# 4 0.0000 0.0000 0.0000 20.4396 0.0000 0.0000
# 5 0.0000 0.0000 0.0000 0.0000 26.9431 0.0000
# 6 0.0000 0.0000 0.0000 0.0000 0.0000 -81.1258
#
#
#
# Elastic Compliance Matrix: (Units=1/GPa)
#
#
# Indices 1 2 3 4 5 6 
#
# 1 0.010729 -0.002488 -0.004665 0.000000 0.000000 0.000000
# 2 -0.002488 0.011176 -0.004971 0.000000 0.000000 0.000000
# 3 -0.004665 -0.004971 0.048381 0.000000 0.000000 0.000000
# 4 0.000000 0.000000 0.000000 0.048925 0.000000 0.000000
# 5 0.000000 0.000000 0.000000 0.000000 0.037115 0.000000
# 6 0.000000 0.000000 0.000000 0.000000 0.000000 -0.012327
#
#
# Mechanical properties :
#
#
# Convention : Reuss Voigt Hill
#
# Bulk Modulus (GPa) = 21.72055 38.10717 29.91386
# Shear Modulus (GPa) = 27.23418 4.92303 16.07860
#
# Velocity S-wave (km/s) = 3.86183 1.64192 2.96730
# Velocity P-wave (km/s) = 5.63733 4.94596 5.30292
#
# Compressibility (1/GPa) = 0.04603936
#
# Stress axis : x y z
#
# Youngs Moduli (GPa) = 93.20362 89.47732 20.66927
#
# Poissons Ratio (x) = 0.22263 0.09642
# Poissons Ratio (y) = 0.23190 0.10274
# Poissons Ratio (z) = 0.43477 0.44476
#
# Static dielectric constant tensor:
#      x y z
#    x 1.677640 0.000000 0.000000 
#    y 0.000000 1.630460 0.000000 
#    z 0.000000 0.000000 1.631460 
# 
# From -- ./inp_files/5927.got.cif
#   From: 2010.05.17/outbox.cif.g08.bks.cpg/sg49_3_cif.got.tgz:5927.got - 2010.06.03 21:02:19.
