data_PCOD9392696
_publ_section_title
;
Structure prediction by ZEFSAII (Michael W. Deem and Ramdas Pophale) SiO2 
 PCOD9392696
Probable space group: P C C M
;
_chemical_formula_sum "Si O2"
_cell_formula_units_Z 64
_cell_length_a 18.754341
_cell_length_b 23.307189
_cell_length_c 8.757419
_cell_angle_alpha 90.000000
_cell_angle_beta 90.000000
_cell_angle_gamma 90.000000
_cell_volume 3827.963916
_symmetry_space_group_name_H-M "P C C M"
_symmetry_group_IT_number 49
_symmetry_cell_setting 'orthorhombic'
loop_
_space_group_symop_operation_xyz
x,y,z
-x,-y,z
x,-y,1/2-z
-x,y,1/2-z
-x,-y,-z
x,y,-z
-x,y,1/2+z
x,-y,1/2+z
loop_
_atom_site_type_symbol
_atom_site_label
_atom_site_fract_x
_atom_site_fract_y
_atom_site_fract_z
Si Si1 0.932500 0.242305 0.330209
Si Si2 0.823277 0.324316 0.317193
Si Si3 0.294078 0.240048 0.682163
Si Si4 0.077453 0.064169 0.316321
Si Si5 0.807590 0.851028 0.175276
Si Si6 0.576984 0.313757 0.683196
Si Si7 0.784660 0.440866 0.824464
Si Si8 0.387918 0.438814 0.676278
O O1 0.956247 0.254655 0.500000
O O2 0.899688 0.300398 0.264313
O O3 0.866745 0.199211 0.331285
O O4 0.000000 0.216979 0.250000
O O5 0.815770 0.313807 0.500000
O O6 0.764215 0.288113 0.227150
O O7 0.812200 0.389495 0.277918
O O8 0.300977 0.235404 0.500000
O O9 0.261284 0.180167 0.748912
O O10 0.365525 0.267634 0.753954
O O11 0.072888 0.064094 0.500000
O O12 0.147190 0.100167 0.263339
O O13 0.000000 0.084540 0.250000
O O14 0.085501 0.000000 0.250000
O O15 0.791840 0.868408 0.000000
O O16 0.500000 0.298211 0.750000
O O17 0.578410 0.313198 0.500000
O O18 0.591498 0.379586 0.739216
O O19 0.807719 0.500000 0.750000
O O20 0.698279 0.439494 0.823109
O O21 0.807098 0.434886 0.000000
O O22 0.410887 0.500000 0.750000
O O23 0.412579 0.436009 0.500000
#
# Coordination Sequence:
#
# PCOD9392696 Si02
#       8
#     8   8   8   8   8   8   8   8
#     4   9  19  31  46  69  96 126 160 200 246 294
#     4  10  19  32  49  69  94 123 156 198 247 296
#     4  11  21  35  53  76 101 130 170 211 255 307
#     4  11  21  34  52  78 113 155 194 230 266 309
#     4  10  20  35  53  76 105 140 179 220 260 300
#     4  12  24  38  55  74 101 135 168 210 260 313
#     4  10  19  30  48  70  92 117 151 194 242 297
#     4  10  20  34  51  73  98 126 163 203 249 308
#
# _framework density 16.719071
#
# number of rings (size 3 to 8) (size 9 to 14) (size 15 to 20)
#    0.000    1.625    1.250    6.375    0.000    5.250 
#    0.000    1.250    0.000    0.375    0.000    2.625 
#    0.000    0.500    0.000    5.000    0.000    3.000 
#
# Total GULP energy -356705.613352 kJ/mol
# GULP energy per Si atom -5573.525209 kJ/mol
# Density = 1.668102 g / cm^3
# Si number density = 16.719071 Si / 1000 Ang^3
#
#
#
# Elastic Constant Matrix: (Units=GPa)
#
#
# Indices 1 2 3 4 5 6 
#
# 1 68.7023 45.8573 49.1824 0.0000 0.0000 0.0000
# 2 45.8573 92.3125 47.0180 0.0000 0.0000 0.0000
# 3 49.1824 47.0180 144.0751 0.0000 0.0000 0.0000
# 4 0.0000 0.0000 0.0000 27.2172 0.0000 0.0000
# 5 0.0000 0.0000 0.0000 0.0000 19.9576 0.0000
# 6 0.0000 0.0000 0.0000 0.0000 0.0000 -46.3876
#
#
#
# Elastic Compliance Matrix: (Units=1/GPa)
#
#
# Indices 1 2 3 4 5 6 
#
# 1 0.024771 -0.009593 -0.005325 0.000000 0.000000 0.000000
# 2 -0.009593 0.016707 -0.002178 0.000000 0.000000 0.000000
# 3 -0.005325 -0.002178 0.009469 0.000000 0.000000 0.000000
# 4 0.000000 0.000000 0.000000 0.036741 0.000000 0.000000
# 5 0.000000 0.000000 0.000000 0.000000 0.050106 0.000000
# 6 0.000000 0.000000 0.000000 0.000000 0.000000 -0.021557
#
#
# Mechanical properties :
#
#
# Convention : Reuss Voigt Hill
#
# Bulk Modulus (GPa) = 59.68071 65.46727 62.57399
# Shear Modulus (GPa) = 32.04826 11.02625 21.53726
#
# Velocity S-wave (km/s) = 4.38296 2.57086 3.59302
# Velocity P-wave (km/s) = 7.83501 6.93215 7.39737
#
# Compressibility (1/GPa) = 0.01675583
#
# Stress axis : x y z
#
# Youngs Moduli (GPa) = 40.36997 59.85420 105.60344
#
# Poissons Ratio (x) = 0.57417 0.56238
# Poissons Ratio (y) = 0.38726 0.22997
# Poissons Ratio (z) = 0.21499 0.13034
#
# Static dielectric constant tensor:
#      x y z
#    x 1.594410 0.000000 0.000000 
#    y 0.000000 1.592570 0.000000 
#    z 0.000000 0.000000 1.578710 
# 
# From -- ./inp_files/5309.got.cif
#   From: 2010.05.17/outbox.cif.g08.bks.cpg/sg49_3_cif.got.tgz:5309.got - 2010.06.03 21:02:19.
