data_PCOD9392582
_publ_section_title
;
Structure prediction by ZEFSAII (Michael W. Deem and Ramdas Pophale) SiO2 
 PCOD9392582
Probable space group: P C C M
;
_chemical_formula_sum "Si O2"
_cell_formula_units_Z 60
_cell_length_a 11.304709
_cell_length_b 11.927533
_cell_length_c 20.034537
_cell_angle_alpha 90.000000
_cell_angle_beta 90.000000
_cell_angle_gamma 90.000000
_cell_volume 2701.402669
_symmetry_space_group_name_H-M "P C C M"
_symmetry_group_IT_number 49
_symmetry_cell_setting 'orthorhombic'
loop_
_space_group_symop_operation_xyz
x,y,z
-x,-y,z
x,-y,1/2-z
-x,y,1/2-z
-x,-y,-z
x,y,-z
-x,y,1/2+z
x,-y,1/2+z
loop_
_atom_site_type_symbol
_atom_site_label
_atom_site_fract_x
_atom_site_fract_y
_atom_site_fract_z
Si Si1 0.377539 0.961447 0.364186
Si Si2 0.754839 0.476301 0.670083
Si Si3 0.757611 0.148911 0.192443
Si Si4 0.613281 0.724439 0.794732
Si Si5 0.882882 0.937007 0.075144
Si Si6 0.000000 0.829268 0.250000
Si Si7 0.053333 0.306588 0.883124
Si Si8 0.790659 0.319540 0.922108
O O1 0.398398 0.835313 0.339312
O O2 0.246299 0.959788 0.395634
O O3 0.500000 0.000000 0.398973
O O4 0.348440 0.059484 0.310509
O O5 0.777989 0.500000 0.750000
O O6 0.647279 0.388433 0.667961
O O7 0.860788 0.408794 0.633477
O O8 0.732684 0.585316 0.624786
O O9 0.718977 0.245032 0.244005
O O10 0.772271 0.204110 0.119337
O O11 0.881742 0.109294 0.224077
O O12 0.500000 0.706510 0.750000
O O13 0.898005 0.802643 0.078203
O O14 0.878141 0.978819 0.000000
O O15 0.000000 0.000000 0.104771
O O16 0.972708 0.748812 0.188372
O O17 0.931462 0.341326 0.917432
O O18 0.754773 0.315870 0.000000
#
# Coordination Sequence:
#
# PCOD9392582 Si02
#       8
#     8   8   8   8   8   4   8   8
#     4  12  25  42  73 108 145 186 239 307 375 441
#     4  12  23  44  70 101 136 184 236 296 363 429
#     4  11  22  41  70 100 140 183 228 292 359 434
#     4  12  24  45  70 104 136 178 234 295 370 437
#     4  11  24  44  69 100 147 200 245 293 362 448
#     4  10  18  36  62 100 140 170 217 289 354 428
#     4  11  21  38  65  98 140 182 233 288 361 427
#     4  11  25  43  67 102 143 191 239 291 359 434
#
# _framework density 22.210683
#
# number of rings (size 3 to 8) (size 9 to 14) (size 15 to 20)
#    0.000    0.667    5.333    3.600    0.000    4.267 
#    0.000    5.667    0.000    1.600    0.000    0.000 
#    0.000    0.000    0.000    0.000    0.000    0.000 
#
# Total GULP energy -334807.688034 kJ/mol
# GULP energy per Si atom -5580.128134 kJ/mol
# Density = 2.216013 g / cm^3
# Si number density = 22.210683 Si / 1000 Ang^3
#
#
#
# Elastic Constant Matrix: (Units=GPa)
#
#
# Indices 1 2 3 4 5 6 
#
# 1 123.0128 40.2228 24.7663 0.0000 0.0000 0.0000
# 2 40.2228 133.0118 30.3786 0.0000 0.0000 0.0000
# 3 24.7663 30.3786 103.8389 0.0000 0.0000 0.0000
# 4 0.0000 0.0000 0.0000 -74.2732 0.0000 0.0000
# 5 0.0000 0.0000 0.0000 0.0000 -1.7357 0.0000
# 6 0.0000 0.0000 0.0000 0.0000 0.0000 17.1878
#
#
#
# Elastic Compliance Matrix: (Units=1/GPa)
#
#
# Indices 1 2 3 4 5 6 
#
# 1 0.009230 -0.002452 -0.001484 0.000000 0.000000 0.000000
# 2 -0.002452 0.008708 -0.001963 0.000000 0.000000 0.000000
# 3 -0.001484 -0.001963 0.010558 0.000000 0.000000 0.000000
# 4 0.000000 0.000000 0.000000 -0.013464 0.000000 0.000000
# 5 0.000000 0.000000 0.000000 0.000000 -0.576136 0.000000
# 6 0.000000 0.000000 0.000000 0.000000 0.000000 0.058181
#
#
# Mechanical properties :
#
#
# Convention : Reuss Voigt Hill
#
# Bulk Modulus (GPa) = 59.88561 61.17764 60.53162
# Shear Modulus (GPa) = -10.29742 5.86885 -2.21428
#
# Velocity S-wave (km/s) = -2.15553 1.62730 -0.99955
# Velocity P-wave (km/s) = 4.56355 5.57986 5.09710
#
# Compressibility (1/GPa) = 0.01669850
#
# Stress axis : x y z
#
# Youngs Moduli (GPa) = 108.34452 114.83789 94.71105
#
# Poissons Ratio (x) = 0.28160 0.14055
# Poissons Ratio (y) = 0.26568 0.18589
# Poissons Ratio (z) = 0.16078 0.22539
#
# Static dielectric constant tensor:
#      x y z
#    x 1.892340 0.000000 0.000000 
#    y 0.000000 1.852230 0.000000 
#    z 0.000000 0.000000 1.915830 
# 
# From -- ./inp_files/20597.got.cif
#   From: 2010.05.17/outbox.cif.g08.bks.cpg/sg49_11_cif.got.tgz:20597.got - 2010.06.03 21:02:19.
