data_PCOD9392085
_publ_section_title
;
Structure prediction by ZEFSAII (Michael W. Deem and Ramdas Pophale) SiO2 
 PCOD9392085
Probable space group: P C C M
;
_chemical_formula_sum "Si O2"
_cell_formula_units_Z 48
_cell_length_a 13.934846
_cell_length_b 24.690045
_cell_length_c 8.710446
_cell_angle_alpha 90.000000
_cell_angle_beta 90.000000
_cell_angle_gamma 90.000000
_cell_volume 2996.846148
_symmetry_space_group_name_H-M "P C C M"
_symmetry_group_IT_number 49
_symmetry_cell_setting 'orthorhombic'
loop_
_space_group_symop_operation_xyz
x,y,z
-x,-y,z
x,-y,1/2-z
-x,y,1/2-z
-x,-y,-z
x,y,-z
-x,y,1/2+z
x,-y,1/2+z
loop_
_atom_site_type_symbol
_atom_site_label
_atom_site_fract_x
_atom_site_fract_y
_atom_site_fract_z
Si Si1 0.108914 0.444506 0.816110
Si Si2 0.107761 0.667680 0.815080
Si Si3 0.292217 0.057282 0.183893
Si Si4 0.211057 0.778863 0.184326
Si Si5 0.395893 0.167643 0.816751
Si Si6 0.104987 0.889335 0.184007
O O1 0.153188 0.500000 0.750000
O O2 0.150135 0.387809 0.754996
O O3 0.000000 0.443691 0.750000
O O4 0.106322 0.445942 0.000000
O O5 0.167627 0.720957 0.772729
O O6 0.000000 0.674220 0.750000
O O7 0.103035 0.663037 0.000000
O O8 0.360401 0.107328 0.230575
O O9 0.186736 0.071673 0.248358
O O10 0.324633 0.000000 0.250000
O O11 0.288471 0.055180 0.000000
O O12 0.313241 0.792240 0.258008
O O13 0.139407 0.828250 0.226417
O O14 0.220984 0.780198 0.000000
O O15 0.500000 0.179377 0.750000
O O16 0.399234 0.169180 0.000000
O O17 0.000000 0.900151 0.250000
O O18 0.103894 0.893765 0.000000
#
# Coordination Sequence:
#
# PCOD9392085 Si02
#       6
#     8   8   8   8   8   8
#     4  10  17  26  39  57  85 123 164 202 235 270
#     4  10  18  28  43  66  95 128 162 196 231 271
#     4  10  21  36  52  72  94 119 150 187 226 271
#     4   9  19  33  49  69  95 123 154 191 231 274
#     4  10  21  36  55  74  94 118 147 184 231 281
#     4  10  19  32  49  69  94 125 156 189 226 269
#
# _framework density 16.016838
#
# number of rings (size 3 to 8) (size 9 to 14) (size 15 to 20)
#    0.000    2.167    0.000    5.500    0.000    4.667 
#    0.000    3.333    0.000    0.000    0.000    0.000 
#    0.000    0.667    0.000    7.000    0.000    3.000 
#
# Total GULP energy -267806.002872 kJ/mol
# GULP energy per Si atom -5579.291726 kJ/mol
# Density = 1.598038 g / cm^3
# Si number density = 16.016838 Si / 1000 Ang^3
#
#
#
# Elastic Constant Matrix: (Units=GPa)
#
#
# Indices 1 2 3 4 5 6 
#
# 1 66.8642 23.6278 18.7612 0.0000 0.0000 0.0000
# 2 23.6278 116.5115 37.1596 0.0000 0.0000 0.0000
# 3 18.7612 37.1596 61.6238 0.0000 0.0000 0.0000
# 4 0.0000 0.0000 0.0000 30.2393 0.0000 0.0000
# 5 0.0000 0.0000 0.0000 0.0000 17.2592 0.0000
# 6 0.0000 0.0000 0.0000 0.0000 0.0000 9.5009
#
#
#
# Elastic Compliance Matrix: (Units=1/GPa)
#
#
# Indices 1 2 3 4 5 6 
#
# 1 0.016795 -0.002198 -0.003788 0.000000 0.000000 0.000000
# 2 -0.002198 0.010914 -0.005912 0.000000 0.000000 0.000000
# 3 -0.003788 -0.005912 0.020946 0.000000 0.000000 0.000000
# 4 0.000000 0.000000 0.000000 0.033070 0.000000 0.000000
# 5 0.000000 0.000000 0.000000 0.000000 0.057940 0.000000
# 6 0.000000 0.000000 0.000000 0.000000 0.000000 0.105253
#
#
# Mechanical properties :
#
#
# Convention : Reuss Voigt Hill
#
# Bulk Modulus (GPa) = 40.22651 44.89963 42.56307
# Shear Modulus (GPa) = 18.05049 22.42992 20.24021
#
# Velocity S-wave (km/s) = 3.36068 3.74625 3.55869
# Velocity P-wave (km/s) = 6.34260 6.84150 6.59677
#
# Compressibility (1/GPa) = 0.02485923
#
# Stress axis : x y z
#
# Youngs Moduli (GPa) = 59.54090 91.62400 47.74219
#
# Poissons Ratio (x) = 0.20138 0.18084
# Poissons Ratio (y) = 0.13086 0.28226
# Poissons Ratio (z) = 0.22554 0.54170
#
# Static dielectric constant tensor:
#      x y z
#    x 1.498290 0.000000 0.000000 
#    y 0.000000 1.572670 0.000000 
#    z 0.000000 0.000000 1.532730 
# 
# From -- ./inp_files/2883.got.cif
#   From: 2010.05.17/outbox.cif.g08.bks.cpg/sg49_2_cif.got.tgz:2883.got - 2010.06.03 21:02:19.
