data_PCOD9392973
_publ_section_title
;
Structure prediction by ZEFSAII (Michael W. Deem and Ramdas Pophale) SiO2 
 PCOD9392973
Probable space group: P C C M
;
_chemical_formula_sum "Si O2"
_cell_formula_units_Z 64
_cell_length_a 11.937518
_cell_length_b 15.355190
_cell_length_c 16.897861
_cell_angle_alpha 90.000000
_cell_angle_beta 90.000000
_cell_angle_gamma 90.000000
_cell_volume 3097.426199
_symmetry_space_group_name_H-M "P C C M"
_symmetry_group_IT_number 49
_symmetry_cell_setting 'orthorhombic'
loop_
_space_group_symop_operation_xyz
x,y,z
-x,-y,z
x,-y,1/2-z
-x,y,1/2-z
-x,-y,-z
x,y,-z
-x,y,1/2+z
x,-y,1/2+z
loop_
_atom_site_type_symbol
_atom_site_label
_atom_site_fract_x
_atom_site_fract_y
_atom_site_fract_z
Si Si1 0.285151 0.124282 0.591633
Si Si2 0.887135 0.678034 0.794331
Si Si3 0.661214 0.048309 0.670777
Si Si4 0.123112 0.459515 0.913761
Si Si5 0.715986 0.427934 0.195585
Si Si6 0.472883 0.792518 0.405339
Si Si7 0.127932 0.874492 0.752988
Si Si8 0.518056 0.604120 0.406053
O O1 0.247961 0.136885 0.500000
O O2 0.394568 0.185084 0.605764
O O3 0.189209 0.134477 0.660216
O O4 0.331595 0.025820 0.604080
O O5 0.886706 0.637758 0.881166
O O6 0.781820 0.638773 0.749181
O O7 0.882059 0.779823 0.786206
O O8 0.000000 0.646200 0.750000
O O9 0.595442 0.134424 0.643333
O O10 0.786773 0.073937 0.697091
O O11 0.616616 0.000000 0.750000
O O12 0.194973 0.516142 0.853810
O O13 0.000000 0.500000 0.916682
O O14 0.176532 0.462378 0.000000
O O15 0.655522 0.500000 0.250000
O O16 0.634628 0.380683 0.136833
O O17 0.450210 0.802197 0.500000
O O18 0.446951 0.690855 0.382145
O O19 0.000000 0.907385 0.750000
O O20 0.500000 0.500000 0.390925
O O21 0.525524 0.611084 0.500000
#
# Coordination Sequence:
#
# PCOD9392973 Si02
#       8
#     8   8   8   8   8   8   8   8
#     4  10  21  40  66  94 123 160 209 262 322 382
#     4  10  19  36  56  79 115 155 197 253 302 350
#     4  10  22  39  63  95 126 163 206 265 327 388
#     4  10  19  32  54  84 112 150 204 259 305 349
#     4  10  20  33  55  79 112 157 202 257 303 356
#     4  10  21  39  65  95 128 161 208 269 324 377
#     4  10  23  41  60  88 127 168 203 246 308 385
#     4  10  22  40  59  85 124 167 205 249 304 372
#
# _framework density 20.662316000000001
#
# number of rings (size 3 to 8) (size 9 to 14) (size 15 to 20)
#    0.000    2.000    1.250    1.875    0.000    9.000 
#    0.000   10.000    0.000    0.000    0.000    0.000 
#    0.000    0.000    0.000    0.000    0.000    0.000 
#
# Total GULP energy -356770.647653 kJ/mol
# GULP energy per Si atom -5574.541370 kJ/mol
# Density = 2.061529 g / cm^3
# Si number density = 20.662316 Si / 1000 Ang^3
#
#
#
# Elastic Constant Matrix: (Units=GPa)
#
#
# Indices 1 2 3 4 5 6 
#
# 1 80.9797 32.9193 25.9006 0.0000 0.0000 0.0000
# 2 32.9193 155.3509 36.5680 0.0000 0.0000 0.0000
# 3 25.9006 36.5680 56.4508 0.0000 0.0000 0.0000
# 4 0.0000 0.0000 0.0000 27.3437 0.0000 0.0000
# 5 0.0000 0.0000 0.0000 0.0000 20.8746 0.0000
# 6 0.0000 0.0000 0.0000 0.0000 0.0000 84.6432
#
#
#
# Elastic Compliance Matrix: (Units=1/GPa)
#
#
# Indices 1 2 3 4 5 6 
#
# 1 0.014899 -0.001827 -0.005653 0.000000 0.000000 0.000000
# 2 -0.001827 0.007819 -0.004227 0.000000 0.000000 0.000000
# 3 -0.005653 -0.004227 0.023046 0.000000 0.000000 0.000000
# 4 0.000000 0.000000 0.000000 0.036571 0.000000 0.000000
# 5 0.000000 0.000000 0.000000 0.000000 0.047905 0.000000
# 6 0.000000 0.000000 0.000000 0.000000 0.000000 0.011814
#
#
# Mechanical properties :
#
#
# Convention : Reuss Voigt Hill
#
# Bulk Modulus (GPa) = 44.73892 53.72857 49.23374
# Shear Modulus (GPa) = 28.91526 39.73187 34.32356
#
# Velocity S-wave (km/s) = 3.74494 4.38986 4.08016
# Velocity P-wave (km/s) = 6.35601 7.19403 6.78797
#
# Compressibility (1/GPa) = 0.02235190
#
# Stress axis : x y z
#
# Youngs Moduli (GPa) = 67.11719 127.89204 43.39082
#
# Poissons Ratio (x) = 0.23361 0.24528
# Poissons Ratio (y) = 0.12260 0.18341
# Poissons Ratio (z) = 0.37940 0.54060
#
# Static dielectric constant tensor:
#      x y z
#    x 1.777390 0.000000 0.000000 
#    y 0.000000 1.778460 0.000000 
#    z 0.000000 0.000000 1.756090 
# 
# From -- ./inp_files/17338.got.cif
#   From: 2010.05.17/outbox.cif.g08.bks.cpg/sg49_9_cif.got.tgz:17338.got - 2010.06.03 21:02:19.
