data_PCOD9392531
_publ_section_title
;
Structure prediction by ZEFSAII (Michael W. Deem and Ramdas Pophale) SiO2 
 PCOD9392531
Probable space group: P C C M
;
_chemical_formula_sum "Si O2"
_cell_formula_units_Z 48
_cell_length_a 14.256760
_cell_length_b 19.566182
_cell_length_c 10.054605
_cell_angle_alpha 90.000000
_cell_angle_beta 90.000000
_cell_angle_gamma 90.000000
_cell_volume 2804.735693
_symmetry_space_group_name_H-M "P C C M"
_symmetry_group_IT_number 49
_symmetry_cell_setting 'orthorhombic'
loop_
_space_group_symop_operation_xyz
x,y,z
-x,-y,z
x,-y,1/2-z
-x,y,1/2-z
-x,-y,-z
x,y,-z
-x,y,1/2+z
x,-y,1/2+z
loop_
_atom_site_type_symbol
_atom_site_label
_atom_site_fract_x
_atom_site_fract_y
_atom_site_fract_z
Si Si1 0.806596 0.928185 0.500000
Si Si2 0.603955 0.140364 0.500000
Si Si3 0.095598 0.435957 0.336355
Si Si4 0.393872 0.134989 0.500000
Si Si5 0.395379 0.761656 0.247235
Si Si6 0.887959 0.841440 0.742309
Si Si7 0.211085 0.702668 0.841828
Si Si8 0.196316 0.913160 0.500000
O O1 0.694045 0.915686 0.500000
O O2 0.850465 0.889864 0.625585
O O3 0.831465 0.007718 0.500000
O O4 0.500440 0.106905 0.500000
O O5 0.613564 0.190763 0.375327
O O6 0.690855 0.089685 0.500000
O O7 0.135632 0.500000 0.250000
O O8 0.082562 0.447776 0.500000
O O9 0.160125 0.369418 0.324495
O O10 0.000000 0.422590 0.250000
O O11 0.386951 0.184928 0.373884
O O12 0.500000 0.731224 0.250000
O O13 0.311790 0.708501 0.228859
O O14 0.850708 0.765146 0.714388
O O15 0.000000 0.841692 0.750000
O O16 0.843432 0.872763 0.874364
O O17 0.223266 0.714061 0.000000
#
# Coordination Sequence:
#
# PCOD9392531 Si02
#       8
#     4   4   8   4   8   8   8   4
#     4  12  23  41  58  73 111 158 185 233 304 359
#     4  10  20  34  53  88 108 134 185 247 295 334
#     4  10  21  39  61  90 125 159 191 226 279 337
#     4  10  18  36  61  72 110 148 181 231 295 370
#     4  10  18  33  57  83 111 144 184 232 289 342
#     4  12  24  40  56  79 109 147 200 241 283 340
#     4  11  20  38  63  85 114 153 190 231 284 338
#     4  12  25  37  56  83 111 142 193 251 292 341
#
# _framework density 17.113911000000002
#
# number of rings (size 3 to 8) (size 9 to 14) (size 15 to 20)
#    0.000    1.167    5.000    2.500    0.000    2.333 
#    6.000    0.000    0.000    5.500    0.000    2.333 
#    0.000    0.000    0.000    0.000    0.000    0.000 
#
# Total GULP energy -267702.989345 kJ/mol
# GULP energy per Si atom -5577.145611 kJ/mol
# Density = 1.707496 g / cm^3
# Si number density = 17.113911 Si / 1000 Ang^3
#
#
#
# Elastic Constant Matrix: (Units=GPa)
#
#
# Indices 1 2 3 4 5 6 
#
# 1 130.7506 54.7537 32.9578 0.0000 0.0000 0.0000
# 2 54.7537 116.5896 45.1519 0.0000 0.0000 0.0000
# 3 32.9578 45.1519 141.2183 0.0000 0.0000 0.0000
# 4 0.0000 0.0000 0.0000 -21.6701 0.0000 0.0000
# 5 0.0000 0.0000 0.0000 0.0000 21.1628 0.0000
# 6 0.0000 0.0000 0.0000 0.0000 0.0000 19.8811
#
#
#
# Elastic Compliance Matrix: (Units=1/GPa)
#
#
# Indices 1 2 3 4 5 6 
#
# 1 0.009623 -0.004165 -0.000914 0.000000 0.000000 0.000000
# 2 -0.004165 0.011592 -0.002734 0.000000 0.000000 0.000000
# 3 -0.000914 -0.002734 0.008169 0.000000 0.000000 0.000000
# 4 0.000000 0.000000 0.000000 -0.046147 0.000000 0.000000
# 5 0.000000 0.000000 0.000000 0.000000 0.047253 0.000000
# 6 0.000000 0.000000 0.000000 0.000000 0.000000 0.050299
#
#
# Mechanical properties :
#
#
# Convention : Reuss Voigt Hill
#
# Bulk Modulus (GPa) = 72.69188 72.69835 72.69512
# Shear Modulus (GPa) = 49.50429 20.92110 35.21270
#
# Velocity S-wave (km/s) = 5.38416 3.50016 4.54094
# Velocity P-wave (km/s) = 9.01220 7.67504 8.37036
#
# Compressibility (1/GPa) = 0.01375669
#
# Stress axis : x y z
#
# Youngs Moduli (GPa) = 103.92029 86.26595 122.41712
#
# Poissons Ratio (x) = 0.35931 0.11190
# Poissons Ratio (y) = 0.43284 0.33472
# Poissons Ratio (z) = 0.09499 0.23587
#
# Static dielectric constant tensor:
#      x y z
#    x 1.612930 0.000000 0.000000 
#    y 0.000000 1.545130 0.000000 
#    z 0.000000 0.000000 1.550480 
# 
# From -- ./inp_files/3791.got.cif
#   From: 2010.05.17/outbox.cif.g08.bks.cpg/sg49_2_cif.got.tgz:3791.got - 2010.06.03 21:02:19.
