data_PCOD9392205
_publ_section_title
;
Structure prediction by ZEFSAII (Michael W. Deem and Ramdas Pophale) SiO2 
 PCOD9392205
Probable space group: P C C M
;
_chemical_formula_sum "Si O2"
_cell_formula_units_Z 48
_cell_length_a 9.771036
_cell_length_b 31.417017
_cell_length_c 8.596869
_cell_angle_alpha 90.000000
_cell_angle_beta 90.000000
_cell_angle_gamma 90.000000
_cell_volume 2639.039371
_symmetry_space_group_name_H-M "P C C M"
_symmetry_group_IT_number 49
_symmetry_cell_setting 'orthorhombic'
loop_
_space_group_symop_operation_xyz
x,y,z
-x,-y,z
x,-y,1/2-z
-x,y,1/2-z
-x,-y,-z
x,y,-z
-x,y,1/2+z
x,-y,1/2+z
loop_
_atom_site_type_symbol
_atom_site_label
_atom_site_fract_x
_atom_site_fract_y
_atom_site_fract_z
Si Si1 0.347704 0.206064 0.687242
Si Si2 0.843875 0.956127 0.685795
Si Si3 0.846444 0.380194 0.187345
Si Si4 0.845613 0.867212 0.185603
Si Si5 0.349041 0.696427 0.187024
Si Si6 0.351058 0.547624 0.313771
O O1 0.500000 0.197407 0.750000
O O2 0.345750 0.203066 0.500000
O O3 0.243449 0.172490 0.758899
O O4 0.314665 0.254998 0.732643
O O5 0.846478 0.956875 0.500000
O O6 0.785357 0.911552 0.747022
O O7 0.000000 0.955723 0.750000
O O8 0.780645 0.000000 0.750000
O O9 0.762374 0.338066 0.237151
O O10 0.763890 0.420484 0.252856
O O11 0.000000 0.379271 0.250000
O O12 0.847658 0.382027 0.000000
O O13 0.000000 0.862652 0.250000
O O14 0.850609 0.869955 0.000000
O O15 0.500000 0.686075 0.250000
O O16 0.355893 0.695395 0.000000
O O17 0.327544 0.500000 0.250000
O O18 0.500000 0.561455 0.250000
O O19 0.354570 0.546871 0.500000
#
# Coordination Sequence:
#
# PCOD9392205 Si02
#       6
#     8   8   8   8   8   8
#     4  10  20  37  57  81 109 143 182 224 271 325
#     4  10  17  28  46  71 102 137 175 220 267 320
#     4  11  23  39  57  84 117 151 186 228 278 330
#     4  11  21  34  52  78 108 142 180 225 274 324
#     4   9  20  37  59  82 108 141 183 226 270 323
#     4  11  22  39  62  88 115 149 189 232 274 324
#
# _framework density 18.188437
#
# number of rings (size 3 to 8) (size 9 to 14) (size 15 to 20)
#    0.000    1.667    0.000    8.000    0.000    4.333 
#    0.000    3.333    0.000    0.500    0.000    3.500 
#    0.000    0.000    0.000    0.000    0.000    0.000 
#
# Total GULP energy -268103.785659 kJ/mol
# GULP energy per Si atom -5585.495535 kJ/mol
# Density = 1.814704 g / cm^3
# Si number density = 18.188437 Si / 1000 Ang^3
#
#
#
# Elastic Constant Matrix: (Units=GPa)
#
#
# Indices 1 2 3 4 5 6 
#
# 1 116.9188 106.5574 51.4429 0.0000 0.0000 0.0000
# 2 106.5574 146.1545 62.5115 0.0000 0.0000 0.0000
# 3 51.4429 62.5115 139.7406 0.0000 0.0000 0.0000
# 4 0.0000 0.0000 0.0000 23.4124 0.0000 0.0000
# 5 0.0000 0.0000 0.0000 0.0000 30.5760 0.0000
# 6 0.0000 0.0000 0.0000 0.0000 0.0000 33.5829
#
#
#
# Elastic Compliance Matrix: (Units=1/GPa)
#
#
# Indices 1 2 3 4 5 6 
#
# 1 0.025690 -0.018159 -0.001334 0.000000 0.000000 0.000000
# 2 -0.018159 0.021297 -0.002842 0.000000 0.000000 0.000000
# 3 -0.001334 -0.002842 0.008919 0.000000 0.000000 0.000000
# 4 0.000000 0.000000 0.000000 0.042712 0.000000 0.000000
# 5 0.000000 0.000000 0.000000 0.000000 0.032705 0.000000
# 6 0.000000 0.000000 0.000000 0.000000 0.000000 0.029777
#
#
# Mechanical properties :
#
#
# Convention : Reuss Voigt Hill
#
# Bulk Modulus (GPa) = 89.00698 93.75973 91.38336
# Shear Modulus (GPa) = 23.86456 29.66773 26.76615
#
# Velocity S-wave (km/s) = 3.62618 4.04311 3.84031
# Velocity P-wave (km/s) = 8.15932 8.57068 8.36753
#
# Compressibility (1/GPa) = 0.01123507
#
# Stress axis : x y z
#
# Youngs Moduli (GPa) = 38.92590 46.95478 112.12643
#
# Poissons Ratio (x) = 0.85266 0.14956
# Poissons Ratio (y) = 0.70687 0.31867
# Poissons Ratio (z) = 0.05192 0.13345
#
# Static dielectric constant tensor:
#      x y z
#    x 1.592690 0.000000 0.000000 
#    y 0.000000 1.651980 0.000000 
#    z 0.000000 0.000000 1.608930 
# 
# From -- ./inp_files/2112.got.cif
#   From: 2010.05.17/outbox.cif.g08.bks.cpg/sg49_2_cif.got.tgz:2112.got - 2010.06.03 21:02:19.
