data_PCOD9392438
_publ_section_title
;
Structure prediction by ZEFSAII (Michael W. Deem and Ramdas Pophale) SiO2 
 PCOD9392438
Probable space group: P C C M
;
_chemical_formula_sum "Si O2"
_cell_formula_units_Z 64
_cell_length_a 12.116196
_cell_length_b 17.831620
_cell_length_c 16.893739
_cell_angle_alpha 90.000000
_cell_angle_beta 90.000000
_cell_angle_gamma 90.000000
_cell_volume 3649.916011
_symmetry_space_group_name_H-M "P C C M"
_symmetry_group_IT_number 49
_symmetry_cell_setting 'orthorhombic'
loop_
_space_group_symop_operation_xyz
x,y,z
-x,-y,z
x,-y,1/2-z
-x,y,1/2-z
-x,-y,-z
x,y,-z
-x,y,1/2+z
x,-y,1/2+z
loop_
_atom_site_type_symbol
_atom_site_label
_atom_site_fract_x
_atom_site_fract_y
_atom_site_fract_z
Si Si1 0.114382 0.543599 0.404511
Si Si2 0.458939 0.678827 0.838730
Si Si3 0.869589 0.709127 0.836139
Si Si4 0.499146 0.916123 0.594761
Si Si5 0.688392 0.807172 0.407233
Si Si6 0.352400 0.774583 0.593674
Si Si7 0.115962 0.729291 0.147526
Si Si8 0.732112 0.591383 0.593415
O O1 0.113178 0.556665 0.500000
O O2 0.132254 0.621401 0.359641
O O3 0.212782 0.486837 0.384173
O O4 0.000000 0.500000 0.385062
O O5 0.500000 0.671630 0.750000
O O6 0.373649 0.747444 0.851702
O O7 0.563543 0.705611 0.889818
O O8 0.383735 0.609646 0.865312
O O9 0.763877 0.753656 0.867869
O O10 0.872968 0.719305 0.741733
O O11 0.987176 0.735366 0.871096
O O12 0.477808 0.921199 0.500000
O O13 0.622176 0.883218 0.604033
O O14 0.413588 0.851293 0.623520
O O15 0.500000 0.000000 0.628240
O O16 0.673464 0.785382 0.500000
O O17 0.815055 0.799967 0.384230
O O18 0.338329 0.782027 0.500000
O O19 0.176445 0.656235 0.110536
O O20 0.712678 0.591941 0.500000
#
# Coordination Sequence:
#
# PCOD9392438 Si02
#       8
#     8   8   8   8   8   8   8   8
#     4  10  20  35  54  76 100 130 172 225 273 315
#     4  10  18  31  51  72 102 137 172 214 256 310
#     4  11  22  34  49  74 106 139 174 218 271 311
#     4   8  15  30  54  84 110 131 163 210 261 308
#     4   9  17  31  55  81 103 134 174 216 257 308
#     4  10  19  31  51  77 105 137 171 210 258 311
#     4  10  20  33  50  74 102 137 177 218 262 310
#     4  10  19  34  55  75  98 131 176 224 266 312
#
# _framework density 17.534649999999999
#
# number of rings (size 3 to 8) (size 9 to 14) (size 15 to 20)
#    0.000    2.250    1.250    4.875    0.000    2.000 
#    0.000    0.625    0.000   20.250    0.000    5.250 
#    0.000    0.000    0.000    0.000    0.000    0.000 
#
# Total GULP energy -356633.240852 kJ/mol
# GULP energy per Si atom -5572.394388 kJ/mol
# Density = 1.749474 g / cm^3
# Si number density = 17.534650 Si / 1000 Ang^3
#
#
#
# Elastic Constant Matrix: (Units=GPa)
#
#
# Indices 1 2 3 4 5 6 
#
# 1 143.7795 69.6353 35.1853 0.0000 0.0000 0.0000
# 2 69.6353 95.5038 30.9968 0.0000 0.0000 0.0000
# 3 35.1853 30.9968 39.4328 0.0000 0.0000 0.0000
# 4 0.0000 0.0000 0.0000-1513.1048 0.0000 0.0000
# 5 0.0000 0.0000 0.0000 0.0000 24.1466 0.0000
# 6 0.0000 0.0000 0.0000 0.0000 0.0000 18.0230
#
#
#
# Elastic Compliance Matrix: (Units=1/GPa)
#
#
# Indices 1 2 3 4 5 6 
#
# 1 0.011414 -0.006735 -0.004890 0.000000 0.000000 0.000000
# 2 -0.006735 0.018031 -0.008164 0.000000 0.000000 0.000000
# 3 -0.004890 -0.008164 0.036141 0.000000 0.000000 0.000000
# 4 0.000000 0.000000 0.000000 -0.000661 0.000000 0.000000
# 5 0.000000 0.000000 0.000000 0.000000 0.041414 0.000000
# 6 0.000000 0.000000 0.000000 0.000000 0.000000 0.055485
#
#
# Mechanical properties :
#
#
# Convention : Reuss Voigt Hill
#
# Bulk Modulus (GPa) = 38.45137 61.15010 49.80073
# Shear Modulus (GPa) = 23.80150 -284.66045 -130.42947
#
# Velocity S-wave (km/s) = 3.68829 -12.75516 -8.63396
# Velocity P-wave (km/s) = 6.33359 13.48984 8.42204
#
# Compressibility (1/GPa) = 0.02600688
#
# Stress axis : x y z
#
# Youngs Moduli (GPa) = 87.61428 55.45909 27.66966
#
# Poissons Ratio (x) = 0.37352 0.13531
# Poissons Ratio (y) = 0.59008 0.22590
# Poissons Ratio (z) = 0.42844 0.45278
#
# Static dielectric constant tensor:
#      x y z
#    x 1.627900 0.000000 0.000000 
#    y 0.000000 1.607470 0.000000 
#    z 0.000000 0.000000 1.606390 
# 
# From -- ./inp_files/13079.got.cif
#   From: 2010.05.17/outbox.cif.g08.bks.cpg/sg49_7_cif.got.tgz:13079.got - 2010.06.03 21:02:19.
