data_PCOD9392153
_publ_section_title
;
Structure prediction by ZEFSAII (Michael W. Deem and Ramdas Pophale) SiO2 
 PCOD9392153
Probable space group: P C C M
;
_chemical_formula_sum "Si O2"
_cell_formula_units_Z 48
_cell_length_a 16.291303
_cell_length_b 19.280081
_cell_length_c 8.647825
_cell_angle_alpha 90.000000
_cell_angle_beta 90.000000
_cell_angle_gamma 90.000000
_cell_volume 2716.261436
_symmetry_space_group_name_H-M "P C C M"
_symmetry_group_IT_number 49
_symmetry_cell_setting 'orthorhombic'
loop_
_space_group_symop_operation_xyz
x,y,z
-x,-y,z
x,-y,1/2-z
-x,y,1/2-z
-x,-y,-z
x,y,-z
-x,y,1/2+z
x,-y,1/2+z
loop_
_atom_site_type_symbol
_atom_site_label
_atom_site_fract_x
_atom_site_fract_y
_atom_site_fract_z
Si Si1 0.912934 0.669748 0.185313
Si Si2 0.755204 0.577918 0.185606
Si Si3 0.912515 0.175180 0.185948
Si Si4 0.763419 0.922122 0.313516
Si Si5 0.416900 0.921373 0.815096
Si Si6 0.584495 0.421033 0.815193
O O1 0.835385 0.622269 0.226304
O O2 0.901357 0.746760 0.252845
O O3 0.000000 0.642979 0.250000
O O4 0.918462 0.673977 0.000000
O O5 0.764789 0.500000 0.250000
O O6 0.670875 0.608808 0.255767
O O7 0.747075 0.574968 0.000000
O O8 0.837653 0.126623 0.237432
O O9 0.000000 0.149806 0.250000
O O10 0.915329 0.176460 0.000000
O O11 0.765331 0.926040 0.500000
O O12 0.672893 0.893065 0.270771
O O13 0.771835 0.000000 0.250000
O O14 0.500000 0.887702 0.750000
O O15 0.415499 0.000000 0.750000
O O16 0.422949 0.923772 0.000000
O O17 0.585740 0.500000 0.750000
O O18 0.500000 0.389120 0.750000
O O19 0.582128 0.422659 0.000000
#
# Coordination Sequence:
#
# PCOD9392153 Si02
#       6
#     8   8   8   8   8   8
#     4  10  21  36  54  74  97 128 165 203 243 294
#     4  10  20  33  50  75 103 129 163 204 246 291
#     4  10  20  35  53  72  95 126 164 201 241 292
#     4   9  19  32  48  72 100 128 159 198 241 285
#     4   9  15  25  41  64  93 123 155 189 229 276
#     4  10  17  27  45  69  99 132 164 199 241 288
#
# _framework density 17.671347000000001
#
# number of rings (size 3 to 8) (size 9 to 14) (size 15 to 20)
#    0.000    2.333    0.000    6.500    0.000    5.333 
#    0.000    3.333    0.000    1.000    0.000    4.667 
#    0.000    0.000    0.000    0.000    0.000    0.000 
#
# Total GULP energy -267545.503933 kJ/mol
# GULP energy per Si atom -5573.864665 kJ/mol
# Density = 1.763113 g / cm^3
# Si number density = 17.671347 Si / 1000 Ang^3
#
#
#
# Elastic Constant Matrix: (Units=GPa)
#
#
# Indices 1 2 3 4 5 6 
#
# 1 230.5350 65.6279 66.4663 0.0000 0.0000 0.0000
# 2 65.6279 32.7265 19.8289 0.0000 0.0000 0.0000
# 3 66.4663 19.8289 75.0313 0.0000 0.0000 0.0000
# 4 0.0000 0.0000 0.0000 4.5338 0.0000 0.0000
# 5 0.0000 0.0000 0.0000 0.0000 36.4080 0.0000
# 6 0.0000 0.0000 0.0000 0.0000 0.0000 -9.4362
#
#
#
# Elastic Compliance Matrix: (Units=1/GPa)
#
#
# Indices 1 2 3 4 5 6 
#
# 1 0.011414 -0.019958 -0.004836 0.000000 0.000000 0.000000
# 2 -0.019958 0.071281 -0.001158 0.000000 0.000000 0.000000
# 3 -0.004836 -0.001158 0.017918 0.000000 0.000000 0.000000
# 4 0.000000 0.000000 0.000000 0.220568 0.000000 0.000000
# 5 0.000000 0.000000 0.000000 0.000000 0.027467 0.000000
# 6 0.000000 0.000000 0.000000 0.000000 0.000000 -0.105975
#
#
# Mechanical properties :
#
#
# Convention : Reuss Voigt Hill
#
# Bulk Modulus (GPa) = 20.53060 71.34878 45.93969
# Shear Modulus (GPa) = 16.08687 18.72575 17.40631
#
# Velocity S-wave (km/s) = 3.02045 3.25878 3.14188
# Velocity P-wave (km/s) = 4.87928 7.39071 6.26219
#
# Compressibility (1/GPa) = 0.04870778
#
# Stress axis : x y z
#
# Youngs Moduli (GPa) = 87.61368 14.02906 55.80950
#
# Poissons Ratio (x) = 0.27999 0.26992
# Poissons Ratio (y) = 1.74860 0.06462
# Poissons Ratio (z) = 0.42374 0.01624
#
# Static dielectric constant tensor:
#      x y z
#    x 1.670010 0.000000 0.000000 
#    y 0.000000 1.565960 0.000000 
#    z 0.000000 0.000000 1.596290 
# 
# From -- ./inp_files/3865.got.cif
#   From: 2010.05.17/outbox.cif.g08.bks.cpg/sg49_2_cif.got.tgz:3865.got - 2010.06.03 21:02:19.
