data_PCOD9392446
_publ_section_title
;
Structure prediction by ZEFSAII (Michael W. Deem and Ramdas Pophale) SiO2 
 PCOD9392446
Probable space group: P C C M
;
_chemical_formula_sum "Si O2"
_cell_formula_units_Z 64
_cell_length_a 19.763662
_cell_length_b 10.593814
_cell_length_c 16.411936
_cell_angle_alpha 90.000000
_cell_angle_beta 90.000000
_cell_angle_gamma 90.000000
_cell_volume 3436.209042
_symmetry_space_group_name_H-M "P C C M"
_symmetry_group_IT_number 49
_symmetry_cell_setting 'orthorhombic'
loop_
_space_group_symop_operation_xyz
x,y,z
-x,-y,z
x,-y,1/2-z
-x,y,1/2-z
-x,-y,-z
x,y,-z
-x,y,1/2+z
x,-y,1/2+z
loop_
_atom_site_type_symbol
_atom_site_label
_atom_site_fract_x
_atom_site_fract_y
_atom_site_fract_z
Si Si1 0.039444 0.624737 0.400159
Si Si2 0.675394 0.985624 0.346844
Si Si3 0.665730 0.728116 0.902455
Si Si4 0.173512 0.011794 0.652686
Si Si5 0.456711 0.117419 0.595538
Si Si6 0.960943 0.875140 0.401785
Si Si7 0.473193 0.365232 0.157119
Si Si8 0.180074 0.274514 0.097540
O O1 0.040216 0.624029 0.500000
O O2 0.117531 0.640026 0.373251
O O3 0.000000 0.500000 0.373443
O O4 0.997978 0.748681 0.373791
O O5 0.750904 0.950341 0.373974
O O6 0.617708 0.886740 0.367530
O O7 0.677099 0.000000 0.250000
O O8 0.657171 0.121603 0.385957
O O9 0.607307 0.652571 0.855066
O O10 0.742980 0.698957 0.874455
O O11 0.659354 0.706428 0.000000
O O12 0.116252 0.107272 0.624134
O O13 0.171515 0.000000 0.750000
O O14 0.162210 0.870972 0.617690
O O15 0.449200 0.095299 0.500000
O O16 0.494346 0.247408 0.610687
O O17 0.500000 0.000000 0.630724
O O18 0.963857 0.875499 0.500000
O O19 0.000000 0.000000 0.371911
O O20 0.500000 0.500000 0.126119
O O21 0.500000 0.355238 0.250000
O O22 0.182651 0.284840 0.000000
#
# Coordination Sequence:
#
# PCOD9392446 Si02
#       8
#     8   8   8   8   8   8   8   8
#     4   9  17  31  52  79 108 139 179 222 265 321
#     4  10  20  34  54  80 112 145 182 226 278 338
#     4  10  19  34  58  83 108 143 188 233 276 329
#     4  10  20  32  50  80 110 142 179 224 274 323
#     4  11  22  35  56  87 113 138 182 235 284 327
#     4  10  18  31  52  77 103 134 176 224 270 317
#     4  11  24  40  58  82 112 153 192 226 276 341
#     4   9  17  32  55  80 107 142 184 223 267 326
#
# _framework density 18.625177000000001
#
# number of rings (size 3 to 8) (size 9 to 14) (size 15 to 20)
#    0.000    2.000    2.500    1.875    0.000    2.750 
#    0.000    1.250    0.000    3.000    0.000    0.000 
#    0.000    0.000    0.000    0.000    0.000    0.000 
#
# Total GULP energy -357024.129351 kJ/mol
# GULP energy per Si atom -5578.502021 kJ/mol
# Density = 1.858279 g / cm^3
# Si number density = 18.625177 Si / 1000 Ang^3
#
#
#
# Elastic Constant Matrix: (Units=GPa)
#
#
# Indices 1 2 3 4 5 6 
#
# 1 171.3141 67.7678 15.0504 0.0000 0.0000 0.0000
# 2 67.7678 87.0456 2.3878 0.0000 0.0000 0.0000
# 3 15.0504 2.3878 19.5778 0.0000 0.0000 0.0000
# 4 0.0000 0.0000 0.0000 7.9925 0.0000 0.0000
# 5 0.0000 0.0000 0.0000 0.0000 30.3802 0.0000
# 6 0.0000 0.0000 0.0000 0.0000 0.0000 30.7528
#
#
#
# Elastic Compliance Matrix: (Units=1/GPa)
#
#
# Indices 1 2 3 4 5 6 
#
# 1 0.009121 -0.006932 -0.006166 0.000000 0.000000 0.000000
# 2 -0.006932 0.016795 0.003281 0.000000 0.000000 0.000000
# 3 -0.006166 0.003281 0.055419 0.000000 0.000000 0.000000
# 4 0.000000 0.000000 0.000000 0.125117 0.000000 0.000000
# 5 0.000000 0.000000 0.000000 0.000000 0.032916 0.000000
# 6 0.000000 0.000000 0.000000 0.000000 0.000000 0.032517
#
#
# Mechanical properties :
#
#
# Convention : Reuss Voigt Hill
#
# Bulk Modulus (GPa) = 16.20767 49.81660 33.01214
# Shear Modulus (GPa) = 16.02117 26.67388 21.34753
#
# Velocity S-wave (km/s) = 2.93608 3.78847 3.38918
# Velocity P-wave (km/s) = 4.49611 6.77803 5.75138
#
# Compressibility (1/GPa) = 0.06169917
#
# Stress axis : x y z
#
# Youngs Moduli (GPa) = 109.63659 59.54181 18.04446
#
# Poissons Ratio (x) = 0.41274 0.11127
# Poissons Ratio (y) = 0.75999 -0.05919
# Poissons Ratio (z) = 0.67606 -0.19533
#
# Static dielectric constant tensor:
#      x y z
#    x 1.693120 0.000000 0.000000 
#    y 0.000000 1.611710 0.000000 
#    z 0.000000 0.000000 1.656910 
# 
# From -- ./inp_files/18310.got.cif
#   From: 2010.05.17/outbox.cif.g08.bks.cpg/sg49_10_cif.got.tgz:18310.got - 2010.06.03 21:02:19.
