data_PCOD9392199
_publ_section_title
;
Structure prediction by ZEFSAII (Michael W. Deem and Ramdas Pophale) SiO2 
 PCOD9392199
Probable space group: P C C M
;
_chemical_formula_sum "Si O2"
_cell_formula_units_Z 40
_cell_length_a 7.873453
_cell_length_b 28.181528
_cell_length_c 8.526521
_cell_angle_alpha 90.000000
_cell_angle_beta 90.000000
_cell_angle_gamma 90.000000
_cell_volume 1891.915094
_symmetry_space_group_name_H-M "P C C M"
_symmetry_group_IT_number 49
_symmetry_cell_setting 'orthorhombic'
loop_
_space_group_symop_operation_xyz
x,y,z
-x,-y,z
x,-y,1/2-z
-x,y,1/2-z
-x,-y,-z
x,y,-z
-x,y,1/2+z
x,-y,1/2+z
loop_
_atom_site_type_symbol
_atom_site_label
_atom_site_fract_x
_atom_site_fract_y
_atom_site_fract_z
Si Si1 0.194823 0.651151 0.189481
Si Si2 0.304639 0.950957 0.186591
Si Si3 0.190664 0.752906 0.188522
Si Si4 0.690322 0.853852 0.186151
Si Si5 0.195190 0.548885 0.811975
O O1 0.273418 0.702107 0.236979
O O2 0.270555 0.600112 0.238259
O O3 0.000000 0.650530 0.250000
O O4 0.189568 0.651488 0.000000
O O5 0.500000 0.950987 0.250000
O O6 0.224173 0.901360 0.243863
O O7 0.226675 0.000000 0.250000
O O8 0.309448 0.951857 0.000000
O O9 0.249838 0.802232 0.260661
O O10 0.000000 0.748393 0.250000
O O11 0.198619 0.756794 0.000000
O O12 0.500000 0.855668 0.250000
O O13 0.695387 0.857322 0.000000
O O14 0.274427 0.500000 0.750000
O O15 0.000000 0.549301 0.750000
O O16 0.191745 0.546806 0.000000
#
# Coordination Sequence:
#
# PCOD9392199 Si02
#       5
#     8   8   8   8   8
#     4   8  15  25  38  55  80 112 149 186 226 272
#     4  10  17  28  46  70  97 125 155 192 234 280
#     4  10  19  33  50  70  95 128 164 200 238 284
#     4  11  21  34  51  74 100 128 160 199 240 282
#     4   9  14  20  30  48  73 105 140 179 222 268
#
# _framework density 21.142599000000001
#
# number of rings (size 3 to 8) (size 9 to 14) (size 15 to 20)
#    0.000    2.400    0.000    7.200    0.000    1.600 
#    0.000    0.000    0.000    0.600    0.000    4.200 
#    0.000    0.800    0.000    9.200    0.000    5.400 
#
# Total GULP energy -222764.250481 kJ/mol
# GULP energy per Si atom -5569.106262 kJ/mol
# Density = 2.109448 g / cm^3
# Si number density = 21.142599 Si / 1000 Ang^3
#
#
#
# Elastic Constant Matrix: (Units=GPa)
#
#
# Indices 1 2 3 4 5 6 
#
# 1 14.7433 21.6605 -1.2131 0.0000 0.0000 0.0000
# 2 21.6605 304.2779 78.2791 0.0000 0.0000 0.0000
# 3 -1.2131 78.2791 126.9947 0.0000 0.0000 0.0000
# 4 0.0000 0.0000 0.0000 41.5321 0.0000 0.0000
# 5 0.0000 0.0000 0.0000 0.0000 8.0109 0.0000
# 6 0.0000 0.0000 0.0000 0.0000 0.0000 1.9320
#
#
#
# Elastic Compliance Matrix: (Units=1/GPa)
#
#
# Indices 1 2 3 4 5 6 
#
# 1 0.078305 -0.006854 0.004972 0.000000 0.000000 0.000000
# 2 -0.006854 0.004506 -0.002843 0.000000 0.000000 0.000000
# 3 0.004972 -0.002843 0.009674 0.000000 0.000000 0.000000
# 4 0.000000 0.000000 0.000000 0.024078 0.000000 0.000000
# 5 0.000000 0.000000 0.000000 0.000000 0.124830 0.000000
# 6 0.000000 0.000000 0.000000 0.000000 0.000000 0.517598
#
#
# Mechanical properties :
#
#
# Convention : Reuss Voigt Hill
#
# Bulk Modulus (GPa) = 12.04275 71.49655 41.76965
# Shear Modulus (GPa) = 6.28048 33.44763 19.86406
#
# Velocity S-wave (km/s) = 1.72539 3.98175 3.06850
# Velocity P-wave (km/s) = 3.11089 7.41815 5.68799
#
# Compressibility (1/GPa) = 0.08303751
#
# Stress axis : x y z
#
# Youngs Moduli (GPa) = 12.77052 221.94218 103.36878
#
# Poissons Ratio (x) = 1.52108 -0.51400
# Poissons Ratio (y) = 0.08752 0.29385
# Poissons Ratio (z) = -0.06350 0.63093
#
# Static dielectric constant tensor:
#      x y z
#    x 1.812180 0.000000 0.000000 
#    y 0.000000 1.948570 0.000000 
#    z 0.000000 0.000000 1.705450 
# 
# From -- ./inp_files/1922.got.cif
#   From: 2010.05.17/outbox.cif.g08.bks.cpg/sg49_1_cif.got.tgz:1922.got - 2010.06.03 21:02:19.
