data_PCOD9392717
_publ_section_title
;
Structure prediction by ZEFSAII (Michael W. Deem and Ramdas Pophale) SiO2 
 PCOD9392717
Probable space group: P C C M
;
_chemical_formula_sum "Si O2"
_cell_formula_units_Z 64
_cell_length_a 19.407176
_cell_length_b 22.335846
_cell_length_c 8.342293
_cell_angle_alpha 90.000000
_cell_angle_beta 90.000000
_cell_angle_gamma 90.000000
_cell_volume 3616.181251
_symmetry_space_group_name_H-M "P C C M"
_symmetry_group_IT_number 49
_symmetry_cell_setting 'orthorhombic'
loop_
_space_group_symop_operation_xyz
x,y,z
-x,-y,z
x,-y,1/2-z
-x,y,1/2-z
-x,-y,-z
x,y,-z
-x,y,1/2+z
x,-y,1/2+z
loop_
_atom_site_type_symbol
_atom_site_label
_atom_site_fract_x
_atom_site_fract_y
_atom_site_fract_z
Si Si1 0.426048 0.095649 0.306839
Si Si2 0.680836 0.331324 0.194837
Si Si3 0.128708 0.936737 0.308969
Si Si4 0.571132 0.766688 0.691659
Si Si5 0.074002 0.810258 0.308481
Si Si6 0.782680 0.763069 0.693365
Si Si7 0.725241 0.893240 0.306190
Si Si8 0.423694 0.568139 0.192742
O O1 0.500000 0.070053 0.250000
O O2 0.427673 0.092333 0.500000
O O3 0.425764 0.165200 0.250886
O O4 0.348309 0.078258 0.253769
O O5 0.630909 0.276792 0.241316
O O6 0.752875 0.301481 0.247538
O O7 0.640204 0.390490 0.250179
O O8 0.683495 0.336283 0.000000
O O9 0.128256 0.936166 0.500000
O O10 0.087435 0.878543 0.249429
O O11 0.207648 0.928232 0.251982
O O12 0.101222 0.000000 0.250000
O O13 0.500000 0.739939 0.750000
O O14 0.572858 0.769893 0.500000
O O15 0.075103 0.810593 0.500000
O O16 0.139504 0.773407 0.247609
O O17 0.000000 0.788942 0.250000
O O18 0.779235 0.763821 0.500000
O O19 0.739401 0.823308 0.743953
O O20 0.724070 0.892877 0.500000
O O21 0.414942 0.500000 0.250000
O O22 0.500000 0.588327 0.250000
O O23 0.424858 0.569654 0.000000
#
# Coordination Sequence:
#
# PCOD9392717 Si02
#       8
#     8   8   8   8   8   8   8   8
#     4   9  16  25  39  60  86 115 146 182 226 278
#     4   9  16  27  45  65  88 121 162 203 242 286
#     4  10  21  35  52  74  97 121 156 193 227 269
#     4   9  15  24  36  56  84 113 147 185 227 274
#     4  10  21  36  53  76 103 130 155 183 222 273
#     4   9  16  30  50  70  93 123 156 191 234 285
#     4   9  16  29  48  66  90 122 153 188 236 286
#     4  10  19  31  45  62  90 131 178 221 257 293
#
# _framework density 17.698229000000001
#
# number of rings (size 3 to 8) (size 9 to 14) (size 15 to 20)
#    0.000    2.625    1.250    1.875    0.000    2.250 
#    0.000    3.750    0.000    0.375    0.000    2.625 
#    0.000    0.500    0.000    5.750    0.000    1.750 
#
# Total GULP energy -356337.487932 kJ/mol
# GULP energy per Si atom -5567.773249 kJ/mol
# Density = 1.765795 g / cm^3
# Si number density = 17.698229 Si / 1000 Ang^3
#
#
#
# Elastic Constant Matrix: (Units=GPa)
#
#
# Indices 1 2 3 4 5 6 
#
# 1 113.0266 33.4601 10.6715 0.0000 0.0000 0.0000
# 2 33.4601 81.2651 8.4673 0.0000 0.0000 0.0000
# 3 10.6715 8.4673 13.1307 0.0000 0.0000 0.0000
# 4 0.0000 0.0000 0.0000 13.5041 0.0000 0.0000
# 5 0.0000 0.0000 0.0000 0.0000 17.1501 0.0000
# 6 0.0000 0.0000 0.0000 0.0000 0.0000 6.9018
#
#
#
# Elastic Compliance Matrix: (Units=1/GPa)
#
#
# Indices 1 2 3 4 5 6 
#
# 1 0.010522 -0.003689 -0.006173 0.000000 0.000000 0.000000
# 2 -0.003689 0.014485 -0.006342 0.000000 0.000000 0.000000
# 3 -0.006173 -0.006342 0.085264 0.000000 0.000000 0.000000
# 4 0.000000 0.000000 0.000000 0.074052 0.000000 0.000000
# 5 0.000000 0.000000 0.000000 0.000000 0.058309 0.000000
# 6 0.000000 0.000000 0.000000 0.000000 0.000000 0.144889
#
#
# Mechanical properties :
#
#
# Convention : Reuss Voigt Hill
#
# Bulk Modulus (GPa) = 12.84307 34.73557 23.78932
# Shear Modulus (GPa) = 11.21365 17.83276 14.52321
#
# Velocity S-wave (km/s) = 2.51988 3.17772 2.86772
# Velocity P-wave (km/s) = 3.96722 5.75613 4.94327
#
# Compressibility (1/GPa) = 0.07786302
#
# Stress axis : x y z
#
# Youngs Moduli (GPa) = 95.03471 69.03548 11.72825
#
# Poissons Ratio (x) = 0.25470 0.07240
# Poissons Ratio (y) = 0.35062 0.07438
# Poissons Ratio (z) = 0.58662 0.43785
#
# Static dielectric constant tensor:
#      x y z
#    x 1.642880 0.000000 0.000000 
#    y 0.000000 1.629680 0.000000 
#    z 0.000000 0.000000 1.600670 
# 
# From -- ./inp_files/5434.got.cif
#   From: 2010.05.17/outbox.cif.g08.bks.cpg/sg49_3_cif.got.tgz:5434.got - 2010.06.03 21:02:19.
