data_PCOD9392645
_publ_section_title
;
Structure prediction by ZEFSAII (Michael W. Deem and Ramdas Pophale) SiO2 
 PCOD9392645
Probable space group: P C C M
;
_chemical_formula_sum "Si O2"
_cell_formula_units_Z 48
_cell_length_a 14.228113
_cell_length_b 20.308488
_cell_length_c 8.387418
_cell_angle_alpha 90.000000
_cell_angle_beta 90.000000
_cell_angle_gamma 90.000000
_cell_volume 2423.556695
_symmetry_space_group_name_H-M "P C C M"
_symmetry_group_IT_number 49
_symmetry_cell_setting 'orthorhombic'
loop_
_space_group_symop_operation_xyz
x,y,z
-x,-y,z
x,-y,1/2-z
-x,y,1/2-z
-x,-y,-z
x,y,-z
-x,y,1/2+z
x,-y,1/2+z
loop_
_atom_site_type_symbol
_atom_site_label
_atom_site_fract_x
_atom_site_fract_y
_atom_site_fract_z
Si Si1 0.695661 0.429886 0.813168
Si Si2 0.098404 0.259236 0.179534
Si Si3 0.606880 0.290865 0.805877
Si Si4 0.254477 0.817788 0.818080
Si Si5 0.899726 0.583796 0.821737
Si Si6 0.105958 0.074432 0.692206
O O1 0.656966 0.500000 0.750000
O O2 0.654862 0.359941 0.749186
O O3 0.807077 0.430727 0.778499
O O4 0.678425 0.429189 0.000000
O O5 0.176340 0.239071 0.305607
O O6 0.096745 0.337329 0.167581
O O7 0.000000 0.236620 0.250000
O O8 0.115863 0.233316 0.000000
O O9 0.500000 0.291556 0.750000
O O10 0.657499 0.222948 0.747313
O O11 0.612958 0.289731 0.000000
O O12 0.192474 0.878838 0.750708
O O13 0.278097 0.835446 0.000000
O O14 0.000000 0.565490 0.750000
O O15 0.888481 0.556538 0.000000
O O16 0.104552 0.077585 0.500000
O O17 0.000000 0.091966 0.750000
O O18 0.122400 0.000000 0.750000
#
# Coordination Sequence:
#
# PCOD9392645 Si02
#       6
#     8   8   8   8   8   8
#     4  11  23  40  61  83 112 147 186 235 289 349
#     4  10  19  29  48  78 110 144 181 224 268 323
#     4  10  23  42  63  85 111 142 183 240 299 348
#     4  10  20  36  57  82 113 150 190 234 283 333
#     4  10  20  34  53  79 111 147 185 225 273 332
#     4  10  20  34  55  84 124 163 196 230 268 323
#
# _framework density 19.805603999999999
#
# number of rings (size 3 to 8) (size 9 to 14) (size 15 to 20)
#    0.000    1.833    1.667    3.000    0.000    6.667 
#    0.000    3.333    0.000    0.500    0.000    3.500 
#    0.000    0.000    0.000    0.000    0.000    0.000 
#
# Total GULP energy -267435.692424 kJ/mol
# GULP energy per Si atom -5571.576925 kJ/mol
# Density = 1.976053 g / cm^3
# Si number density = 19.805604 Si / 1000 Ang^3
#
#
#
# Elastic Constant Matrix: (Units=GPa)
#
#
# Indices 1 2 3 4 5 6 
#
# 1 110.1379 57.5115 -6.4691 0.0000 0.0000 0.0000
# 2 57.5115 154.8026 18.8877 0.0000 0.0000 0.0000
# 3 -6.4691 18.8877 32.9538 0.0000 0.0000 0.0000
# 4 0.0000 0.0000 0.0000 19.2752 0.0000 0.0000
# 5 0.0000 0.0000 0.0000 0.0000 23.4159 0.0000
# 6 0.0000 0.0000 0.0000 0.0000 0.0000 43.9301
#
#
#
# Elastic Compliance Matrix: (Units=1/GPa)
#
#
# Indices 1 2 3 4 5 6 
#
# 1 0.012072 -0.005133 0.005312 0.000000 0.000000 0.000000
# 2 -0.005133 0.009128 -0.006239 0.000000 0.000000 0.000000
# 3 0.005312 -0.006239 0.034965 0.000000 0.000000 0.000000
# 4 0.000000 0.000000 0.000000 0.051880 0.000000 0.000000
# 5 0.000000 0.000000 0.000000 0.000000 0.042706 0.000000
# 6 0.000000 0.000000 0.000000 0.000000 0.000000 0.022763
#
#
# Mechanical properties :
#
#
# Convention : Reuss Voigt Hill
#
# Bulk Modulus (GPa) = 22.70501 48.63938 35.67219
# Shear Modulus (GPa) = 24.96052 32.52186 28.74119
#
# Velocity S-wave (km/s) = 3.55389 4.05662 3.81355
# Velocity P-wave (km/s) = 5.32250 6.82300 6.11892
#
# Compressibility (1/GPa) = 0.04404315
#
# Stress axis : x y z
#
# Youngs Moduli (GPa) = 82.83742 109.55177 28.60042
#
# Poissons Ratio (x) = 0.56233 -0.15192
# Poissons Ratio (y) = 0.42520 0.17845
# Poissons Ratio (z) = -0.44002 0.68355
#
# Static dielectric constant tensor:
#      x y z
#    x 1.684030 0.000000 0.000000 
#    y 0.000000 1.763140 0.000000 
#    z 0.000000 0.000000 1.718420 
# 
# From -- ./inp_files/3839.got.cif
#   From: 2010.05.17/outbox.cif.g08.bks.cpg/sg49_2_cif.got.tgz:3839.got - 2010.06.03 21:02:19.
