data_PCOD9392395
_publ_section_title
;
Structure prediction by ZEFSAII (Michael W. Deem and Ramdas Pophale) SiO2 
 PCOD9392395
Probable space group: P C C M
;
_chemical_formula_sum "Si O2"
_cell_formula_units_Z 64
_cell_length_a 15.249510
_cell_length_b 29.194633
_cell_length_c 8.552440
_cell_angle_alpha 90.000000
_cell_angle_beta 90.000000
_cell_angle_gamma 90.000000
_cell_volume 3807.579197
_symmetry_space_group_name_H-M "P C C M"
_symmetry_group_IT_number 49
_symmetry_cell_setting 'orthorhombic'
loop_
_space_group_symop_operation_xyz
x,y,z
-x,-y,z
x,-y,1/2-z
-x,y,1/2-z
-x,-y,-z
x,y,-z
-x,y,1/2+z
x,-y,1/2+z
loop_
_atom_site_type_symbol
_atom_site_label
_atom_site_fract_x
_atom_site_fract_y
_atom_site_fract_z
Si Si1 0.900344 0.046816 0.686728
Si Si2 0.274063 0.548044 0.687250
Si Si3 0.905232 0.583014 0.314060
Si Si4 0.595757 0.733585 0.811171
Si Si5 0.099488 0.851722 0.689163
Si Si6 0.094337 0.314111 0.188113
Si Si7 0.220931 0.768365 0.309557
Si Si8 0.595986 0.627941 0.811344
O O1 0.902233 0.044013 0.500000
O O2 0.866670 0.097256 0.732555
O O3 0.000000 0.047117 0.750000
O O4 0.857951 0.000000 0.750000
O O5 0.309959 0.500000 0.750000
O O6 0.273599 0.547540 0.500000
O O7 0.175562 0.554601 0.747898
O O8 0.331853 0.591406 0.741232
O O9 0.906444 0.581300 0.500000
O O10 0.891735 0.635565 0.258123
O O11 0.000000 0.568208 0.250000
O O12 0.500000 0.747017 0.750000
O O13 0.678400 0.763783 0.757996
O O14 0.612703 0.680568 0.762524
O O15 0.593367 0.734300 0.000000
O O16 0.095121 0.849923 0.500000
O O17 0.164847 0.811974 0.744435
O O18 0.000000 0.845522 0.750000
O O19 0.168596 0.277859 0.232425
O O20 0.000000 0.297505 0.250000
O O21 0.091827 0.317997 0.000000
O O22 0.221773 0.770042 0.500000
O O23 0.500000 0.615098 0.750000
O O24 0.595381 0.627574 0.000000
#
# Coordination Sequence:
#
# PCOD9392395 Si02
#       8
#     8   8   8   8   8   8   8   8
#     4   9  15  23  37  55  79 113 156 196 232 268
#     4  11  23  39  56  77 101 125 153 187 228 273
#     4  11  22  37  55  74  96 125 159 195 229 267
#     4   9  17  32  51  70  90 117 150 185 222 265
#     4   9  17  28  41  61  89 124 160 194 229 273
#     4  10  18  30  48  70  95 124 155 187 222 266
#     4   9  17  29  46  65  92 126 155 184 228 277
#     4   9  19  35  56  77  99 124 151 183 222 269
#
# _framework density 16.808579000000002
#
# number of rings (size 3 to 8) (size 9 to 14) (size 15 to 20)
#    0.000    2.375    0.000    4.500    0.000    4.000 
#    0.000    7.500    0.000    0.000    0.000    0.000 
#    0.000    0.500    0.000    6.250    0.000    0.000 
#
# Total GULP energy -356928.327160 kJ/mol
# GULP energy per Si atom -5577.005112 kJ/mol
# Density = 1.677032 g / cm^3
# Si number density = 16.808579 Si / 1000 Ang^3
#
#
#
# Elastic Constant Matrix: (Units=GPa)
#
#
# Indices 1 2 3 4 5 6 
#
# 1 99.6461 59.4620 15.3282 0.0000 0.0000 0.0000
# 2 59.4620 72.3097 15.7391 0.0000 0.0000 0.0000
# 3 15.3282 15.7391 35.9135 0.0000 0.0000 0.0000
# 4 0.0000 0.0000 0.0000 -33.2595 0.0000 0.0000
# 5 0.0000 0.0000 0.0000 0.0000 20.9599 0.0000
# 6 0.0000 0.0000 0.0000 0.0000 0.0000 20.4112
#
#
#
# Elastic Compliance Matrix: (Units=1/GPa)
#
#
# Indices 1 2 3 4 5 6 
#
# 1 0.019773 -0.015944 -0.001452 0.000000 0.000000 0.000000
# 2 -0.015944 0.028144 -0.005529 0.000000 0.000000 0.000000
# 3 -0.001452 -0.005529 0.030888 0.000000 0.000000 0.000000
# 4 0.000000 0.000000 0.000000 -0.030067 0.000000 0.000000
# 5 0.000000 0.000000 0.000000 0.000000 0.047710 0.000000
# 6 0.000000 0.000000 0.000000 0.000000 0.000000 0.048993
#
#
# Mechanical properties :
#
#
# Convention : Reuss Voigt Hill
#
# Bulk Modulus (GPa) = 30.34465 43.21422 36.77943
# Shear Modulus (GPa) = 24.71879 9.44498 17.08189
#
# Velocity S-wave (km/s) = 3.83901 2.37305 3.19134
# Velocity P-wave (km/s) = 6.14353 5.76835 5.95889
#
# Compressibility (1/GPa) = 0.03295474
#
# Stress axis : x y z
#
# Youngs Moduli (GPa) = 50.57396 35.53178 32.37554
#
# Poissons Ratio (x) = 0.56651 0.04701
# Poissons Ratio (y) = 0.80634 0.17901
# Poissons Ratio (z) = 0.07343 0.19646
#
# Static dielectric constant tensor:
#      x y z
#    x 1.533310 0.000000 0.000000 
#    y 0.000000 1.602360 0.000000 
#    z 0.000000 0.000000 1.572570 
# 
# From -- ./inp_files/4524.got.cif
#   From: 2010.05.17/outbox.cif.g08.bks.cpg/sg49_3_cif.got.tgz:4524.got - 2010.06.03 21:02:19.
