data_PCOD9392015
_publ_section_title
;
Structure prediction by ZEFSAII (Michael W. Deem and Ramdas Pophale) SiO2 
 PCOD9392015
Probable space group: P C C M
;
_chemical_formula_sum "Si O2"
_cell_formula_units_Z 40
_cell_length_a 7.920464
_cell_length_b 27.887597
_cell_length_c 8.594262
_cell_angle_alpha 90.000000
_cell_angle_beta 90.000000
_cell_angle_gamma 90.000000
_cell_volume 1898.323865
_symmetry_space_group_name_H-M "P C C M"
_symmetry_group_IT_number 49
_symmetry_cell_setting 'orthorhombic'
loop_
_space_group_symop_operation_xyz
x,y,z
-x,-y,z
x,-y,1/2-z
-x,y,1/2-z
-x,-y,-z
x,y,-z
-x,y,1/2+z
x,-y,1/2+z
loop_
_atom_site_type_symbol
_atom_site_label
_atom_site_fract_x
_atom_site_fract_y
_atom_site_fract_z
Si Si1 0.311406 0.852834 0.685017
Si Si2 0.193300 0.647796 0.186761
Si Si3 0.806590 0.450655 0.314613
Si Si4 0.306233 0.950591 0.185639
Si Si5 0.188507 0.751806 0.186741
O O1 0.500000 0.854499 0.750000
O O2 0.307389 0.856564 0.500000
O O3 0.226089 0.900620 0.756092
O O4 0.250921 0.800791 0.738129
O O5 0.271843 0.599484 0.256975
O O6 0.270849 0.700013 0.226883
O O7 0.000000 0.648717 0.250000
O O8 0.187661 0.643760 0.000000
O O9 0.729059 0.500000 0.250000
O O10 0.811656 0.451924 0.500000
O O11 0.000000 0.450185 0.250000
O O12 0.500000 0.950603 0.250000
O O13 0.228654 0.000000 0.250000
O O14 0.311208 0.951482 0.000000
O O15 0.000000 0.747510 0.250000
O O16 0.192661 0.756605 0.000000
#
# Coordination Sequence:
#
# PCOD9392015 Si02
#       5
#     8   8   8   8   8
#     4  11  21  34  52  75 102 131 164 204 246 288
#     4   9  16  26  40  58  83 114 151 190 231 279
#     4  10  16  22  33  50  76 108 145 185 230 278
#     4  10  17  28  46  70  98 126 158 196 240 288
#     4  10  20  34  51  72  98 131 167 203 243 291
#
# _framework density 21.071217999999998
#
# number of rings (size 3 to 8) (size 9 to 14) (size 15 to 20)
#    0.000    2.000    0.000   10.200    0.000    2.400 
#    0.000    0.000    0.000    0.600    0.000    4.200 
#    0.000    0.800    0.000    8.400    0.000    6.200 
#
# Total GULP energy -223017.849120 kJ/mol
# GULP energy per Si atom -5575.446228 kJ/mol
# Density = 2.102326 g / cm^3
# Si number density = 21.071218 Si / 1000 Ang^3
#
#
#
# Elastic Constant Matrix: (Units=GPa)
#
#
# Indices 1 2 3 4 5 6 
#
# 1 12.0885 22.1943 2.7109 0.0000 0.0000 0.0000
# 2 22.1943 286.6959 105.3473 0.0000 0.0000 0.0000
# 3 2.7109 105.3473 190.0171 0.0000 0.0000 0.0000
# 4 0.0000 0.0000 0.0000 41.9115 0.0000 0.0000
# 5 0.0000 0.0000 0.0000 0.0000 7.8104 0.0000
# 6 0.0000 0.0000 0.0000 0.0000 0.0000 15.8331
#
#
#
# Elastic Compliance Matrix: (Units=1/GPa)
#
#
# Indices 1 2 3 4 5 6 
#
# 1 0.098286 -0.008908 0.003537 0.000000 0.000000 0.000000
# 2 -0.008908 0.005188 -0.002749 0.000000 0.000000 0.000000
# 3 0.003537 -0.002749 0.006736 0.000000 0.000000 0.000000
# 4 0.000000 0.000000 0.000000 0.023860 0.000000 0.000000
# 5 0.000000 0.000000 0.000000 0.000000 0.128034 0.000000
# 6 0.000000 0.000000 0.000000 0.000000 0.000000 0.063159
#
#
# Mechanical properties :
#
#
# Convention : Reuss Voigt Hill
#
# Bulk Modulus (GPa) = 10.64187 83.25626 46.94906
# Shear Modulus (GPa) = 13.41106 37.01427 25.21266
#
# Velocity S-wave (km/s) = 2.52556 4.19576 3.46286
# Velocity P-wave (km/s) = 3.68320 7.94167 6.19016
#
# Compressibility (1/GPa) = 0.09396847
#
# Stress axis : x y z
#
# Youngs Moduli (GPa) = 10.17442 192.76005 148.44851
#
# Poissons Ratio (x) = 1.71715 -0.52501
# Poissons Ratio (y) = 0.09064 0.40810
# Poissons Ratio (z) = -0.03598 0.52991
#
# Static dielectric constant tensor:
#      x y z
#    x 1.801210 0.000000 0.000000 
#    y 0.000000 1.932430 0.000000 
#    z 0.000000 0.000000 1.693740 
# 
# From -- ./inp_files/1935.got.cif
#   From: 2010.05.17/outbox.cif.g08.bks.cpg/sg49_1_cif.got.tgz:1935.got - 2010.06.03 21:02:19.
