data_PCOD9392835
_publ_section_title
;
Structure prediction by ZEFSAII (Michael W. Deem and Ramdas Pophale) SiO2 
 PCOD9392835
Probable space group: P C C M
;
_chemical_formula_sum "Si O2"
_cell_formula_units_Z 64
_cell_length_a 19.605168
_cell_length_b 8.275296
_cell_length_c 14.871171
_cell_angle_alpha 90.000000
_cell_angle_beta 90.000000
_cell_angle_gamma 90.000000
_cell_volume 2412.677492
_symmetry_space_group_name_H-M "P C C M"
_symmetry_group_IT_number 49
_symmetry_cell_setting 'orthorhombic'
loop_
_space_group_symop_operation_xyz
x,y,z
-x,-y,z
x,-y,1/2-z
-x,y,1/2-z
-x,-y,-z
x,y,-z
-x,y,1/2+z
x,-y,1/2+z
loop_
_atom_site_type_symbol
_atom_site_label
_atom_site_fract_x
_atom_site_fract_y
_atom_site_fract_z
Si Si1 0.043062 0.154453 0.890047
Si Si2 0.213229 0.142521 0.392116
Si Si3 0.292371 0.462744 0.610404
Si Si4 0.416513 0.365336 0.897316
Si Si5 0.656117 0.022457 0.354806
Si Si6 0.166096 0.657160 0.390742
Si Si7 0.467980 0.836137 0.852583
Si Si8 0.085942 0.668500 0.109343
O O1 0.119803 0.193014 0.859373
O O2 0.991485 0.299203 0.864560
O O3 0.046732 0.144549 0.000000
O O4 0.000000 0.000000 0.860327
O O5 0.208895 0.142613 0.500000
O O6 0.257437 0.297089 0.359919
O O7 0.263616 0.994074 0.372153
O O8 0.136716 0.185265 0.361928
O O9 0.411779 0.593337 0.500000
O O10 0.367097 0.503640 0.647582
O O11 0.241797 0.609601 0.638363
O O12 0.495401 0.326004 0.882080
O O13 0.376979 0.191640 0.884169
O O14 0.168705 0.332000 0.000000
O O15 0.609565 0.867725 0.384490
O O16 0.644333 0.000000 0.250000
O O17 0.289747 0.455728 0.500000
O O18 0.121536 0.498550 0.365967
O O19 0.500000 0.838764 0.750000
O O20 0.500000 0.000000 0.892653
O O21 0.085192 0.668530 0.000000
#
# Coordination Sequence:
#
# PCOD9392835 Si02
#       8
#     8   8   8   8   8   8   8   8
#     4   9  15  20  31  57  92 129 166 205 247 289
#     4   9  18  32  50  71 100 136 172 213 261 310
#     4   8  16  31  47  70 103 133 166 214 261 302
#     4  10  19  31  54  80  99 127 169 210 250 301
#     4  11  20  33  52  73 100 134 166 210 254 303
#     4   8  13  23  39  56  86 133 168 195 245 304
#     4   9  16  33  51  69  99 134 157 197 250 299
#     4   8  14  25  39  57  86 128 173 205 237 295
#
# _framework density 26.526546
#
# number of rings (size 3 to 8) (size 9 to 14) (size 15 to 20)
#    0.000    3.000    2.500    2.250    0.000    5.250 
#    0.000    5.000    0.000    3.000    0.000    0.000 
#    0.000    4.500    0.000   11.250    0.000   14.000 
#
# Total GULP energy -356767.675558 kJ/mol
# GULP energy per Si atom -5574.494931 kJ/mol
# Density = 2.646617 g / cm^3
# Si number density = 26.526546 Si / 1000 Ang^3
#
#
#
# Elastic Constant Matrix: (Units=GPa)
#
#
# Indices 1 2 3 4 5 6 
#
# 1 116.1943 -8.9370 -20.4536 0.0000 0.0000 0.0000
# 2 -8.9370 64.9252 -16.4933 0.0000 0.0000 0.0000
# 3 -20.4536 -16.4933 60.2185 0.0000 0.0000 0.0000
# 4 0.0000 0.0000 0.0000 -12.3624 0.0000 0.0000
# 5 0.0000 0.0000 0.0000 0.0000 -190.5378 0.0000
# 6 0.0000 0.0000 0.0000 0.0000 0.0000 45.5777
#
#
#
# Elastic Compliance Matrix: (Units=1/GPa)
#
#
# Indices 1 2 3 4 5 6 
#
# 1 0.009456 0.002276 0.003835 0.000000 0.000000 0.000000
# 2 0.002276 0.017102 0.005457 0.000000 0.000000 0.000000
# 3 0.003835 0.005457 0.019404 0.000000 0.000000 0.000000
# 4 0.000000 0.000000 0.000000 -0.080890 0.000000 0.000000
# 5 0.000000 0.000000 0.000000 0.000000 -0.005248 0.000000
# 6 0.000000 0.000000 0.000000 0.000000 0.000000 0.021941
#
#
# Mechanical properties :
#
#
# Convention : Reuss Voigt Hill
#
# Bulk Modulus (GPa) = 14.47203 16.61891 15.54547
# Shear Modulus (GPa) = -272.62912 -12.31638 -142.47275
#
# Velocity S-wave (km/s) = -10.14885 -2.15711 -7.33663
# Velocity P-wave (km/s) = 11.48323 0.27286 8.11758
#
# Compressibility (1/GPa) = 0.06909880
#
# Stress axis : x y z
#
# Youngs Moduli (GPa) = 105.74781 58.47289 51.53701
#
# Poissons Ratio (x) = -0.13308 -0.19766
# Poissons Ratio (y) = -0.24068 -0.28124
# Poissons Ratio (z) = -0.40558 -0.31909
#
# Static dielectric constant tensor:
#      x y z
#    x 2.054090 0.000000 0.000000 
#    y 0.000000 1.880090 0.000000 
#    z 0.000000 0.000000 2.102070 
# 
# From -- ./inp_files/21103.got.cif
#   From: 2010.05.17/outbox.cif.g08.bks.cpg/sg49_11_cif.got.tgz:21103.got - 2010.06.03 21:02:19.
