data_PCOD9392735
_publ_section_title
;
Structure prediction by ZEFSAII (Michael W. Deem and Ramdas Pophale) SiO2 
 PCOD9392735
Probable space group: P C C M
;
_chemical_formula_sum "Si O2"
_cell_formula_units_Z 56
_cell_length_a 19.223309
_cell_length_b 19.979404
_cell_length_c 7.640977
_cell_angle_alpha 90.000000
_cell_angle_beta 90.000000
_cell_angle_gamma 90.000000
_cell_volume 2934.671998
_symmetry_space_group_name_H-M "P C C M"
_symmetry_group_IT_number 49
_symmetry_cell_setting 'orthorhombic'
loop_
_space_group_symop_operation_xyz
x,y,z
-x,-y,z
x,-y,1/2-z
-x,y,1/2-z
-x,-y,-z
x,y,-z
-x,y,1/2+z
x,-y,1/2+z
loop_
_atom_site_type_symbol
_atom_site_label
_atom_site_fract_x
_atom_site_fract_y
_atom_site_fract_z
Si Si1 0.714354 0.923210 0.790097
Si Si2 0.652145 0.283747 0.287291
Si Si3 0.207172 0.794759 0.712952
Si Si4 0.079921 0.291384 0.789746
Si Si5 0.311170 0.426020 0.210036
Si Si6 0.151113 0.426074 0.209863
Si Si7 0.578459 0.847479 0.209776
O O1 0.770509 0.868622 0.726457
O O2 0.638615 0.897725 0.725718
O O3 0.728041 0.000000 0.750000
O O4 0.713251 0.917590 0.000000
O O5 0.647850 0.284696 0.500000
O O6 0.728648 0.254583 0.243457
O O7 0.648149 0.360298 0.225701
O O8 0.597832 0.227479 0.225451
O O9 0.204669 0.796372 0.500000
O O10 0.134915 0.763801 0.775574
O O11 0.105454 0.364241 0.724440
O O12 0.000000 0.278262 0.750000
O O13 0.086179 0.292597 0.000000
O O14 0.338934 0.500000 0.250000
O O15 0.231022 0.422514 0.275912
O O16 0.308005 0.421037 0.000000
O O17 0.123384 0.500000 0.250000
O O18 0.154817 0.420286 0.000000
O O19 0.500000 0.866736 0.250000
O O20 0.584480 0.845797 0.000000
#
# Coordination Sequence:
#
# PCOD9392735 Si02
#       7
#     8   8   8   8   8   8   8
#     4   9  18  32  52  75  96 121 151 182 218 263
#     4   8  13  26  48  66  83 116 159 191 219 263
#     4   8  14  29  50  67  86 117 156 188 219 267
#     4  10  19  31  47  66  89 120 156 192 231 272
#     4   9  15  25  43  65  86 111 148 193 234 269
#     4   9  17  28  43  62  87 119 151 188 231 274
#     4   9  18  31  48  71  97 125 153 181 216 262
#
# _framework density 19.082201000000001
#
# number of rings (size 3 to 8) (size 9 to 14) (size 15 to 20)
#    0.000    3.143    1.429    1.714    0.000    1.714 
#    0.000    4.286    0.000    2.571    0.000    6.000 
#    0.000    0.000    0.000    0.000    0.000    0.000 
#
# Total GULP energy -312027.235868 kJ/mol
# GULP energy per Si atom -5571.914926 kJ/mol
# Density = 1.903877 g / cm^3
# Si number density = 19.082201 Si / 1000 Ang^3
#
#
#
# Elastic Constant Matrix: (Units=GPa)
#
#
# Indices 1 2 3 4 5 6 
#
# 1 58.6330 45.1017 2.7141 0.0000 0.0000 0.0000
# 2 45.1017 163.9831 5.7579 0.0000 0.0000 0.0000
# 3 2.7141 5.7579 33.6441 0.0000 0.0000 0.0000
# 4 0.0000 0.0000 0.0000 19.4222 0.0000 0.0000
# 5 0.0000 0.0000 0.0000 0.0000 20.2360 0.0000
# 6 0.0000 0.0000 0.0000 0.0000 0.0000 17.3230
#
#
#
# Elastic Compliance Matrix: (Units=1/GPa)
#
#
# Indices 1 2 3 4 5 6 
#
# 1 0.021650 -0.005929 -0.000732 0.000000 0.000000 0.000000
# 2 -0.005929 0.007759 -0.000850 0.000000 0.000000 0.000000
# 3 -0.000732 -0.000850 0.029927 0.000000 0.000000 0.000000
# 4 0.000000 0.000000 0.000000 0.051487 0.000000 0.000000
# 5 0.000000 0.000000 0.000000 0.000000 0.049417 0.000000
# 6 0.000000 0.000000 0.000000 0.000000 0.000000 0.057727
#
#
# Mechanical properties :
#
#
# Convention : Reuss Voigt Hill
#
# Bulk Modulus (GPa) = 22.56558 40.37862 31.47210
# Shear Modulus (GPa) = 20.18093 24.90869 22.54481
#
# Velocity S-wave (km/s) = 3.25557 3.61686 3.44096
# Velocity P-wave (km/s) = 5.09733 6.21680 5.68469
#
# Compressibility (1/GPa) = 0.04431528
#
# Stress axis : x y z
#
# Youngs Moduli (GPa) = 46.19009 128.88806 33.41432
#
# Poissons Ratio (x) = 0.76415 0.02445
# Poissons Ratio (y) = 0.27385 0.02839
# Poissons Ratio (z) = 0.03380 0.10950
#
# Static dielectric constant tensor:
#      x y z
#    x 1.645790 0.000000 0.000000 
#    y 0.000000 1.691470 0.000000 
#    z 0.000000 0.000000 1.726380 
# 
# From -- ./inp_files/5162.got.cif
#   From: 2010.05.17/outbox.cif.g08.bks.cpg/sg49_3_cif.got.tgz:5162.got - 2010.06.03 21:02:19.
