data_PCOD9392814
_publ_section_title
;
Structure prediction by ZEFSAII (Michael W. Deem and Ramdas Pophale) SiO2 
 PCOD9392814
Probable space group: P C C M
;
_chemical_formula_sum "Si O2"
_cell_formula_units_Z 48
_cell_length_a 9.308308
_cell_length_b 14.979821
_cell_length_c 14.394612
_cell_angle_alpha 90.000000
_cell_angle_beta 90.000000
_cell_angle_gamma 90.000000
_cell_volume 2007.138457
_symmetry_space_group_name_H-M "P C C M"
_symmetry_group_IT_number 49
_symmetry_cell_setting 'orthorhombic'
loop_
_space_group_symop_operation_xyz
x,y,z
-x,-y,z
x,-y,1/2-z
-x,y,1/2-z
-x,-y,-z
x,y,-z
-x,y,1/2+z
x,-y,1/2+z
loop_
_atom_site_type_symbol
_atom_site_label
_atom_site_fract_x
_atom_site_fract_y
_atom_site_fract_z
Si Si1 0.844136 0.971725 0.643075
Si Si2 0.113449 0.226726 0.388425
Si Si3 0.323698 0.613498 0.113059
Si Si4 0.215328 0.232231 0.113350
Si Si5 0.653356 0.586265 0.887798
Si Si6 0.586058 0.083061 0.397767
O O1 0.812290 0.867707 0.632205
O O2 0.834522 0.000000 0.750000
O O3 0.735944 0.033612 0.590645
O O4 0.000000 0.000000 0.609698
O O5 0.101331 0.236707 0.500000
O O6 0.212516 0.309614 0.355283
O O7 0.947767 0.213346 0.354730
O O8 0.291358 0.511139 0.141292
O O9 0.492336 0.616191 0.140903
O O10 0.321068 0.619057 0.000000
O O11 0.241795 0.334649 0.137267
O O12 0.353070 0.173794 0.147701
O O13 0.221026 0.223365 0.000000
O O14 0.645325 0.581102 0.000000
O O15 0.519437 0.102622 0.500000
O O16 0.500000 0.000000 0.352858
#
# Coordination Sequence:
#
# PCOD9392814 Si02
#       6
#     8   8   8   8   8   8
#     4  11  23  38  54  73 105 145 180 225 275 327
#     4  10  19  31  51  77 103 138 183 225 269 323
#     4   8  15  26  44  71 104 141 173 210 266 327
#     4   9  17  28  44  71 105 136 171 218 269 317
#     4   8  14  26  42  68 108 142 169 209 267 325
#     4  10  21  35  54  80 106 137 178 226 275 323
#
# _framework density 23.914645
#
# number of rings (size 3 to 8) (size 9 to 14) (size 15 to 20)
#    0.000    2.667    1.667    1.500    2.333    1.667 
#    0.000    3.333    0.000    0.000    0.000    1.167 
#    0.000    2.667    0.000    0.167    0.000    0.000 
#
# Total GULP energy -267536.474127 kJ/mol
# GULP energy per Si atom -5573.676544 kJ/mol
# Density = 2.386021 g / cm^3
# Si number density = 23.914645 Si / 1000 Ang^3
#
#
#
# Elastic Constant Matrix: (Units=GPa)
#
#
# Indices 1 2 3 4 5 6 
#
# 1 16.9354 13.7051 1.8969 0.0000 0.0000 0.0000
# 2 13.7051 161.1278 -11.9352 0.0000 0.0000 0.0000
# 3 1.8969 -11.9352 77.1258 0.0000 0.0000 0.0000
# 4 0.0000 0.0000 0.0000 -17.5492 0.0000 0.0000
# 5 0.0000 0.0000 0.0000 0.0000 13.0651 0.0000
# 6 0.0000 0.0000 0.0000 0.0000 0.0000 45.1679
#
#
#
# Elastic Compliance Matrix: (Units=1/GPa)
#
#
# Indices 1 2 3 4 5 6 
#
# 1 0.063863 -0.005613 -0.002439 0.000000 0.000000 0.000000
# 2 -0.005613 0.006771 0.001186 0.000000 0.000000 0.000000
# 3 -0.002439 0.001186 0.013209 0.000000 0.000000 0.000000
# 4 0.000000 0.000000 0.000000 -0.056983 0.000000 0.000000
# 5 0.000000 0.000000 0.000000 0.000000 0.076540 0.000000
# 6 0.000000 0.000000 0.000000 0.000000 0.000000 0.022140
#
#
# Mechanical properties :
#
#
# Convention : Reuss Voigt Hill
#
# Bulk Modulus (GPa) = 14.26293 29.16918 21.71605
# Shear Modulus (GPa) = 30.74209 24.90491 27.82350
#
# Velocity S-wave (km/s) = 3.58927 3.23059 3.41464
# Velocity P-wave (km/s) = 4.81188 5.11266 4.96455
#
# Compressibility (1/GPa) = 0.07011183
#
# Stress axis : x y z
#
# Youngs Moduli (GPa) = 15.65850 147.67781 75.70392
#
# Poissons Ratio (x) = 0.82887 0.18466
# Poissons Ratio (y) = 0.08789 -0.08978
# Poissons Ratio (z) = 0.03820 -0.17514
#
# Static dielectric constant tensor:
#      x y z
#    x 1.601340 0.000000 0.000000 
#    y 0.000000 1.824350 0.000000 
#    z 0.000000 0.000000 2.095870 
# 
# From -- ./inp_files/16320.got.cif
#   From: 2010.05.17/outbox.cif.g08.bks.cpg/sg49_9_cif.got.tgz:16320.got - 2010.06.03 21:02:19.
