data_PCOD9392994
_publ_section_title
;
Structure prediction by ZEFSAII (Michael W. Deem and Ramdas Pophale) SiO2 
 PCOD9392994
Probable space group: P C C M
;
_chemical_formula_sum "Si O2"
_cell_formula_units_Z 64
_cell_length_a 13.856909
_cell_length_b 15.262574
_cell_length_c 17.450968
_cell_angle_alpha 90.000000
_cell_angle_beta 90.000000
_cell_angle_gamma 90.000000
_cell_volume 3690.741852
_symmetry_space_group_name_H-M "P C C M"
_symmetry_group_IT_number 49
_symmetry_cell_setting 'orthorhombic'
loop_
_space_group_symop_operation_xyz
x,y,z
-x,-y,z
x,-y,1/2-z
-x,y,1/2-z
-x,-y,-z
x,y,-z
-x,y,1/2+z
x,-y,1/2+z
loop_
_atom_site_type_symbol
_atom_site_label
_atom_site_fract_x
_atom_site_fract_y
_atom_site_fract_z
Si Si1 0.098405 0.251086 0.213409
Si Si2 0.250675 0.188978 0.090330
Si Si3 0.093440 0.549361 0.668169
Si Si4 0.275773 0.315172 0.695926
Si Si5 0.277289 0.481711 0.588372
Si Si6 0.627417 0.644254 0.142748
Si Si7 0.463613 0.229235 0.334477
Si Si8 0.433163 0.077956 0.089579
O O1 0.159034 0.199571 0.147465
O O2 0.073946 0.348366 0.181042
O O3 0.175048 0.272599 0.280557
O O4 0.000000 0.213318 0.250000
O O5 0.311857 0.280055 0.098370
O O6 0.326837 0.112331 0.116298
O O7 0.226568 0.177334 0.000000
O O8 0.113833 0.500000 0.750000
O O9 0.183317 0.537031 0.613163
O O10 0.000000 0.500000 0.636874
O O11 0.271385 0.393834 0.636970
O O12 0.323063 0.354130 0.773626
O O13 0.350598 0.242773 0.667388
O O14 0.277602 0.460673 0.500000
O O15 0.363295 0.548469 0.608205
O O16 0.519108 0.679512 0.150778
O O17 0.500000 0.199273 0.250000
O O18 0.500327 0.162385 0.397200
O O19 0.500000 0.000000 0.123691
O O20 0.419256 0.058304 0.000000
#
# Coordination Sequence:
#
# PCOD9392994 Si02
#       8
#     8   8   8   8   8   8   8   8
#     4  11  19  31  53  71  99 142 181 218 272 318
#     4   9  17  30  51  79 105 131 171 219 257 306
#     4  11  18  32  49  63  88 130 180 228 271 301
#     4  10  19  33  47  63  95 132 173 216 264 315
#     4  12  21  29  43  65  92 128 175 224 263 303
#     4   9  17  31  49  65  92 128 169 213 267 316
#     4   9  19  33  51  75  97 128 165 208 257 316
#     4   9  18  34  57  84 111 134 158 199 262 327
#
# _framework density 17.340686999999999
#
# number of rings (size 3 to 8) (size 9 to 14) (size 15 to 20)
#    0.000    2.000    5.000    1.500    0.000    2.000 
#    0.000    4.375    0.000    0.000    0.000    1.750 
#    0.000    3.000    0.000    0.000    0.000    0.000 
#
# Total GULP energy -356446.083178 kJ/mol
# GULP energy per Si atom -5569.470050 kJ/mol
# Density = 1.730122 g / cm^3
# Si number density = 17.340687 Si / 1000 Ang^3
#
#
#
# Elastic Constant Matrix: (Units=GPa)
#
#
# Indices 1 2 3 4 5 6 
#
# 1 101.9240 32.4297 23.4391 0.0000 0.0000 0.0000
# 2 32.4297 41.8024 23.8367 0.0000 0.0000 0.0000
# 3 23.4391 23.8367 58.2236 0.0000 0.0000 0.0000
# 4 0.0000 0.0000 0.0000 13.8167 0.0000 0.0000
# 5 0.0000 0.0000 0.0000 0.0000 18.4035 0.0000
# 6 0.0000 0.0000 0.0000 0.0000 0.0000 21.1317
#
#
#
# Elastic Compliance Matrix: (Units=1/GPa)
#
#
# Indices 1 2 3 4 5 6 
#
# 1 0.013120 -0.009349 -0.001454 0.000000 0.000000 0.000000
# 2 -0.009349 0.037870 -0.011740 0.000000 0.000000 0.000000
# 3 -0.001454 -0.011740 0.022567 0.000000 0.000000 0.000000
# 4 0.000000 0.000000 0.000000 0.072376 0.000000 0.000000
# 5 0.000000 0.000000 0.000000 0.000000 0.054337 0.000000
# 6 0.000000 0.000000 0.000000 0.000000 0.000000 0.047322
#
#
# Mechanical properties :
#
#
# Convention : Reuss Voigt Hill
#
# Bulk Modulus (GPa) = 35.12509 40.15124 37.63817
# Shear Modulus (GPa) = 16.54698 18.82002 17.68350
#
# Velocity S-wave (km/s) = 3.09241 3.29798 3.19685
# Velocity P-wave (km/s) = 5.74896 6.14059 5.94800
#
# Compressibility (1/GPa) = 0.02846968
#
# Stress axis : x y z
#
# Youngs Moduli (GPa) = 76.21720 26.40646 44.31264
#
# Poissons Ratio (x) = 0.24688 0.06444
# Poissons Ratio (y) = 0.71258 0.52023
# Poissons Ratio (z) = 0.11084 0.31001
#
# Static dielectric constant tensor:
#      x y z
#    x 1.665350 0.000000 0.000000 
#    y 0.000000 1.603610 0.000000 
#    z 0.000000 0.000000 1.612990 
# 
# From -- ./inp_files/18026.got.cif
#   From: 2010.05.17/outbox.cif.g08.bks.cpg/sg49_10_cif.got.tgz:18026.got - 2010.06.03 21:02:19.
