data_PCOD9392593
_publ_section_title
;
Structure prediction by ZEFSAII (Michael W. Deem and Ramdas Pophale) SiO2 
 PCOD9392593
Probable space group: P C C M
;
_chemical_formula_sum "Si O2"
_cell_formula_units_Z 38
_cell_length_a 4.971806
_cell_length_b 13.606868
_cell_length_c 25.036653
_cell_angle_alpha 90.000000
_cell_angle_beta 90.000000
_cell_angle_gamma 90.000000
_cell_volume 1693.747300
_symmetry_space_group_name_H-M "P C C M"
_symmetry_group_IT_number 49
_symmetry_cell_setting 'orthorhombic'
loop_
_space_group_symop_operation_xyz
x,y,z
-x,-y,z
x,-y,1/2-z
-x,y,1/2-z
-x,-y,-z
x,y,-z
-x,y,1/2+z
x,-y,1/2+z
loop_
_atom_site_type_symbol
_atom_site_label
_atom_site_fract_x
_atom_site_fract_y
_atom_site_fract_z
Si Si1 0.500000 0.845092 0.250000
Si Si2 0.500000 0.000000 0.333820
Si Si3 0.329012 0.287414 0.000000
Si Si4 0.500000 0.500000 0.750000
Si Si5 0.000000 0.000000 0.591765
Si Si6 0.246090 0.429668 0.095428
Si Si7 0.190138 0.325952 0.199342
Si Si8 0.829625 0.848970 0.500000
O O1 0.630277 0.919664 0.293006
O O2 0.632282 0.770140 0.207433
O O3 0.251977 0.967021 0.371279
O O4 0.360503 0.357922 0.050527
O O5 0.532168 0.195767 0.000000
O O6 0.031682 0.242404 0.000000
O O7 0.670167 0.572219 0.785399
O O8 0.890911 0.914904 0.552282
O O9 0.500000 0.500000 0.110956
O O10 0.115580 0.354191 0.139551
O O11 0.000000 0.500000 0.078324
O O12 0.000000 0.311619 0.250000
#
# Coordination Sequence:
#
# PCOD9392593 Si02
#       8
#     4   4   4   2   4   8   8   4
#     4  10  28  42  68 106 138 184 244 286 368 432
#     4  11  26  49  72 102 146 185 226 301 370 438
#     4  12  26  46  78 103 146 177 252 300 354 436
#     4  10  18  42  56  94 128 182 230 282 334 408
#     4  11  26  47  78  98 148 181 232 297 374 432
#     4  12  26  46  70 103 144 196 236 296 363 418
#     4  11  24  40  68  98 143 188 242 291 347 430
#     4  11  26  47  72 115 130 185 242 297 360 432
#
# _framework density 22.435457
#
# number of rings (size 3 to 8) (size 9 to 14) (size 15 to 20)
#    0.000    0.842    1.053    4.737   11.789    2.526 
#    0.000    0.000    0.000    0.000    0.000    0.000 
#    0.000    0.000    0.000    0.000    0.000    0.000 
#
# Total GULP energy -211661.813689 kJ/mol
# GULP energy per Si atom -5570.047729 kJ/mol
# Density = 2.238439 g / cm^3
# Si number density = 22.435457 Si / 1000 Ang^3
#
#
#
# Elastic Constant Matrix: (Units=GPa)
#
#
# Indices 1 2 3 4 5 6 
#
# 1 45.7216 -6.2749 -5.7388 0.0000 0.0000 0.0000
# 2 -6.2749 96.7085 36.0657 0.0000 0.0000 0.0000
# 3 -5.7388 36.0657 109.7314 0.0000 0.0000 0.0000
# 4 0.0000 0.0000 0.0000 36.8022 0.0000 0.0000
# 5 0.0000 0.0000 0.0000 0.0000 23.6513 0.0000
# 6 0.0000 0.0000 0.0000 0.0000 0.0000 36.8691
#
#
#
# Elastic Compliance Matrix: (Units=1/GPa)
#
#
# Indices 1 2 3 4 5 6 
#
# 1 0.022127 0.001144 0.000781 0.000000 0.000000 0.000000
# 2 0.001144 0.011844 -0.003833 0.000000 0.000000 0.000000
# 3 0.000781 -0.003833 0.010414 0.000000 0.000000 0.000000
# 4 0.000000 0.000000 0.000000 0.027172 0.000000 0.000000
# 5 0.000000 0.000000 0.000000 0.000000 0.042281 0.000000
# 6 0.000000 0.000000 0.000000 0.000000 0.000000 0.027123
#
#
# Mechanical properties :
#
#
# Convention : Reuss Voigt Hill
#
# Bulk Modulus (GPa) = 24.64913 33.36284 29.00598
# Shear Modulus (GPa) = 31.58584 34.67183 33.12883
#
# Velocity S-wave (km/s) = 3.75621 3.93543 3.84686
# Velocity P-wave (km/s) = 5.46101 5.96263 5.71733
#
# Compressibility (1/GPa) = 0.04056939
#
# Stress axis : x y z
#
# Youngs Moduli (GPa) = 45.19451 84.43069 96.02644
#
# Poissons Ratio (x) = -0.09662 -0.07500
# Poissons Ratio (y) = -0.05172 0.36807
# Poissons Ratio (z) = -0.03530 0.32362
#
# Static dielectric constant tensor:
#      x y z
#    x 1.869850 0.000000 0.000000 
#    y 0.000000 1.772240 0.000000 
#    z 0.000000 0.000000 2.194040 
# 
# From -- ./inp_files/23822.got.cif
#   From: 2010.05.17/outbox.cif.g08.bks.cpg/sg49_12_cif.got.tgz:23822.got - 2010.06.03 21:02:19.
