data_PCOD9392177
_publ_section_title
;
Structure prediction by ZEFSAII (Michael W. Deem and Ramdas Pophale) SiO2 
 PCOD9392177
Probable space group: P C C M
;
_chemical_formula_sum "Si O2"
_cell_formula_units_Z 48
_cell_length_a 9.189598
_cell_length_b 29.920816
_cell_length_c 9.335585
_cell_angle_alpha 90.000000
_cell_angle_beta 90.000000
_cell_angle_gamma 90.000000
_cell_volume 2566.914980
_symmetry_space_group_name_H-M "P C C M"
_symmetry_group_IT_number 49
_symmetry_cell_setting 'orthorhombic'
loop_
_space_group_symop_operation_xyz
x,y,z
-x,-y,z
x,-y,1/2-z
-x,y,1/2-z
-x,-y,-z
x,y,-z
-x,y,1/2+z
x,-y,1/2+z
loop_
_atom_site_type_symbol
_atom_site_label
_atom_site_fract_x
_atom_site_fract_y
_atom_site_fract_z
Si Si1 0.654442 0.868341 0.171414
Si Si2 0.850818 0.219565 0.331698
Si Si3 0.650967 0.300062 0.666315
Si Si4 0.145775 0.434356 0.500000
Si Si5 0.325262 0.599024 0.734292
Si Si6 0.810573 0.540503 0.000000
Si Si7 0.338273 0.044208 0.675972
O O1 0.500000 0.859945 0.250000
O O2 0.749858 0.823958 0.183032
O O3 0.725094 0.909810 0.259425
O O4 0.635201 0.878796 0.000000
O O5 0.880957 0.225856 0.500000
O O6 0.764860 0.263486 0.279357
O O7 0.000000 0.213382 0.250000
O O8 0.500000 0.296698 0.750000
O O9 0.622582 0.290096 0.500000
O O10 0.705417 0.351000 0.678458
O O11 0.223662 0.409947 0.630682
O O12 0.180796 0.487326 0.500000
O O13 0.970398 0.436254 0.500000
O O14 0.500000 0.596993 0.750000
O O15 0.277856 0.559235 0.632270
O O16 0.500000 0.045455 0.750000
O O17 0.343298 0.042342 0.500000
O O18 0.270383 0.000000 0.750000
#
# Coordination Sequence:
#
# PCOD9392177 Si02
#       7
#     8   8   8   4   8   4   8
#     4  10  19  33  54  81 113 149 192 238 290 344
#     4  10  23  40  58  85 116 150 192 237 285 344
#     4  10  22  41  63  88 117 149 188 236 289 344
#     4  11  25  39  63  87 121 163 199 233 306 341
#     4  11  23  40  63  90 120 152 199 247 296 350
#     4  11  23  43  59  89 123 159 197 247 282 367
#     4  10  17  27  46  75 111 148 190 238 291 343
#
# _framework density 18.699490000000001
#
# number of rings (size 3 to 8) (size 9 to 14) (size 15 to 20)
#    0.000    1.667    0.833    5.500    3.500    6.667 
#    0.000    0.000    0.000    0.500    0.000    3.500 
#    0.000    0.000    0.000    0.000    0.000    0.000 
#
# Total GULP energy -267535.233149 kJ/mol
# GULP energy per Si atom -5573.650691 kJ/mol
# Density = 1.865693 g / cm^3
# Si number density = 18.699490 Si / 1000 Ang^3
#
#
#
# Elastic Constant Matrix: (Units=GPa)
#
#
# Indices 1 2 3 4 5 6 
#
# 1 68.1910 44.4929 27.4954 0.0000 0.0000 0.0000
# 2 44.4929 90.0011 24.9971 0.0000 0.0000 0.0000
# 3 27.4954 24.9971 105.6199 0.0000 0.0000 0.0000
# 4 0.0000 0.0000 0.0000 32.5603 0.0000 0.0000
# 5 0.0000 0.0000 0.0000 0.0000 15.6493 0.0000
# 6 0.0000 0.0000 0.0000 0.0000 0.0000 -12.3165
#
#
#
# Elastic Compliance Matrix: (Units=1/GPa)
#
#
# Indices 1 2 3 4 5 6 
#
# 1 0.022793 -0.010297 -0.003497 0.000000 0.000000 0.000000
# 2 -0.010297 0.016544 -0.001235 0.000000 0.000000 0.000000
# 3 -0.003497 -0.001235 0.010670 0.000000 0.000000 0.000000
# 4 0.000000 0.000000 0.000000 0.030712 0.000000 0.000000
# 5 0.000000 0.000000 0.000000 0.000000 0.063901 0.000000
# 6 0.000000 0.000000 0.000000 0.000000 0.000000 -0.081192
#
#
# Mechanical properties :
#
#
# Convention : Reuss Voigt Hill
#
# Bulk Modulus (GPa) = 50.12315 50.86477 50.49396
# Shear Modulus (GPa) = 49.93228 18.30040 34.11634
#
# Velocity S-wave (km/s) = 5.17305 3.13174 4.27600
# Velocity P-wave (km/s) = 7.90844 6.35117 7.17219
#
# Compressibility (1/GPa) = 0.01995086
#
# Stress axis : x y z
#
# Youngs Moduli (GPa) = 43.87322 60.44376 93.71663
#
# Poissons Ratio (x) = 0.62238 0.32769
# Poissons Ratio (y) = 0.45175 0.11574
# Poissons Ratio (z) = 0.15341 0.07465
#
# Static dielectric constant tensor:
#      x y z
#    x 1.616830 0.000000 0.000000 
#    y 0.000000 1.677110 0.000000 
#    z 0.000000 0.000000 1.613450 
# 
# From -- ./inp_files/2171.got.cif
#   From: 2010.05.17/outbox.cif.g08.bks.cpg/sg49_2_cif.got.tgz:2171.got - 2010.06.03 21:02:19.
