data_PCOD9392439
_publ_section_title
;
Structure prediction by ZEFSAII (Michael W. Deem and Ramdas Pophale) SiO2 
 PCOD9392439
Probable space group: P C C M
;
_chemical_formula_sum "Si O2"
_cell_formula_units_Z 48
_cell_length_a 13.750876
_cell_length_b 18.179638
_cell_length_c 8.292192
_cell_angle_alpha 90.000000
_cell_angle_beta 90.000000
_cell_angle_gamma 90.000000
_cell_volume 2072.931477
_symmetry_space_group_name_H-M "P C C M"
_symmetry_group_IT_number 49
_symmetry_cell_setting 'orthorhombic'
loop_
_space_group_symop_operation_xyz
x,y,z
-x,-y,z
x,-y,1/2-z
-x,y,1/2-z
-x,-y,-z
x,y,-z
-x,y,1/2+z
x,-y,1/2+z
loop_
_atom_site_type_symbol
_atom_site_label
_atom_site_fract_x
_atom_site_fract_y
_atom_site_fract_z
Si Si1 0.682835 0.579473 0.688303
Si Si2 0.817681 0.921271 0.306444
Si Si3 0.333684 0.268050 0.815210
Si Si4 0.868659 0.235299 0.185280
Si Si5 0.598963 0.878821 0.306182
Si Si6 0.897328 0.390649 0.685061
O O1 0.650977 0.500000 0.750000
O O2 0.665193 0.586293 0.500000
O O3 0.635143 0.648928 0.778638
O O4 0.799932 0.585859 0.721261
O O5 0.819846 0.918154 0.500000
O O6 0.876116 0.848218 0.251823
O O7 0.703560 0.913395 0.257048
O O8 0.855081 0.000000 0.250000
O O9 0.247035 0.250225 0.690698
O O10 0.402814 0.199941 0.784344
O O11 0.298488 0.265745 0.000000
O O12 0.903934 0.301965 0.295216
O O13 0.902568 0.242092 0.000000
O O14 0.500000 0.917505 0.250000
O O15 0.599170 0.871616 0.500000
O O16 0.884022 0.411175 0.500000
O O17 0.000000 0.419078 0.750000
#
# Coordination Sequence:
#
# PCOD9392439 Si02
#       6
#     8   8   8   8   8   8
#     4  11  21  35  53  76 104 134 167 206 246 293
#     4   9  19  32  49  72 101 132 166 204 249 297
#     4  10  18  31  51  74  97 129 168 206 245 292
#     4   9  17  32  50  71  97 129 167 208 245 289
#     4  10  20  34  50  73 101 133 168 208 251 297
#     4  11  21  34  52  76 102 133 167 204 249 298
#
# _framework density 23.155615000000001
#
# number of rings (size 3 to 8) (size 9 to 14) (size 15 to 20)
#    0.000    2.000    0.000    8.500    0.000    4.667 
#    0.000    3.333    0.000    1.000    0.000    7.000 
#    0.000    0.000    0.000    0.000    0.000    0.000 
#
# Total GULP energy -267967.545246 kJ/mol
# GULP energy per Si atom -5582.657193 kJ/mol
# Density = 2.310291 g / cm^3
# Si number density = 23.155615 Si / 1000 Ang^3
#
#
#
# Elastic Constant Matrix: (Units=GPa)
#
#
# Indices 1 2 3 4 5 6 
#
# 1 28.0527 -9.0935 -3.2526 0.0000 0.0000 0.0000
# 2 -9.0935 172.1270 15.1544 0.0000 0.0000 0.0000
# 3 -3.2526 15.1544 87.9944 0.0000 0.0000 0.0000
# 4 0.0000 0.0000 0.0000 33.5829 0.0000 0.0000
# 5 0.0000 0.0000 0.0000 0.0000 10.9590 0.0000
# 6 0.0000 0.0000 0.0000 0.0000 0.0000 -1.7015
#
#
#
# Elastic Compliance Matrix: (Units=1/GPa)
#
#
# Indices 1 2 3 4 5 6 
#
# 1 0.036360 0.001830 0.001029 0.000000 0.000000 0.000000
# 2 0.001830 0.005991 -0.000964 0.000000 0.000000 0.000000
# 3 0.001029 -0.000964 0.011568 0.000000 0.000000 0.000000
# 4 0.000000 0.000000 0.000000 0.029777 0.000000 0.000000
# 5 0.000000 0.000000 0.000000 0.000000 0.091250 0.000000
# 6 0.000000 0.000000 0.000000 0.000000 0.000000 -0.587702
#
#
# Mechanical properties :
#
#
# Convention : Reuss Voigt Hill
#
# Bulk Modulus (GPa) = 17.32821 32.64342 24.98582
# Shear Modulus (GPa) = -12.58467 27.59245 7.50389
#
# Velocity S-wave (km/s) = -2.33380 3.45571 1.80213
# Velocity P-wave (km/s) = 0.48729 5.48185 3.89153
#
# Compressibility (1/GPa) = 0.05770935
#
# Stress axis : x y z
#
# Youngs Moduli (GPa) = 27.50287 166.91020 86.44208
#
# Poissons Ratio (x) = -0.30550 -0.08893
# Poissons Ratio (y) = -0.05034 0.08334
# Poissons Ratio (z) = -0.02829 0.16093
#
# Static dielectric constant tensor:
#      x y z
#    x 1.952530 0.000000 0.000000 
#    y 0.000000 1.932860 0.000000 
#    z 0.000000 0.000000 2.039780 
# 
# From -- ./inp_files/3721.got.cif
#   From: 2010.05.17/outbox.cif.g08.bks.cpg/sg49_2_cif.got.tgz:3721.got - 2010.06.03 21:02:19.
