data_PCOD9392455
_publ_section_title
;
Structure prediction by ZEFSAII (Michael W. Deem and Ramdas Pophale) SiO2 
 PCOD9392455
Probable space group: P C C M
;
_chemical_formula_sum "Si O2"
_cell_formula_units_Z 64
_cell_length_a 20.348565
_cell_length_b 21.292157
_cell_length_c 8.432918
_cell_angle_alpha 90.000000
_cell_angle_beta 90.000000
_cell_angle_gamma 90.000000
_cell_volume 3653.686874
_symmetry_space_group_name_H-M "P C C M"
_symmetry_group_IT_number 49
_symmetry_cell_setting 'orthorhombic'
loop_
_space_group_symop_operation_xyz
x,y,z
-x,-y,z
x,-y,1/2-z
-x,y,1/2-z
-x,-y,-z
x,y,-z
-x,y,1/2+z
x,-y,1/2+z
loop_
_atom_site_type_symbol
_atom_site_label
_atom_site_fract_x
_atom_site_fract_y
_atom_site_fract_z
Si Si1 0.709970 0.187809 0.193673
Si Si2 0.570497 0.234053 0.191006
Si Si3 0.290330 0.568021 0.191686
Si Si4 0.570504 0.380448 0.809037
Si Si5 0.791438 0.311278 0.193314
Si Si6 0.929103 0.117323 0.688619
Si Si7 0.070370 0.260575 0.690366
Si Si8 0.792654 0.932562 0.689790
O O1 0.634523 0.195975 0.244825
O O2 0.750063 0.249956 0.242694
O O3 0.747113 0.125109 0.246724
O O4 0.710434 0.187391 0.000000
O O5 0.500000 0.210873 0.250000
O O6 0.577361 0.307252 0.241336
O O7 0.570153 0.233915 0.000000
O O8 0.269213 0.500000 0.250000
O O9 0.365094 0.582491 0.245674
O O10 0.243697 0.624992 0.246162
O O11 0.290501 0.568659 0.000000
O O12 0.500000 0.404066 0.750000
O O13 0.569961 0.381238 0.000000
O O14 0.866813 0.301072 0.241794
O O15 0.790206 0.311715 0.000000
O O16 0.929378 0.116186 0.500000
O O17 0.921632 0.189442 0.746853
O O18 0.866886 0.079653 0.752720
O O19 0.000000 0.094613 0.750000
O O20 0.069589 0.257352 0.500000
O O21 0.000000 0.284239 0.750000
O O22 0.792581 0.931955 0.500000
O O23 0.769636 0.000000 0.750000
#
# Coordination Sequence:
#
# PCOD9392455 Si02
#       8
#     8   8   8   8   8   8   8   8
#     4   9  16  31  56  77  97 133 176 209 250 310
#     4   9  16  29  51  77 101 129 167 211 256 302
#     4  10  20  34  51  72 100 135 174 212 253 302
#     4   9  17  29  47  69  98 132 167 205 245 297
#     4   9  16  31  55  76  96 133 176 209 249 308
#     4  11  21  34  52  77 108 142 176 210 252 303
#     4  10  18  31  53  79 105 133 169 212 260 306
#     4  11  22  37  55  77 105 138 176 215 260 310
#
# _framework density 17.516553999999999
#
# number of rings (size 3 to 8) (size 9 to 14) (size 15 to 20)
#    0.000    2.250    2.500    2.625    0.000    1.000 
#    0.000    5.000    0.000    0.750    0.000    5.250 
#    0.000    0.000    0.000    0.000    0.000    0.000 
#
# Total GULP energy -357065.271500 kJ/mol
# GULP energy per Si atom -5579.144867 kJ/mol
# Density = 1.747669 g / cm^3
# Si number density = 17.516554 Si / 1000 Ang^3
#
#
#
# Elastic Constant Matrix: (Units=GPa)
#
#
# Indices 1 2 3 4 5 6 
#
# 1 139.4611 75.5456 18.0040 0.0000 0.0000 0.0000
# 2 75.5456 119.0859 16.2163 0.0000 0.0000 0.0000
# 3 18.0040 16.2163 30.9334 0.0000 0.0000 0.0000
# 4 0.0000 0.0000 0.0000 24.9979 0.0000 0.0000
# 5 0.0000 0.0000 0.0000 0.0000 8.8087 0.0000
# 6 0.0000 0.0000 0.0000 0.0000 0.0000 24.0550
#
#
#
# Elastic Compliance Matrix: (Units=1/GPa)
#
#
# Indices 1 2 3 4 5 6 
#
# 1 0.011178 -0.006682 -0.003003 0.000000 0.000000 0.000000
# 2 -0.006682 0.013037 -0.002945 0.000000 0.000000 0.000000
# 3 -0.003003 -0.002945 0.035619 0.000000 0.000000 0.000000
# 4 0.000000 0.000000 0.000000 0.040003 0.000000 0.000000
# 5 0.000000 0.000000 0.000000 0.000000 0.113525 0.000000
# 6 0.000000 0.000000 0.000000 0.000000 0.000000 0.041571
#
#
# Mechanical properties :
#
#
# Convention : Reuss Voigt Hill
#
# Bulk Modulus (GPa) = 28.92366 56.55692 42.74029
# Shear Modulus (GPa) = 17.13979 23.55329 20.34654
#
# Velocity S-wave (km/s) = 3.13148 3.67090 3.41186
# Velocity P-wave (km/s) = 5.44269 7.09402 6.32250
#
# Compressibility (1/GPa) = 0.03457377
#
# Stress axis : x y z
#
# Youngs Moduli (GPa) = 89.46357 76.70285 28.07468
#
# Poissons Ratio (x) = 0.51253 0.08430
# Poissons Ratio (y) = 0.59780 0.08269
# Poissons Ratio (z) = 0.26864 0.22593
#
# Static dielectric constant tensor:
#      x y z
#    x 1.608210 0.000000 0.000000 
#    y 0.000000 1.585190 0.000000 
#    z 0.000000 0.000000 1.606590 
# 
# From -- ./inp_files/6080.got.cif
#   From: 2010.05.17/outbox.cif.g08.bks.cpg/sg49_4_cif.got.tgz:6080.got - 2010.06.03 21:02:19.
