data_PCOD9392265
_publ_section_title
;
Structure prediction by ZEFSAII (Michael W. Deem and Ramdas Pophale) SiO2 
 PCOD9392265
Probable space group: P C C M
;
_chemical_formula_sum "Si O2"
_cell_formula_units_Z 64
_cell_length_a 20.099534
_cell_length_b 19.137722
_cell_length_c 8.462705
_cell_angle_alpha 90.000000
_cell_angle_beta 90.000000
_cell_angle_gamma 90.000000
_cell_volume 3255.258131
_symmetry_space_group_name_H-M "P C C M"
_symmetry_group_IT_number 49
_symmetry_cell_setting 'orthorhombic'
loop_
_space_group_symop_operation_xyz
x,y,z
-x,-y,z
x,-y,1/2-z
-x,y,1/2-z
-x,-y,-z
x,y,-z
-x,y,1/2+z
x,-y,1/2+z
loop_
_atom_site_type_symbol
_atom_site_label
_atom_site_fract_x
_atom_site_fract_y
_atom_site_fract_z
Si Si1 0.711298 0.795485 0.191889
Si Si2 0.074521 0.578320 0.309361
Si Si3 0.742396 0.572543 0.677866
Si Si4 0.415844 0.574233 0.175841
Si Si5 0.212038 0.920556 0.188647
Si Si6 0.069588 0.080119 0.188579
Si Si7 0.570879 0.727526 0.187159
Si Si8 0.817580 0.311589 0.680161
O O1 0.727919 0.873565 0.245982
O O2 0.640162 0.763494 0.246102
O O3 0.776371 0.752372 0.253535
O O4 0.712174 0.791058 0.000000
O O5 0.092115 0.500000 0.250000
O O6 0.077755 0.576929 0.500000
O O7 0.120845 0.643058 0.253015
O O8 0.000000 0.590798 0.250000
O O9 0.765471 0.500000 0.750000
O O10 0.769094 0.585756 0.500000
O O11 0.663663 0.570672 0.663382
O O12 0.760762 0.629683 0.806881
O O13 0.434195 0.500000 0.250000
O O14 0.428504 0.645272 0.269946
O O15 0.444787 0.581127 0.000000
O O16 0.140182 0.891803 0.249913
O O17 0.217624 0.000000 0.250000
O O18 0.211170 0.920572 0.000000
O O19 0.000000 0.112481 0.250000
O O20 0.069022 0.000000 0.250000
O O21 0.069264 0.080603 0.000000
O O22 0.500000 0.756033 0.250000
O O23 0.570943 0.735320 0.000000
O O24 0.834970 0.292928 0.500000
#
# Coordination Sequence:
#
# PCOD9392265 Si02
#       8
#     8   8   8   8   8   8   8   8
#     4  10  22  41  62  86 117 152 187 233 291 352
#     4  10  20  34  53  76 106 147 195 248 295 343
#     4  10  19  29  47  74 105 139 178 226 274 326
#     4  10  20  34  53  79 112 148 191 236 283 338
#     4  11  22  38  62  91 122 157 197 241 289 346
#     4  10  17  29  51  82 120 157 194 232 275 328
#     4  11  23  40  63  86 117 155 192 235 289 348
#     4  10  20  35  55  78 107 143 186 234 289 342
#
# _framework density 19.660499999999999
#
# number of rings (size 3 to 8) (size 9 to 14) (size 15 to 20)
#    0.000    1.750    1.250    5.625    0.000    4.750 
#    0.000    1.875    0.000    1.875    0.000    2.625 
#    0.000    0.000    0.000    0.000    0.000    0.000 
#
# Total GULP energy -356648.390830 kJ/mol
# GULP energy per Si atom -5572.631107 kJ/mol
# Density = 1.961575 g / cm^3
# Si number density = 19.660500 Si / 1000 Ang^3
#
#
#
# Elastic Constant Matrix: (Units=GPa)
#
#
# Indices 1 2 3 4 5 6 
#
# 1 157.0208 54.9656 34.3359 0.0000 0.0000 0.0000
# 2 54.9656 77.5662 7.4727 0.0000 0.0000 0.0000
# 3 34.3359 7.4727 70.4400 0.0000 0.0000 0.0000
# 4 0.0000 0.0000 0.0000 18.1640 0.0000 0.0000
# 5 0.0000 0.0000 0.0000 0.0000 24.0520 0.0000
# 6 0.0000 0.0000 0.0000 0.0000 0.0000 6.0325
#
#
#
# Elastic Compliance Matrix: (Units=1/GPa)
#
#
# Indices 1 2 3 4 5 6 
#
# 1 0.009436 -0.006308 -0.003930 0.000000 0.000000 0.000000
# 2 -0.006308 0.017242 0.001246 0.000000 0.000000 0.000000
# 3 -0.003930 0.001246 0.015980 0.000000 0.000000 0.000000
# 4 0.000000 0.000000 0.000000 0.055054 0.000000 0.000000
# 5 0.000000 0.000000 0.000000 0.000000 0.041577 0.000000
# 6 0.000000 0.000000 0.000000 0.000000 0.000000 0.165768
#
#
# Mechanical properties :
#
#
# Convention : Reuss Voigt Hill
#
# Bulk Modulus (GPa) = 40.53009 55.39725 47.96367
# Shear Modulus (GPa) = 15.09354 23.53324 19.31339
#
# Velocity S-wave (km/s) = 2.77376 3.46349 3.13764
# Velocity P-wave (km/s) = 5.56040 6.65075 6.12987
#
# Compressibility (1/GPa) = 0.02467302
#
# Stress axis : x y z
#
# Youngs Moduli (GPa) = 105.97434 57.99681 62.57735
#
# Poissons Ratio (x) = 0.36585 0.24596
# Poissons Ratio (y) = 0.66850 -0.07795
# Poissons Ratio (z) = 0.41653 -0.07225
#
# Static dielectric constant tensor:
#      x y z
#    x 1.760060 0.000000 0.000000 
#    y 0.000000 1.700030 0.000000 
#    z 0.000000 0.000000 1.717440 
# 
# From -- ./inp_files/5939.got.cif
#   From: 2010.05.17/outbox.cif.g08.bks.cpg/sg49_3_cif.got.tgz:5939.got - 2010.06.03 21:02:19.
