data_PCOD9392496
_publ_section_title
;
Structure prediction by ZEFSAII (Michael W. Deem and Ramdas Pophale) SiO2 
 PCOD9392496
Probable space group: P C C M
;
_chemical_formula_sum "Si O2"
_cell_formula_units_Z 64
_cell_length_a 20.485688
_cell_length_b 20.554219
_cell_length_c 8.670249
_cell_angle_alpha 90.000000
_cell_angle_beta 90.000000
_cell_angle_gamma 90.000000
_cell_volume 3650.758489
_symmetry_space_group_name_H-M "P C C M"
_symmetry_group_IT_number 49
_symmetry_cell_setting 'orthorhombic'
loop_
_space_group_symop_operation_xyz
x,y,z
-x,-y,z
x,-y,1/2-z
-x,y,1/2-z
-x,-y,-z
x,y,-z
-x,y,1/2+z
x,-y,1/2+z
loop_
_atom_site_type_symbol
_atom_site_label
_atom_site_fract_x
_atom_site_fract_y
_atom_site_fract_z
Si Si1 0.430909 0.887960 0.683627
Si Si2 0.294825 0.067732 0.684512
Si Si3 0.287196 0.432362 0.184706
Si Si4 0.567738 0.397766 0.317185
Si Si5 0.814794 0.168834 0.187661
Si Si6 0.927276 0.070442 0.186045
Si Si7 0.247929 0.702940 0.183278
Si Si8 0.615357 0.255703 0.683501
O O1 0.500000 0.910142 0.750000
O O2 0.430301 0.896077 0.500000
O O3 0.367960 0.922237 0.755099
O O4 0.420596 0.811224 0.720288
O O5 0.295025 0.065936 0.500000
O O6 0.248084 0.126428 0.736406
O O7 0.268853 0.000000 0.750000
O O8 0.260837 0.500000 0.250000
O O9 0.362899 0.425191 0.241256
O O10 0.249657 0.367663 0.238564
O O11 0.288180 0.433580 0.000000
O O12 0.500000 0.422777 0.250000
O O13 0.566226 0.407997 0.500000
O O14 0.573472 0.320307 0.287148
O O15 0.878429 0.128171 0.234279
O O16 0.804899 0.243466 0.237421
O O17 0.814405 0.169827 0.000000
O O18 0.000000 0.081353 0.250000
O O19 0.905350 0.000000 0.250000
O O20 0.928722 0.067177 0.000000
O O21 0.318012 0.735307 0.222608
O O22 0.242314 0.694278 0.000000
O O23 0.631269 0.255571 0.500000
#
# Coordination Sequence:
#
# PCOD9392496 Si02
#       8
#     8   8   8   8   8   8   8   8
#     4  11  22  35  51  70  92 123 161 211 268 322
#     4  11  22  38  54  73  97 127 167 213 263 316
#     4  10  21  36  50  70  98 130 165 209 258 314
#     4   9  18  30  44  64  90 118 154 197 246 304
#     4   9  19  34  55  80 108 138 175 216 257 305
#     4  10  19  34  53  80 116 153 188 220 254 303
#     4  10  18  32  54  77  99 130 166 208 258 304
#     4   9  18  32  47  68  95 121 156 204 255 310
#
# _framework density 17.530604
#
# number of rings (size 3 to 8) (size 9 to 14) (size 15 to 20)
#    0.000    2.125    1.250    3.750    0.000    3.500 
#    0.000    6.875    0.000    0.000    0.000    0.000 
#    0.000    0.500    0.000    5.750    0.000    1.750 
#
# Total GULP energy -357161.589746 kJ/mol
# GULP energy per Si atom -5580.649840 kJ/mol
# Density = 1.749070 g / cm^3
# Si number density = 17.530604 Si / 1000 Ang^3
#
#
#
# Elastic Constant Matrix: (Units=GPa)
#
#
# Indices 1 2 3 4 5 6 
#
# 1 72.1065 47.2536 22.4459 0.0000 0.0000 0.0000
# 2 47.2536 133.3919 35.8698 0.0000 0.0000 0.0000
# 3 22.4459 35.8698 34.9893 0.0000 0.0000 0.0000
# 4 0.0000 0.0000 0.0000 -68.1657 0.0000 0.0000
# 5 0.0000 0.0000 0.0000 0.0000 13.8454 0.0000
# 6 0.0000 0.0000 0.0000 0.0000 0.0000 -41.6258
#
#
#
# Elastic Compliance Matrix: (Units=1/GPa)
#
#
# Indices 1 2 3 4 5 6 
#
# 1 0.019371 -0.004860 -0.007444 0.000000 0.000000 0.000000
# 2 -0.004860 0.011569 -0.008743 0.000000 0.000000 0.000000
# 3 -0.007444 -0.008743 0.042318 0.000000 0.000000 0.000000
# 4 0.000000 0.000000 0.000000 -0.014670 0.000000 0.000000
# 5 0.000000 0.000000 0.000000 0.000000 0.072226 0.000000
# 6 0.000000 0.000000 0.000000 0.000000 0.000000 -0.024024
#
#
# Mechanical properties :
#
#
# Convention : Reuss Voigt Hill
#
# Bulk Modulus (GPa) = 32.08763 50.18069 41.13416
# Shear Modulus (GPa) = 31.39278 -10.19466 10.59906
#
# Velocity S-wave (km/s) = 4.23631 -2.41412 2.46154
# Velocity P-wave (km/s) = 6.50168 4.57342 5.62086
#
# Compressibility (1/GPa) = 0.03116465
#
# Stress axis : x y z
#
# Youngs Moduli (GPa) = 51.62445 86.43505 23.63058
#
# Poissons Ratio (x) = 0.42010 0.17590
# Poissons Ratio (y) = 0.25091 0.20659
# Poissons Ratio (z) = 0.38428 0.75567
#
# Static dielectric constant tensor:
#      x y z
#    x 1.580230 0.000000 0.000000 
#    y 0.000000 1.640040 0.000000 
#    z 0.000000 0.000000 1.589090 
# 
# From -- ./inp_files/6068.got.cif
#   From: 2010.05.17/outbox.cif.g08.bks.cpg/sg49_4_cif.got.tgz:6068.got - 2010.06.03 21:02:19.
