data_PCOD9392400
_publ_section_title
;
Structure prediction by ZEFSAII (Michael W. Deem and Ramdas Pophale) SiO2 
 PCOD9392400
Probable space group: P C C M
;
_chemical_formula_sum "Si O2"
_cell_formula_units_Z 64
_cell_length_a 22.279124
_cell_length_b 16.218449
_cell_length_c 9.324918
_cell_angle_alpha 90.000000
_cell_angle_beta 90.000000
_cell_angle_gamma 90.000000
_cell_volume 3369.399070
_symmetry_space_group_name_H-M "P C C M"
_symmetry_group_IT_number 49
_symmetry_cell_setting 'orthorhombic'
loop_
_space_group_symop_operation_xyz
x,y,z
-x,-y,z
x,-y,1/2-z
-x,y,1/2-z
-x,-y,-z
x,y,-z
-x,y,1/2+z
x,-y,1/2+z
loop_
_atom_site_type_symbol
_atom_site_label
_atom_site_fract_x
_atom_site_fract_y
_atom_site_fract_z
Si Si1 0.062439 0.886742 0.672918
Si Si2 0.950996 0.306299 0.654376
Si Si3 0.312178 0.080312 0.170161
Si Si4 0.435751 0.417507 0.172013
Si Si5 0.651167 0.261622 0.333502
Si Si6 0.159783 0.425515 0.158224
Si Si7 0.186276 0.124364 0.671253
Si Si8 0.767083 0.305970 0.835026
O O1 0.063119 0.904921 0.500000
O O2 0.061101 0.787750 0.693132
O O3 0.125273 0.908081 0.752756
O O4 0.000000 0.914279 0.750000
O O5 0.980312 0.301899 0.500000
O O6 0.890678 0.356287 0.650274
O O7 0.000000 0.348921 0.750000
O O8 0.354243 0.162009 0.183150
O O9 0.246936 0.095772 0.246187
O O10 0.337560 0.000000 0.250000
O O11 0.302903 0.065934 0.000000
O O12 0.408700 0.500000 0.250000
O O13 0.500000 0.407671 0.250000
O O14 0.400044 0.330739 0.187648
O O15 0.441336 0.432586 0.000000
O O16 0.672212 0.272048 0.500000
O O17 0.702013 0.281320 0.218880
O O18 0.135651 0.500000 0.250000
O O19 0.213582 0.382215 0.239221
O O20 0.176555 0.452899 0.000000
O O21 0.187362 0.104015 0.500000
O O22 0.191428 0.224371 0.682428
O O23 0.768652 0.328845 0.000000
#
# Coordination Sequence:
#
# PCOD9392400 Si02
#       8
#     8   8   8   8   8   8   8   8
#     4  10  18  30  48  72  97 127 167 217 277 338
#     4   9  19  32  47  63  84 116 157 208 265 326
#     4  10  20  36  58  85 116 151 191 238 288 342
#     4  10  20  36  59  89 123 162 203 244 286 330
#     4   9  20  37  58  83 117 158 194 233 284 337
#     4  11  22  35  47  63  89 125 165 212 271 332
#     4  10  19  32  52  77 103 134 173 219 272 335
#     4  10  20  33  51  74  99 130 172 220 269 325
#
# _framework density 18.994485000000001
#
# number of rings (size 3 to 8) (size 9 to 14) (size 15 to 20)
#    0.000    2.125    1.250    2.625    0.000    4.750 
#    0.000    2.500    0.000    0.750    0.000    5.250 
#    0.000    0.000    0.000    0.000    0.000    0.000 
#
# Total GULP energy -356341.049524 kJ/mol
# GULP energy per Si atom -5567.828899 kJ/mol
# Density = 1.895125 g / cm^3
# Si number density = 18.994485 Si / 1000 Ang^3
#
#
#
# Elastic Constant Matrix: (Units=GPa)
#
#
# Indices 1 2 3 4 5 6 
#
# 1 47.7331 34.2193 41.9950 0.0000 0.0000 0.0000
# 2 34.2193 109.6667 63.8885 0.0000 0.0000 0.0000
# 3 41.9950 63.8885 110.6118 0.0000 0.0000 0.0000
# 4 0.0000 0.0000 0.0000 20.7507 0.0000 0.0000
# 5 0.0000 0.0000 0.0000 0.0000 20.4426 0.0000
# 6 0.0000 0.0000 0.0000 0.0000 0.0000 -5.0170
#
#
#
# Elastic Compliance Matrix: (Units=1/GPa)
#
#
# Indices 1 2 3 4 5 6 
#
# 1 0.032868 -0.004500 -0.009879 0.000000 0.000000 0.000000
# 2 -0.004500 0.014359 -0.006585 0.000000 0.000000 0.000000
# 3 -0.009879 -0.006585 0.016595 0.000000 0.000000 0.000000
# 4 0.000000 0.000000 0.000000 0.048191 0.000000 0.000000
# 5 0.000000 0.000000 0.000000 0.000000 0.048917 0.000000
# 6 0.000000 0.000000 0.000000 0.000000 0.000000 -0.199321
#
#
# Mechanical properties :
#
#
# Convention : Reuss Voigt Hill
#
# Bulk Modulus (GPa) = 45.67808 60.91301 53.29554
# Shear Modulus (GPa) = 461.41634 15.76250 238.58942
#
# Velocity S-wave (km/s) = 15.60284 2.88383 11.21974
# Velocity P-wave (km/s) = 18.67347 6.57473 13.99867
#
# Compressibility (1/GPa) = 0.02189234
#
# Stress axis : x y z
#
# Youngs Moduli (GPa) = 30.42497 69.64251 60.25961
#
# Poissons Ratio (x) = 0.31342 0.59532
# Poissons Ratio (y) = 0.13692 0.39681
# Poissons Ratio (z) = 0.30058 0.45860
#
# Static dielectric constant tensor:
#      x y z
#    x 1.645730 0.000000 0.000000 
#    y 0.000000 1.723980 0.000000 
#    z 0.000000 0.000000 1.674530 
# 
# From -- ./inp_files/5958.got.cif
#   From: 2010.05.17/outbox.cif.g08.bks.cpg/sg49_3_cif.got.tgz:5958.got - 2010.06.03 21:02:19.
