data_PCOD9392886
_publ_section_title
;
Structure prediction by ZEFSAII (Michael W. Deem and Ramdas Pophale) SiO2 
 PCOD9392886
Probable space group: P C C M
;
_chemical_formula_sum "Si O2"
_cell_formula_units_Z 56
_cell_length_a 15.334260
_cell_length_b 23.161692
_cell_length_c 8.609953
_cell_angle_alpha 90.000000
_cell_angle_beta 90.000000
_cell_angle_gamma 90.000000
_cell_volume 3057.974683
_symmetry_space_group_name_H-M "P C C M"
_symmetry_group_IT_number 49
_symmetry_cell_setting 'orthorhombic'
loop_
_space_group_symop_operation_xyz
x,y,z
-x,-y,z
x,-y,1/2-z
-x,y,1/2-z
-x,-y,-z
x,y,-z
-x,y,1/2+z
x,-y,1/2+z
loop_
_atom_site_type_symbol
_atom_site_label
_atom_site_fract_x
_atom_site_fract_y
_atom_site_fract_z
Si Si1 0.775069 0.939500 0.184584
Si Si2 0.904492 0.843858 0.313577
Si Si3 0.406567 0.235133 0.686826
Si Si4 0.595060 0.564279 0.312979
Si Si5 0.276266 0.334487 0.689436
Si Si6 0.094296 0.290465 0.312995
Si Si7 0.405892 0.899407 0.186450
O O1 0.831854 0.886270 0.247176
O O2 0.676216 0.932232 0.244062
O O3 0.810292 0.000000 0.250000
O O4 0.776674 0.940264 0.000000
O O5 0.903587 0.847184 0.500000
O O6 0.889574 0.776740 0.269069
O O7 0.000000 0.859939 0.250000
O O8 0.500000 0.254874 0.750000
O O9 0.409113 0.236596 0.500000
O O10 0.330427 0.277815 0.738869
O O11 0.394627 0.168320 0.732232
O O12 0.611620 0.500000 0.250000
O O13 0.500000 0.582493 0.250000
O O14 0.591349 0.562916 0.500000
O O15 0.669457 0.609273 0.263051
O O16 0.275441 0.334338 0.500000
O O17 0.176503 0.328162 0.741018
O O18 0.091078 0.292247 0.500000
O O19 0.000000 0.307842 0.250000
O O20 0.500000 0.918411 0.250000
O O21 0.405076 0.903479 0.000000
#
# Coordination Sequence:
#
# PCOD9392886 Si02
#       7
#     8   8   8   8   8   8   8
#     4  12  25  40  57  78 103 134 175 218 260 309
#     4  10  20  37  60  84 110 138 167 206 258 316
#     4   9  17  30  49  74 103 132 163 201 250 306
#     4  10  19  32  50  72 103 141 180 217 255 298
#     4   9  17  30  50  74 102 138 172 207 254 305
#     4   9  18  34  55  79 106 134 167 207 255 308
#     4  10  20  36  56  78 105 137 171 211 260 314
#
# _framework density 18.312774999999998
#
# number of rings (size 3 to 8) (size 9 to 14) (size 15 to 20)
#    0.000    2.143    0.000    4.286    0.000    4.000 
#    0.000    5.714    0.000    0.429    0.000    3.000 
#    0.000    0.000    0.000    0.000    0.000    0.000 
#
# Total GULP energy -312699.246542 kJ/mol
# GULP energy per Si atom -5583.915117 kJ/mol
# Density = 1.827109 g / cm^3
# Si number density = 18.312775 Si / 1000 Ang^3
#
#
#
# Elastic Constant Matrix: (Units=GPa)
#
#
# Indices 1 2 3 4 5 6 
#
# 1 150.6266 69.8709 31.3002 0.0000 0.0000 0.0000
# 2 69.8709 68.9600 22.5758 0.0000 0.0000 0.0000
# 3 31.3002 22.5758 50.3858 0.0000 0.0000 0.0000
# 4 0.0000 0.0000 0.0000 17.2218 0.0000 0.0000
# 5 0.0000 0.0000 0.0000 0.0000 31.4284 0.0000
# 6 0.0000 0.0000 0.0000 0.0000 0.0000 -14.2532
#
#
#
# Elastic Compliance Matrix: (Units=1/GPa)
#
#
# Indices 1 2 3 4 5 6 
#
# 1 0.012791 -0.012139 -0.002507 0.000000 0.000000 0.000000
# 2 -0.012139 0.028514 -0.005235 0.000000 0.000000 0.000000
# 3 -0.002507 -0.005235 0.023750 0.000000 0.000000 0.000000
# 4 0.000000 0.000000 0.000000 0.058066 0.000000 0.000000
# 5 0.000000 0.000000 0.000000 0.000000 0.031818 0.000000
# 6 0.000000 0.000000 0.000000 0.000000 0.000000 -0.070160
#
#
# Mechanical properties :
#
#
# Convention : Reuss Voigt Hill
#
# Bulk Modulus (GPa) = 39.53677 57.49623 48.51650
# Shear Modulus (GPa) = 37.60176 16.62778 27.11477
#
# Velocity S-wave (km/s) = 4.53626 3.01655 3.85209
# Velocity P-wave (km/s) = 7.00525 6.60286 6.80703
#
# Compressibility (1/GPa) = 0.02529291
#
# Stress axis : x y z
#
# Youngs Moduli (GPa) = 78.18138 35.06993 42.10571
#
# Poissons Ratio (x) = 0.42572 0.10555
# Poissons Ratio (y) = 0.94905 0.22043
# Poissons Ratio (z) = 0.19598 0.18360
#
# Static dielectric constant tensor:
#      x y z
#    x 1.625050 0.000000 0.000000 
#    y 0.000000 1.629670 0.000000 
#    z 0.000000 0.000000 1.618850 
# 
# From -- ./inp_files/4095.got.cif
#   From: 2010.05.17/outbox.cif.g08.bks.cpg/sg49_3_cif.got.tgz:4095.got - 2010.06.03 21:02:19.
