data_PCOD9392647
_publ_section_title
;
Structure prediction by ZEFSAII (Michael W. Deem and Ramdas Pophale) SiO2 
 PCOD9392647
Probable space group: P C C M
;
_chemical_formula_sum "Si O2"
_cell_formula_units_Z 64
_cell_length_a 15.481501
_cell_length_b 14.710371
_cell_length_c 14.568002
_cell_angle_alpha 90.000000
_cell_angle_beta 90.000000
_cell_angle_gamma 90.000000
_cell_volume 3317.696720
_symmetry_space_group_name_H-M "P C C M"
_symmetry_group_IT_number 49
_symmetry_cell_setting 'orthorhombic'
loop_
_space_group_symop_operation_xyz
x,y,z
-x,-y,z
x,-y,1/2-z
-x,y,1/2-z
-x,-y,-z
x,y,-z
-x,y,1/2+z
x,-y,1/2+z
loop_
_atom_site_type_symbol
_atom_site_label
_atom_site_fract_x
_atom_site_fract_y
_atom_site_fract_z
Si Si1 0.599447 0.480444 0.387354
Si Si2 0.324754 0.333023 0.609251
Si Si3 0.902838 0.017563 0.888104
Si Si4 0.516169 0.195482 0.141568
Si Si5 0.245183 0.117565 0.893835
Si Si6 0.338336 0.287077 0.895725
Si Si7 0.623369 0.966270 0.350351
Si Si8 0.776738 0.831270 0.611982
O O1 0.500000 0.500000 0.360648
O O2 0.598215 0.476118 0.500000
O O3 0.656200 0.566188 0.356393
O O4 0.637589 0.384419 0.353730
O O5 0.316617 0.343084 0.500000
O O6 0.408762 0.269516 0.625364
O O7 0.243094 0.272183 0.638986
O O8 0.865094 0.117200 0.865518
O O9 0.833911 0.941581 0.854520
O O10 0.902016 0.012545 0.000000
O O11 0.000000 0.000000 0.857585
O O12 0.500000 0.188253 0.250000
O O13 0.428883 0.233631 0.100184
O O14 0.547804 0.096216 0.108455
O O15 0.272194 0.214573 0.851804
O O16 0.329498 0.052215 0.894842
O O17 0.223113 0.134955 0.000000
O O18 0.308781 0.304754 0.000000
O O19 0.701644 0.893317 0.344410
O O20 0.598497 0.000000 0.250000
O O21 0.765324 0.837991 0.500000
#
# Coordination Sequence:
#
# PCOD9392647 Si02
#       8
#     8   8   8   8   8   8   8   8
#     4   9  15  26  44  61  75 101 140 177 212 238
#     4   9  16  29  46  60  78 104 139 179 206 232
#     4   8  13  24  43  65  86 104 126 161 202 243
#     4  11  21  29  39  57  80 109 143 171 204 241
#     4   9  18  30  43  61  81 104 137 170 197 236
#     4  10  19  30  43  58  78 105 140 176 205 236
#     4  10  19  30  41  54  80 114 139 165 200 243
#     4   8  15  27  45  66  81 101 137 171 198 235
#
# _framework density 19.290492
#
# number of rings (size 3 to 8) (size 9 to 14) (size 15 to 20)
#    0.000    2.750    1.250    2.250    0.000    3.250 
#    0.000    2.500    0.000    6.000    0.000    0.875 
#    0.000    7.000    0.000    0.000    0.000   31.000 
#
# Total GULP energy -356780.273594 kJ/mol
# GULP energy per Si atom -5574.691775 kJ/mol
# Density = 1.924659 g / cm^3
# Si number density = 19.290492 Si / 1000 Ang^3
#
#
#
# Elastic Constant Matrix: (Units=GPa)
#
#
# Indices 1 2 3 4 5 6 
#
# 1 99.7273 75.5259 -0.7531 0.0000 0.0000 0.0000
# 2 75.5259 191.4086 4.7949 0.0000 0.0000 0.0000
# 3 -0.7531 4.7949 59.1552 0.0000 0.0000 0.0000
# 4 0.0000 0.0000 0.0000 2.9927 0.0000 0.0000
# 5 0.0000 0.0000 0.0000 0.0000 -6.5283 0.0000
# 6 0.0000 0.0000 0.0000 0.0000 0.0000 22.2401
#
#
#
# Elastic Compliance Matrix: (Units=1/GPa)
#
#
# Indices 1 2 3 4 5 6 
#
# 1 0.014325 -0.005668 0.000642 0.000000 0.000000 0.000000
# 2 -0.005668 0.007478 -0.000678 0.000000 0.000000 0.000000
# 3 0.000642 -0.000678 0.016968 0.000000 0.000000 0.000000
# 4 0.000000 0.000000 0.000000 0.334144 0.000000 0.000000
# 5 0.000000 0.000000 0.000000 0.000000 -0.153178 0.000000
# 6 0.000000 0.000000 0.000000 0.000000 0.000000 0.044964
#
#
# Mechanical properties :
#
#
# Convention : Reuss Voigt Hill
#
# Bulk Modulus (GPa) = 36.54823 56.60294 46.57558
# Shear Modulus (GPa) = 17.52964 21.78912 19.65938
#
# Velocity S-wave (km/s) = 3.01777 3.36449 3.19583
# Velocity P-wave (km/s) = 5.57942 6.67077 6.14935
#
# Compressibility (1/GPa) = 0.02736111
#
# Stress axis : x y z
#
# Youngs Moduli (GPa) = 69.80780 133.72431 58.93508
#
# Poissons Ratio (x) = 0.75801 -0.03783
# Poissons Ratio (y) = 0.39570 0.03998
# Poissons Ratio (z) = -0.04481 0.09071
#
# Static dielectric constant tensor:
#      x y z
#    x 1.634430 0.000000 0.000000 
#    y 0.000000 1.712280 0.000000 
#    z 0.000000 0.000000 1.763820 
# 
# From -- ./inp_files/17999.got.cif
#   From: 2010.05.17/outbox.cif.g08.bks.cpg/sg49_9_cif.got.tgz:17999.got - 2010.06.03 21:02:19.
