data_PCOD9392713
_publ_section_title
;
Structure prediction by ZEFSAII (Michael W. Deem and Ramdas Pophale) SiO2 
 PCOD9392713
Probable space group: P C C M
;
_chemical_formula_sum "Si O2"
_cell_formula_units_Z 48
_cell_length_a 18.138133
_cell_length_b 17.623579
_cell_length_c 9.062094
_cell_angle_alpha 90.000000
_cell_angle_beta 90.000000
_cell_angle_gamma 90.000000
_cell_volume 2896.778273
_symmetry_space_group_name_H-M "P C C M"
_symmetry_group_IT_number 49
_symmetry_cell_setting 'orthorhombic'
loop_
_space_group_symop_operation_xyz
x,y,z
-x,-y,z
x,-y,1/2-z
-x,y,1/2-z
-x,-y,-z
x,y,-z
-x,y,1/2+z
x,-y,1/2+z
loop_
_atom_site_type_symbol
_atom_site_label
_atom_site_fract_x
_atom_site_fract_y
_atom_site_fract_z
Si Si1 0.077439 0.916588 0.821552
Si Si2 0.190303 0.193379 0.831820
Si Si3 0.419087 0.420108 0.679779
Si Si4 0.176083 0.571316 0.833967
Si Si5 0.070577 0.327672 0.834672
Si Si6 0.298582 0.297020 0.668534
O O1 0.147340 0.866817 0.770082
O O2 0.000000 0.887491 0.750000
O O3 0.086308 0.000000 0.750000
O O4 0.071265 0.919135 0.000000
O O5 0.133180 0.263677 0.838400
O O6 0.265682 0.228610 0.765709
O O7 0.200133 0.165346 0.000000
O O8 0.391417 0.500000 0.750000
O O9 0.500000 0.409840 0.750000
O O10 0.421232 0.426826 0.500000
O O11 0.368791 0.347041 0.717525
O O12 0.208662 0.500000 0.750000
O O13 0.104587 0.601123 0.749810
O O14 0.234132 0.639647 0.836040
O O15 0.158319 0.549780 0.000000
O O16 0.000000 0.297899 0.750000
O O17 0.049943 0.348029 0.000000
O O18 0.310980 0.270888 0.500000
#
# Coordination Sequence:
#
# PCOD9392713 Si02
#       6
#     8   8   8   8   8   8
#     4  11  21  34  52  74 102 132 165 202 242 288
#     4  10  20  33  50  71  94 122 156 193 236 285
#     4  10  19  31  48  71  99 130 165 203 247 295
#     4  10  19  31  45  60  80 107 143 186 231 275
#     4  10  20  32  45  61  81 108 144 185 228 273
#     4   9  19  33  48  67  92 123 156 193 236 284
#
# _framework density 16.570132000000001
#
# number of rings (size 3 to 8) (size 9 to 14) (size 15 to 20)
#    0.000    2.000    0.000    5.500    0.000    5.667 
#    0.000    1.667    0.000    0.000    0.000    0.000 
#    0.000    0.667    0.000    7.000    0.000    3.833 
#
# Total GULP energy -267542.897864 kJ/mol
# GULP energy per Si atom -5573.810372 kJ/mol
# Density = 1.653242 g / cm^3
# Si number density = 16.570132 Si / 1000 Ang^3
#
#
#
# Elastic Constant Matrix: (Units=GPa)
#
#
# Indices 1 2 3 4 5 6 
#
# 1 72.5137 28.4636 37.9423 0.0000 0.0000 0.0000
# 2 28.4636 53.3045 39.6290 0.0000 0.0000 0.0000
# 3 37.9423 39.6290 133.6547 0.0000 0.0000 0.0000
# 4 0.0000 0.0000 0.0000 19.2567 0.0000 0.0000
# 5 0.0000 0.0000 0.0000 0.0000 16.5741 0.0000
# 6 0.0000 0.0000 0.0000 0.0000 0.0000 28.7546
#
#
#
# Elastic Compliance Matrix: (Units=1/GPa)
#
#
# Indices 1 2 3 4 5 6 
#
# 1 0.018311 -0.007585 -0.002949 0.000000 0.000000 0.000000
# 2 -0.007585 0.027207 -0.005914 0.000000 0.000000 0.000000
# 3 -0.002949 -0.005914 0.010073 0.000000 0.000000 0.000000
# 4 0.000000 0.000000 0.000000 0.051930 0.000000 0.000000
# 5 0.000000 0.000000 0.000000 0.000000 0.060335 0.000000
# 6 0.000000 0.000000 0.000000 0.000000 0.000000 0.034777
#
#
# Mechanical properties :
#
#
# Convention : Reuss Voigt Hill
#
# Bulk Modulus (GPa) = 44.06338 52.39364 48.22851
# Shear Modulus (GPa) = 20.56823 23.14629 21.85726
#
# Velocity S-wave (km/s) = 3.52701 3.74152 3.63585
# Velocity P-wave (km/s) = 6.57542 7.09601 6.84067
#
# Compressibility (1/GPa) = 0.02269458
#
# Stress axis : x y z
#
# Youngs Moduli (GPa) = 54.61188 36.75532 99.27937
#
# Poissons Ratio (x) = 0.27880 0.29279
# Poissons Ratio (y) = 0.41424 0.58710
# Poissons Ratio (z) = 0.16106 0.21736
#
# Static dielectric constant tensor:
#      x y z
#    x 1.568280 0.000000 0.000000 
#    y 0.000000 1.570070 0.000000 
#    z 0.000000 0.000000 1.582810 
# 
# From -- ./inp_files/4883.got.cif
#   From: 2010.05.17/outbox.cif.g08.bks.cpg/sg49_3_cif.got.tgz:4883.got - 2010.06.03 21:02:19.
