data_PCOD9392129
_publ_section_title
;
Structure prediction by ZEFSAII (Michael W. Deem and Ramdas Pophale) SiO2 
 PCOD9392129
Probable space group: P C C M
;
_chemical_formula_sum "Si O2"
_cell_formula_units_Z 40
_cell_length_a 19.878863
_cell_length_b 14.258797
_cell_length_c 8.764387
_cell_angle_alpha 90.000000
_cell_angle_beta 90.000000
_cell_angle_gamma 90.000000
_cell_volume 2484.253857
_symmetry_space_group_name_H-M "P C C M"
_symmetry_group_IT_number 49
_symmetry_cell_setting 'orthorhombic'
loop_
_space_group_symop_operation_xyz
x,y,z
-x,-y,z
x,-y,1/2-z
-x,y,1/2-z
-x,-y,-z
x,y,-z
-x,y,1/2+z
x,-y,1/2+z
loop_
_atom_site_type_symbol
_atom_site_label
_atom_site_fract_x
_atom_site_fract_y
_atom_site_fract_z
Si Si1 0.568539 0.105879 0.316143
Si Si2 0.928416 0.604622 0.817673
Si Si3 0.827100 0.745147 0.675588
Si Si4 0.288687 0.893236 0.814788
Si Si5 0.928622 0.913076 0.672103
O O1 0.500000 0.150869 0.250000
O O2 0.567735 0.104950 0.500000
O O3 0.639361 0.141025 0.250413
O O4 0.567907 0.000000 0.250000
O O5 0.922842 0.500000 0.750000
O O6 0.861031 0.661231 0.770131
O O7 0.000000 0.643091 0.750000
O O8 0.934632 0.602857 0.000000
O O9 0.813995 0.714956 0.500000
O O10 0.764960 0.811540 0.726819
O O11 0.887146 0.819884 0.675726
O O12 0.276342 0.000000 0.750000
O O13 0.289561 0.900909 0.000000
O O14 0.939074 0.941130 0.500000
O O15 0.000000 0.900030 0.750000
O O16 0.891398 0.000000 0.750000
#
# Coordination Sequence:
#
# PCOD9392129 Si02
#       5
#     8   8   8   8   8
#     4  10  17  27  43  63  89 123 164 202 236 275
#     4  11  22  37  57  75  94 118 151 195 243 292
#     4  10  21  34  48  68  94 122 154 191 235 282
#     4  10  19  31  46  67  98 132 164 199 235 277
#     4  10  19  30  43  60  84 116 152 189 223 263
#
# _framework density 16.101413999999998
#
# number of rings (size 3 to 8) (size 9 to 14) (size 15 to 20)
#    0.000    1.800    0.000    9.000    0.000    4.800 
#    0.000    0.000    0.000    0.000    0.000    0.000 
#    0.000    0.800    0.000    8.400    0.000    3.600 
#
# Total GULP energy -222689.403361 kJ/mol
# GULP energy per Si atom -5567.235084 kJ/mol
# Density = 1.606477 g / cm^3
# Si number density = 16.101414 Si / 1000 Ang^3
#
#
#
# Elastic Constant Matrix: (Units=GPa)
#
#
# Indices 1 2 3 4 5 6 
#
# 1 125.1356 40.1268 48.3674 0.0000 0.0000 0.0000
# 2 40.1268 52.1129 32.9168 0.0000 0.0000 0.0000
# 3 48.3674 32.9168 120.3308 0.0000 0.0000 0.0000
# 4 0.0000 0.0000 0.0000 -7.6521 0.0000 0.0000
# 5 0.0000 0.0000 0.0000 0.0000 26.0491 0.0000
# 6 0.0000 0.0000 0.0000 0.0000 0.0000 -1.6089
#
#
#
# Elastic Compliance Matrix: (Units=1/GPa)
#
#
# Indices 1 2 3 4 5 6 
#
# 1 0.011247 -0.007017 -0.002601 0.000000 0.000000 0.000000
# 2 -0.007017 0.027575 -0.004723 0.000000 0.000000 0.000000
# 3 -0.002601 -0.004723 0.010648 0.000000 0.000000 0.000000
# 4 0.000000 0.000000 0.000000 -0.130683 0.000000 0.000000
# 5 0.000000 0.000000 0.000000 0.000000 0.038389 0.000000
# 6 0.000000 0.000000 0.000000 0.000000 0.000000 -0.621551
#
#
# Mechanical properties :
#
#
# Convention : Reuss Voigt Hill
#
# Bulk Modulus (GPa) = 48.10448 60.04459 54.07454
# Shear Modulus (GPa) = -7.95211 15.10217 3.57503
#
# Velocity S-wave (km/s) = -2.22474 3.06590 1.49169
# Velocity P-wave (km/s) = 4.83130 7.06438 6.05173
#
# Compressibility (1/GPa) = 0.02078808
#
# Stress axis : x y z
#
# Youngs Moduli (GPa) = 88.91357 36.26435 93.91516
#
# Poissons Ratio (x) = 0.25447 0.24429
# Poissons Ratio (y) = 0.62391 0.44354
# Poissons Ratio (z) = 0.23128 0.17127
#
# Static dielectric constant tensor:
#      x y z
#    x 1.602980 0.000000 0.000000 
#    y 0.000000 1.553010 0.000000 
#    z 0.000000 0.000000 1.554220 
# 
# From -- ./inp_files/5639.got.cif
#   From: 2010.05.17/outbox.cif.g08.bks.cpg/sg49_3_cif.got.tgz:5639.got - 2010.06.03 21:02:19.
