data_PCOD9392536
_publ_section_title
;
Structure prediction by ZEFSAII (Michael W. Deem and Ramdas Pophale) SiO2 
 PCOD9392536
Probable space group: P C C M
;
_chemical_formula_sum "Si O2"
_cell_formula_units_Z 48
_cell_length_a 9.179057
_cell_length_b 14.875548
_cell_length_c 15.687072
_cell_angle_alpha 90.000000
_cell_angle_beta 90.000000
_cell_angle_gamma 90.000000
_cell_volume 2141.967763
_symmetry_space_group_name_H-M "P C C M"
_symmetry_group_IT_number 49
_symmetry_cell_setting 'orthorhombic'
loop_
_space_group_symop_operation_xyz
x,y,z
-x,-y,z
x,-y,1/2-z
-x,y,1/2-z
-x,-y,-z
x,y,-z
-x,y,1/2+z
x,-y,1/2+z
loop_
_atom_site_type_symbol
_atom_site_label
_atom_site_fract_x
_atom_site_fract_y
_atom_site_fract_z
Si Si1 0.313827 0.304678 0.401295
Si Si2 0.062111 0.594461 0.845406
Si Si3 0.882854 0.243609 0.401349
Si Si4 0.340699 0.036577 0.897132
Si Si5 0.596944 0.764077 0.166016
Si Si6 0.139606 0.875797 0.103514
O O1 0.280872 0.318249 0.500000
O O2 0.234913 0.384743 0.350246
O O3 0.486505 0.291226 0.392780
O O4 0.247248 0.206906 0.374486
O O5 0.000000 0.500000 0.877963
O O6 0.000000 0.602719 0.750000
O O7 0.997978 0.676007 0.900016
O O8 0.834120 0.230205 0.500000
O O9 0.756699 0.277885 0.338185
O O10 0.977319 0.156398 0.371508
O O11 0.351238 0.137968 0.865697
O O12 0.500000 0.000000 0.873730
O O13 0.214550 0.968165 0.866101
O O14 0.330716 0.036997 0.000000
O O15 0.500000 0.771626 0.250000
O O16 0.133883 0.881009 0.000000
#
# Coordination Sequence:
#
# PCOD9392536 Si02
#       6
#     8   8   8   8   8   8
#     4  10  19  36  60  84 113 156 205 243 295 365
#     4  10  21  39  64  92 124 158 192 243 315 386
#     4  10  21  38  61  90 124 160 210 262 309 366
#     4  10  18  33  58  84 115 157 210 253 296 362
#     4  12  24  36  54  85 125 166 201 258 320 370
#     4   8  16  32  56  85 113 152 200 253 298 350
#
# _framework density 22.409299000000001
#
# number of rings (size 3 to 8) (size 9 to 14) (size 15 to 20)
#    0.000    2.000    1.667    4.000    0.000    2.333 
#    0.000    3.333    0.000    5.000    4.333    0.000 
#    0.000    0.000    0.000    0.167    0.000    0.000 
#
# Total GULP energy -267600.509650 kJ/mol
# GULP energy per Si atom -5575.010618 kJ/mol
# Density = 2.235829 g / cm^3
# Si number density = 22.409299 Si / 1000 Ang^3
#
#
#
# Elastic Constant Matrix: (Units=GPa)
#
#
# Indices 1 2 3 4 5 6 
#
# 1 149.2819 35.8263 34.1664 0.0000 0.0000 0.0000
# 2 35.8263 91.8649 9.8430 0.0000 0.0000 0.0000
# 3 34.1664 9.8430 51.0416 0.0000 0.0000 0.0000
# 4 0.0000 0.0000 0.0000 48.9285 0.0000 0.0000
# 5 0.0000 0.0000 0.0000 0.0000 24.8046 0.0000
# 6 0.0000 0.0000 0.0000 0.0000 0.0000 32.9671
#
#
#
# Elastic Compliance Matrix: (Units=1/GPa)
#
#
# Indices 1 2 3 4 5 6 
#
# 1 0.008554 -0.002780 -0.005190 0.000000 0.000000 0.000000
# 2 -0.002780 0.012019 -0.000457 0.000000 0.000000 0.000000
# 3 -0.005190 -0.000457 0.023154 0.000000 0.000000 0.000000
# 4 0.000000 0.000000 0.000000 0.020438 0.000000 0.000000
# 5 0.000000 0.000000 0.000000 0.000000 0.040315 0.000000
# 6 0.000000 0.000000 0.000000 0.000000 0.000000 0.030333
#
#
# Mechanical properties :
#
#
# Convention : Reuss Voigt Hill
#
# Bulk Modulus (GPa) = 37.21155 50.20664 43.70909
# Shear Modulus (GPa) = 31.12881 35.49688 33.31284
#
# Velocity S-wave (km/s) = 3.73111 3.98430 3.85978
# Velocity P-wave (km/s) = 5.93321 6.60448 6.27783
#
# Compressibility (1/GPa) = 0.02687338
#
# Stress axis : x y z
#
# Youngs Moduli (GPa) = 116.90984 83.20447 43.18942
#
# Poissons Ratio (x) = 0.23129 0.22414
# Poissons Ratio (y) = 0.32498 0.01974
# Poissons Ratio (z) = 0.60671 0.03802
#
# Static dielectric constant tensor:
#      x y z
#    x 2.115630 0.000000 0.000000 
#    y 0.000000 1.909880 0.000000 
#    z 0.000000 0.000000 1.866850 
# 
# From -- ./inp_files/16348.got.cif
#   From: 2010.05.17/outbox.cif.g08.bks.cpg/sg49_9_cif.got.tgz:16348.got - 2010.06.03 21:02:19.
