data_PCOD9392247
_publ_section_title
;
Structure prediction by ZEFSAII (Michael W. Deem and Ramdas Pophale) SiO2 
 PCOD9392247
Probable space group: P C C M
;
_chemical_formula_sum "Si O2"
_cell_formula_units_Z 64
_cell_length_a 25.992422
_cell_length_b 14.942197
_cell_length_c 8.555305
_cell_angle_alpha 90.000000
_cell_angle_beta 90.000000
_cell_angle_gamma 90.000000
_cell_volume 3322.742636
_symmetry_space_group_name_H-M "P C C M"
_symmetry_group_IT_number 49
_symmetry_cell_setting 'orthorhombic'
loop_
_space_group_symop_operation_xyz
x,y,z
-x,-y,z
x,-y,1/2-z
-x,y,1/2-z
-x,-y,-z
x,y,-z
-x,y,1/2+z
x,-y,1/2+z
loop_
_atom_site_type_symbol
_atom_site_label
_atom_site_fract_x
_atom_site_fract_y
_atom_site_fract_z
Si Si1 0.252217 0.285669 0.690460
Si Si2 0.558833 0.091941 0.686338
Si Si3 0.785684 0.905176 0.312005
Si Si4 0.097429 0.095454 0.186649
Si Si5 0.349445 0.400578 0.311361
Si Si6 0.442205 0.720430 0.812631
Si Si7 0.152331 0.600835 0.811224
Si Si8 0.054970 0.279823 0.312396
O O1 0.252423 0.285420 0.500000
O O2 0.245623 0.182612 0.738631
O O3 0.303707 0.335309 0.742832
O O4 0.202395 0.342906 0.739957
O O5 0.500000 0.092596 0.750000
O O6 0.557894 0.090776 0.500000
O O7 0.580190 0.185437 0.749393
O O8 0.582915 0.000000 0.750000
O O9 0.787873 0.907800 0.500000
O O10 0.844026 0.895227 0.249449
O O11 0.765474 0.000000 0.250000
O O12 0.066442 0.180759 0.247681
O O13 0.077775 0.000000 0.250000
O O14 0.097855 0.093735 0.000000
O O15 0.341970 0.500000 0.250000
O O16 0.348136 0.402483 0.500000
O O17 0.404155 0.358751 0.264321
O O18 0.500000 0.708420 0.750000
O O19 0.444343 0.725828 0.000000
O O20 0.153461 0.500000 0.750000
O O21 0.101199 0.654522 0.762524
O O22 0.152935 0.598488 0.000000
O O23 0.054560 0.276043 0.500000
O O24 0.000000 0.311041 0.250000
#
# Coordination Sequence:
#
# PCOD9392247 Si02
#       8
#     8   8   8   8   8   8   8   8
#     4   9  18  37  61  84 114 149 181 229 284 336
#     4  10  17  28  49  77 109 145 184 229 274 326
#     4  10  18  33  57  85 118 151 186 225 276 333
#     4  11  21  35  57  85 116 151 191 232 278 336
#     4  10  22  39  60  84 112 147 189 237 292 340
#     4  10  20  35  55  81 113 152 193 235 283 340
#     4  10  21  38  60  83 110 144 186 232 285 338
#     4  11  23  40  58  82 115 152 190 237 287 336
#
# _framework density 19.261196999999999
#
# number of rings (size 3 to 8) (size 9 to 14) (size 15 to 20)
#    0.000    1.875    1.250    5.625    0.000    2.750 
#    0.000    5.625    0.000    1.500    0.000    0.000 
#    0.000    0.000    0.000    0.000    0.000    0.000 
#
# Total GULP energy -357401.017454 kJ/mol
# GULP energy per Si atom -5584.390898 kJ/mol
# Density = 1.921736 g / cm^3
# Si number density = 19.261197 Si / 1000 Ang^3
#
#
#
# Elastic Constant Matrix: (Units=GPa)
#
#
# Indices 1 2 3 4 5 6 
#
# 1 101.5116 70.4235 23.8314 0.0000 0.0000 0.0000
# 2 70.4235 147.0131 28.3666 0.0000 0.0000 0.0000
# 3 23.8314 28.3666 70.5405 0.0000 0.0000 0.0000
# 4 0.0000 0.0000 0.0000 35.3776 0.0000 0.0000
# 5 0.0000 0.0000 0.0000 0.0000 16.6686 0.0000
# 6 0.0000 0.0000 0.0000 0.0000 0.0000 33.0043
#
#
#
# Elastic Compliance Matrix: (Units=1/GPa)
#
#
# Indices 1 2 3 4 5 6 
#
# 1 0.015114 -0.006781 -0.002379 0.000000 0.000000 0.000000
# 2 -0.006781 0.010417 -0.001898 0.000000 0.000000 0.000000
# 3 -0.002379 -0.001898 0.015743 0.000000 0.000000 0.000000
# 4 0.000000 0.000000 0.000000 0.028266 0.000000 0.000000
# 5 0.000000 0.000000 0.000000 0.000000 0.059993 0.000000
# 6 0.000000 0.000000 0.000000 0.000000 0.000000 0.030299
#
#
# Mechanical properties :
#
#
# Convention : Reuss Voigt Hill
#
# Bulk Modulus (GPa) = 52.19890 62.70090 57.44990
# Shear Modulus (GPa) = 26.54850 30.10635 28.32742
#
# Velocity S-wave (km/s) = 3.71663 3.95784 3.83913
# Velocity P-wave (km/s) = 6.75109 7.31503 7.03871
#
# Compressibility (1/GPa) = 0.01915749
#
# Stress axis : x y z
#
# Youngs Moduli (GPa) = 66.16421 96.00070 63.51908
#
# Poissons Ratio (x) = 0.65097 0.15113
# Poissons Ratio (y) = 0.44865 0.12056
# Poissons Ratio (z) = 0.15742 0.18221
#
# Static dielectric constant tensor:
#      x y z
#    x 1.772540 0.000000 0.000000 
#    y 0.000000 1.677920 0.000000 
#    z 0.000000 0.000000 1.655490 
# 
# From -- ./inp_files/6505.got.cif
#   From: 2010.05.17/outbox.cif.g08.bks.cpg/sg49_4_cif.got.tgz:6505.got - 2010.06.03 21:02:19.
