data_PCOD9392059
_publ_section_title
;
Structure prediction by ZEFSAII (Michael W. Deem and Ramdas Pophale) SiO2 
 PCOD9392059
Probable space group: P C C M
;
_chemical_formula_sum "Si O2"
_cell_formula_units_Z 32
_cell_length_a 5.359494
_cell_length_b 7.152679
_cell_length_c 35.879108
_cell_angle_alpha 90.000000
_cell_angle_beta 90.000000
_cell_angle_gamma 90.000000
_cell_volume 1375.416283
_symmetry_space_group_name_H-M "P C C M"
_symmetry_group_IT_number 49
_symmetry_cell_setting 'orthorhombic'
loop_
_space_group_symop_operation_xyz
x,y,z
-x,-y,z
x,-y,1/2-z
-x,y,1/2-z
-x,-y,-z
x,y,-z
-x,y,1/2+z
x,-y,1/2+z
loop_
_atom_site_type_symbol
_atom_site_label
_atom_site_fract_x
_atom_site_fract_y
_atom_site_fract_z
Si Si1 0.250198 0.623602 0.351384
Si Si2 0.441306 0.784037 0.425536
Si Si3 0.247899 0.714419 0.266217
Si Si4 0.055359 0.777889 0.042621
O O1 0.500000 0.500000 0.349632
O O2 0.314970 0.763581 0.385025
O O3 0.231160 0.713718 0.310640
O O4 0.000000 0.500000 0.357447
O O5 0.721449 0.704816 0.430916
O O6 0.223919 0.700178 0.451547
O O7 0.500000 0.000000 0.434549
O O8 0.248737 0.500000 0.250000
O O9 0.500000 0.796439 0.250000
O O10 0.000000 0.800528 0.250000
O O11 0.137598 0.755057 0.000000
O O12 0.000000 0.000000 0.049111
#
# Coordination Sequence:
#
# PCOD9392059 Si02
#       4
#     8   8   8   8
#     4  12  21  33  55  81 109 141 179 228 273 325
#     4  10  21  35  53  82 112 138 174 226 280 325
#     4  10  16  30  49  76 102 128 176 228 256 294
#     4   9  17  33  57  79 101 139 188 225 255 314
#
# _framework density 23.265681000000001
#
# number of rings (size 3 to 8) (size 9 to 14) (size 15 to 20)
#    0.000    1.750    5.000    2.250    0.000    3.000 
#    0.000    0.000    0.000   15.750    0.000    3.500 
#    0.000    0.000    0.000    0.000    0.000    0.000 
#
# Total GULP energy -178492.703677 kJ/mol
# GULP energy per Si atom -5577.896990 kJ/mol
# Density = 2.321273 g / cm^3
# Si number density = 23.265681 Si / 1000 Ang^3
#
#
#
# Elastic Constant Matrix: (Units=GPa)
#
#
# Indices 1 2 3 4 5 6 
#
# 1 258.1556 19.7007 59.1197 0.0000 0.0000 0.0000
# 2 19.7007 60.9014 -21.3515 0.0000 0.0000 0.0000
# 3 59.1197 -21.3515 103.1323 0.0000 0.0000 0.0000
# 4 0.0000 0.0000 0.0000 25.0692 0.0000 0.0000
# 5 0.0000 0.0000 0.0000 0.0000 45.3841 0.0000
# 6 0.0000 0.0000 0.0000 0.0000 0.0000 -9.7330
#
#
#
# Elastic Compliance Matrix: (Units=1/GPa)
#
#
# Indices 1 2 3 4 5 6 
#
# 1 0.004850 -0.002742 -0.003348 0.000000 0.000000 0.000000
# 2 -0.002742 0.019256 0.005559 0.000000 0.000000 0.000000
# 3 -0.003348 0.005559 0.012766 0.000000 0.000000 0.000000
# 4 0.000000 0.000000 0.000000 0.039890 0.000000 0.000000
# 5 0.000000 0.000000 0.000000 0.000000 0.022034 0.000000
# 6 0.000000 0.000000 0.000000 0.000000 0.000000 -0.102743
#
#
# Mechanical properties :
#
#
# Convention : Reuss Voigt Hill
#
# Bulk Modulus (GPa) = 27.92626 59.68079 43.80352
# Shear Modulus (GPa) = 552.38121 36.45875 294.41998
#
# Velocity S-wave (km/s) = 15.42526 3.96291 11.26151
# Velocity P-wave (km/s) = 18.14609 6.82986 13.70999
#
# Compressibility (1/GPa) = 0.03580859
#
# Stress axis : x y z
#
# Youngs Moduli (GPa) = 206.20336 51.93198 78.33209
#
# Poissons Ratio (x) = 0.14242 0.26224
# Poissons Ratio (y) = 0.56551 -0.43542
# Poissons Ratio (z) = 0.69032 -0.28867
#
# Static dielectric constant tensor:
#      x y z
#    x 1.856390 0.000000 0.000000 
#    y 0.000000 1.897670 0.000000 
#    z 0.000000 0.000000 2.183820 
# 
# From -- ./inp_files/25452.got.cif
#   From: 2010.05.17/outbox.cif.g08.bks.cpg/sg49_13_cif.got.tgz:25452.got - 2010.06.03 21:02:19.
