data_PCOD9392507
_publ_section_title
;
Structure prediction by ZEFSAII (Michael W. Deem and Ramdas Pophale) SiO2 
 PCOD9392507
Probable space group: P C C M
;
_chemical_formula_sum "Si O2"
_cell_formula_units_Z 64
_cell_length_a 32.080368
_cell_length_b 14.711840
_cell_length_c 8.601671
_cell_angle_alpha 90.000000
_cell_angle_beta 90.000000
_cell_angle_gamma 90.000000
_cell_volume 4059.655321
_symmetry_space_group_name_H-M "P C C M"
_symmetry_group_IT_number 49
_symmetry_cell_setting 'orthorhombic'
loop_
_space_group_symop_operation_xyz
x,y,z
-x,-y,z
x,-y,1/2-z
-x,y,1/2-z
-x,-y,-z
x,y,-z
-x,y,1/2+z
x,-y,1/2+z
loop_
_atom_site_type_symbol
_atom_site_label
_atom_site_fract_x
_atom_site_fract_y
_atom_site_fract_z
Si Si1 0.954633 0.601542 0.312760
Si Si2 0.125759 0.286923 0.310776
Si Si3 0.744110 0.097612 0.314621
Si Si4 0.365038 0.396848 0.186858
Si Si5 0.542376 0.397052 0.314567
Si Si6 0.711495 0.718648 0.686604
Si Si7 0.837939 0.902562 0.313102
Si Si8 0.792598 0.398158 0.187666
O O1 0.946193 0.500000 0.250000
O O2 0.955829 0.598349 0.500000
O O3 0.917600 0.668299 0.261425
O O4 0.000000 0.628988 0.250000
O O5 0.125951 0.287744 0.500000
O O6 0.134288 0.183209 0.263241
O O7 0.165102 0.348023 0.260126
O O8 0.746201 0.094241 0.500000
O O9 0.716419 0.181530 0.258190
O O10 0.790854 0.112107 0.247772
O O11 0.729817 0.000000 0.250000
O O12 0.360800 0.500000 0.250000
O O13 0.411668 0.361144 0.227319
O O14 0.329253 0.334111 0.256667
O O15 0.361624 0.399781 0.000000
O O16 0.542888 0.500000 0.250000
O O17 0.500000 0.352863 0.250000
O O18 0.539309 0.400318 0.500000
O O19 0.711684 0.725171 0.500000
O O20 0.752222 0.660096 0.734836
O O21 0.836343 0.905400 0.500000
O O22 0.852314 0.000000 0.250000
O O23 0.790349 0.500000 0.250000
O O24 0.793066 0.400939 0.000000
#
# Coordination Sequence:
#
# PCOD9392507 Si02
#       8
#     8   8   8   8   8   8   8   8
#     4  10  19  33  52  73  97 127 156 192 236 279
#     4   9  18  33  51  69  96 127 155 193 240 282
#     4  11  21  34  52  73  96 124 160 201 244 289
#     4  10  20  32  45  66  96 132 170 206 247 294
#     4   9  16  26  42  62  87 119 160 207 249 290
#     4  11  21  34  50  67  95 131 165 201 242 286
#     4  10  18  33  52  73  98 123 156 195 240 287
#     4  10  20  33  46  65  93 126 160 195 231 274
#
# _framework density 15.764885
#
# number of rings (size 3 to 8) (size 9 to 14) (size 15 to 20)
#    0.000    2.000    1.250    5.250    0.000    3.500 
#    0.000    3.125    0.000    0.375    0.000    2.625 
#    0.000    0.500    0.000    5.250    0.000    2.875 
#
# Total GULP energy -357022.649789 kJ/mol
# GULP energy per Si atom -5578.478903 kJ/mol
# Density = 1.572900 g / cm^3
# Si number density = 15.764885 Si / 1000 Ang^3
#
#
#
# Elastic Constant Matrix: (Units=GPa)
#
#
# Indices 1 2 3 4 5 6 
#
# 1 135.3276 78.8833 38.6174 0.0000 0.0000 0.0000
# 2 78.8833 121.1791 35.1678 0.0000 0.0000 0.0000
# 3 38.6174 35.1678 60.2931 0.0000 0.0000 0.0000
# 4 0.0000 0.0000 0.0000 21.8414 0.0000 0.0000
# 5 0.0000 0.0000 0.0000 0.0000 6.8256 0.0000
# 6 0.0000 0.0000 0.0000 0.0000 0.0000 6.2830
#
#
#
# Elastic Compliance Matrix: (Units=1/GPa)
#
#
# Indices 1 2 3 4 5 6 
#
# 1 0.012652 -0.007083 -0.003972 0.000000 0.000000 0.000000
# 2 -0.007083 0.013899 -0.003571 0.000000 0.000000 0.000000
# 3 -0.003972 -0.003571 0.021212 0.000000 0.000000 0.000000
# 4 0.000000 0.000000 0.000000 0.045785 0.000000 0.000000
# 5 0.000000 0.000000 0.000000 0.000000 0.146508 0.000000
# 6 0.000000 0.000000 0.000000 0.000000 0.000000 0.159159
#
#
# Mechanical properties :
#
#
# Convention : Reuss Voigt Hill
#
# Bulk Modulus (GPa) = 54.01841 69.12630 61.57236
# Shear Modulus (GPa) = 11.50386 17.93209 14.71797
#
# Velocity S-wave (km/s) = 2.70425 3.37630 3.05879
# Velocity P-wave (km/s) = 6.64003 7.69043 7.18445
#
# Compressibility (1/GPa) = 0.01851221
#
# Stress axis : x y z
#
# Youngs Moduli (GPa) = 79.04079 71.94607 47.14258
#
# Poissons Ratio (x) = 0.50960 0.18725
# Poissons Ratio (y) = 0.55985 0.16832
# Poissons Ratio (z) = 0.31394 0.25688
#
# Static dielectric constant tensor:
#      x y z
#    x 1.539040 0.000000 0.000000 
#    y 0.000000 1.507950 0.000000 
#    z 0.000000 0.000000 1.536430 
# 
# From -- ./inp_files/7052.got.cif
#   From: 2010.05.17/outbox.cif.g08.bks.cpg/sg49_4_cif.got.tgz:7052.got - 2010.06.03 21:02:19.
