data_PCOD9392550
_publ_section_title
;
Structure prediction by ZEFSAII (Michael W. Deem and Ramdas Pophale) SiO2 
 PCOD9392550
Probable space group: P C C M
;
_chemical_formula_sum "Si O2"
_cell_formula_units_Z 40
_cell_length_a 7.158200
_cell_length_b 10.428116
_cell_length_c 25.004710
_cell_angle_alpha 90.000000
_cell_angle_beta 90.000000
_cell_angle_gamma 90.000000
_cell_volume 1866.515084
_symmetry_space_group_name_H-M "P C C M"
_symmetry_group_IT_number 49
_symmetry_cell_setting 'orthorhombic'
loop_
_space_group_symop_operation_xyz
x,y,z
-x,-y,z
x,-y,1/2-z
-x,y,1/2-z
-x,-y,-z
x,y,-z
-x,y,1/2+z
x,-y,1/2+z
loop_
_atom_site_type_symbol
_atom_site_label
_atom_site_fract_x
_atom_site_fract_y
_atom_site_fract_z
Si Si1 0.338976 0.892646 0.058613
Si Si2 0.808108 0.722737 0.820569
Si Si3 0.251205 0.716940 0.201609
Si Si4 0.510322 0.361951 0.605980
Si Si5 0.790512 0.014105 0.830657
O O1 0.436529 0.756840 0.071390
O O2 0.211288 0.934180 0.108381
O O3 0.500000 0.000000 0.058373
O O4 0.248919 0.889815 0.000000
O O5 0.741491 0.672402 0.762736
O O6 0.719046 0.653801 0.871119
O O7 0.033365 0.715367 0.817445
O O8 0.727492 0.867901 0.827492
O O9 0.379378 0.644367 0.159340
O O10 0.303367 0.869211 0.200777
O O11 0.500000 0.500000 0.579261
O O12 0.000000 0.000000 0.810110
#
# Coordination Sequence:
#
# PCOD9392550 Si02
#       5
#     8   8   8   8   8
#     4  10  20  37  59  81 103 135 184 231 278 328
#     4  10  18  34  53  79 116 145 177 224 262 312
#     4   9  20  32  53  82 110 148 185 214 262 323
#     4  11  23  37  54  79 111 147 183 221 271 322
#     4   9  17  32  54  83 110 139 175 225 278 321
#
# _framework density 21.430309999999999
#
# number of rings (size 3 to 8) (size 9 to 14) (size 15 to 20)
#    0.000    2.200    2.000    1.200    0.000    5.600 
#    0.000    4.000    0.000    0.000    0.000    5.600 
#    0.000    0.000    0.000    0.000    0.000    0.000 
#
# Total GULP energy -223126.339064 kJ/mol
# GULP energy per Si atom -5578.158477 kJ/mol
# Density = 2.138153 g / cm^3
# Si number density = 21.430310 Si / 1000 Ang^3
#
#
#
# Elastic Constant Matrix: (Units=GPa)
#
#
# Indices 1 2 3 4 5 6 
#
# 1 61.0820 3.7002 1.1918 0.0000 0.0000 0.0000
# 2 3.7002 104.5103 4.1968 0.0000 0.0000 0.0000
# 3 1.1918 4.1968 100.3316 0.0000 0.0000 0.0000
# 4 0.0000 0.0000 0.0000 -7.4134 0.0000 0.0000
# 5 0.0000 0.0000 0.0000 0.0000 8.2594 0.0000
# 6 0.0000 0.0000 0.0000 0.0000 0.0000 20.5321
#
#
#
# Elastic Compliance Matrix: (Units=1/GPa)
#
#
# Indices 1 2 3 4 5 6 
#
# 1 0.016410 -0.000574 -0.000171 0.000000 0.000000 0.000000
# 2 -0.000574 0.009605 -0.000395 0.000000 0.000000 0.000000
# 3 -0.000171 -0.000395 0.009985 0.000000 0.000000 0.000000
# 4 0.000000 0.000000 0.000000 -0.134890 0.000000 0.000000
# 5 0.000000 0.000000 0.000000 0.000000 0.121074 0.000000
# 6 0.000000 0.000000 0.000000 0.000000 0.000000 0.048704
#
#
# Mechanical properties :
#
#
# Convention : Reuss Voigt Hill
#
# Bulk Modulus (GPa) = 29.65620 31.56683 30.61151
# Shear Modulus (GPa) = 59.23671 21.39796 40.31733
#
# Velocity S-wave (km/s) = 5.26323 3.16332 4.34213
# Velocity P-wave (km/s) = 7.12769 5.30133 6.28124
#
# Compressibility (1/GPa) = 0.03371976
#
# Stress axis : x y z
#
# Youngs Moduli (GPa) = 60.94009 104.11652 100.14521
#
# Poissons Ratio (x) = 0.05978 0.01712
# Poissons Ratio (y) = 0.03499 0.03955
# Poissons Ratio (z) = 0.01041 0.04112
#
# Static dielectric constant tensor:
#      x y z
#    x 1.800210 0.000000 0.000000 
#    y 0.000000 1.848120 0.000000 
#    z 0.000000 0.000000 1.774860 
# 
# From -- ./inp_files/22198.got.cif
#   From: 2010.05.17/outbox.cif.g08.bks.cpg/sg49_12_cif.got.tgz:22198.got - 2010.06.03 21:02:19.
