data_PCOD9392373
_publ_section_title
;
Structure prediction by ZEFSAII (Michael W. Deem and Ramdas Pophale) SiO2 
 PCOD9392373
Probable space group: P C C M
;
_chemical_formula_sum "Si O2"
_cell_formula_units_Z 64
_cell_length_a 19.601499
_cell_length_b 24.289373
_cell_length_c 8.650365
_cell_angle_alpha 90.000000
_cell_angle_beta 90.000000
_cell_angle_gamma 90.000000
_cell_volume 4118.509022
_symmetry_space_group_name_H-M "P C C M"
_symmetry_group_IT_number 49
_symmetry_cell_setting 'orthorhombic'
loop_
_space_group_symop_operation_xyz
x,y,z
-x,-y,z
x,-y,1/2-z
-x,y,1/2-z
-x,-y,-z
x,y,-z
-x,y,1/2+z
x,-y,1/2+z
loop_
_atom_site_type_symbol
_atom_site_label
_atom_site_fract_x
_atom_site_fract_y
_atom_site_fract_z
Si Si1 0.924413 0.275700 0.315116
Si Si2 0.799621 0.663513 0.686021
Si Si3 0.572911 0.611427 0.814914
Si Si4 0.290221 0.440551 0.685968
Si Si5 0.158060 0.166853 0.814041
Si Si6 0.076059 0.940397 0.313793
Si Si7 0.282894 0.773552 0.185573
Si Si8 0.427884 0.264339 0.313783
O O1 0.926776 0.275439 0.500000
O O2 0.872667 0.322834 0.258337
O O3 0.890539 0.217581 0.262521
O O4 0.000000 0.281488 0.250000
O O5 0.805733 0.663993 0.500000
O O6 0.763621 0.606835 0.732114
O O7 0.750330 0.714568 0.730096
O O8 0.500000 0.591537 0.750000
O O9 0.636154 0.576428 0.752917
O O10 0.581319 0.673961 0.752647
O O11 0.571515 0.611716 0.000000
O O12 0.270705 0.500000 0.750000
O O13 0.294241 0.441313 0.500000
O O14 0.125804 0.109006 0.764849
O O15 0.233590 0.180368 0.754625
O O16 0.159066 0.167671 0.000000
O O17 0.073137 0.942302 0.500000
O O18 0.000000 0.929506 0.250000
O O19 0.097255 0.000000 0.250000
O O20 0.361987 0.771382 0.231612
O O21 0.280070 0.777234 0.000000
O O22 0.500000 0.243474 0.250000
O O23 0.430236 0.268323 0.500000
#
# Coordination Sequence:
#
# PCOD9392373 Si02
#       8
#     8   8   8   8   8   8   8   8
#     4  10  19  31  49  73  97 121 152 188 232 281
#     4   9  18  34  51  67  93 121 147 186 230 278
#     4  11  21  33  50  70  93 124 157 192 232 275
#     4  11  22  37  53  71  94 119 153 192 233 281
#     4   9  19  31  45  69  98 126 161 201 234 273
#     4  10  19  31  46  66  95 132 171 205 236 274
#     4   9  17  30  48  68  93 124 156 191 235 280
#     4  10  18  30  46  69  96 126 159 192 232 280
#
# _framework density 15.539604000000001
#
# number of rings (size 3 to 8) (size 9 to 14) (size 15 to 20)
#    0.000    2.125    1.250    4.125    0.000    3.750 
#    0.000    1.250    0.000    0.375    0.000    2.625 
#    0.000    0.500    0.000    5.500    0.000    4.000 
#
# Total GULP energy -357059.850080 kJ/mol
# GULP energy per Si atom -5579.060157 kJ/mol
# Density = 1.550424 g / cm^3
# Si number density = 15.539604 Si / 1000 Ang^3
#
#
#
# Elastic Constant Matrix: (Units=GPa)
#
#
# Indices 1 2 3 4 5 6 
#
# 1 130.4582 68.4963 35.8814 0.0000 0.0000 0.0000
# 2 68.4963 104.1254 31.3740 0.0000 0.0000 0.0000
# 3 35.8814 31.3740 51.6178 0.0000 0.0000 0.0000
# 4 0.0000 0.0000 0.0000 21.3876 0.0000 0.0000
# 5 0.0000 0.0000 0.0000 0.0000 26.5072 0.0000
# 6 0.0000 0.0000 0.0000 0.0000 0.0000 27.8658
#
#
#
# Elastic Compliance Matrix: (Units=1/GPa)
#
#
# Indices 1 2 3 4 5 6 
#
# 1 0.012517 -0.006871 -0.004525 0.000000 0.000000 0.000000
# 2 -0.006871 0.015528 -0.004662 0.000000 0.000000 0.000000
# 3 -0.004525 -0.004662 0.025353 0.000000 0.000000 0.000000
# 4 0.000000 0.000000 0.000000 0.046756 0.000000 0.000000
# 5 0.000000 0.000000 0.000000 0.000000 0.037726 0.000000
# 6 0.000000 0.000000 0.000000 0.000000 0.000000 0.035886
#
#
# Mechanical properties :
#
#
# Convention : Reuss Voigt Hill
#
# Bulk Modulus (GPa) = 46.98807 61.96718 54.47762
# Shear Modulus (GPa) = 23.47681 25.18212 24.32946
#
# Velocity S-wave (km/s) = 3.89108 4.02993 3.96111
# Velocity P-wave (km/s) = 7.10568 7.84966 7.48692
#
# Compressibility (1/GPa) = 0.02128200
#
# Stress axis : x y z
#
# Youngs Moduli (GPa) = 79.88922 64.39843 39.44382
#
# Poissons Ratio (x) = 0.44247 0.17849
# Poissons Ratio (y) = 0.54890 0.18390
# Poissons Ratio (z) = 0.36151 0.30024
#
# Static dielectric constant tensor:
#      x y z
#    x 1.516160 0.000000 0.000000 
#    y 0.000000 1.503600 0.000000 
#    z 0.000000 0.000000 1.523630 
# 
# From -- ./inp_files/6072.got.cif
#   From: 2010.05.17/outbox.cif.g08.bks.cpg/sg49_4_cif.got.tgz:6072.got - 2010.06.03 21:02:19.
