data_PCOD9392533
_publ_section_title
;
Structure prediction by ZEFSAII (Michael W. Deem and Ramdas Pophale) SiO2 
 PCOD9392533
Probable space group: P C C M
;
_chemical_formula_sum "Si O2"
_cell_formula_units_Z 48
_cell_length_a 8.982964
_cell_length_b 16.196417
_cell_length_c 16.066191
_cell_angle_alpha 90.000000
_cell_angle_beta 90.000000
_cell_angle_gamma 90.000000
_cell_volume 2337.499543
_symmetry_space_group_name_H-M "P C C M"
_symmetry_group_IT_number 49
_symmetry_cell_setting 'orthorhombic'
loop_
_space_group_symop_operation_xyz
x,y,z
-x,-y,z
x,-y,1/2-z
-x,y,1/2-z
-x,-y,-z
x,y,-z
-x,y,1/2+z
x,-y,1/2+z
loop_
_atom_site_type_symbol
_atom_site_label
_atom_site_fract_x
_atom_site_fract_y
_atom_site_fract_z
Si Si1 0.100012 0.648634 0.166136
Si Si2 0.146313 0.745263 0.591894
Si Si3 0.458552 0.718902 0.656287
Si Si4 0.716794 0.196842 0.900650
Si Si5 0.970644 0.092897 0.151074
Si Si6 0.623662 0.563250 0.403556
O O1 0.201644 0.731205 0.154128
O O2 0.220095 0.577191 0.145243
O O3 0.000000 0.641123 0.250000
O O4 0.972582 0.671128 0.099184
O O5 0.209420 0.748534 0.500000
O O6 0.283588 0.727197 0.650953
O O7 0.067844 0.832458 0.612087
O O8 0.500000 0.697475 0.750000
O O9 0.545649 0.800171 0.626204
O O10 0.531295 0.648551 0.599066
O O11 0.802804 0.115497 0.873812
O O12 0.735532 0.211702 0.000000
O O13 0.000000 0.096826 0.250000
O O14 0.000000 0.000000 0.122344
O O15 0.500000 0.500000 0.369030
O O16 0.657299 0.541969 0.500000
#
# Coordination Sequence:
#
# PCOD9392533 Si02
#       6
#     8   8   8   8   8   8
#     4  10  18  33  57  85 114 148 191 234 281 336
#     4  11  20  32  55  84 112 144 190 239 280 335
#     4  11  21  36  57  82 113 149 190 233 283 344
#     4  10  19  34  56  81 114 151 189 233 285 345
#     4  10  20  35  55  80 111 147 187 233 286 339
#     4  10  21  39  61  85 118 156 192 234 289 348
#
# _framework density 20.534763999999999
#
# number of rings (size 3 to 8) (size 9 to 14) (size 15 to 20)
#    0.000    1.667    0.000   10.500    0.000    1.667 
#    0.000    1.667    0.000   14.000    0.000    0.000 
#    0.000    5.333    0.000    0.000    0.000    0.000 
#
# Total GULP energy -267477.712432 kJ/mol
# GULP energy per Si atom -5572.452342 kJ/mol
# Density = 2.048803 g / cm^3
# Si number density = 20.534764 Si / 1000 Ang^3
#
#
#
# Elastic Constant Matrix: (Units=GPa)
#
#
# Indices 1 2 3 4 5 6 
#
# 1 133.2539 43.1989 18.6057 0.0000 0.0000 0.0000
# 2 43.1989 59.9851 11.2413 0.0000 0.0000 0.0000
# 3 18.6057 11.2413 98.7801 0.0000 0.0000 0.0000
# 4 0.0000 0.0000 0.0000 12.0336 0.0000 0.0000
# 5 0.0000 0.0000 0.0000 0.0000 26.7198 0.0000
# 6 0.0000 0.0000 0.0000 0.0000 0.0000 35.7723
#
#
#
# Elastic Compliance Matrix: (Units=1/GPa)
#
#
# Indices 1 2 3 4 5 6 
#
# 1 0.009901 -0.006928 -0.001076 0.000000 0.000000 0.000000
# 2 -0.006928 0.021883 -0.001185 0.000000 0.000000 0.000000
# 3 -0.001076 -0.001185 0.010461 0.000000 0.000000 0.000000
# 4 0.000000 0.000000 0.000000 0.083100 0.000000 0.000000
# 5 0.000000 0.000000 0.000000 0.000000 0.037425 0.000000
# 6 0.000000 0.000000 0.000000 0.000000 0.000000 0.027955
#
#
# Mechanical properties :
#
#
# Convention : Reuss Voigt Hill
#
# Bulk Modulus (GPa) = 41.90365 48.67896 45.29130
# Shear Modulus (GPa) = 23.03510 29.50336 26.26923
#
# Velocity S-wave (km/s) = 3.35290 3.79456 3.58055
# Velocity P-wave (km/s) = 5.95313 6.55403 6.26080
#
# Compressibility (1/GPa) = 0.02386427
#
# Stress axis : x y z
#
# Youngs Moduli (GPa) = 101.00119 45.69851 95.59198
#
# Poissons Ratio (x) = 0.31662 0.10290
# Poissons Ratio (y) = 0.69979 0.11330
# Poissons Ratio (z) = 0.10872 0.05416
#
# Static dielectric constant tensor:
#      x y z
#    x 1.805850 0.000000 0.000000 
#    y 0.000000 1.771830 0.000000 
#    z 0.000000 0.000000 1.769670 
# 
# From -- ./inp_files/11822.got.cif
#   From: 2010.05.17/outbox.cif.g08.bks.cpg/sg49_6_cif.got.tgz:11822.got - 2010.06.03 21:02:19.
