data_PCOD9392414
_publ_section_title
;
Structure prediction by ZEFSAII (Michael W. Deem and Ramdas Pophale) SiO2 
 PCOD9392414
Probable space group: P C C M
;
_chemical_formula_sum "Si O2"
_cell_formula_units_Z 48
_cell_length_a 11.956482
_cell_length_b 12.527335
_cell_length_c 15.021993
_cell_angle_alpha 90.000000
_cell_angle_beta 90.000000
_cell_angle_gamma 90.000000
_cell_volume 2250.037006
_symmetry_space_group_name_H-M "P C C M"
_symmetry_group_IT_number 49
_symmetry_cell_setting 'orthorhombic'
loop_
_space_group_symop_operation_xyz
x,y,z
-x,-y,z
x,-y,1/2-z
-x,y,1/2-z
-x,-y,-z
x,y,-z
-x,y,1/2+z
x,-y,1/2+z
loop_
_atom_site_type_symbol
_atom_site_label
_atom_site_fract_x
_atom_site_fract_y
_atom_site_fract_z
Si Si1 0.877174 0.034721 0.891664
Si Si2 0.500626 0.124041 0.608703
Si Si3 0.918853 0.650691 0.099371
Si Si4 0.731373 0.231197 0.108018
Si Si5 0.256103 0.175401 0.891423
Si Si6 0.150362 0.564300 0.840825
O O1 0.827508 0.147695 0.862130
O O2 0.791785 0.940557 0.867887
O O3 0.881274 0.038566 0.000000
O O4 0.000000 0.000000 0.860868
O O5 0.501077 0.122908 0.500000
O O6 0.387833 0.183446 0.635742
O O7 0.615508 0.180527 0.637869
O O8 0.500000 0.000000 0.636453
O O9 0.831354 0.734733 0.139336
O O10 0.860076 0.535339 0.092639
O O11 0.033285 0.628134 0.150935
O O12 0.951046 0.688693 0.000000
O O13 0.755377 0.349343 0.142010
O O14 0.734396 0.234179 0.000000
O O15 0.256377 0.182952 0.000000
O O16 0.160987 0.500000 0.750000
#
# Coordination Sequence:
#
# PCOD9392414 Si02
#       6
#     8   8   8   8   8   8
#     4   9  15  23  41  75 114 142 171 222 280 332
#     4   9  15  27  48  80 120 153 179 223 285 338
#     4  10  19  34  57  81 108 141 186 234 281 340
#     4  10  18  30  52  80 112 150 192 230 275 338
#     4   9  16  27  47  80 115 145 178 224 282 335
#     4  11  22  36  53  75 107 148 190 235 287 337
#
# _framework density 21.332981
#
# number of rings (size 3 to 8) (size 9 to 14) (size 15 to 20)
#    0.000    2.333    1.667    4.000    0.000    2.667 
#    0.000    0.833    0.000    8.000    0.000    7.000 
#    0.000    0.000    0.000    0.000    0.000    2.167 
#
# Total GULP energy -268086.868440 kJ/mol
# GULP energy per Si atom -5585.143092 kJ/mol
# Density = 2.128443 g / cm^3
# Si number density = 21.332981 Si / 1000 Ang^3
#
#
#
# Elastic Constant Matrix: (Units=GPa)
#
#
# Indices 1 2 3 4 5 6 
#
# 1 118.1915 63.1771 10.6820 0.0000 0.0000 0.0000
# 2 63.1771 129.3259 10.0475 0.0000 0.0000 0.0000
# 3 10.6820 10.0475 59.4573 0.0000 0.0000 0.0000
# 4 0.0000 0.0000 0.0000 -10.1126 0.0000 0.0000
# 5 0.0000 0.0000 0.0000 0.0000 -3.3150 0.0000
# 6 0.0000 0.0000 0.0000 0.0000 0.0000 46.0172
#
#
#
# Elastic Compliance Matrix: (Units=1/GPa)
#
#
# Indices 1 2 3 4 5 6 
#
# 1 0.011526 -0.005542 -0.001134 0.000000 0.000000 0.000000
# 2 -0.005542 0.010500 -0.000779 0.000000 0.000000 0.000000
# 3 -0.001134 -0.000779 0.017154 0.000000 0.000000 0.000000
# 4 0.000000 0.000000 0.000000 -0.098887 0.000000 0.000000
# 5 0.000000 0.000000 0.000000 0.000000 -0.301659 0.000000
# 6 0.000000 0.000000 0.000000 0.000000 0.000000 0.021731
#
#
# Mechanical properties :
#
#
# Convention : Reuss Voigt Hill
#
# Bulk Modulus (GPa) = 41.20311 52.75420 46.97865
# Shear Modulus (GPa) = -15.79113 21.38913 2.79900
#
# Velocity S-wave (km/s) = -2.72365 3.16987 1.14669
# Velocity P-wave (km/s) = 3.07655 6.17900 4.88084
#
# Compressibility (1/GPa) = 0.02427001
#
# Stress axis : x y z
#
# Youngs Moduli (GPa) = 86.76070 95.23404 58.29494
#
# Poissons Ratio (x) = 0.52783 0.06611
# Poissons Ratio (y) = 0.48087 0.04539
# Poissons Ratio (z) = 0.09840 0.07416
#
# Static dielectric constant tensor:
#      x y z
#    x 1.760600 0.000000 0.000000 
#    y 0.000000 1.735230 0.000000 
#    z 0.000000 0.000000 1.916570 
# 
# From -- ./inp_files/17046.got.cif
#   From: 2010.05.17/outbox.cif.g08.bks.cpg/sg49_9_cif.got.tgz:17046.got - 2010.06.03 21:02:19.
