data_PCOD9392576
_publ_section_title
;
Structure prediction by ZEFSAII (Michael W. Deem and Ramdas Pophale) SiO2 
 PCOD9392576
Probable space group: P C C M
;
_chemical_formula_sum "Si O2"
_cell_formula_units_Z 40
_cell_length_a 9.573896
_cell_length_b 7.208407
_cell_length_c 24.126359
_cell_angle_alpha 90.000000
_cell_angle_beta 90.000000
_cell_angle_gamma 90.000000
_cell_volume 1665.021290
_symmetry_space_group_name_H-M "P C C M"
_symmetry_group_IT_number 49
_symmetry_cell_setting 'orthorhombic'
loop_
_space_group_symop_operation_xyz
x,y,z
-x,-y,z
x,-y,1/2-z
-x,y,1/2-z
-x,-y,-z
x,y,-z
-x,y,1/2+z
x,-y,1/2+z
loop_
_atom_site_type_symbol
_atom_site_label
_atom_site_fract_x
_atom_site_fract_y
_atom_site_fract_z
Si Si1 0.574118 0.709251 0.000000
Si Si2 0.464603 0.276121 0.878300
Si Si3 0.784345 0.295730 0.692191
Si Si4 0.917568 0.792270 0.000000
Si Si5 0.281378 0.723826 0.187634
Si Si6 0.972932 0.217920 0.882617
O O1 0.500000 0.500000 0.000000
O O2 0.521436 0.787780 0.058557
O O3 0.746769 0.749230 0.000000
O O4 0.500000 0.500000 0.880799
O O5 0.312184 0.216354 0.856681
O O6 0.568020 0.208618 0.830444
O O7 0.771421 0.206996 0.752721
O O8 0.724125 0.502619 0.695089
O O9 0.938812 0.300888 0.668243
O O10 0.975509 0.711920 0.942082
O O11 0.000000 0.000000 0.000000
O O12 0.185920 0.755423 0.133936
O O13 0.000000 0.000000 0.880845
#
# Coordination Sequence:
#
# PCOD9392576 Si02
#       6
#     4   8   8   4   8   8
#     4  10  18  35  64  93 120 159 215 271 319 380
#     4   9  18  33  58  86 119 151 197 254 316 365
#     4  10  19  37  59  84 122 157 195 255 315 377
#     4  10  22  41  63  84 123 174 210 256 340 405
#     4  10  21  35  58  91 117 154 202 255 316 373
#     4  11  23  39  59  81 119 162 206 248 312 387
#
# _framework density 24.023717999999999
#
# number of rings (size 3 to 8) (size 9 to 14) (size 15 to 20)
#    0.000    2.000    2.000    1.800    0.000    6.400 
#    0.000    4.000    0.000    4.800    0.000    0.000 
#    0.000    0.000    0.000    0.000    0.000    0.000 
#
# Total GULP energy -222740.087006 kJ/mol
# GULP energy per Si atom -5568.502175 kJ/mol
# Density = 2.396904 g / cm^3
# Si number density = 24.023718 Si / 1000 Ang^3
#
#
#
# Elastic Constant Matrix: (Units=GPa)
#
#
# Indices 1 2 3 4 5 6 
#
# 1 58.0844 14.1643 3.8603 0.0000 0.0000 0.0000
# 2 14.1643 90.0005 12.0491 0.0000 0.0000 0.0000
# 3 3.8603 12.0491 171.3206 0.0000 0.0000 0.0000
# 4 0.0000 0.0000 0.0000 -10.9737 0.0000 0.0000
# 5 0.0000 0.0000 0.0000 0.0000 73.0972 0.0000
# 6 0.0000 0.0000 0.0000 0.0000 0.0000 -31.0124
#
#
#
# Elastic Compliance Matrix: (Units=1/GPa)
#
#
# Indices 1 2 3 4 5 6 
#
# 1 0.017911 -0.002791 -0.000207 0.000000 0.000000 0.000000
# 2 -0.002791 0.011652 -0.000757 0.000000 0.000000 0.000000
# 3 -0.000207 -0.000757 0.005895 0.000000 0.000000 0.000000
# 4 0.000000 0.000000 0.000000 -0.091127 0.000000 0.000000
# 5 0.000000 0.000000 0.000000 0.000000 0.013680 0.000000
# 6 0.000000 0.000000 0.000000 0.000000 0.000000 -0.032245
#
#
# Mechanical properties :
#
#
# Convention : Reuss Voigt Hill
#
# Bulk Modulus (GPa) = 35.78150 42.17255 38.97703
# Shear Modulus (GPa) = -87.09478 25.51100 -30.79189
#
# Velocity S-wave (km/s) = -6.02763 3.26223 -3.58401
# Velocity P-wave (km/s) = 5.78935 5.63757 0.93124
#
# Compressibility (1/GPa) = 0.02794740
#
# Stress axis : x y z
#
# Youngs Moduli (GPa) = 55.83250 85.82513 169.63846
#
# Poissons Ratio (x) = 0.23954 0.03516
# Poissons Ratio (y) = 0.15583 0.12834
# Poissons Ratio (z) = 0.01157 0.06493
#
# Static dielectric constant tensor:
#      x y z
#    x 1.618650 0.000000 0.000000 
#    y 0.000000 2.046900 0.000000 
#    z 0.000000 0.000000 1.705900 
# 
# From -- ./inp_files/24373.got.cif
#   From: 2010.05.17/outbox.cif.g08.bks.cpg/sg49_13_cif.got.tgz:24373.got - 2010.06.03 21:02:19.
