data_PCOD9392575
_publ_section_title
;
Structure prediction by ZEFSAII (Michael W. Deem and Ramdas Pophale) SiO2 
 PCOD9392575
Probable space group: P C C M
;
_chemical_formula_sum "Si O2"
_cell_formula_units_Z 64
_cell_length_a 13.290505
_cell_length_b 9.817314
_cell_length_c 27.578181
_cell_angle_alpha 90.000000
_cell_angle_beta 90.000000
_cell_angle_gamma 90.000000
_cell_volume 3598.319999
_symmetry_space_group_name_H-M "P C C M"
_symmetry_group_IT_number 49
_symmetry_cell_setting 'orthorhombic'
loop_
_space_group_symop_operation_xyz
x,y,z
-x,-y,z
x,-y,1/2-z
-x,y,1/2-z
-x,-y,-z
x,y,-z
-x,y,1/2+z
x,-y,1/2+z
loop_
_atom_site_type_symbol
_atom_site_label
_atom_site_fract_x
_atom_site_fract_y
_atom_site_fract_z
Si Si1 0.885063 0.156506 0.360616
Si Si2 0.316036 0.684785 0.877758
Si Si3 0.610545 0.347379 0.769530
Si Si4 0.602651 0.922918 0.556199
Si Si5 0.797109 0.159995 0.255581
Si Si6 0.111986 0.169599 0.653142
Si Si7 0.385802 0.458312 0.056868
Si Si8 0.731890 0.809135 0.055530
O O1 0.843235 0.192695 0.307609
O O2 0.816774 0.209766 0.404232
O O3 0.000029 0.205865 0.363624
O O4 0.879051 0.990653 0.360446
O O5 0.375165 0.657466 0.827619
O O6 0.373600 0.798778 0.908977
O O7 0.204860 0.744290 0.867718
O O8 0.314823 0.548435 0.909343
O O9 0.628530 0.500000 0.750000
O O10 0.500000 0.307824 0.750000
O O11 0.696785 0.247134 0.750759
O O12 0.594912 0.876890 0.500000
O O13 0.500000 0.000000 0.568791
O O14 0.688018 0.038740 0.559480
O O15 0.874646 0.184306 0.211320
O O16 0.771733 0.000000 0.250000
O O17 0.500000 0.500000 0.069238
O O18 0.357723 0.300157 0.063133
O O19 0.371452 0.490812 0.000000
O O20 0.767856 0.790085 0.000000
#
# Coordination Sequence:
#
# PCOD9392575 Si02
#       8
#     8   8   8   8   8   8   8   8
#     4  10  18  35  63  79 115 149 187 233 298 333
#     4  11  21  38  60  83 117 151 196 233 285 341
#     4  10  24  40  53  81 120 157 189 223 281 349
#     4  10  20  36  58  87 119 148 188 243 290 337
#     4   9  19  35  60  86 109 141 191 243 278 328
#     4   9  19  36  55  91 109 144 191 240 282 344
#     4  10  22  38  59  85 112 153 196 231 280 345
#     4  10  21  36  55  86 118 147 190 235 288 350
#
# _framework density 17.786078
#
# number of rings (size 3 to 8) (size 9 to 14) (size 15 to 20)
#    0.000    2.125    1.250    1.500    3.500    4.750 
#    0.000    3.125    0.000    2.250    0.000    0.000 
#    0.000    0.000    0.000    0.000    0.000    0.000 
#
# Total GULP energy -357030.438851 kJ/mol
# GULP energy per Si atom -5578.600607 kJ/mol
# Density = 1.774560 g / cm^3
# Si number density = 17.786078 Si / 1000 Ang^3
#
#
#
# Elastic Constant Matrix: (Units=GPa)
#
#
# Indices 1 2 3 4 5 6 
#
# 1 84.5524 8.3620 40.7501 0.0000 0.0000 0.0000
# 2 8.3620 46.6731 30.4946 0.0000 0.0000 0.0000
# 3 40.7501 30.4946 82.2467 0.0000 0.0000 0.0000
# 4 0.0000 0.0000 0.0000 27.2090 0.0000 0.0000
# 5 0.0000 0.0000 0.0000 0.0000 14.0629 0.0000
# 6 0.0000 0.0000 0.0000 0.0000 0.0000 18.4399
#
#
#
# Elastic Compliance Matrix: (Units=1/GPa)
#
#
# Indices 1 2 3 4 5 6 
#
# 1 0.015854 0.003025 -0.008976 0.000000 0.000000 0.000000
# 2 0.003025 0.028852 -0.012196 0.000000 0.000000 0.000000
# 3 -0.008976 -0.012196 0.021128 0.000000 0.000000 0.000000
# 4 0.000000 0.000000 0.000000 0.036753 0.000000 0.000000
# 5 0.000000 0.000000 0.000000 0.000000 0.071109 0.000000
# 6 0.000000 0.000000 0.000000 0.000000 0.000000 0.054230
#
#
# Mechanical properties :
#
#
# Convention : Reuss Voigt Hill
#
# Bulk Modulus (GPa) = 33.85445 41.40950 37.63198
# Shear Modulus (GPa) = 18.24364 20.86673 19.55519
#
# Velocity S-wave (km/s) = 3.20617 3.42893 3.31942
# Velocity P-wave (km/s) = 5.72552 6.24574 5.99128
#
# Compressibility (1/GPa) = 0.02953821
#
# Stress axis : x y z
#
# Youngs Moduli (GPa) = 63.07515 34.65938 47.33062
#
# Poissons Ratio (x) = -0.10483 0.42486
# Poissons Ratio (y) = -0.19077 0.57725
# Poissons Ratio (z) = 0.56619 0.42271
#
# Static dielectric constant tensor:
#      x y z
#    x 1.594550 0.000000 0.000000 
#    y 0.000000 1.604090 0.000000 
#    z 0.000000 0.000000 1.608370 
# 
# From -- ./inp_files/26677.got.cif
#   From: 2010.05.17/outbox.cif.g08.bks.cpg/sg49_14_cif.got.tgz:26677.got - 2010.06.03 21:02:19.
