data_PCOD9392383
_publ_section_title
;
Structure prediction by ZEFSAII (Michael W. Deem and Ramdas Pophale) SiO2 
 PCOD9392383
Probable space group: P C C M
;
_chemical_formula_sum "Si O2"
_cell_formula_units_Z 64
_cell_length_a 23.434814
_cell_length_b 18.104313
_cell_length_c 9.201334
_cell_angle_alpha 90.000000
_cell_angle_beta 90.000000
_cell_angle_gamma 90.000000
_cell_volume 3903.861089
_symmetry_space_group_name_H-M "P C C M"
_symmetry_group_IT_number 49
_symmetry_cell_setting 'orthorhombic'
loop_
_space_group_symop_operation_xyz
x,y,z
-x,-y,z
x,-y,1/2-z
-x,y,1/2-z
-x,-y,-z
x,y,-z
-x,y,1/2+z
x,-y,1/2+z
loop_
_atom_site_type_symbol
_atom_site_label
_atom_site_fract_x
_atom_site_fract_y
_atom_site_fract_z
Si Si1 0.442626 0.111132 0.333224
Si Si2 0.312570 0.076565 0.676304
Si Si3 0.937994 0.577685 0.677666
Si Si4 0.556630 0.289848 0.167204
Si Si5 0.242747 0.793910 0.668283
Si Si6 0.753477 0.434112 0.836968
Si Si7 0.667732 0.342455 0.666757
Si Si8 0.155996 0.301927 0.335079
O O1 0.500000 0.087274 0.250000
O O2 0.447508 0.086413 0.500000
O O3 0.379538 0.088404 0.279716
O O4 0.442152 0.200430 0.330223
O O5 0.310372 0.075147 0.500000
O O6 0.272611 0.141849 0.737777
O O7 0.294385 0.000000 0.750000
O O8 0.917572 0.500000 0.750000
O O9 0.940133 0.570148 0.500000
O O10 0.898563 0.649043 0.711444
O O11 0.000000 0.589194 0.750000
O O12 0.500000 0.314082 0.250000
O O13 0.611738 0.318566 0.249106
O O14 0.556343 0.313074 0.000000
O O15 0.235150 0.816431 0.500000
O O16 0.287966 0.726171 0.669503
O O17 0.183813 0.761720 0.735636
O O18 0.782153 0.500000 0.750000
O O19 0.698290 0.409108 0.748792
O O20 0.795055 0.364488 0.842684
O O21 0.740015 0.457124 0.000000
O O22 0.655585 0.360083 0.500000
O O23 0.146326 0.274337 0.500000
#
# Coordination Sequence:
#
# PCOD9392383 Si02
#       8
#     8   8   8   8   8   8   8   8
#     4   9  19  32  48  67  91 122 155 195 240 292
#     4  11  22  36  51  70  97 130 163 201 250 303
#     4  10  19  31  48  73 107 147 184 216 250 288
#     4  10  18  30  47  68  89 114 148 188 236 284
#     4  10  20  33  51  73  95 123 162 205 247 292
#     4  10  19  31  47  68  94 123 156 196 239 284
#     4  10  19  31  48  69  91 117 150 191 237 287
#     4   9  19  33  50  71  99 135 170 207 247 285
#
# _framework density 16.394024999999999
#
# number of rings (size 3 to 8) (size 9 to 14) (size 15 to 20)
#    0.000    2.125    1.250    3.000    0.000    4.250 
#    0.000    1.250    0.000    0.375    0.000    2.625 
#    0.000    0.500    0.000    5.250    0.000    2.875 
#
# Total GULP energy -356700.956322 kJ/mol
# GULP energy per Si atom -5573.452443 kJ/mol
# Density = 1.635671 g / cm^3
# Si number density = 16.394025 Si / 1000 Ang^3
#
#
#
# Elastic Constant Matrix: (Units=GPa)
#
#
# Indices 1 2 3 4 5 6 
#
# 1 91.2206 30.9382 48.6290 0.0000 0.0000 0.0000
# 2 30.9382 51.6789 39.3749 0.0000 0.0000 0.0000
# 3 48.6290 39.3749 116.6165 0.0000 0.0000 0.0000
# 4 0.0000 0.0000 0.0000 20.7150 0.0000 0.0000
# 5 0.0000 0.0000 0.0000 0.0000 17.2912 0.0000
# 6 0.0000 0.0000 0.0000 0.0000 0.0000 12.6933
#
#
#
# Elastic Compliance Matrix: (Units=1/GPa)
#
#
# Indices 1 2 3 4 5 6 
#
# 1 0.015279 -0.005779 -0.004420 0.000000 0.000000 0.000000
# 2 -0.005779 0.028238 -0.007125 0.000000 0.000000 0.000000
# 3 -0.004420 -0.007125 0.012824 0.000000 0.000000 0.000000
# 4 0.000000 0.000000 0.000000 0.048274 0.000000 0.000000
# 5 0.000000 0.000000 0.000000 0.000000 0.057833 0.000000
# 6 0.000000 0.000000 0.000000 0.000000 0.000000 0.078782
#
#
# Mechanical properties :
#
#
# Convention : Reuss Voigt Hill
#
# Bulk Modulus (GPa) = 46.09679 55.26667 50.68173
# Shear Modulus (GPa) = 17.66109 19.51150 18.58630
#
# Velocity S-wave (km/s) = 3.28577 3.45361 3.37073
# Velocity P-wave (km/s) = 6.52488 7.04896 6.79198
#
# Compressibility (1/GPa) = 0.02169348
#
# Stress axis : x y z
#
# Youngs Moduli (GPa) = 65.45058 35.41283 77.98009
#
# Poissons Ratio (x) = 0.20466 0.34466
# Poissons Ratio (y) = 0.37825 0.55558
# Poissons Ratio (z) = 0.28928 0.25230
#
# Static dielectric constant tensor:
#      x y z
#    x 1.551260 0.000000 0.000000 
#    y 0.000000 1.576460 0.000000 
#    z 0.000000 0.000000 1.576660 
# 
# From -- ./inp_files/6627.got.cif
#   From: 2010.05.17/outbox.cif.g08.bks.cpg/sg49_4_cif.got.tgz:6627.got - 2010.06.03 21:02:19.
