data_PCOD9392363
_publ_section_title
;
Structure prediction by ZEFSAII (Michael W. Deem and Ramdas Pophale) SiO2 
 PCOD9392363
Probable space group: P C C M
;
_chemical_formula_sum "Si O2"
_cell_formula_units_Z 64
_cell_length_a 21.535647
_cell_length_b 16.943295
_cell_length_c 9.390693
_cell_angle_alpha 90.000000
_cell_angle_beta 90.000000
_cell_angle_gamma 90.000000
_cell_volume 3426.521326
_symmetry_space_group_name_H-M "P C C M"
_symmetry_group_IT_number 49
_symmetry_cell_setting 'orthorhombic'
loop_
_space_group_symop_operation_xyz
x,y,z
-x,-y,z
x,-y,1/2-z
-x,y,1/2-z
-x,-y,-z
x,y,-z
-x,y,1/2+z
x,-y,1/2+z
loop_
_atom_site_type_symbol
_atom_site_label
_atom_site_fract_x
_atom_site_fract_y
_atom_site_fract_z
Si Si1 0.142292 0.202283 0.839666
Si Si2 0.746991 0.675362 0.158893
Si Si3 0.171208 0.572750 0.839655
Si Si4 0.057526 0.304653 0.337086
Si Si5 0.372429 0.919294 0.833072
Si Si6 0.223166 0.920912 0.832652
Si Si7 0.364152 0.255346 0.330921
Si Si8 0.433749 0.576789 0.829217
O O1 0.189360 0.275804 0.855118
O O2 0.081835 0.230829 0.755327
O O3 0.181881 0.144439 0.741886
O O4 0.129632 0.172858 0.000000
O O5 0.767128 0.605242 0.262834
O O6 0.696077 0.729783 0.234383
O O7 0.726900 0.651545 0.000000
O O8 0.147223 0.500000 0.750000
O O9 0.116254 0.636764 0.843897
O O10 0.186258 0.549400 0.000000
O O11 0.040446 0.285430 0.500000
O O12 0.000000 0.339961 0.250000
O O13 0.297593 0.910535 0.816433
O O14 0.395042 0.830054 0.792946
O O15 0.390947 0.000000 0.750000
O O16 0.386321 0.931824 0.000000
O O17 0.207512 0.000000 0.750000
O O18 0.210603 0.925012 0.000000
O O19 0.348013 0.249092 0.500000
O O20 0.402035 0.337118 0.312860
O O21 0.403497 0.500000 0.750000
O O22 0.500000 0.583579 0.750000
O O23 0.438918 0.562002 0.000000
#
# Coordination Sequence:
#
# PCOD9392363 Si02
#       8
#     8   8   8   8   8   8   8   8
#     4  10  19  32  50  73 102 133 168 209 253 305
#     4  10  20  32  50  76 105 136 172 212 256 313
#     4  10  21  36  53  72 100 134 167 209 263 318
#     4  10  21  36  54  74  95 126 167 212 260 310
#     4   9  18  31  49  76 112 147 182 221 266 319
#     4  10  18  29  48  73 104 138 172 210 255 308
#     4  10  20  35  55  80 111 150 185 224 275 330
#     4  10  21  38  60  82 109 142 185 234 281 325
#
# _framework density 18.677835999999999
#
# number of rings (size 3 to 8) (size 9 to 14) (size 15 to 20)
#    0.000    2.125    1.250    2.625    0.000    5.250 
#    0.000    2.500    0.000    0.750    0.000    5.250 
#    0.000    0.000    0.000    0.000    0.000    0.000 
#
# Total GULP energy -356351.376375 kJ/mol
# GULP energy per Si atom -5567.990256 kJ/mol
# Density = 1.863532 g / cm^3
# Si number density = 18.677836 Si / 1000 Ang^3
#
#
#
# Elastic Constant Matrix: (Units=GPa)
#
#
# Indices 1 2 3 4 5 6 
#
# 1 14.5543 12.7451 20.6851 0.0000 0.0000 0.0000
# 2 12.7451 96.9435 55.9663 0.0000 0.0000 0.0000
# 3 20.6851 55.9663 141.0143 0.0000 0.0000 0.0000
# 4 0.0000 0.0000 0.0000 29.2043 0.0000 0.0000
# 5 0.0000 0.0000 0.0000 0.0000 -22.6685 0.0000
# 6 0.0000 0.0000 0.0000 0.0000 0.0000 13.5168
#
#
#
# Elastic Compliance Matrix: (Units=1/GPa)
#
#
# Indices 1 2 3 4 5 6 
#
# 1 0.088930 -0.005397 -0.010903 0.000000 0.000000 0.000000
# 2 -0.005397 0.013709 -0.004649 0.000000 0.000000 0.000000
# 3 -0.010903 -0.004649 0.010536 0.000000 0.000000 0.000000
# 4 0.000000 0.000000 0.000000 0.034242 0.000000 0.000000
# 5 0.000000 0.000000 0.000000 0.000000 -0.044114 0.000000
# 6 0.000000 0.000000 0.000000 0.000000 0.000000 0.073982
#
#
# Mechanical properties :
#
#
# Convention : Reuss Voigt Hill
#
# Bulk Modulus (GPa) = 14.02991 47.92278 30.97634
# Shear Modulus (GPa) = 20.58113 14.88490 17.73301
#
# Velocity S-wave (km/s) = 3.32309 2.82606 3.08460
# Velocity P-wave (km/s) = 4.71718 6.03010 5.41358
#
# Compressibility (1/GPa) = 0.07127631
#
# Stress axis : x y z
#
# Youngs Moduli (GPa) = 11.24482 72.94572 94.91307
#
# Poissons Ratio (x) = 0.39370 1.03482
# Poissons Ratio (y) = 0.06069 0.44126
# Poissons Ratio (z) = 0.12260 0.33913
#
# Static dielectric constant tensor:
#      x y z
#    x 1.638340 0.000000 0.000000 
#    y 0.000000 1.549240 0.000000 
#    z 0.000000 0.000000 1.652460 
# 
# From -- ./inp_files/4382.got.cif
#   From: 2010.05.17/outbox.cif.g08.bks.cpg/sg49_3_cif.got.tgz:4382.got - 2010.06.03 21:02:19.
