data_PCOD9392084
_publ_section_title
;
Structure prediction by ZEFSAII (Michael W. Deem and Ramdas Pophale) SiO2 
 PCOD9392084
Probable space group: P C C M
;
_chemical_formula_sum "Si O2"
_cell_formula_units_Z 48
_cell_length_a 24.735364
_cell_length_b 13.925393
_cell_length_c 8.689132
_cell_angle_alpha 90.000000
_cell_angle_beta 90.000000
_cell_angle_gamma 90.000000
_cell_volume 2992.968604
_symmetry_space_group_name_H-M "P C C M"
_symmetry_group_IT_number 49
_symmetry_cell_setting 'orthorhombic'
loop_
_space_group_symop_operation_xyz
x,y,z
-x,-y,z
x,-y,1/2-z
-x,y,1/2-z
-x,-y,-z
x,y,-z
-x,y,1/2+z
x,-y,1/2+z
loop_
_atom_site_type_symbol
_atom_site_label
_atom_site_fract_x
_atom_site_fract_y
_atom_site_fract_z
Si Si1 0.442110 0.706960 0.815316
Si Si2 0.055378 0.890981 0.316116
Si Si3 0.612084 0.895876 0.183395
Si Si4 0.832999 0.107685 0.184519
Si Si5 0.666817 0.602956 0.315591
Si Si6 0.281822 0.802027 0.814579
O O1 0.500000 0.678507 0.750000
O O2 0.425235 0.811652 0.752213
O O3 0.393744 0.635250 0.768130
O O4 0.443548 0.710791 0.000000
O O5 0.053541 0.893920 0.500000
O O6 0.112162 0.849383 0.256935
O O7 0.000000 0.846675 0.250000
O O8 0.056389 0.000000 0.250000
O O9 0.673109 0.868213 0.234843
O O10 0.598182 0.000000 0.250000
O O11 0.608155 0.896314 0.000000
O O12 0.778762 0.165894 0.221616
O O13 0.826166 0.000000 0.250000
O O14 0.839212 0.102452 0.000000
O O15 0.681522 0.500000 0.250000
O O16 0.667524 0.597381 0.500000
O O17 0.704970 0.692228 0.270551
O O18 0.289562 0.810619 0.000000
#
# Coordination Sequence:
#
# PCOD9392084 Si02
#       6
#     8   8   8   8   8   8
#     4  10  21  37  53  72  96 119 150 188 226 270
#     4  10  17  26  39  57  85 121 161 197 229 264
#     4  11  21  33  50  70  94 125 157 188 226 269
#     4  10  18  28  43  64  92 125 159 193 229 266
#     4   9  19  35  53  72  94 119 147 184 230 278
#     4   9  19  34  49  68  95 123 154 193 232 273
#
# _framework density 16.037588
#
# number of rings (size 3 to 8) (size 9 to 14) (size 15 to 20)
#    0.000    2.167    0.000    7.000    0.000    6.667 
#    0.000    3.333    0.000    0.000    0.000    0.000 
#    0.000    0.667    0.000    7.667    0.000    2.333 
#
# Total GULP energy -267777.360463 kJ/mol
# GULP energy per Si atom -5578.695010 kJ/mol
# Density = 1.600109 g / cm^3
# Si number density = 16.037588 Si / 1000 Ang^3
#
#
#
# Elastic Constant Matrix: (Units=GPa)
#
#
# Indices 1 2 3 4 5 6 
#
# 1 110.5618 16.7933 35.6310 0.0000 0.0000 0.0000
# 2 16.7933 57.8170 11.9773 0.0000 0.0000 0.0000
# 3 35.6310 11.9773 70.0385 0.0000 0.0000 0.0000
# 4 0.0000 0.0000 0.0000 21.0210 0.0000 0.0000
# 5 0.0000 0.0000 0.0000 0.0000 33.7867 0.0000
# 6 0.0000 0.0000 0.0000 0.0000 0.0000 8.5632
#
#
#
# Elastic Compliance Matrix: (Units=1/GPa)
#
#
# Indices 1 2 3 4 5 6 
#
# 1 0.011064 -0.002123 -0.005266 0.000000 0.000000 0.000000
# 2 -0.002123 0.018338 -0.002056 0.000000 0.000000 0.000000
# 3 -0.005266 -0.002056 0.017308 0.000000 0.000000 0.000000
# 4 0.000000 0.000000 0.000000 0.047572 0.000000 0.000000
# 5 0.000000 0.000000 0.000000 0.000000 0.029597 0.000000
# 6 0.000000 0.000000 0.000000 0.000000 0.000000 0.116779
#
#
# Mechanical properties :
#
#
# Convention : Reuss Voigt Hill
#
# Bulk Modulus (GPa) = 35.94317 40.80227 38.37272
# Shear Modulus (GPa) = 18.59967 24.27523 21.43745
#
# Velocity S-wave (km/s) = 3.40921 3.89478 3.66006
# Velocity P-wave (km/s) = 6.16096 6.76185 6.46839
#
# Compressibility (1/GPa) = 0.02782169
#
# Stress axis : x y z
#
# Youngs Moduli (GPa) = 90.38216 54.53020 57.77569
#
# Poissons Ratio (x) = 0.11576 0.30423
# Poissons Ratio (y) = 0.19186 0.11879
# Poissons Ratio (z) = 0.47592 0.11212
#
# Static dielectric constant tensor:
#      x y z
#    x 1.569610 0.000000 0.000000 
#    y 0.000000 1.510540 0.000000 
#    z 0.000000 0.000000 1.541770 
# 
# From -- ./inp_files/6318.got.cif
#   From: 2010.05.17/outbox.cif.g08.bks.cpg/sg49_4_cif.got.tgz:6318.got - 2010.06.03 21:02:19.
