data_PCOD9392617
_publ_section_title
;
Structure prediction by ZEFSAII (Michael W. Deem and Ramdas Pophale) SiO2 
 PCOD9392617
Probable space group: P C C M
;
_chemical_formula_sum "Si O2"
_cell_formula_units_Z 40
_cell_length_a 22.583600
_cell_length_b 7.269117
_cell_length_c 11.242931
_cell_angle_alpha 90.000000
_cell_angle_beta 90.000000
_cell_angle_gamma 90.000000
_cell_volume 1845.671378
_symmetry_space_group_name_H-M "P C C M"
_symmetry_group_IT_number 49
_symmetry_cell_setting 'orthorhombic'
loop_
_space_group_symop_operation_xyz
x,y,z
-x,-y,z
x,-y,1/2-z
-x,y,1/2-z
-x,-y,-z
x,y,-z
-x,y,1/2+z
x,-y,1/2+z
loop_
_atom_site_type_symbol
_atom_site_label
_atom_site_fract_x
_atom_site_fract_y
_atom_site_fract_z
Si Si1 0.974993 0.789552 0.129105
Si Si2 0.837707 0.125464 0.633118
Si Si3 0.524341 0.290727 0.128464
Si Si4 0.285192 0.297444 0.871190
Si Si5 0.666108 0.714494 0.628639
O O1 0.904066 0.796917 0.138058
O O2 0.000000 0.705747 0.250000
O O3 0.991842 0.710918 0.000000
O O4 0.000000 0.000000 0.127192
O O5 0.832721 0.034906 0.500000
O O6 0.785507 0.275385 0.636482
O O7 0.830074 0.000000 0.750000
O O8 0.500000 0.500000 0.126932
O O9 0.500000 0.206054 0.250000
O O10 0.595246 0.296548 0.134132
O O11 0.506531 0.210331 0.000000
O O12 0.311493 0.205942 0.753126
O O13 0.306971 0.508009 0.872582
O O14 0.304158 0.220391 0.000000
O O15 0.682794 0.797578 0.500000
#
# Coordination Sequence:
#
# PCOD9392617 Si02
#       5
#     8   8   8   8   8
#     4   9  15  25  41  59  81 104 126 161 209 255
#     4  10  19  29  42  63  88 111 138 172 211 256
#     4   9  15  22  36  59  85 110 135 168 209 249
#     4   9  17  28  42  59  82 114 145 173 206 247
#     4   9  17  29  43  61  87 116 146 175 205 246
#
# _framework density 21.672331
#
# number of rings (size 3 to 8) (size 9 to 14) (size 15 to 20)
#    0.000    2.800    2.000    2.400    0.000    3.200 
#    0.000    0.000    0.000    0.000    0.000    2.800 
#    0.000   33.600    0.000  120.000    0.000   36.000 
#
# Total GULP energy -222740.592488 kJ/mol
# GULP energy per Si atom -5568.514812 kJ/mol
# Density = 2.162300 g / cm^3
# Si number density = 21.672331 Si / 1000 Ang^3
#
#
#
# Elastic Constant Matrix: (Units=GPa)
#
#
# Indices 1 2 3 4 5 6 
#
# 1 94.3959 12.5780 68.8642 0.0000 0.0000 0.0000
# 2 12.5780 73.3498 28.1983 0.0000 0.0000 0.0000
# 3 68.8642 28.1983 297.8141 0.0000 0.0000 0.0000
# 4 0.0000 0.0000 0.0000 -21.7015 0.0000 0.0000
# 5 0.0000 0.0000 0.0000 0.0000 25.4239 0.0000
# 6 0.0000 0.0000 0.0000 0.0000 0.0000 54.9178
#
#
#
# Elastic Compliance Matrix: (Units=1/GPa)
#
#
# Indices 1 2 3 4 5 6 
#
# 1 0.012828 -0.001099 -0.002862 0.000000 0.000000 0.000000
# 2 -0.001099 0.014243 -0.001094 0.000000 0.000000 0.000000
# 3 -0.002862 -0.001094 0.004123 0.000000 0.000000 0.000000
# 4 0.000000 0.000000 0.000000 -0.046080 0.000000 0.000000
# 5 0.000000 0.000000 0.000000 0.000000 0.039333 0.000000
# 6 0.000000 0.000000 0.000000 0.000000 0.000000 0.018209
#
#
# Mechanical properties :
#
#
# Convention : Reuss Voigt Hill
#
# Bulk Modulus (GPa) = 47.43363 76.09339 61.76351
# Shear Modulus (GPa) = 83.61821 35.45600 59.53710
#
# Velocity S-wave (km/s) = 6.21825 4.04914 5.24701
# Velocity P-wave (km/s) = 8.57262 7.55300 8.07891
#
# Compressibility (1/GPa) = 0.02108209
#
# Stress axis : x y z
#
# Youngs Moduli (GPa) = 77.95309 70.21226 242.52735
#
# Poissons Ratio (x) = 0.07719 0.69416
# Poissons Ratio (y) = 0.08570 0.26540
# Poissons Ratio (z) = 0.22312 0.07683
#
# Static dielectric constant tensor:
#      x y z
#    x 1.732610 0.000000 0.000000 
#    y 0.000000 1.721460 0.000000 
#    z 0.000000 0.000000 1.909400 
# 
# From -- ./inp_files/8201.got.cif
#   From: 2010.05.17/outbox.cif.g08.bks.cpg/sg49_5_cif.got.tgz:8201.got - 2010.06.03 21:02:19.
