data_PCOD9392260
_publ_section_title
;
Structure prediction by ZEFSAII (Michael W. Deem and Ramdas Pophale) SiO2 
 PCOD9392260
Probable space group: P C C M
;
_chemical_formula_sum "Si O2"
_cell_formula_units_Z 64
_cell_length_a 20.979183
_cell_length_b 20.318040
_cell_length_c 8.730650
_cell_angle_alpha 90.000000
_cell_angle_beta 90.000000
_cell_angle_gamma 90.000000
_cell_volume 3721.490893
_symmetry_space_group_name_H-M "P C C M"
_symmetry_group_IT_number 49
_symmetry_cell_setting 'orthorhombic'
loop_
_space_group_symop_operation_xyz
x,y,z
-x,-y,z
x,-y,1/2-z
-x,y,1/2-z
-x,-y,-z
x,y,-z
-x,y,1/2+z
x,-y,1/2+z
loop_
_atom_site_type_symbol
_atom_site_label
_atom_site_fract_x
_atom_site_fract_y
_atom_site_fract_z
Si Si1 0.392170 0.211231 0.184981
Si Si2 0.308035 0.572953 0.184899
Si Si3 0.434844 0.348093 0.316515
Si Si4 0.596374 0.931866 0.175735
Si Si5 0.248181 0.931529 0.676766
Si Si6 0.812507 0.339576 0.814009
Si Si7 0.070244 0.428251 0.685033
Si Si8 0.249612 0.794285 0.816567
O O1 0.426805 0.274573 0.251326
O O2 0.419333 0.140411 0.241302
O O3 0.318737 0.216221 0.239739
O O4 0.393976 0.211011 0.000000
O O5 0.305561 0.500000 0.250000
O O6 0.372941 0.610078 0.229940
O O7 0.247091 0.615480 0.235643
O O8 0.306770 0.570260 0.000000
O O9 0.500000 0.376889 0.250000
O O10 0.437391 0.345430 0.500000
O O11 0.674082 0.932371 0.180567
O O12 0.574826 0.000000 0.250000
O O13 0.575880 0.933140 0.000000
O O14 0.229469 0.927024 0.500000
O O15 0.227327 0.866592 0.766867
O O16 0.226562 0.000000 0.750000
O O17 0.878160 0.373758 0.766217
O O18 0.797196 0.264755 0.768298
O O19 0.812833 0.340090 0.000000
O O20 0.089333 0.500000 0.750000
O O21 0.067933 0.431683 0.500000
O O22 0.000000 0.414173 0.750000
O O23 0.258042 0.791618 0.000000
#
# Coordination Sequence:
#
# PCOD9392260 Si02
#       8
#     8   8   8   8   8   8   8   8
#     4  10  19  32  49  72  99 127 165 206 249 302
#     4  10  21  38  56  77 100 127 163 203 251 306
#     4  11  23  39  57  74  97 126 164 207 257 312
#     4   8  15  25  40  64  93 122 155 194 235 287
#     4   9  16  26  39  63  96 132 170 207 250 299
#     4   9  18  33  52  75 105 137 171 208 251 302
#     4  10  19  33  52  74 104 139 176 214 251 300
#     4  10  17  29  48  70  99 134 168 208 256 300
#
# _framework density 17.197407999999999
#
# number of rings (size 3 to 8) (size 9 to 14) (size 15 to 20)
#    0.000    2.375    1.250    3.375    0.000    4.750 
#    0.000    4.375    0.000    0.375    0.000    2.625 
#    0.000    0.500    0.000    5.750    0.000    1.875 
#
# Total GULP energy -356979.343872 kJ/mol
# GULP energy per Si atom -5577.802248 kJ/mol
# Density = 1.715827 g / cm^3
# Si number density = 17.197408 Si / 1000 Ang^3
#
#
#
# Elastic Constant Matrix: (Units=GPa)
#
#
# Indices 1 2 3 4 5 6 
#
# 1 72.5661 51.9200 17.0237 0.0000 0.0000 0.0000
# 2 51.9200 134.4825 24.8079 0.0000 0.0000 0.0000
# 3 17.0237 24.8079 40.2594 0.0000 0.0000 0.0000
# 4 0.0000 0.0000 0.0000 27.0179 0.0000 0.0000
# 5 0.0000 0.0000 0.0000 0.0000 106.1594 0.0000
# 6 0.0000 0.0000 0.0000 0.0000 0.0000 -110.7483
#
#
#
# Elastic Compliance Matrix: (Units=1/GPa)
#
#
# Indices 1 2 3 4 5 6 
#
# 1 0.019620 -0.006820 -0.004094 0.000000 0.000000 0.000000
# 2 -0.006820 0.010760 -0.003747 0.000000 0.000000 0.000000
# 3 -0.004094 -0.003747 0.028879 0.000000 0.000000 0.000000
# 4 0.000000 0.000000 0.000000 0.037013 0.000000 0.000000
# 5 0.000000 0.000000 0.000000 0.000000 0.009420 0.000000
# 6 0.000000 0.000000 0.000000 0.000000 0.000000 -0.009029
#
#
# Mechanical properties :
#
#
# Convention : Reuss Voigt Hill
#
# Bulk Modulus (GPa) = 33.40213 48.31237 40.85725
# Shear Modulus (GPa) = 36.77492 14.72289 25.74891
#
# Velocity S-wave (km/s) = 4.62930 2.92911 3.87364
# Velocity P-wave (km/s) = 6.93100 6.29233 6.61937
#
# Compressibility (1/GPa) = 0.02993821
#
# Stress axis : x y z
#
# Youngs Moduli (GPa) = 50.96742 92.93755 34.62747
#
# Poissons Ratio (x) = 0.63380 0.14177
# Poissons Ratio (y) = 0.34758 0.12973
# Poissons Ratio (z) = 0.20867 0.34820
#
# Static dielectric constant tensor:
#      x y z
#    x 1.580410 0.000000 0.000000 
#    y 0.000000 1.598140 0.000000 
#    z 0.000000 0.000000 1.584220 
# 
# From -- ./inp_files/6050.got.cif
#   From: 2010.05.17/outbox.cif.g08.bks.cpg/sg49_4_cif.got.tgz:6050.got - 2010.06.03 21:02:19.
