data_PCOD9392581
_publ_section_title
;
Structure prediction by ZEFSAII (Michael W. Deem and Ramdas Pophale) SiO2 
 PCOD9392581
Probable space group: P C C M
;
_chemical_formula_sum "Si O2"
_cell_formula_units_Z 60
_cell_length_a 16.671049
_cell_length_b 5.334975
_cell_length_c 34.943611
_cell_angle_alpha 90.000000
_cell_angle_beta 90.000000
_cell_angle_gamma 90.000000
_cell_volume 3107.871821
_symmetry_space_group_name_H-M "P C C M"
_symmetry_group_IT_number 49
_symmetry_cell_setting 'orthorhombic'
loop_
_space_group_symop_operation_xyz
x,y,z
-x,-y,z
x,-y,1/2-z
-x,y,1/2-z
-x,-y,-z
x,y,-z
-x,y,1/2+z
x,-y,1/2+z
loop_
_atom_site_type_symbol
_atom_site_label
_atom_site_fract_x
_atom_site_fract_y
_atom_site_fract_z
Si Si1 0.050836 0.249239 0.360808
Si Si2 0.210974 0.127622 0.591101
Si Si3 0.639036 0.288700 0.859310
Si Si4 0.588871 0.623435 0.073642
Si Si5 0.698448 0.250160 0.773549
Si Si6 0.242055 0.378185 0.043460
Si Si7 0.108933 0.751393 0.226196
Si Si8 0.500000 0.000000 0.610636
O O1 0.133125 0.198676 0.383764
O O2 0.070396 0.262531 0.315564
O O3 0.000000 0.500000 0.371243
O O4 0.000000 0.000000 0.367689
O O5 0.288519 0.145849 0.618955
O O6 0.215980 0.354049 0.560479
O O7 0.214097 0.856493 0.570068
O O8 0.627009 0.533390 0.885831
O O9 0.661564 0.289437 0.815297
O O10 0.549420 0.181262 0.862728
O O11 0.500000 0.500000 0.066846
O O12 0.660419 0.602682 0.044267
O O13 0.567385 0.907620 0.081504
O O14 0.680153 0.500000 0.750000
O O15 0.794703 0.235761 0.778779
O O16 0.674063 0.000000 0.750000
O O17 0.214673 0.340655 0.000000
O O18 0.091318 0.500000 0.250000
O O19 0.086757 0.000000 0.250000
#
# Coordination Sequence:
#
# PCOD9392581 Si02
#       8
#     8   8   8   8   8   8   8   4
#     4  12  25  41  65  97 127 166 214 262 309 369
#     4  11  23  43  66  93 127 165 207 255 302 374
#     4  10  20  37  63  84 118 169 211 255 301 368
#     4   9  20  35  59  92 127 161 203 252 317 373
#     4  10  22  36  58  85 118 162 214 259 306 357
#     4  11  23  41  67  97 125 163 205 249 310 381
#     4  10  21  38  58  90 129 165 201 252 319 374
#     4  10  18  36  60  90 118 160 206 256 306 362
#
# _framework density 19.305814999999999
#
# number of rings (size 3 to 8) (size 9 to 14) (size 15 to 20)
#    0.000    1.600    2.667    2.000    1.867    1.867 
#    0.000    0.667    0.000    8.000    0.000    0.000 
#    0.000    0.000    0.000    0.000    0.000    0.000 
#
# Total GULP energy -334243.257561 kJ/mol
# GULP energy per Si atom -5570.720959 kJ/mol
# Density = 1.926187 g / cm^3
# Si number density = 19.305815 Si / 1000 Ang^3
#
#
#
# Elastic Constant Matrix: (Units=GPa)
#
#
# Indices 1 2 3 4 5 6 
#
# 1 75.7292 23.1351 24.0210 0.0000 0.0000 0.0000
# 2 23.1351 109.4111 25.1983 0.0000 0.0000 0.0000
# 3 24.0210 25.1983 86.5043 0.0000 0.0000 0.0000
# 4 0.0000 0.0000 0.0000 7.1389 0.0000 0.0000
# 5 0.0000 0.0000 0.0000 0.0000 9.5047 0.0000
# 6 0.0000 0.0000 0.0000 0.0000 0.0000 20.2885
#
#
#
# Elastic Compliance Matrix: (Units=1/GPa)
#
#
# Indices 1 2 3 4 5 6 
#
# 1 0.015036 -0.002377 -0.003483 0.000000 0.000000 0.000000
# 2 -0.002377 0.010173 -0.002303 0.000000 0.000000 0.000000
# 3 -0.003483 -0.002303 0.013198 0.000000 0.000000 0.000000
# 4 0.000000 0.000000 0.000000 0.140077 0.000000 0.000000
# 5 0.000000 0.000000 0.000000 0.000000 0.105211 0.000000
# 6 0.000000 0.000000 0.000000 0.000000 0.000000 0.049289
#
#
# Mechanical properties :
#
#
# Convention : Reuss Voigt Hill
#
# Bulk Modulus (GPa) = 45.28870 46.26148 45.77509
# Shear Modulus (GPa) = 14.01853 20.67245 17.34549
#
# Velocity S-wave (km/s) = 2.69760 3.27584 3.00068
# Velocity P-wave (km/s) = 5.76301 6.19053 5.98059
#
# Compressibility (1/GPa) = 0.02208057
#
# Stress axis : x y z
#
# Youngs Moduli (GPa) = 66.50749 98.29986 75.76820
#
# Poissons Ratio (x) = 0.23368 0.26388
# Poissons Ratio (y) = 0.15810 0.17451
# Poissons Ratio (z) = 0.23163 0.22641
#
# Static dielectric constant tensor:
#      x y z
#    x 1.705750 0.000000 0.000000 
#    y 0.000000 1.740370 0.000000 
#    z 0.000000 0.000000 1.660430 
# 
# From -- ./inp_files/26885.got.cif
#   From: 2010.05.17/outbox.cif.g08.bks.cpg/sg49_14_cif.got.tgz:26885.got - 2010.06.03 21:02:19.
