data_PCOD9392458
_publ_section_title
;
Structure prediction by ZEFSAII (Michael W. Deem and Ramdas Pophale) SiO2 
 PCOD9392458
Probable space group: P C C M
;
_chemical_formula_sum "Si O2"
_cell_formula_units_Z 58
_cell_length_a 14.011892
_cell_length_b 22.903345
_cell_length_c 7.672616
_cell_angle_alpha 90.000000
_cell_angle_beta 90.000000
_cell_angle_gamma 90.000000
_cell_volume 2462.289762
_symmetry_space_group_name_H-M "P C C M"
_symmetry_group_IT_number 49
_symmetry_cell_setting 'orthorhombic'
loop_
_space_group_symop_operation_xyz
x,y,z
-x,-y,z
x,-y,1/2-z
-x,y,1/2-z
-x,-y,-z
x,y,-z
-x,y,1/2+z
x,-y,1/2+z
loop_
_atom_site_type_symbol
_atom_site_label
_atom_site_fract_x
_atom_site_fract_y
_atom_site_fract_z
Si Si1 0.748527 0.432146 0.209105
Si Si2 0.000000 0.000000 0.250000
Si Si3 0.389594 0.665669 0.206962
Si Si4 0.390355 0.791511 0.700367
Si Si5 0.889820 0.664762 0.290776
Si Si6 0.177938 0.081691 0.283224
Si Si7 0.888534 0.793121 0.291310
Si Si8 0.612303 0.919141 0.307320
O O1 0.749358 0.500000 0.250000
O O2 0.659900 0.393162 0.272248
O O3 0.835733 0.392344 0.274522
O O4 0.748461 0.429942 0.000000
O O5 0.914802 0.952142 0.206018
O O6 0.500000 0.661315 0.250000
O O7 0.347446 0.727325 0.273498
O O8 0.378022 0.669178 0.000000
O O9 0.500000 0.780351 0.750000
O O10 0.382182 0.809254 0.500000
O O11 0.369743 0.849130 0.810399
O O12 0.876424 0.666835 0.500000
O O13 0.861524 0.729036 0.222274
O O14 0.000000 0.658575 0.250000
O O15 0.171163 0.076946 0.500000
O O16 0.165782 0.149460 0.229868
O O17 0.284963 0.061913 0.225779
O O18 0.876549 0.791882 0.500000
O O19 0.000000 0.801070 0.250000
O O20 0.500000 0.926962 0.250000
O O21 0.612417 0.944785 0.500000
#
# Coordination Sequence:
#
# PCOD9392458 Si02
#       8
#     8   2   8   8   8   8   8   8
#     4  10  23  39  56  78 107 149 195 243 300 361
#     4  12  22  44  66  94 132 160 216 254 302 372
#     4  10  20  35  55  79 111 154 197 243 299 359
#     4  10  18  31  53  85 120 155 196 247 303 358
#     4   9  19  36  59  83 111 145 188 238 296 358
#     4  10  22  38  63  92 125 170 207 251 309 363
#     4   9  17  34  58  87 117 150 192 239 294 356
#     4  10  20  37  60  89 126 167 210 255 309 365
#
# _framework density 23.555309999999999
#
# number of rings (size 3 to 8) (size 9 to 14) (size 15 to 20)
#    0.000    2.207    0.690    3.931    1.931    2.207 
#    0.000    7.241    0.000    1.655    0.000    0.000 
#    0.000    0.000    0.000    0.000    0.000    0.000 
#
# Total GULP energy -322904.922911 kJ/mol
# GULP energy per Si atom -5567.326257 kJ/mol
# Density = 2.350170 g / cm^3
# Si number density = 23.555310 Si / 1000 Ang^3
#
#
#
# Elastic Constant Matrix: (Units=GPa)
#
#
# Indices 1 2 3 4 5 6 
#
# 1 199.7996 53.2993 -3.8049 0.0000 0.0000 0.0000
# 2 53.2993 185.9526 -5.6121 0.0000 0.0000 0.0000
# 3 -3.8049 -5.6121 67.4984 0.0000 0.0000 0.0000
# 4 0.0000 0.0000 0.0000 310.3969 0.0000 0.0000
# 5 0.0000 0.0000 0.0000 0.0000 6.4564 0.0000
# 6 0.0000 0.0000 0.0000 0.0000 0.0000 103.8478
#
#
#
# Elastic Compliance Matrix: (Units=1/GPa)
#
#
# Indices 1 2 3 4 5 6 
#
# 1 0.005421 -0.001549 0.000177 0.000000 0.000000 0.000000
# 2 -0.001549 0.005834 0.000398 0.000000 0.000000 0.000000
# 3 0.000177 0.000398 0.014858 0.000000 0.000000 0.000000
# 4 0.000000 0.000000 0.000000 0.003222 0.000000 0.000000
# 5 0.000000 0.000000 0.000000 0.000000 0.154884 0.000000
# 6 0.000000 0.000000 0.000000 0.000000 0.000000 0.009629
#
#
# Mechanical properties :
#
#
# Convention : Reuss Voigt Hill
#
# Bulk Modulus (GPa) = 41.38175 60.11279 50.74727
# Shear Modulus (GPa) = 24.52761 111.43143 67.97952
#
# Velocity S-wave (km/s) = 3.23038 6.88542 5.37793
# Velocity P-wave (km/s) = 5.61426 9.42270 7.75587
#
# Compressibility (1/GPa) = 0.02416524
#
# Stress axis : x y z
#
# Youngs Moduli (GPa) = 184.45082 171.42080 67.30287
#
# Poissons Ratio (x) = 0.26547 -0.01190
# Poissons Ratio (y) = 0.28564 -0.02677
# Poissons Ratio (z) = -0.03262 -0.06818
#
# Static dielectric constant tensor:
#      x y z
#    x 1.910230 0.000000 0.000000 
#    y 0.000000 1.915100 0.000000 
#    z 0.000000 0.000000 2.003230 
# 
# From -- ./inp_files/4269.got.cif
#   From: 2010.05.17/outbox.cif.g08.bks.cpg/sg49_3_cif.got.tgz:4269.got - 2010.06.03 21:02:19.
