data_PCOD9392831
_publ_section_title
;
Structure prediction by ZEFSAII (Michael W. Deem and Ramdas Pophale) SiO2 
 PCOD9392831
Probable space group: P C C M
;
_chemical_formula_sum "Si O2"
_cell_formula_units_Z 48
_cell_length_a 7.796674
_cell_length_b 16.817503
_cell_length_c 16.779125
_cell_angle_alpha 90.000000
_cell_angle_beta 90.000000
_cell_angle_gamma 90.000000
_cell_volume 2200.088743
_symmetry_space_group_name_H-M "P C C M"
_symmetry_group_IT_number 49
_symmetry_cell_setting 'orthorhombic'
loop_
_space_group_symop_operation_xyz
x,y,z
-x,-y,z
x,-y,1/2-z
-x,y,1/2-z
-x,-y,-z
x,y,-z
-x,y,1/2+z
x,-y,1/2+z
loop_
_atom_site_type_symbol
_atom_site_label
_atom_site_fract_x
_atom_site_fract_y
_atom_site_fract_z
Si Si1 0.457388 0.086118 0.091593
Si Si2 0.073154 0.748713 0.595649
Si Si3 0.055372 0.415569 0.841339
Si Si4 0.955615 0.084186 0.591754
Si Si5 0.580380 0.412899 0.408929
Si Si6 0.465626 0.254400 0.157240
O O1 0.250621 0.089624 0.089918
O O2 0.527578 0.166896 0.130405
O O3 0.500000 0.000000 0.128285
O O4 0.519559 0.085367 0.000000
O O5 0.091517 0.754610 0.500000
O O6 0.989226 0.664861 0.617492
O O7 0.984611 0.830447 0.624670
O O8 0.263003 0.747070 0.634276
O O9 0.259900 0.414966 0.849497
O O10 0.000000 0.500000 0.877743
O O11 0.000000 0.413495 0.750000
O O12 0.020570 0.080197 0.500000
O O13 0.000000 0.000000 0.630994
O O14 0.500000 0.500000 0.405053
O O15 0.642552 0.400806 0.500000
O O16 0.469930 0.334829 0.386612
O O17 0.500000 0.263519 0.250000
#
# Coordination Sequence:
#
# PCOD9392831 Si02
#       6
#     8   8   8   8   8   8
#     4   9  17  31  51  75 106 143 183 226 272 326
#     4   9  18  35  57  77 105 147 189 225 270 334
#     4  10  21  36  56  83 114 147 183 228 284 341
#     4   8  14  28  51  76  99 130 175 220 261 309
#     4  10  22  41  63  84 110 149 196 239 280 338
#     4  10  19  31  53  80 109 144 180 226 281 338
#
# _framework density 21.817301
#
# number of rings (size 3 to 8) (size 9 to 14) (size 15 to 20)
#    0.000    2.667    0.000    4.000    0.000    7.333 
#    0.000    5.000    0.000    6.500    0.000    0.000 
#    0.000    0.000    0.000    0.000    0.000    2.667 
#
# Total GULP energy -267407.988357 kJ/mol
# GULP energy per Si atom -5570.999757 kJ/mol
# Density = 2.176764 g / cm^3
# Si number density = 21.817301 Si / 1000 Ang^3
#
#
#
# Elastic Constant Matrix: (Units=GPa)
#
#
# Indices 1 2 3 4 5 6 
#
# 1 29.0745 15.6871 16.6007 0.0000 0.0000 0.0000
# 2 15.6871 274.4791 37.9773 0.0000 0.0000 0.0000
# 3 16.6007 37.9773 85.4157 0.0000 0.0000 0.0000
# 4 0.0000 0.0000 0.0000 337.4483 0.0000 0.0000
# 5 0.0000 0.0000 0.0000 0.0000 2.2019 0.0000
# 6 0.0000 0.0000 0.0000 0.0000 0.0000 26.6070
#
#
#
# Elastic Compliance Matrix: (Units=1/GPa)
#
#
# Indices 1 2 3 4 5 6 
#
# 1 0.039093 -0.001261 -0.007037 0.000000 0.000000 0.000000
# 2 -0.001261 0.003923 -0.001499 0.000000 0.000000 0.000000
# 3 -0.007037 -0.001499 0.013742 0.000000 0.000000 0.000000
# 4 0.000000 0.000000 0.000000 0.002963 0.000000 0.000000
# 5 0.000000 0.000000 0.000000 0.000000 0.454143 0.000000
# 6 0.000000 0.000000 0.000000 0.000000 0.000000 0.037584
#
#
# Mechanical properties :
#
#
# Convention : Reuss Voigt Hill
#
# Bulk Modulus (GPa) = 26.90835 58.83326 42.87081
# Shear Modulus (GPa) = 8.57001 94.49841 51.53421
#
# Velocity S-wave (km/s) = 1.98409 6.58844 4.86540
# Velocity P-wave (km/s) = 4.19632 9.21421 7.15928
#
# Compressibility (1/GPa) = 0.03716319
#
# Stress axis : x y z
#
# Youngs Moduli (GPa) = 25.58027 254.92458 72.77122
#
# Poissons Ratio (x) = 0.32135 0.51211
# Poissons Ratio (y) = 0.03225 0.10909
# Poissons Ratio (z) = 0.18001 0.38216
#
# Static dielectric constant tensor:
#      x y z
#    x 1.830950 0.000000 0.000000 
#    y 0.000000 1.946530 0.000000 
#    z 0.000000 0.000000 1.753350 
# 
# From -- ./inp_files/11852.got.cif
#   From: 2010.05.17/outbox.cif.g08.bks.cpg/sg49_6_cif.got.tgz:11852.got - 2010.06.03 21:02:19.
