data_PCOD9392189
_publ_section_title
;
Structure prediction by ZEFSAII (Michael W. Deem and Ramdas Pophale) SiO2 
 PCOD9392189
Probable space group: P C C M
;
_chemical_formula_sum "Si O2"
_cell_formula_units_Z 64
_cell_length_a 28.925330
_cell_length_b 14.421059
_cell_length_c 8.765922
_cell_angle_alpha 90.000000
_cell_angle_beta 90.000000
_cell_angle_gamma 90.000000
_cell_volume 3656.563148
_symmetry_space_group_name_H-M "P C C M"
_symmetry_group_IT_number 49
_symmetry_cell_setting 'orthorhombic'
loop_
_space_group_symop_operation_xyz
x,y,z
-x,-y,z
x,-y,1/2-z
-x,y,1/2-z
-x,-y,-z
x,y,-z
-x,y,1/2+z
x,-y,1/2+z
loop_
_atom_site_type_symbol
_atom_site_label
_atom_site_fract_x
_atom_site_fract_y
_atom_site_fract_z
Si Si1 0.452677 0.605085 0.683511
Si Si2 0.356961 0.395874 0.316811
Si Si3 0.733189 0.699745 0.816190
Si Si4 0.763283 0.906647 0.819448
Si Si5 0.922541 0.405931 0.319082
Si Si6 0.048639 0.801391 0.316981
Si Si7 0.141858 0.858280 0.827776
Si Si8 0.172545 0.642931 0.826879
O O1 0.452177 0.500000 0.750000
O O2 0.500000 0.647853 0.750000
O O3 0.453478 0.602904 0.500000
O O4 0.404575 0.644901 0.746801
O O5 0.351957 0.500000 0.250000
O O6 0.359917 0.399884 0.500000
O O7 0.312772 0.338986 0.260796
O O8 0.740851 0.808176 0.774176
O O9 0.777930 0.643806 0.754774
O O10 0.731063 0.692377 0.000000
O O11 0.816620 0.901928 0.766960
O O12 0.742173 0.000000 0.750000
O O13 0.761297 0.912531 0.000000
O O14 0.943012 0.500000 0.250000
O O15 0.925643 0.410710 0.500000
O O16 0.944270 0.307340 0.269671
O O17 0.868950 0.401528 0.267836
O O18 0.048939 0.805002 0.500000
O O19 0.092092 0.857994 0.251470
O O20 0.000000 0.833511 0.250000
O O21 0.156979 0.750399 0.836646
O O22 0.139874 0.895514 0.000000
O O23 0.175198 0.606087 0.000000
#
# Coordination Sequence:
#
# PCOD9392189 Si02
#       8
#     8   8   8   8   8   8   8   8
#     4  10  17  28  45  66  93 128 172 219 263 305
#     4  11  21  33  48  69  99 137 178 218 259 304
#     4  10  20  34  50  72 102 134 167 207 251 297
#     4  10  20  34  55  80 106 133 164 201 244 294
#     4  10  20  32  45  62  85 114 150 193 235 280
#     4  10  20  33  49  68  90 117 150 187 233 284
#     4   9  17  31  51  72  94 118 148 184 225 274
#     4   9  17  30  47  65  85 114 150 188 230 279
#
# _framework density 17.502773999999999
#
# number of rings (size 3 to 8) (size 9 to 14) (size 15 to 20)
#    0.000    2.125    0.000    5.625    0.000    6.750 
#    0.000    3.750    0.000    0.375    0.000    2.625 
#    0.000    0.500    0.000    5.250    0.000    2.875 
#
# Total GULP energy -357079.239078 kJ/mol
# GULP energy per Si atom -5579.363111 kJ/mol
# Density = 1.746294 g / cm^3
# Si number density = 17.502774 Si / 1000 Ang^3
#
#
#
# Elastic Constant Matrix: (Units=GPa)
#
#
# Indices 1 2 3 4 5 6 
#
# 1 141.8048 18.2143 47.0423 0.0000 0.0000 0.0000
# 2 18.2143 39.7705 12.8274 0.0000 0.0000 0.0000
# 3 47.0423 12.8274 89.1304 0.0000 0.0000 0.0000
# 4 0.0000 0.0000 0.0000 -121.4192 0.0000 0.0000
# 5 0.0000 0.0000 0.0000 0.0000 -18.9677 0.0000
# 6 0.0000 0.0000 0.0000 0.0000 0.0000 3.1167
#
#
#
# Elastic Compliance Matrix: (Units=1/GPa)
#
#
# Indices 1 2 3 4 5 6 
#
# 1 0.008809 -0.002658 -0.004267 0.000000 0.000000 0.000000
# 2 -0.002658 0.027170 -0.002507 0.000000 0.000000 0.000000
# 3 -0.004267 -0.002507 0.013832 0.000000 0.000000 0.000000
# 4 0.000000 0.000000 0.000000 -0.008236 0.000000 0.000000
# 5 0.000000 0.000000 0.000000 0.000000 -0.052721 0.000000
# 6 0.000000 0.000000 0.000000 0.000000 0.000000 0.320851
#
#
# Mechanical properties :
#
#
# Convention : Reuss Voigt Hill
#
# Bulk Modulus (GPa) = 32.31317 47.43041 39.87179
# Shear Modulus (GPa) = 14.75424 -14.61258 0.07083
#
# Velocity S-wave (km/s) = 2.90654 -2.89255 0.20139
# Velocity P-wave (km/s) = 5.45580 4.00023 4.78370
#
# Compressibility (1/GPa) = 0.03094714
#
# Stress axis : x y z
#
# Youngs Moduli (GPa) = 113.52290 36.80485 72.29467
#
# Poissons Ratio (x) = 0.09783 0.30846
# Poissons Ratio (y) = 0.30176 0.18127
# Poissons Ratio (z) = 0.48436 0.09228
#
# Static dielectric constant tensor:
#      x y z
#    x 1.603450 0.000000 0.000000 
#    y 0.000000 1.635580 0.000000 
#    z 0.000000 0.000000 1.593510 
# 
# From -- ./inp_files/7039.got.cif
#   From: 2010.05.17/outbox.cif.g08.bks.cpg/sg49_4_cif.got.tgz:7039.got - 2010.06.03 21:02:19.
