data_PCOD9392611
_publ_section_title
;
Structure prediction by ZEFSAII (Michael W. Deem and Ramdas Pophale) SiO2 
 PCOD9392611
Probable space group: P C C M
;
_chemical_formula_sum "Si O2"
_cell_formula_units_Z 52
_cell_length_a 7.767034
_cell_length_b 14.025684
_cell_length_c 21.311329
_cell_angle_alpha 90.000000
_cell_angle_beta 90.000000
_cell_angle_gamma 90.000000
_cell_volume 2321.612802
_symmetry_space_group_name_H-M "P C C M"
_symmetry_group_IT_number 49
_symmetry_cell_setting 'orthorhombic'
loop_
_space_group_symop_operation_xyz
x,y,z
-x,-y,z
x,-y,1/2-z
-x,y,1/2-z
-x,-y,-z
x,y,-z
-x,y,1/2+z
x,-y,1/2+z
loop_
_atom_site_type_symbol
_atom_site_label
_atom_site_fract_x
_atom_site_fract_y
_atom_site_fract_z
Si Si1 0.690492 0.160598 0.777349
Si Si2 0.065775 0.648819 0.573202
Si Si3 0.292759 0.980136 0.887300
Si Si4 0.199666 0.187065 0.141810
Si Si5 0.290016 0.167205 0.500000
Si Si6 0.433606 0.709677 0.883189
Si Si7 0.717014 0.472249 0.073762
O O1 0.500000 0.135650 0.750000
O O2 0.746388 0.075664 0.822977
O O3 0.804797 0.177784 0.716492
O O4 0.664072 0.253435 0.820896
O O5 0.096888 0.673662 0.500000
O O6 0.058241 0.744486 0.612736
O O7 0.213596 0.575272 0.595065
O O8 0.889638 0.591793 0.576907
O O9 0.251314 0.912842 0.945126
O O10 0.500000 0.000000 0.889050
O O11 0.203445 0.082539 0.887661
O O12 0.378865 0.240870 0.123561
O O13 0.350821 0.243261 0.555087
O O14 0.420231 0.595581 0.891934
O O15 0.676152 0.481839 0.000000
#
# Coordination Sequence:
#
# PCOD9392611 Si02
#       7
#     8   8   8   8   4   8   8
#     4   9  18  32  47  78 108 151 178 207 257 322
#     4   9  21  36  56  79 106 139 177 224 272 330
#     4  11  18  27  50  76 116 146 173 210 266 320
#     4  11  21  30  52  81 112 135 185 223 260 305
#     4  10  19  28  44  85 110 136 170 223 263 306
#     4  10  19  30  56  79 108 137 178 222 265 315
#     4   9  18  39  58  74 104 144 177 213 281 336
#
# _framework density 22.398223000000002
#
# number of rings (size 3 to 8) (size 9 to 14) (size 15 to 20)
#    0.000    2.154    5.385    1.615    2.154    0.615 
#    0.000    3.077    0.000    9.231    0.000    8.615 
#    0.000    0.000    0.000    0.000    0.000    0.000 
#
# Total GULP energy -289677.889717 kJ/mol
# GULP energy per Si atom -5570.728648 kJ/mol
# Density = 2.234724 g / cm^3
# Si number density = 22.398223 Si / 1000 Ang^3
#
#
#
# Elastic Constant Matrix: (Units=GPa)
#
#
# Indices 1 2 3 4 5 6 
#
# 1 62.0873 6.2613 12.9067 0.0000 0.0000 0.0000
# 2 6.2613 121.6049 56.4969 0.0000 0.0000 0.0000
# 3 12.9067 56.4969 115.8334 0.0000 0.0000 0.0000
# 4 0.0000 0.0000 0.0000 30.7665 0.0000 0.0000
# 5 0.0000 0.0000 0.0000 0.0000 9.8012 0.0000
# 6 0.0000 0.0000 0.0000 0.0000 0.0000 25.6863
#
#
#
# Elastic Compliance Matrix: (Units=1/GPa)
#
#
# Indices 1 2 3 4 5 6 
#
# 1 0.016488 0.000006 -0.001840 0.000000 0.000000 0.000000
# 2 0.000006 0.010633 -0.005187 0.000000 0.000000 0.000000
# 3 -0.001840 -0.005187 0.011368 0.000000 0.000000 0.000000
# 4 0.000000 0.000000 0.000000 0.032503 0.000000 0.000000
# 5 0.000000 0.000000 0.000000 0.000000 0.102028 0.000000
# 6 0.000000 0.000000 0.000000 0.000000 0.000000 0.038931
#
#
# Mechanical properties :
#
#
# Convention : Reuss Voigt Hill
#
# Bulk Modulus (GPa) = 40.90449 50.09504 45.49976
# Shear Modulus (GPa) = 21.35457 28.17485 24.76471
#
# Velocity S-wave (km/s) = 3.09108 3.55054 3.32875
# Velocity P-wave (km/s) = 5.57151 6.26280 5.92724
#
# Compressibility (1/GPa) = 0.02444719
#
# Stress axis : x y z
#
# Youngs Moduli (GPa) = 60.64916 94.04893 87.96697
#
# Poissons Ratio (x) = -0.00056 0.16187
# Poissons Ratio (y) = -0.00036 0.45626
# Poissons Ratio (z) = 0.11160 0.48780
#
# Static dielectric constant tensor:
#      x y z
#    x 1.985460 0.000000 0.000000 
#    y 0.000000 1.831300 0.000000 
#    z 0.000000 0.000000 1.764350 
# 
# From -- ./inp_files/19807.got.cif
#   From: 2010.05.17/outbox.cif.g08.bks.cpg/sg49_10_cif.got.tgz:19807.got - 2010.06.03 21:02:19.
