data_PCOD9392222
_publ_section_title
;
Structure prediction by ZEFSAII (Michael W. Deem and Ramdas Pophale) SiO2 
 PCOD9392222
Probable space group: P C C M
;
_chemical_formula_sum "Si O2"
_cell_formula_units_Z 48
_cell_length_a 31.899594
_cell_length_b 9.576372
_cell_length_c 8.595350
_cell_angle_alpha 90.000000
_cell_angle_beta 90.000000
_cell_angle_gamma 90.000000
_cell_volume 2625.727965
_symmetry_space_group_name_H-M "P C C M"
_symmetry_group_IT_number 49
_symmetry_cell_setting 'orthorhombic'
loop_
_space_group_symop_operation_xyz
x,y,z
-x,-y,z
x,-y,1/2-z
-x,y,1/2-z
-x,-y,-z
x,y,-z
-x,y,1/2+z
x,-y,1/2+z
loop_
_atom_site_type_symbol
_atom_site_label
_atom_site_fract_x
_atom_site_fract_y
_atom_site_fract_z
Si Si1 0.292222 0.657098 0.687615
Si Si2 0.044204 0.343050 0.314569
Si Si3 0.881175 0.156028 0.312954
Si Si4 0.213947 0.844647 0.312834
Si Si5 0.368535 0.841514 0.186279
Si Si6 0.456764 0.159309 0.186150
O O1 0.293186 0.500000 0.750000
O O2 0.294371 0.656528 0.500000
O O3 0.249366 0.735665 0.736411
O O4 0.330770 0.746391 0.754260
O O5 0.048038 0.500000 0.250000
O O6 0.042493 0.346413 0.500000
O O7 0.083617 0.255051 0.256959
O O8 0.000000 0.285499 0.250000
O O9 0.883827 0.157282 0.500000
O O10 0.833471 0.196016 0.266714
O O11 0.887794 0.000000 0.250000
O O12 0.214755 0.852225 0.500000
O O13 0.222708 0.000000 0.250000
O O14 0.412897 0.783018 0.250280
O O15 0.363279 0.000000 0.250000
O O16 0.369781 0.846988 0.000000
O O17 0.500000 0.224102 0.250000
O O18 0.456600 0.000000 0.250000
O O19 0.457126 0.157544 0.000000
#
# Coordination Sequence:
#
# PCOD9392222 Si02
#       6
#     8   8   8   8   8   8
#     4  11  23  39  56  80 110 145 184 227 274 325
#     4  11  22  38  58  82 111 148 187 229 274 325
#     4  10  20  37  58  85 115 146 182 226 274 326
#     4   9  20  37  59  83 111 143 181 224 273 327
#     4  11  21  35  55  81 110 145 184 227 274 326
#     4  10  17  28  47  75 108 141 177 223 271 321
#
# _framework density 18.280645
#
# number of rings (size 3 to 8) (size 9 to 14) (size 15 to 20)
#    0.000    1.667    0.000    8.000    0.000    4.333 
#    0.000    3.333    0.000    0.500    0.000    3.500 
#    0.000    0.000    0.000    0.000    0.000    0.000 
#
# Total GULP energy -268072.327928 kJ/mol
# GULP energy per Si atom -5584.840165 kJ/mol
# Density = 1.823904 g / cm^3
# Si number density = 18.280645 Si / 1000 Ang^3
#
#
#
# Elastic Constant Matrix: (Units=GPa)
#
#
# Indices 1 2 3 4 5 6 
#
# 1 199.7465 100.9499 75.5674 0.0000 0.0000 0.0000
# 2 100.9499 84.7515 44.4815 0.0000 0.0000 0.0000
# 3 75.5674 44.4815 142.2580 0.0000 0.0000 0.0000
# 4 0.0000 0.0000 0.0000 28.6280 0.0000 0.0000
# 5 0.0000 0.0000 0.0000 0.0000 36.4577 0.0000
# 6 0.0000 0.0000 0.0000 0.0000 0.0000 -22.8449
#
#
#
# Elastic Compliance Matrix: (Units=1/GPa)
#
#
# Indices 1 2 3 4 5 6 
#
# 1 0.013296 -0.014511 -0.002525 0.000000 0.000000 0.000000
# 2 -0.014511 0.029954 -0.001658 0.000000 0.000000 0.000000
# 3 -0.002525 -0.001658 0.008889 0.000000 0.000000 0.000000
# 4 0.000000 0.000000 0.000000 0.034931 0.000000 0.000000
# 5 0.000000 0.000000 0.000000 0.000000 0.027429 0.000000
# 6 0.000000 0.000000 0.000000 0.000000 0.000000 -0.043773
#
#
# Mechanical properties :
#
#
# Convention : Reuss Voigt Hill
#
# Bulk Modulus (GPa) = 67.79452 96.52819 82.16135
# Shear Modulus (GPa) = 44.23573 22.16530 33.20051
#
# Velocity S-wave (km/s) = 4.92450 3.48588 4.26626
# Velocity P-wave (km/s) = 8.33667 8.31384 8.32526
#
# Compressibility (1/GPa) = 0.01475045
#
# Stress axis : x y z
#
# Youngs Moduli (GPa) = 75.21285 33.38427 112.49659
#
# Poissons Ratio (x) = 0.48445 0.28407
# Poissons Ratio (y) = 1.09145 0.18648
# Poissons Ratio (z) = 0.18992 0.05534
#
# Static dielectric constant tensor:
#      x y z
#    x 1.661020 0.000000 0.000000 
#    y 0.000000 1.591850 0.000000 
#    z 0.000000 0.000000 1.606500 
# 
# From -- ./inp_files/2050.got.cif
#   From: 2010.05.17/outbox.cif.g08.bks.cpg/sg49_2_cif.got.tgz:2050.got - 2010.06.03 21:02:19.
