data_PCOD9392799
_publ_section_title
;
Structure prediction by ZEFSAII (Michael W. Deem and Ramdas Pophale) SiO2 
 PCOD9392799
Probable space group: P C C M
;
_chemical_formula_sum "Si O2"
_cell_formula_units_Z 64
_cell_length_a 24.388680
_cell_length_b 19.738243
_cell_length_c 8.592475
_cell_angle_alpha 90.000000
_cell_angle_beta 90.000000
_cell_angle_gamma 90.000000
_cell_volume 4136.328896
_symmetry_space_group_name_H-M "P C C M"
_symmetry_group_IT_number 49
_symmetry_cell_setting 'orthorhombic'
loop_
_space_group_symop_operation_xyz
x,y,z
-x,-y,z
x,-y,1/2-z
-x,y,1/2-z
-x,-y,-z
x,y,-z
-x,y,1/2+z
x,-y,1/2+z
loop_
_atom_site_type_symbol
_atom_site_label
_atom_site_fract_x
_atom_site_fract_y
_atom_site_fract_z
Si Si1 0.113859 0.572228 0.812564
Si Si2 0.835953 0.796474 0.311179
Si Si3 0.667147 0.844167 0.186347
Si Si4 0.060072 0.712651 0.188446
Si Si5 0.241806 0.572226 0.812459
Si Si6 0.228384 0.075097 0.313302
Si Si7 0.725123 0.717340 0.687999
Si Si8 0.559806 0.924603 0.813218
O O1 0.093922 0.500000 0.750000
O O2 0.079370 0.637358 0.761538
O O3 0.177768 0.580229 0.764354
O O4 0.113112 0.570614 0.000000
O O5 0.837603 0.796183 0.500000
O O6 0.893137 0.765217 0.257413
O O7 0.818896 0.871964 0.262028
O O8 0.784750 0.748286 0.268396
O O9 0.714576 0.892298 0.255748
O O10 0.680551 0.768364 0.242966
O O11 0.608146 0.873558 0.233576
O O12 0.670840 0.846693 0.000000
O O13 0.000000 0.728126 0.250000
O O14 0.059450 0.713255 0.000000
O O15 0.261448 0.500000 0.750000
O O16 0.274810 0.639032 0.762410
O O17 0.242334 0.570679 0.000000
O O18 0.229364 0.073619 0.500000
O O19 0.221166 0.000000 0.250000
O O20 0.721545 0.720092 0.500000
O O21 0.500000 0.905136 0.750000
O O22 0.572119 0.000000 0.750000
O O23 0.557627 0.927861 0.000000
#
# Coordination Sequence:
#
# PCOD9392799 Si02
#       8
#     8   8   8   8   8   8   8   8
#     4   9  17  29  45  61  84 113 144 180 216 260
#     4   8  15  30  48  62  82 113 143 173 220 272
#     4  10  20  31  45  70  99 124 154 192 227 261
#     4  10  19  32  47  62  82 110 144 182 220 265
#     4   9  16  27  44  65  88 118 152 183 223 272
#     4  10  19  31  50  71  91 117 145 179 224 272
#     4   9  16  29  48  66  87 120 155 186 227 274
#     4  10  20  32  47  66  93 129 165 195 223 257
#
# _framework density 15.472657999999999
#
# number of rings (size 3 to 8) (size 9 to 14) (size 15 to 20)
#    0.000    2.625    1.250    2.625    0.000    4.250 
#    0.000    4.375    0.000    0.375    0.000    2.625 
#    0.000    0.500    0.000    5.500    0.000    4.000 
#
# Total GULP energy -356698.016736 kJ/mol
# GULP energy per Si atom -5573.406512 kJ/mol
# Density = 1.543744 g / cm^3
# Si number density = 15.472658 Si / 1000 Ang^3
#
#
#
# Elastic Constant Matrix: (Units=GPa)
#
#
# Indices 1 2 3 4 5 6 
#
# 1 106.5553 75.1457 24.6584 0.0000 0.0000 0.0000
# 2 75.1457 145.2375 28.8598 0.0000 0.0000 0.0000
# 3 24.6584 28.8598 21.8761 0.0000 0.0000 0.0000
# 4 0.0000 0.0000 0.0000 19.9762 0.0000 0.0000
# 5 0.0000 0.0000 0.0000 0.0000 21.0760 0.0000
# 6 0.0000 0.0000 0.0000 0.0000 0.0000 25.5986
#
#
#
# Elastic Compliance Matrix: (Units=1/GPa)
#
#
# Indices 1 2 3 4 5 6 
#
# 1 0.016178 -0.006433 -0.009748 0.000000 0.000000 0.000000
# 2 -0.006433 0.011890 -0.008434 0.000000 0.000000 0.000000
# 3 -0.009748 -0.008434 0.067827 0.000000 0.000000 0.000000
# 4 0.000000 0.000000 0.000000 0.050060 0.000000 0.000000
# 5 0.000000 0.000000 0.000000 0.000000 0.047447 0.000000
# 6 0.000000 0.000000 0.000000 0.000000 0.000000 0.039065
#
#
# Mechanical properties :
#
#
# Convention : Reuss Voigt Hill
#
# Bulk Modulus (GPa) = 21.43022 58.99964 40.21493
# Shear Modulus (GPa) = 16.82085 22.99717 19.90901
#
# Velocity S-wave (km/s) = 3.30075 3.85945 3.59098
# Velocity P-wave (km/s) = 5.32982 7.62068 6.57578
#
# Compressibility (1/GPa) = 0.04666308
#
# Stress axis : x y z
#
# Youngs Moduli (GPa) = 61.81415 84.10641 14.74349
#
# Poissons Ratio (x) = 0.54107 0.14372
# Poissons Ratio (y) = 0.39766 0.12435
# Poissons Ratio (z) = 0.60257 0.70935
#
# Static dielectric constant tensor:
#      x y z
#    x 1.498850 0.000000 0.000000 
#    y 0.000000 1.524820 0.000000 
#    z 0.000000 0.000000 1.529860 
# 
# From -- ./inp_files/6077.got.cif
#   From: 2010.05.17/outbox.cif.g08.bks.cpg/sg49_4_cif.got.tgz:6077.got - 2010.06.03 21:02:19.
