data_PCOD9392955
_publ_section_title
;
Structure prediction by ZEFSAII (Michael W. Deem and Ramdas Pophale) SiO2 
 PCOD9392955
Probable space group: P C C M
;
_chemical_formula_sum "Si O2"
_cell_formula_units_Z 64
_cell_length_a 22.905715
_cell_length_b 17.839676
_cell_length_c 9.154452
_cell_angle_alpha 90.000000
_cell_angle_beta 90.000000
_cell_angle_gamma 90.000000
_cell_volume 3740.788611
_symmetry_space_group_name_H-M "P C C M"
_symmetry_group_IT_number 49
_symmetry_cell_setting 'orthorhombic'
loop_
_space_group_symop_operation_xyz
x,y,z
-x,-y,z
x,-y,1/2-z
-x,y,1/2-z
-x,-y,-z
x,y,-z
-x,y,1/2+z
x,-y,1/2+z
loop_
_atom_site_type_symbol
_atom_site_label
_atom_site_fract_x
_atom_site_fract_y
_atom_site_fract_z
Si Si1 0.854178 0.922351 0.333112
Si Si2 0.662060 0.694380 0.664466
Si Si3 0.756578 0.580532 0.324024
Si Si4 0.835914 0.306469 0.663374
Si Si5 0.436721 0.801447 0.821837
Si Si6 0.749261 0.179454 0.249805
Si Si7 0.062625 0.195208 0.175286
Si Si8 0.355912 0.078010 0.832342
O O1 0.872400 0.935347 0.500000
O O2 0.794684 0.873765 0.332526
O O3 0.902323 0.873913 0.246886
O O4 0.844252 0.000000 0.250000
O O5 0.647582 0.671680 0.500000
O O6 0.698544 0.625736 0.730249
O O7 0.603416 0.730486 0.727591
O O8 0.707803 0.763857 0.660733
O O9 0.759747 0.500000 0.250000
O O10 0.755159 0.575737 0.500000
O O11 0.810474 0.632586 0.273621
O O12 0.838816 0.338366 0.500000
O O13 0.790453 0.236582 0.661883
O O14 0.897392 0.268693 0.703135
O O15 0.500000 0.796944 0.750000
O O16 0.403260 0.873857 0.757881
O O17 0.438458 0.803879 0.000000
O O18 0.703916 0.125991 0.331961
O O19 0.000000 0.201634 0.250000
O O20 0.058410 0.185871 0.000000
O O21 0.346205 0.000000 0.750000
O O22 0.374531 0.066560 0.000000
#
# Coordination Sequence:
#
# PCOD9392955 Si02
#       8
#     8   8   8   8   8   8   8   8
#     4  11  22  34  50  72 101 135 173 217 267 316
#     4   8  16  31  51  75 102 131 164 201 243 294
#     4  10  19  32  53  82 113 141 165 195 240 293
#     4   9  18  33  53  78 105 133 166 205 246 297
#     4  10  20  36  55  74  97 128 170 215 257 302
#     4   9  18  31  51  74 100 130 166 209 256 308
#     4  10  21  37  56  76 100 132 174 218 260 305
#     4  11  22  34  49  71  99 132 169 212 262 311
#
# _framework density 17.108692999999999
#
# number of rings (size 3 to 8) (size 9 to 14) (size 15 to 20)
#    0.000    2.250    0.000    3.000    0.000    8.000 
#    0.000    4.375    0.000    0.750    0.000    5.250 
#    0.000    0.000    0.000    0.000    0.000    0.000 
#
# Total GULP energy -356547.069090 kJ/mol
# GULP energy per Si atom -5571.047955 kJ/mol
# Density = 1.706975 g / cm^3
# Si number density = 17.108693 Si / 1000 Ang^3
#
#
#
# Elastic Constant Matrix: (Units=GPa)
#
#
# Indices 1 2 3 4 5 6 
#
# 1 120.8032 45.7186 37.7387 0.0000 0.0000 0.0000
# 2 45.7186 112.1466 50.7110 0.0000 0.0000 0.0000
# 3 37.7387 50.7110 99.9339 0.0000 0.0000 0.0000
# 4 0.0000 0.0000 0.0000 14.4206 0.0000 0.0000
# 5 0.0000 0.0000 0.0000 0.0000 20.1857 0.0000
# 6 0.0000 0.0000 0.0000 0.0000 0.0000 12.7005
#
#
#
# Elastic Compliance Matrix: (Units=1/GPa)
#
#
# Indices 1 2 3 4 5 6 
#
# 1 0.010164 -0.003125 -0.002253 0.000000 0.000000 0.000000
# 2 -0.003125 0.012533 -0.005180 0.000000 0.000000 0.000000
# 3 -0.002253 -0.005180 0.013486 0.000000 0.000000 0.000000
# 4 0.000000 0.000000 0.000000 0.069345 0.000000 0.000000
# 5 0.000000 0.000000 0.000000 0.000000 0.049540 0.000000
# 6 0.000000 0.000000 0.000000 0.000000 0.000000 0.078737
#
#
# Mechanical properties :
#
#
# Convention : Reuss Voigt Hill
#
# Bulk Modulus (GPa) = 66.36444 66.80226 66.58335
# Shear Modulus (GPa) = 19.23499 22.70906 20.97203
#
# Velocity S-wave (km/s) = 3.35667 3.64722 3.50496
# Velocity P-wave (km/s) = 7.34146 7.54101 7.44191
#
# Compressibility (1/GPa) = 0.01506831
#
# Stress axis : x y z
#
# Youngs Moduli (GPa) = 98.38317 79.78885 74.15261
#
# Poissons Ratio (x) = 0.24935 0.16704
# Poissons Ratio (y) = 0.30745 0.38409
# Poissons Ratio (z) = 0.22162 0.41328
#
# Static dielectric constant tensor:
#      x y z
#    x 1.581360 0.000000 0.000000 
#    y 0.000000 1.566410 0.000000 
#    z 0.000000 0.000000 1.594940 
# 
# From -- ./inp_files/5931.got.cif
#   From: 2010.05.17/outbox.cif.g08.bks.cpg/sg49_3_cif.got.tgz:5931.got - 2010.06.03 21:02:19.
