data_PCOD9392671
_publ_section_title
;
Structure prediction by ZEFSAII (Michael W. Deem and Ramdas Pophale) SiO2 
 PCOD9392671
Probable space group: P C C M
;
_chemical_formula_sum "Si O2"
_cell_formula_units_Z 52
_cell_length_a 18.936526
_cell_length_b 4.973850
_cell_length_c 28.186780
_cell_angle_alpha 90.000000
_cell_angle_beta 90.000000
_cell_angle_gamma 90.000000
_cell_volume 2654.840646
_symmetry_space_group_name_H-M "P C C M"
_symmetry_group_IT_number 49
_symmetry_cell_setting 'orthorhombic'
loop_
_space_group_symop_operation_xyz
x,y,z
-x,-y,z
x,-y,1/2-z
-x,y,1/2-z
-x,-y,-z
x,y,-z
-x,y,1/2+z
x,-y,1/2+z
loop_
_atom_site_type_symbol
_atom_site_label
_atom_site_fract_x
_atom_site_fract_y
_atom_site_fract_z
Si Si1 0.081315 0.059098 0.139414
Si Si2 0.377057 0.962662 0.094347
Si Si3 0.081921 0.437744 0.699586
Si Si4 0.579046 0.541765 0.151933
Si Si5 0.447052 0.755903 0.000000
Si Si6 0.229594 0.921837 0.863725
Si Si7 0.725194 0.593666 0.196372
O O1 0.096121 0.364277 0.155262
O O2 0.087230 0.872137 0.186250
O O3 0.152116 0.957739 0.113079
O O4 0.000000 0.000000 0.122077
O O5 0.399020 0.751968 0.134463
O O6 0.292859 0.994820 0.100148
O O7 0.416000 0.242563 0.108136
O O8 0.399633 0.813392 0.046305
O O9 0.116799 0.500000 0.750000
O O10 0.000000 0.500000 0.705105
O O11 0.500000 0.500000 0.170143
O O12 0.641240 0.631192 0.186921
O O13 0.500000 0.500000 0.000000
O O14 0.500000 0.000000 0.000000
O O15 0.244431 0.632322 0.839970
O O16 0.238535 0.130846 0.820034
O O17 0.733784 0.500000 0.250000
#
# Coordination Sequence:
#
# PCOD9392671 Si02
#       7
#     8   8   8   8   4   8   8
#     4  10  19  30  45  64  85 118 163 201 239 290
#     4  10  21  35  51  76 104 131 157 191 249 302
#     4   9  17  27  39  60  88 114 150 204 254 287
#     4  10  19  34  53  72 100 131 163 204 244 284
#     4  12  22  34  58  86 107 128 161 198 238 306
#     4  10  21  35  49  67  99 133 162 205 254 294
#     4  10  21  34  49  69  94 132 174 207 245 291
#
# _framework density 19.586863000000001
#
# number of rings (size 3 to 8) (size 9 to 14) (size 15 to 20)
#    0.000    2.000    0.000    4.615    0.000    5.846 
#    0.000    0.000    0.000    5.538    0.000    0.538 
#    0.000    0.000    0.000   18.615    0.000    0.000 
#
# Total GULP energy -289483.956834 kJ/mol
# GULP energy per Si atom -5566.999170 kJ/mol
# Density = 1.954228 g / cm^3
# Si number density = 19.586863 Si / 1000 Ang^3
#
#
#
# Elastic Constant Matrix: (Units=GPa)
#
#
# Indices 1 2 3 4 5 6 
#
# 1 176.4844 9.8701 22.4558 0.0000 0.0000 0.0000
# 2 9.8701 95.0775 -2.7780 0.0000 0.0000 0.0000
# 3 22.4558 -2.7780 34.9139 0.0000 0.0000 0.0000
# 4 0.0000 0.0000 0.0000 18.6209 0.0000 0.0000
# 5 0.0000 0.0000 0.0000 0.0000 -4.2979 0.0000
# 6 0.0000 0.0000 0.0000 0.0000 0.0000 28.0151
#
#
#
# Elastic Compliance Matrix: (Units=1/GPa)
#
#
# Indices 1 2 3 4 5 6 
#
# 1 0.006226 -0.000765 -0.004065 0.000000 0.000000 0.000000
# 2 -0.000765 0.010636 0.001338 0.000000 0.000000 0.000000
# 3 -0.004065 0.001338 0.031363 0.000000 0.000000 0.000000
# 4 0.000000 0.000000 0.000000 0.053703 0.000000 0.000000
# 5 0.000000 0.000000 0.000000 0.000000 -0.232669 0.000000
# 6 0.000000 0.000000 0.000000 0.000000 0.000000 0.035695
#
#
# Mechanical properties :
#
#
# Convention : Reuss Voigt Hill
#
# Bulk Modulus (GPa) = 24.24751 40.61906 32.43328
# Shear Modulus (GPa) = -67.28231 26.92947 -20.17642
#
# Velocity S-wave (km/s) = -5.86731 3.71195 -3.21300
# Velocity P-wave (km/s) = 5.78741 6.25735 1.68231
#
# Compressibility (1/GPa) = 0.04124135
#
# Stress axis : x y z
#
# Youngs Moduli (GPa) = 160.60885 94.01795 31.88448
#
# Poissons Ratio (x) = 0.07194 0.12963
# Poissons Ratio (y) = 0.12289 -0.04267
# Poissons Ratio (z) = 0.65295 -0.12584
#
# Static dielectric constant tensor:
#      x y z
#    x 1.808050 0.000000 0.000000 
#    y 0.000000 1.657140 0.000000 
#    z 0.000000 0.000000 1.676870 
# 
# From -- ./inp_files/26868.got.cif
#   From: 2010.05.17/outbox.cif.g08.bks.cpg/sg49_14_cif.got.tgz:26868.got - 2010.06.03 21:02:19.
