data_PCOD9392693
_publ_section_title
;
Structure prediction by ZEFSAII (Michael W. Deem and Ramdas Pophale) SiO2 
 PCOD9392693
Probable space group: P C C M
;
_chemical_formula_sum "Si O2"
_cell_formula_units_Z 40
_cell_length_a 9.465356
_cell_length_b 20.521795
_cell_length_c 10.918056
_cell_angle_alpha 90.000000
_cell_angle_beta 90.000000
_cell_angle_gamma 90.000000
_cell_volume 2120.789748
_symmetry_space_group_name_H-M "P C C M"
_symmetry_group_IT_number 49
_symmetry_cell_setting 'orthorhombic'
loop_
_space_group_symop_operation_xyz
x,y,z
-x,-y,z
x,-y,1/2-z
-x,y,1/2-z
-x,-y,-z
x,y,-z
-x,y,1/2+z
x,-y,1/2+z
loop_
_atom_site_type_symbol
_atom_site_label
_atom_site_fract_x
_atom_site_fract_y
_atom_site_fract_z
Si Si1 0.072288 0.428677 0.133652
Si Si2 0.843605 0.967587 0.132602
Si Si3 0.101551 0.813502 0.361563
Si Si4 0.600011 0.411109 0.362092
Si Si5 0.596194 0.254071 0.363508
O O1 0.239595 0.435584 0.152804
O O2 0.000000 0.500000 0.126991
O O3 0.000000 0.394634 0.250000
O O4 0.051480 0.396805 0.000000
O O5 0.864551 0.890608 0.149125
O O6 0.771454 0.000000 0.250000
O O7 0.775422 0.979307 0.000000
O O8 0.000000 0.000000 0.126840
O O9 0.043236 0.803128 0.500000
O O10 0.247977 0.775089 0.352496
O O11 0.000000 0.795319 0.250000
O O12 0.500000 0.430670 0.250000
O O13 0.550420 0.428805 0.500000
O O14 0.606934 0.332440 0.358807
O O15 0.500000 0.232468 0.250000
O O16 0.540959 0.236641 0.500000
#
# Coordination Sequence:
#
# PCOD9392693 Si02
#       5
#     8   8   8   8   8
#     4   9  18  33  52  75 104 135 166 204 251 296
#     4   9  15  25  42  65  92 123 158 199 245 291
#     4  10  19  30  47  74 102 127 163 210 255 298
#     4   9  18  34  55  76  99 133 174 209 245 295
#     4   9  19  35  52  72 101 134 168 208 251 297
#
# _framework density 18.860897999999999
#
# number of rings (size 3 to 8) (size 9 to 14) (size 15 to 20)
#    0.000    2.800    2.000    0.000    0.000    2.400 
#    0.000    2.000    0.000   11.400    0.000    4.200 
#    0.000    0.000    0.000    0.000    0.000    0.000 
#
# Total GULP energy -222824.457941 kJ/mol
# GULP energy per Si atom -5570.611449 kJ/mol
# Density = 1.881797 g / cm^3
# Si number density = 18.860898 Si / 1000 Ang^3
#
#
#
# Elastic Constant Matrix: (Units=GPa)
#
#
# Indices 1 2 3 4 5 6 
#
# 1 71.1127 19.1194 88.1317 0.0000 0.0000 0.0000
# 2 19.1194 50.4728 29.4939 0.0000 0.0000 0.0000
# 3 88.1317 29.4939 241.0132 0.0000 0.0000 0.0000
# 4 0.0000 0.0000 0.0000 9.7755 0.0000 0.0000
# 5 0.0000 0.0000 0.0000 0.0000 31.8492 0.0000
# 6 0.0000 0.0000 0.0000 0.0000 0.0000 29.8029
#
#
#
# Elastic Compliance Matrix: (Units=1/GPa)
#
#
# Indices 1 2 3 4 5 6 
#
# 1 0.026736 -0.004755 -0.009195 0.000000 0.000000 0.000000
# 2 -0.004755 0.022184 -0.000976 0.000000 0.000000 0.000000
# 3 -0.009195 -0.000976 0.007631 0.000000 0.000000 0.000000
# 4 0.000000 0.000000 0.000000 0.102296 0.000000 0.000000
# 5 0.000000 0.000000 0.000000 0.000000 0.031398 0.000000
# 6 0.000000 0.000000 0.000000 0.000000 0.000000 0.033554
#
#
# Mechanical properties :
#
#
# Convention : Reuss Voigt Hill
#
# Bulk Modulus (GPa) = 37.45360 70.67653 54.06506
# Shear Modulus (GPa) = 19.04402 29.34244 24.19323
#
# Velocity S-wave (km/s) = 3.18104 3.94855 3.58539
# Velocity P-wave (km/s) = 5.77866 7.63819 6.77255
#
# Compressibility (1/GPa) = 0.02669970
#
# Stress axis : x y z
#
# Youngs Moduli (GPa) = 37.40328 45.07725 131.04774
#
# Poissons Ratio (x) = 0.21433 1.20493
# Poissons Ratio (y) = 0.17784 0.12792
# Poissons Ratio (z) = 0.34391 0.04400
#
# Static dielectric constant tensor:
#      x y z
#    x 1.564780 0.000000 0.000000 
#    y 0.000000 1.648100 0.000000 
#    z 0.000000 0.000000 1.746550 
# 
# From -- ./inp_files/8208.got.cif
#   From: 2010.05.17/outbox.cif.g08.bks.cpg/sg49_5_cif.got.tgz:8208.got - 2010.06.03 21:02:19.
