data_PCOD9392784
_publ_section_title
;
Structure prediction by ZEFSAII (Michael W. Deem and Ramdas Pophale) SiO2 
 PCOD9392784
Probable space group: P C C M
;
_chemical_formula_sum "Si O2"
_cell_formula_units_Z 58
_cell_length_a 32.128791
_cell_length_b 5.501834
_cell_length_c 14.508424
_cell_angle_alpha 90.000000
_cell_angle_beta 90.000000
_cell_angle_gamma 90.000000
_cell_volume 2564.614571
_symmetry_space_group_name_H-M "P C C M"
_symmetry_group_IT_number 49
_symmetry_cell_setting 'orthorhombic'
loop_
_space_group_symop_operation_xyz
x,y,z
-x,-y,z
x,-y,1/2-z
-x,y,1/2-z
-x,-y,-z
x,y,-z
-x,y,1/2+z
x,-y,1/2+z
loop_
_atom_site_type_symbol
_atom_site_label
_atom_site_fract_x
_atom_site_fract_y
_atom_site_fract_z
Si Si1 0.173620 0.913943 0.387354
Si Si2 0.042392 0.611180 0.147608
Si Si3 0.729245 0.914229 0.887603
Si Si4 0.591698 0.503741 0.639544
Si Si5 0.000000 0.000000 0.250000
Si Si6 0.689213 0.584107 0.608855
Si Si7 0.136229 0.413126 0.605049
Si Si8 0.451649 0.998675 0.362321
O O1 0.169609 0.908214 0.500000
O O2 0.222202 0.936310 0.365177
O O3 0.154577 0.659620 0.353009
O O4 0.150098 0.155457 0.353975
O O5 0.045463 0.500000 0.250000
O O6 0.086331 0.573646 0.102091
O O7 0.000000 0.500000 0.105622
O O8 0.031439 0.882540 0.175931
O O9 0.712098 0.655325 0.853213
O O10 0.703973 0.152633 0.855117
O O11 0.725843 0.908470 0.000000
O O12 0.587046 0.500000 0.750000
O O13 0.640280 0.535224 0.618764
O O14 0.572116 0.247298 0.607304
O O15 0.568968 0.748754 0.606540
O O16 0.699130 0.592215 0.500000
O O17 0.152457 0.407939 0.500000
O O18 0.500000 0.000000 0.388726
O O19 0.450145 0.000000 0.250000
#
# Coordination Sequence:
#
# PCOD9392784 Si02
#       8
#     8   8   8   8   2   8   8   8
#     4   9  18  32  51  76 104 130 162 205 250 299
#     4   9  20  35  54  74  99 138 175 205 240 296
#     4   9  17  31  51  73  97 130 167 199 239 289
#     4  10  19  31  49  73  98 125 159 202 252 288
#     4   8  18  36  54  70  96 136 182 202 238 288
#     4  10  19  31  51  74  97 128 166 204 238 287
#     4  10  20  33  53  80 105 128 161 210 260 293
#     4   9  17  30  49  71  95 126 166 203 237 289
#
# _framework density 22.615483000000001
#
# number of rings (size 3 to 8) (size 9 to 14) (size 15 to 20)
#    0.000    2.759    0.000    2.069    3.862    5.241 
#    0.000    0.345    0.000    7.448    0.000    0.000 
#    0.000    0.000    0.000    0.000    0.000    0.000 
#
# Total GULP energy -323606.301232 kJ/mol
# GULP energy per Si atom -5579.418987 kJ/mol
# Density = 2.256401 g / cm^3
# Si number density = 22.615483 Si / 1000 Ang^3
#
#
#
# Elastic Constant Matrix: (Units=GPa)
#
#
# Indices 1 2 3 4 5 6 
#
# 1 142.1183 102.0503 -19.8140 0.0000 0.0000 0.0000
# 2 102.0503 217.5662 9.5004 0.0000 0.0000 0.0000
# 3 -19.8140 9.5004 61.1646 0.0000 0.0000 0.0000
# 4 0.0000 0.0000 0.0000 -3.1770 0.0000 0.0000
# 5 0.0000 0.0000 0.0000 0.0000 25.9573 0.0000
# 6 0.0000 0.0000 0.0000 0.0000 0.0000 57.8152
#
#
#
# Elastic Compliance Matrix: (Units=1/GPa)
#
#
# Indices 1 2 3 4 5 6 
#
# 1 0.011827 -0.005754 0.004725 0.000000 0.000000 0.000000
# 2 -0.005754 0.007427 -0.003017 0.000000 0.000000 0.000000
# 3 0.004725 -0.003017 0.018349 0.000000 0.000000 0.000000
# 4 0.000000 0.000000 0.000000 -0.314764 0.000000 0.000000
# 5 0.000000 0.000000 0.000000 0.000000 0.038525 0.000000
# 6 0.000000 0.000000 0.000000 0.000000 0.000000 0.017296
#
#
# Mechanical properties :
#
#
# Convention : Reuss Voigt Hill
#
# Bulk Modulus (GPa) = 33.88725 67.14695 50.51710
# Shear Modulus (GPa) = -24.58072 38.05994 6.73961
#
# Velocity S-wave (km/s) = -3.30039 4.10679 1.72817
# Velocity P-wave (km/s) = 0.70228 7.22791 5.13497
#
# Compressibility (1/GPa) = 0.02950962
#
# Stress axis : x y z
#
# Youngs Moduli (GPa) = 84.55495 134.64686 54.50008
#
# Poissons Ratio (x) = 0.77471 -0.25751
# Poissons Ratio (y) = 0.48650 0.16445
# Poissons Ratio (z) = -0.39951 0.40629
#
# Static dielectric constant tensor:
#      x y z
#    x 1.765660 0.000000 0.000000 
#    y 0.000000 1.834670 0.000000 
#    z 0.000000 0.000000 1.879760 
# 
# From -- ./inp_files/18427.got.cif
#   From: 2010.05.17/outbox.cif.g08.bks.cpg/sg49_10_cif.got.tgz:18427.got - 2010.06.03 21:02:19.
