data_PCOD9392537
_publ_section_title
;
Structure prediction by ZEFSAII (Michael W. Deem and Ramdas Pophale) SiO2 
 PCOD9392537
Probable space group: P C C M
;
_chemical_formula_sum "Si O2"
_cell_formula_units_Z 64
_cell_length_a 9.946723
_cell_length_b 17.141835
_cell_length_c 19.635503
_cell_angle_alpha 90.000000
_cell_angle_beta 90.000000
_cell_angle_gamma 90.000000
_cell_volume 3347.953097
_symmetry_space_group_name_H-M "P C C M"
_symmetry_group_IT_number 49
_symmetry_cell_setting 'orthorhombic'
loop_
_space_group_symop_operation_xyz
x,y,z
-x,-y,z
x,-y,1/2-z
-x,y,1/2-z
-x,-y,-z
x,y,-z
-x,y,1/2+z
x,-y,1/2+z
loop_
_atom_site_type_symbol
_atom_site_label
_atom_site_fract_x
_atom_site_fract_y
_atom_site_fract_z
Si Si1 0.277743 0.208078 0.420344
Si Si2 0.013751 0.208560 0.671935
Si Si3 0.511090 0.911554 0.082516
Si Si4 0.228985 0.185451 0.080097
Si Si5 0.269516 0.627431 0.576624
Si Si6 0.647448 0.586526 0.277408
Si Si7 0.588397 0.621204 0.575815
Si Si8 0.106485 0.623250 0.299414
O O1 0.232522 0.199804 0.500000
O O2 0.155342 0.206776 0.367283
O O3 0.379645 0.138889 0.402240
O O4 0.364103 0.288555 0.419067
O O5 0.000000 0.179563 0.750000
O O6 0.901939 0.168793 0.624475
O O7 0.970525 0.299359 0.677015
O O8 0.643832 0.864744 0.104435
O O9 0.500000 0.000000 0.107649
O O10 0.519115 0.913952 0.000000
O O11 0.260449 0.278230 0.085138
O O12 0.205574 0.169749 0.000000
O O13 0.227145 0.608302 0.500000
O O14 0.427867 0.610269 0.583363
O O15 0.173221 0.588746 0.632581
O O16 0.673048 0.500000 0.250000
O O17 0.500000 0.610455 0.250000
O O18 0.651560 0.582300 0.358405
O O19 0.762383 0.641095 0.246640
O O20 0.626046 0.593104 0.500000
O O21 0.000000 0.581931 0.250000
#
# Coordination Sequence:
#
# PCOD9392537 Si02
#       8
#     8   8   8   8   8   8   8   8
#     4  10  19  34  58  86 113 142 184 240 288 334
#     4  10  20  33  50  80 110 141 187 232 279 334
#     4   9  17  31  54  84 112 141 186 237 283 335
#     4   9  16  30  51  76 107 142 176 221 280 332
#     4   9  16  29  52  82 109 137 178 229 283 333
#     4  11  23  39  57  82 115 148 189 234 288 352
#     4  10  18  33  58  86 111 141 185 237 290 336
#     4  10  20  36  53  78 109 143 184 227 281 338
#
# _framework density 19.116157000000001
#
# number of rings (size 3 to 8) (size 9 to 14) (size 15 to 20)
#    0.000    2.250    2.500    1.875    0.000    0.750 
#    0.000    3.750    0.000    5.250    0.000    3.500 
#    0.000    0.000    0.000    0.000    0.000    0.000 
#
# Total GULP energy -356771.134899 kJ/mol
# GULP energy per Si atom -5574.548983 kJ/mol
# Density = 1.907265 g / cm^3
# Si number density = 19.116157 Si / 1000 Ang^3
#
#
#
# Elastic Constant Matrix: (Units=GPa)
#
#
# Indices 1 2 3 4 5 6 
#
# 1 112.3168 31.5675 55.3352 0.0000 0.0000 0.0000
# 2 31.5675 60.4632 30.3288 0.0000 0.0000 0.0000
# 3 55.3352 30.3288 141.9829 0.0000 0.0000 0.0000
# 4 0.0000 0.0000 0.0000 2.3413 0.0000 0.0000
# 5 0.0000 0.0000 0.0000 0.0000 41.9238 0.0000
# 6 0.0000 0.0000 0.0000 0.0000 0.0000 -0.2453
#
#
#
# Elastic Compliance Matrix: (Units=1/GPa)
#
#
# Indices 1 2 3 4 5 6 
#
# 1 0.011972 -0.004379 -0.003730 0.000000 0.000000 0.000000
# 2 -0.004379 0.020126 -0.002592 0.000000 0.000000 0.000000
# 3 -0.003730 -0.002592 0.009051 0.000000 0.000000 0.000000
# 4 0.000000 0.000000 0.000000 0.427114 0.000000 0.000000
# 5 0.000000 0.000000 0.000000 0.000000 0.023853 0.000000
# 6 0.000000 0.000000 0.000000 0.000000 0.000000 -4.077449
#
#
# Mechanical properties :
#
#
# Convention : Reuss Voigt Hill
#
# Bulk Modulus (GPa) = 50.64721 61.02511 55.83616
# Shear Modulus (GPa) = -1.40554 21.97272 10.28359
#
# Velocity S-wave (km/s) = -0.85841 3.39401 2.32190
# Velocity P-wave (km/s) = 5.05663 6.88125 6.03826
#
# Compressibility (1/GPa) = 0.01974442
#
# Stress axis : x y z
#
# Youngs Moduli (GPa) = 83.52736 49.68765 110.48865
#
# Poissons Ratio (x) = 0.21760 0.41217
# Poissons Ratio (y) = 0.36580 0.28642
# Poissons Ratio (z) = 0.31159 0.12880
#
# Static dielectric constant tensor:
#      x y z
#    x 1.673010 0.000000 0.000000 
#    y 0.000000 1.666330 0.000000 
#    z 0.000000 0.000000 1.704820 
# 
# From -- ./inp_files/20016.got.cif
#   From: 2010.05.17/outbox.cif.g08.bks.cpg/sg49_11_cif.got.tgz:20016.got - 2010.06.03 21:02:19.
