data_PCOD9392349
_publ_section_title
;
Structure prediction by ZEFSAII (Michael W. Deem and Ramdas Pophale) SiO2 
 PCOD9392349
Probable space group: P C C M
;
_chemical_formula_sum "Si O2"
_cell_formula_units_Z 64
_cell_length_a 19.527213
_cell_length_b 24.097019
_cell_length_c 8.676669
_cell_angle_alpha 90.000000
_cell_angle_beta 90.000000
_cell_angle_gamma 90.000000
_cell_volume 4082.785971
_symmetry_space_group_name_H-M "P C C M"
_symmetry_group_IT_number 49
_symmetry_cell_setting 'orthorhombic'
loop_
_space_group_symop_operation_xyz
x,y,z
-x,-y,z
x,-y,1/2-z
-x,y,1/2-z
-x,-y,-z
x,y,-z
-x,y,1/2+z
x,-y,1/2+z
loop_
_atom_site_type_symbol
_atom_site_label
_atom_site_fract_x
_atom_site_fract_y
_atom_site_fract_z
Si Si1 0.287261 0.727855 0.684370
Si Si2 0.924451 0.772742 0.684464
Si Si3 0.924264 0.560716 0.684546
Si Si4 0.572224 0.243363 0.183651
Si Si5 0.799296 0.162719 0.314828
Si Si6 0.572407 0.114206 0.185427
Si Si7 0.152356 0.665018 0.685631
Si Si8 0.715857 0.939157 0.314547
O O1 0.295256 0.727069 0.500000
O O2 0.361132 0.724054 0.760508
O O3 0.252985 0.787129 0.726520
O O4 0.230264 0.682150 0.726204
O O5 0.925409 0.770339 0.500000
O O6 0.871520 0.819530 0.742295
O O7 0.895202 0.714728 0.751175
O O8 0.000000 0.782038 0.750000
O O9 0.906336 0.500000 0.750000
O O10 0.927089 0.559117 0.500000
O O11 0.872792 0.607697 0.743010
O O12 0.000000 0.574157 0.750000
O O13 0.500000 0.263644 0.250000
O O14 0.580138 0.178711 0.235378
O O15 0.569219 0.243624 0.000000
O O16 0.804972 0.161366 0.500000
O O17 0.768528 0.106046 0.250770
O O18 0.500000 0.093400 0.250000
O O19 0.639248 0.080211 0.233975
O O20 0.569338 0.113451 0.000000
O O21 0.146755 0.663764 0.500000
O O22 0.718489 0.938925 0.500000
O O23 0.729733 0.000000 0.250000
#
# Coordination Sequence:
#
# PCOD9392349 Si02
#       8
#     8   8   8   8   8   8   8   8
#     4   9  18  31  49  71  97 127 160 200 247 292
#     4  11  21  34  53  77 103 130 160 199 243 292
#     4  11  21  34  51  72 101 141 181 217 252 291
#     4  10  18  29  46  68  95 127 162 198 240 294
#     4  10  20  35  53  73  96 124 156 196 244 295
#     4   9  19  32  47  67  92 123 158 197 238 285
#     4  10  20  34  50  74 105 136 171 210 249 292
#     4  11  22  36  51  71  94 123 160 199 242 290
#
# _framework density 15.67557
#
# number of rings (size 3 to 8) (size 9 to 14) (size 15 to 20)
#    0.000    1.875    1.250    5.250    0.000    4.250 
#    0.000    1.250    0.000    0.375    0.000    2.625 
#    0.000    0.500    0.000    5.250    0.000    2.250 
#
# Total GULP energy -357290.352258 kJ/mol
# GULP energy per Si atom -5582.661754 kJ/mol
# Density = 1.563989 g / cm^3
# Si number density = 15.675570 Si / 1000 Ang^3
#
#
#
# Elastic Constant Matrix: (Units=GPa)
#
#
# Indices 1 2 3 4 5 6 
#
# 1 145.2964 68.7431 56.9986 0.0000 0.0000 0.0000
# 2 68.7431 97.8767 43.2041 0.0000 0.0000 0.0000
# 3 56.9986 43.2041 84.1299 0.0000 0.0000 0.0000
# 4 0.0000 0.0000 0.0000 17.7315 0.0000 0.0000
# 5 0.0000 0.0000 0.0000 0.0000 29.0644 0.0000
# 6 0.0000 0.0000 0.0000 0.0000 0.0000 24.2632
#
#
#
# Elastic Compliance Matrix: (Units=1/GPa)
#
#
# Indices 1 2 3 4 5 6 
#
# 1 0.011615 -0.006057 -0.004759 0.000000 0.000000 0.000000
# 2 -0.006057 0.016371 -0.004303 0.000000 0.000000 0.000000
# 3 -0.004759 -0.004303 0.017320 0.000000 0.000000 0.000000
# 4 0.000000 0.000000 0.000000 0.056397 0.000000 0.000000
# 5 0.000000 0.000000 0.000000 0.000000 0.034406 0.000000
# 6 0.000000 0.000000 0.000000 0.000000 0.000000 0.041215
#
#
# Mechanical properties :
#
#
# Convention : Reuss Voigt Hill
#
# Bulk Modulus (GPa) = 66.36642 73.91051 70.13847
# Shear Modulus (GPa) = 23.52006 24.76898 24.14452
#
# Velocity S-wave (km/s) = 3.87774 3.97936 3.92888
# Velocity P-wave (km/s) = 7.90434 8.26839 8.08841
#
# Compressibility (1/GPa) = 0.01506786
#
# Stress axis : x y z
#
# Youngs Moduli (GPa) = 86.09486 61.08482 57.73584
#
# Poissons Ratio (x) = 0.37001 0.27475
# Poissons Ratio (y) = 0.52150 0.24845
# Poissons Ratio (z) = 0.40970 0.26286
#
# Static dielectric constant tensor:
#      x y z
#    x 1.519770 0.000000 0.000000 
#    y 0.000000 1.503460 0.000000 
#    z 0.000000 0.000000 1.521660 
# 
# From -- ./inp_files/5402.got.cif
#   From: 2010.05.17/outbox.cif.g08.bks.cpg/sg49_3_cif.got.tgz:5402.got - 2010.06.03 21:02:19.
