data_PCOD9392364
_publ_section_title
;
Structure prediction by ZEFSAII (Michael W. Deem and Ramdas Pophale) SiO2 
 PCOD9392364
Probable space group: P C C M
;
_chemical_formula_sum "Si O2"
_cell_formula_units_Z 48
_cell_length_a 14.364242
_cell_length_b 20.234579
_cell_length_c 8.296467
_cell_angle_alpha 90.000000
_cell_angle_beta 90.000000
_cell_angle_gamma 90.000000
_cell_volume 2411.404551
_symmetry_space_group_name_H-M "P C C M"
_symmetry_group_IT_number 49
_symmetry_cell_setting 'orthorhombic'
loop_
_space_group_symop_operation_xyz
x,y,z
-x,-y,z
x,-y,1/2-z
-x,y,1/2-z
-x,-y,-z
x,y,-z
-x,y,1/2+z
x,-y,1/2+z
loop_
_atom_site_type_symbol
_atom_site_label
_atom_site_fract_x
_atom_site_fract_y
_atom_site_fract_z
Si Si1 0.599625 0.917122 0.820864
Si Si2 0.753771 0.682095 0.316869
Si Si3 0.893850 0.209637 0.194076
Si Si4 0.605404 0.575108 0.306114
Si Si5 0.401660 0.240452 0.181245
Si Si6 0.194900 0.070095 0.805395
O O1 0.500000 0.934273 0.750000
O O2 0.598228 0.837965 0.830982
O O3 0.698526 0.931262 0.739058
O O4 0.603439 0.945954 0.000000
O O5 0.778698 0.663733 0.500000
O O6 0.840035 0.723785 0.244162
O O7 0.692083 0.620997 0.247567
O O8 0.675217 0.738395 0.307700
O O9 0.850804 0.139313 0.250898
O O10 0.000000 0.211817 0.250000
O O11 0.887635 0.210870 0.000000
O O12 0.620446 0.500000 0.250000
O O13 0.500000 0.592992 0.250000
O O14 0.604819 0.579083 0.500000
O O15 0.500000 0.262153 0.250000
O O16 0.383985 0.266402 0.000000
O O17 0.150867 0.000000 0.750000
O O18 0.196862 0.071756 0.000000
#
# Coordination Sequence:
#
# PCOD9392364 Si02
#       6
#     8   8   8   8   8   8
#     4   9  19  33  51  76 110 147 184 226 272 330
#     4  10  21  36  57  84 115 151 192 237 288 340
#     4  11  24  43  65  88 113 144 185 244 304 357
#     4  10  20  35  55  86 126 166 201 234 273 327
#     4  10  18  29  48  77 110 145 184 226 272 327
#     4  11  23  41  61  86 115 150 193 239 293 355
#
# _framework density 19.905411000000001
#
# number of rings (size 3 to 8) (size 9 to 14) (size 15 to 20)
#    0.000    1.833    1.667    3.000    0.000    6.000 
#    0.000    3.333    0.000    0.500    0.000    3.500 
#    0.000    0.000    0.000    0.000    0.000    0.000 
#
# Total GULP energy -267315.572953 kJ/mol
# GULP energy per Si atom -5569.074437 kJ/mol
# Density = 1.986011 g / cm^3
# Si number density = 19.905411 Si / 1000 Ang^3
#
#
#
# Elastic Constant Matrix: (Units=GPa)
#
#
# Indices 1 2 3 4 5 6 
#
# 1 134.0736 62.3934 6.7531 0.0000 0.0000 0.0000
# 2 62.3934 154.5402 20.5278 0.0000 0.0000 0.0000
# 3 6.7531 20.5278 48.1324 0.0000 0.0000 0.0000
# 4 0.0000 0.0000 0.0000 9.2761 0.0000 0.0000
# 5 0.0000 0.0000 0.0000 0.0000 14.5879 0.0000
# 6 0.0000 0.0000 0.0000 0.0000 0.0000 242.9747
#
#
#
# Elastic Compliance Matrix: (Units=1/GPa)
#
#
# Indices 1 2 3 4 5 6 
#
# 1 0.009189 -0.003751 0.000311 0.000000 0.000000 0.000000
# 2 -0.003751 0.008391 -0.003052 0.000000 0.000000 0.000000
# 3 0.000311 -0.003052 0.022034 0.000000 0.000000 0.000000
# 4 0.000000 0.000000 0.000000 0.107803 0.000000 0.000000
# 5 0.000000 0.000000 0.000000 0.000000 0.068550 0.000000
# 6 0.000000 0.000000 0.000000 0.000000 0.000000 0.004116
#
#
# Mechanical properties :
#
#
# Convention : Reuss Voigt Hill
#
# Bulk Modulus (GPa) = 37.55432 57.34387 47.44910
# Shear Modulus (GPa) = 20.66594 69.83919 45.25257
#
# Velocity S-wave (km/s) = 3.22562 5.92973 4.77317
# Velocity P-wave (km/s) = 5.72540 8.70362 7.36658
#
# Compressibility (1/GPa) = 0.02662809
#
# Stress axis : x y z
#
# Youngs Moduli (GPa) = 108.83121 119.18016 45.38398
#
# Poissons Ratio (x) = 0.44704 -0.01410
# Poissons Ratio (y) = 0.40823 0.13852
# Poissons Ratio (z) = -0.03380 0.36377
#
# Static dielectric constant tensor:
#      x y z
#    x 1.712260 0.000000 0.000000 
#    y 0.000000 1.746550 0.000000 
#    z 0.000000 0.000000 -71.856230 
# 
# From -- ./inp_files/3846.got.cif
#   From: 2010.05.17/outbox.cif.g08.bks.cpg/sg49_2_cif.got.tgz:3846.got - 2010.06.03 21:02:19.
