data_PCOD9392250
_publ_section_title
;
Structure prediction by ZEFSAII (Michael W. Deem and Ramdas Pophale) SiO2 
 PCOD9392250
Probable space group: P C C M
;
_chemical_formula_sum "Si O2"
_cell_formula_units_Z 40
_cell_length_a 15.620968
_cell_length_b 14.965891
_cell_length_c 8.590810
_cell_angle_alpha 90.000000
_cell_angle_beta 90.000000
_cell_angle_gamma 90.000000
_cell_volume 2008.374204
_symmetry_space_group_name_H-M "P C C M"
_symmetry_group_IT_number 49
_symmetry_cell_setting 'orthorhombic'
loop_
_space_group_symop_operation_xyz
x,y,z
-x,-y,z
x,-y,1/2-z
-x,y,1/2-z
-x,-y,-z
x,y,-z
-x,y,1/2+z
x,-y,1/2+z
loop_
_atom_site_type_symbol
_atom_site_label
_atom_site_fract_x
_atom_site_fract_y
_atom_site_fract_z
Si Si1 0.267194 0.100435 0.313129
Si Si2 0.088277 0.102108 0.185776
Si Si3 0.276112 0.600411 0.188060
Si Si4 0.404341 0.247122 0.687777
Si Si5 0.087452 0.601756 0.813837
O O1 0.260878 0.097885 0.500000
O O2 0.177835 0.139598 0.248080
O O3 0.347022 0.161762 0.267104
O O4 0.277530 0.000000 0.250000
O O5 0.000000 0.142545 0.250000
O O6 0.089371 0.000000 0.250000
O O7 0.086814 0.100959 0.000000
O O8 0.285900 0.500000 0.250000
O O9 0.351348 0.665739 0.241013
O O10 0.181353 0.636764 0.232452
O O11 0.277379 0.597233 0.000000
O O12 0.500000 0.244211 0.750000
O O13 0.407176 0.249017 0.500000
O O14 0.088519 0.500000 0.750000
O O15 0.000000 0.643967 0.750000
O O16 0.082007 0.600370 0.000000
#
# Coordination Sequence:
#
# PCOD9392250 Si02
#       5
#     8   8   8   8   8
#     4  10  20  36  57  81 110 144 181 225 272 323
#     4  10  17  28  49  78 111 146 182 220 263 317
#     4   9  19  36  56  80 109 143 178 217 265 318
#     4  10  23  41  59  79 107 140 178 227 280 329
#     4   9  15  25  45  72 104 137 171 207 249 301
#
# _framework density 19.916606999999999
#
# number of rings (size 3 to 8) (size 9 to 14) (size 15 to 20)
#    0.000    2.400    0.000    5.400    0.000    4.000 
#    0.000    5.000    0.000    2.400    0.000    0.000 
#    0.000    0.000    0.000    0.000    0.000    0.000 
#
# Total GULP energy -223198.548547 kJ/mol
# GULP energy per Si atom -5579.963714 kJ/mol
# Density = 1.987128 g / cm^3
# Si number density = 19.916607 Si / 1000 Ang^3
#
#
#
# Elastic Constant Matrix: (Units=GPa)
#
#
# Indices 1 2 3 4 5 6 
#
# 1 247.2100 83.5127 57.2266 0.0000 0.0000 0.0000
# 2 83.5127 97.1477 25.4557 0.0000 0.0000 0.0000
# 3 57.2266 25.4557 70.7978 0.0000 0.0000 0.0000
# 4 0.0000 0.0000 0.0000 9.1188 0.0000 0.0000
# 5 0.0000 0.0000 0.0000 0.0000 38.1476 0.0000
# 6 0.0000 0.0000 0.0000 0.0000 0.0000 94.4625
#
#
#
# Elastic Compliance Matrix: (Units=1/GPa)
#
#
# Indices 1 2 3 4 5 6 
#
# 1 0.006413 -0.004587 -0.003534 0.000000 0.000000 0.000000
# 2 -0.004587 0.014645 -0.001558 0.000000 0.000000 0.000000
# 3 -0.003534 -0.001558 0.017542 0.000000 0.000000 0.000000
# 4 0.000000 0.000000 0.000000 0.109663 0.000000 0.000000
# 5 0.000000 0.000000 0.000000 0.000000 0.026214 0.000000
# 6 0.000000 0.000000 0.000000 0.000000 0.000000 0.010586
#
#
# Mechanical properties :
#
#
# Convention : Reuss Voigt Hill
#
# Bulk Modulus (GPa) = 51.97221 83.06059 67.51640
# Shear Modulus (GPa) = 23.71527 44.94315 34.32921
#
# Velocity S-wave (km/s) = 3.45444 4.75549 4.15619
# Velocity P-wave (km/s) = 6.48555 8.48219 7.55017
#
# Compressibility (1/GPa) = 0.01924105
#
# Stress axis : x y z
#
# Youngs Moduli (GPa) = 155.93902 68.28381 57.00646
#
# Poissons Ratio (x) = 0.31319 0.20148
# Poissons Ratio (y) = 0.71523 0.08883
# Poissons Ratio (z) = 0.55115 0.10640
#
# Static dielectric constant tensor:
#      x y z
#    x 1.734910 0.000000 0.000000 
#    y 0.000000 1.777940 0.000000 
#    z 0.000000 0.000000 1.672110 
# 
# From -- ./inp_files/3444.got.cif
#   From: 2010.05.17/outbox.cif.g08.bks.cpg/sg49_2_cif.got.tgz:3444.got - 2010.06.03 21:02:19.
