data_PCOD9392737
_publ_section_title
;
Structure prediction by ZEFSAII (Michael W. Deem and Ramdas Pophale) SiO2 
 PCOD9392737
Probable space group: P C C M
;
_chemical_formula_sum "Si O2"
_cell_formula_units_Z 64
_cell_length_a 14.902955
_cell_length_b 30.663001
_cell_length_c 8.987839
_cell_angle_alpha 90.000000
_cell_angle_beta 90.000000
_cell_angle_gamma 90.000000
_cell_volume 4107.166713
_symmetry_space_group_name_H-M "P C C M"
_symmetry_group_IT_number 49
_symmetry_cell_setting 'orthorhombic'
loop_
_space_group_symop_operation_xyz
x,y,z
-x,-y,z
x,-y,1/2-z
-x,y,1/2-z
-x,-y,-z
x,y,-z
-x,y,1/2+z
x,-y,1/2+z
loop_
_atom_site_type_symbol
_atom_site_label
_atom_site_fract_x
_atom_site_fract_y
_atom_site_fract_z
Si Si1 0.400224 0.956974 0.821811
Si Si2 0.907018 0.638629 0.823319
Si Si3 0.401002 0.861270 0.178295
Si Si4 0.852559 0.546075 0.325400
Si Si5 0.364143 0.456510 0.672985
Si Si6 0.272734 0.310443 0.174243
Si Si7 0.400323 0.227642 0.177166
Si Si8 0.583800 0.635364 0.674275
O O1 0.500000 0.955357 0.750000
O O2 0.358800 0.909061 0.791815
O O3 0.356358 0.000000 0.750000
O O4 0.407641 0.962114 0.000000
O O5 0.883194 0.591015 0.752776
O O6 0.830702 0.675911 0.801311
O O7 0.000000 0.652667 0.750000
O O8 0.916525 0.632317 0.000000
O O9 0.500000 0.863411 0.250000
O O10 0.363877 0.817484 0.252199
O O11 0.406855 0.856234 0.000000
O O12 0.881982 0.500000 0.250000
O O13 0.878121 0.546324 0.500000
O O14 0.743906 0.546351 0.316419
O O15 0.394728 0.500000 0.750000
O O16 0.387013 0.458245 0.500000
O O17 0.404833 0.412896 0.740109
O O18 0.322657 0.264092 0.198169
O O19 0.325439 0.341120 0.286618
O O20 0.291132 0.321568 0.000000
O O21 0.500000 0.236488 0.250000
O O22 0.415098 0.223016 0.000000
O O23 0.500000 0.658344 0.750000
O O24 0.569252 0.633696 0.500000
#
# Coordination Sequence:
#
# PCOD9392737 Si02
#       8
#     8   8   8   8   8   8   8   8
#     4   9  15  21  31  48  73 106 147 190 233 273
#     4  11  23  39  58  79 100 122 148 182 223 271
#     4   9  16  25  37  56  81 112 150 193 234 273
#     4  10  19  35  56  79 101 123 149 177 216 262
#     4   9  19  33  50  70  93 120 148 177 211 253
#     4  10  22  38  54  72  94 120 150 187 229 271
#     4  10  19  31  47  68  91 119 154 192 232 273
#     4  11  22  35  51  73  96 122 153 184 219 262
#
# _framework density 15.582518
#
# number of rings (size 3 to 8) (size 9 to 14) (size 15 to 20)
#    0.000    2.125    1.250    3.750    0.000    6.000 
#    0.000    2.500    0.000    0.000    0.000    0.000 
#    0.000    0.000    0.000    0.000    0.000    0.625 
#
# Total GULP energy -356313.449549 kJ/mol
# GULP energy per Si atom -5567.397649 kJ/mol
# Density = 1.554705 g / cm^3
# Si number density = 15.582518 Si / 1000 Ang^3
#
#
#
# Elastic Constant Matrix: (Units=GPa)
#
#
# Indices 1 2 3 4 5 6 
#
# 1 58.3427 32.3419 39.5583 0.0000 0.0000 0.0000
# 2 32.3419 117.8096 51.4002 0.0000 0.0000 0.0000
# 3 39.5583 51.4002 74.7911 0.0000 0.0000 0.0000
# 4 0.0000 0.0000 0.0000 9.5080 0.0000 0.0000
# 5 0.0000 0.0000 0.0000 0.0000 -50.8804 0.0000
# 6 0.0000 0.0000 0.0000 0.0000 0.0000 1.2646
#
#
#
# Elastic Compliance Matrix: (Units=1/GPa)
#
#
# Indices 1 2 3 4 5 6 
#
# 1 0.026956 -0.001685 -0.013100 0.000000 0.000000 0.000000
# 2 -0.001685 0.012229 -0.007513 0.000000 0.000000 0.000000
# 3 -0.013100 -0.007513 0.025463 0.000000 0.000000 0.000000
# 4 0.000000 0.000000 0.000000 0.105174 0.000000 0.000000
# 5 0.000000 0.000000 0.000000 0.000000 -0.019654 0.000000
# 6 0.000000 0.000000 0.000000 0.000000 0.000000 0.790759
#
#
# Mechanical properties :
#
#
# Convention : Reuss Voigt Hill
#
# Bulk Modulus (GPa) = 49.86953 55.28267 52.57610
# Shear Modulus (GPa) = 5.03928 0.48797 2.76363
#
# Velocity S-wave (km/s) = 1.80026 0.56021 1.33319
# Velocity P-wave (km/s) = 6.03277 5.99774 6.01528
#
# Compressibility (1/GPa) = 0.02005233
#
# Stress axis : x y z
#
# Youngs Moduli (GPa) = 37.09740 81.77445 39.27333
#
# Poissons Ratio (x) = 0.13777 0.51447
# Poissons Ratio (y) = 0.06250 0.29506
# Poissons Ratio (z) = 0.48596 0.61438
#
# Static dielectric constant tensor:
#      x y z
#    x 1.521400 0.000000 0.000000 
#    y 0.000000 1.594180 0.000000 
#    z 0.000000 0.000000 1.520300 
# 
# From -- ./inp_files/4513.got.cif
#   From: 2010.05.17/outbox.cif.g08.bks.cpg/sg49_3_cif.got.tgz:4513.got - 2010.06.03 21:02:19.
