data_PCOD9392995
_publ_section_title
;
Structure prediction by ZEFSAII (Michael W. Deem and Ramdas Pophale) SiO2 
 PCOD9392995
Probable space group: P C C M
;
_chemical_formula_sum "Si O2"
_cell_formula_units_Z 64
_cell_length_a 24.161551
_cell_length_b 19.459239
_cell_length_c 8.701061
_cell_angle_alpha 90.000000
_cell_angle_beta 90.000000
_cell_angle_gamma 90.000000
_cell_volume 4090.937787
_symmetry_space_group_name_H-M "P C C M"
_symmetry_group_IT_number 49
_symmetry_cell_setting 'orthorhombic'
loop_
_space_group_symop_operation_xyz
x,y,z
-x,-y,z
x,-y,1/2-z
-x,y,1/2-z
-x,-y,-z
x,y,-z
-x,y,1/2+z
x,-y,1/2+z
loop_
_atom_site_type_symbol
_atom_site_label
_atom_site_fract_x
_atom_site_fract_y
_atom_site_fract_z
Si Si1 0.165640 0.301797 0.315233
Si Si2 0.560803 0.424684 0.316120
Si Si3 0.240210 0.928185 0.682276
Si Si4 0.939863 0.214584 0.814771
Si Si5 0.337145 0.654589 0.815371
Si Si6 0.769006 0.575425 0.816936
Si Si7 0.883833 0.927430 0.315267
Si Si8 0.273537 0.789982 0.183200
O O1 0.165817 0.312647 0.500000
O O2 0.107568 0.268613 0.268088
O O3 0.182923 0.371790 0.232860
O O4 0.214663 0.247013 0.283325
O O5 0.576142 0.500000 0.250000
O O6 0.500000 0.408711 0.250000
O O7 0.558846 0.428089 0.500000
O O8 0.606334 0.370882 0.259397
O O9 0.235026 0.933608 0.500000
O O10 0.178828 0.918736 0.754374
O O11 0.275304 0.861787 0.729780
O O12 0.262010 0.000000 0.750000
O O13 0.919699 0.138325 0.767299
O O14 0.000000 0.230024 0.750000
O O15 0.941587 0.215009 0.000000
O O16 0.287335 0.606641 0.754677
O O17 0.319436 0.732804 0.777635
O O18 0.339767 0.648630 0.000000
O O19 0.778477 0.500000 0.750000
O O20 0.763859 0.572949 0.000000
O O21 0.882034 0.930194 0.500000
O O22 0.904800 0.000000 0.250000
O O23 0.275331 0.802473 0.000000
#
# Coordination Sequence:
#
# PCOD9392995 Si02
#       8
#     8   8   8   8   8   8   8   8
#     4   9  18  35  52  68  94 124 151 190 240 290
#     4  11  21  34  51  72 102 140 181 216 247 287
#     4  11  20  29  46  69  95 126 161 197 237 289
#     4  10  21  35  51  68  92 121 154 193 237 286
#     4  10  20  34  51  73 103 136 167 205 247 286
#     4  11  21  33  51  76 100 125 157 195 239 289
#     4  10  19  33  48  66  91 122 156 193 235 280
#     4   9  17  32  51  69  96 127 159 197 245 291
#
# _framework density 15.644334000000001
#
# number of rings (size 3 to 8) (size 9 to 14) (size 15 to 20)
#    0.000    1.875    1.250    6.375    0.000    4.250 
#    0.000    1.250    0.000    0.375    0.000    2.625 
#    0.000    0.500    0.000    5.250    0.000    2.250 
#
# Total GULP energy -357271.675122 kJ/mol
# GULP energy per Si atom -5582.369924 kJ/mol
# Density = 1.560873 g / cm^3
# Si number density = 15.644334 Si / 1000 Ang^3
#
#
#
# Elastic Constant Matrix: (Units=GPa)
#
#
# Indices 1 2 3 4 5 6 
#
# 1 83.9413 52.5410 36.0840 0.0000 0.0000 0.0000
# 2 52.5410 116.6607 51.4192 0.0000 0.0000 0.0000
# 3 36.0840 51.4192 85.6727 0.0000 0.0000 0.0000
# 4 0.0000 0.0000 0.0000 25.4382 0.0000 0.0000
# 5 0.0000 0.0000 0.0000 0.0000 24.9679 0.0000
# 6 0.0000 0.0000 0.0000 0.0000 0.0000 23.8127
#
#
#
# Elastic Compliance Matrix: (Units=1/GPa)
#
#
# Indices 1 2 3 4 5 6 
#
# 1 0.017353 -0.006246 -0.003560 0.000000 0.000000 0.000000
# 2 -0.006246 0.013903 -0.005714 0.000000 0.000000 0.000000
# 3 -0.003560 -0.005714 0.016601 0.000000 0.000000 0.000000
# 4 0.000000 0.000000 0.000000 0.039311 0.000000 0.000000
# 5 0.000000 0.000000 0.000000 0.000000 0.040051 0.000000
# 6 0.000000 0.000000 0.000000 0.000000 0.000000 0.041994
#
#
# Mechanical properties :
#
#
# Convention : Reuss Voigt Hill
#
# Bulk Modulus (GPa) = 59.46161 62.92923 61.19542
# Shear Modulus (GPa) = 24.28832 24.59245 24.44039
#
# Velocity S-wave (km/s) = 3.94449 3.96911 3.95682
# Velocity P-wave (km/s) = 7.67048 7.83054 7.75092
#
# Compressibility (1/GPa) = 0.01681757
#
# Stress axis : x y z
#
# Youngs Moduli (GPa) = 57.62647 71.92463 60.23733
#
# Poissons Ratio (x) = 0.44927 0.21444
# Poissons Ratio (y) = 0.35995 0.34418
# Poissons Ratio (z) = 0.20515 0.41096
#
# Static dielectric constant tensor:
#      x y z
#    x 1.501760 0.000000 0.000000 
#    y 0.000000 1.527420 0.000000 
#    z 0.000000 0.000000 1.522950 
# 
# From -- ./inp_files/6626.got.cif
#   From: 2010.05.17/outbox.cif.g08.bks.cpg/sg49_4_cif.got.tgz:6626.got - 2010.06.03 21:02:19.
