data_PCOD9392688
_publ_section_title
;
Structure prediction by ZEFSAII (Michael W. Deem and Ramdas Pophale) SiO2 
 PCOD9392688
Probable space group: P C C M
;
_chemical_formula_sum "Si O2"
_cell_formula_units_Z 64
_cell_length_a 20.244991
_cell_length_b 20.332738
_cell_length_c 8.808495
_cell_angle_alpha 90.000000
_cell_angle_beta 90.000000
_cell_angle_gamma 90.000000
_cell_volume 3625.894509
_symmetry_space_group_name_H-M "P C C M"
_symmetry_group_IT_number 49
_symmetry_cell_setting 'orthorhombic'
loop_
_space_group_symop_operation_xyz
x,y,z
-x,-y,z
x,-y,1/2-z
-x,y,1/2-z
-x,-y,-z
x,y,-z
-x,y,1/2+z
x,-y,1/2+z
loop_
_atom_site_type_symbol
_atom_site_label
_atom_site_fract_x
_atom_site_fract_y
_atom_site_fract_z
Si Si1 0.754908 0.289888 0.319628
Si Si2 0.567900 0.889509 0.318283
Si Si3 0.073470 0.929816 0.682435
Si Si4 0.616922 0.746928 0.322951
Si Si5 0.177274 0.170289 0.681405
Si Si6 0.569029 0.399246 0.823234
Si Si7 0.289804 0.567551 0.318459
Si Si8 0.710465 0.066855 0.181604
O O1 0.764145 0.286481 0.500000
O O2 0.682379 0.262429 0.275872
O O3 0.808500 0.243868 0.238649
O O4 0.750150 0.366652 0.272737
O O5 0.500000 0.914788 0.250000
O O6 0.564985 0.895680 0.500000
O O7 0.577443 0.812185 0.280856
O O8 0.635587 0.922546 0.262902
O O9 0.071719 0.933655 0.500000
O O10 0.118919 0.869839 0.737976
O O11 0.000000 0.921121 0.750000
O O12 0.097711 0.000000 0.750000
O O13 0.638052 0.754797 0.500000
O O14 0.575077 0.680242 0.313236
O O15 0.167768 0.169307 0.500000
O O16 0.243390 0.128351 0.718488
O O17 0.500000 0.420088 0.750000
O O18 0.634890 0.424384 0.740659
O O19 0.571467 0.418067 0.000000
O O20 0.262982 0.500000 0.250000
O O21 0.290950 0.564570 0.500000
O O22 0.737857 0.000000 0.250000
O O23 0.708795 0.061635 0.000000
#
# Coordination Sequence:
#
# PCOD9392688 Si02
#       8
#     8   8   8   8   8   8   8   8
#     4  10  20  33  53  80 105 131 171 221 266 317
#     4  10  20  34  48  66  89 121 162 213 270 327
#     4  11  22  38  59  88 124 162 199 231 270 319
#     4   9  17  32  49  66  93 124 159 207 266 327
#     4  11  21  37  59  82 111 147 184 227 271 318
#     4  10  19  30  47  68  92 123 160 206 263 327
#     4  10  21  36  52  72 100 132 170 214 268 328
#     4  10  22  37  52  70  97 129 170 217 267 321
#
# _framework density 17.650817
#
# number of rings (size 3 to 8) (size 9 to 14) (size 15 to 20)
#    0.000    1.875    1.250    3.750    0.000    5.500 
#    0.000    2.500    0.000    0.000    0.000    0.000 
#    0.000    0.500    0.000    5.250    0.000    2.875 
#
# Total GULP energy -357390.062436 kJ/mol
# GULP energy per Si atom -5584.219726 kJ/mol
# Density = 1.761064 g / cm^3
# Si number density = 17.650817 Si / 1000 Ang^3
#
#
#
# Elastic Constant Matrix: (Units=GPa)
#
#
# Indices 1 2 3 4 5 6 
#
# 1 73.9814 40.8608 36.7064 0.0000 0.0000 0.0000
# 2 40.8608 122.9651 48.2381 0.0000 0.0000 0.0000
# 3 36.7064 48.2381 70.4356 0.0000 0.0000 0.0000
# 4 0.0000 0.0000 0.0000 24.5961 0.0000 0.0000
# 5 0.0000 0.0000 0.0000 0.0000 21.9866 0.0000
# 6 0.0000 0.0000 0.0000 0.0000 0.0000 22.2287
#
#
#
# Elastic Compliance Matrix: (Units=1/GPa)
#
#
# Indices 1 2 3 4 5 6 
#
# 1 0.019192 -0.003355 -0.007704 0.000000 0.000000 0.000000
# 2 -0.003355 0.011707 -0.006269 0.000000 0.000000 0.000000
# 3 -0.007704 -0.006269 0.022505 0.000000 0.000000 0.000000
# 4 0.000000 0.000000 0.000000 0.040657 0.000000 0.000000
# 5 0.000000 0.000000 0.000000 0.000000 0.045482 0.000000
# 6 0.000000 0.000000 0.000000 0.000000 0.000000 0.044987
#
#
# Mechanical properties :
#
#
# Convention : Reuss Voigt Hill
#
# Bulk Modulus (GPa) = 53.33800 57.66584 55.50192
# Shear Modulus (GPa) = 22.17931 23.20075 22.69003
#
# Velocity S-wave (km/s) = 3.54864 3.62944 3.58927
# Velocity P-wave (km/s) = 6.86109 7.09260 6.97781
#
# Compressibility (1/GPa) = 0.01874836
#
# Stress axis : x y z
#
# Youngs Moduli (GPa) = 52.10371 85.42258 44.43412
#
# Poissons Ratio (x) = 0.28663 0.34232
# Poissons Ratio (y) = 0.17483 0.27854
# Poissons Ratio (z) = 0.40140 0.53548
#
# Static dielectric constant tensor:
#      x y z
#    x 1.583740 0.000000 0.000000 
#    y 0.000000 1.631500 0.000000 
#    z 0.000000 0.000000 1.601040 
# 
# From -- ./inp_files/6053.got.cif
#   From: 2010.05.17/outbox.cif.g08.bks.cpg/sg49_4_cif.got.tgz:6053.got - 2010.06.03 21:02:19.
