data_PCOD9392076
_publ_section_title
;
Structure prediction by ZEFSAII (Michael W. Deem and Ramdas Pophale) SiO2 
 PCOD9392076
Probable space group: P C C M
;
_chemical_formula_sum "Si O2"
_cell_formula_units_Z 32
_cell_length_a 16.640477
_cell_length_b 5.333051
_cell_length_c 14.603533
_cell_angle_alpha 90.000000
_cell_angle_beta 90.000000
_cell_angle_gamma 90.000000
_cell_volume 1295.983417
_symmetry_space_group_name_H-M "P C C M"
_symmetry_group_IT_number 49
_symmetry_cell_setting 'orthorhombic'
loop_
_space_group_symop_operation_xyz
x,y,z
-x,-y,z
x,-y,1/2-z
-x,y,1/2-z
-x,-y,-z
x,y,-z
-x,y,1/2+z
x,-y,1/2+z
loop_
_atom_site_type_symbol
_atom_site_label
_atom_site_fract_x
_atom_site_fract_y
_atom_site_fract_z
Si Si1 0.716732 0.078382 0.144941
Si Si2 0.465427 0.752632 0.145197
Si Si3 0.224277 0.422394 0.852883
Si Si4 0.048162 0.248318 0.110511
O O1 0.629713 0.208523 0.143825
O O2 0.774541 0.295970 0.105140
O O3 0.735996 0.000000 0.250000
O O4 0.720764 0.796881 0.104007
O O5 0.500000 0.500000 0.104420
O O6 0.500000 0.751707 0.250000
O O7 0.500000 0.000000 0.100916
O O8 0.249902 0.500000 0.750000
O O9 0.137059 0.294259 0.851483
O O10 0.000000 0.500000 0.133330
O O11 0.056084 0.233551 0.000000
O O12 0.000000 0.000000 0.140414
#
# Coordination Sequence:
#
# PCOD9392076 Si02
#       4
#     8   8   8   8
#     4  10  18  30  44  70 110 144 170 209 270 318
#     4  10  17  24  41  64  96 145 174 211 245 315
#     4  10  21  33  51  77 110 143 166 220 274 335
#     4  10  21  39  61  81 104 139 189 237 270 321
#
# _framework density 24.691672000000001
#
# number of rings (size 3 to 8) (size 9 to 14) (size 15 to 20)
#    0.000    2.000    2.500    3.000    7.000    0.500 
#    0.000    1.250    0.000    0.000    0.000    0.000 
#    0.000   20.000    0.000    0.000    0.000    1.000 
#
# Total GULP energy -178504.579521 kJ/mol
# GULP energy per Si atom -5578.268110 kJ/mol
# Density = 2.463547 g / cm^3
# Si number density = 24.691672 Si / 1000 Ang^3
#
#
#
# Elastic Constant Matrix: (Units=GPa)
#
#
# Indices 1 2 3 4 5 6 
#
# 1 149.7648 89.4184 1.4089 0.0000 0.0000 0.0000
# 2 89.4184 320.6345 20.7310 0.0000 0.0000 0.0000
# 3 1.4089 20.7310 90.2553 0.0000 0.0000 0.0000
# 4 0.0000 0.0000 0.0000 -32.6271 0.0000 0.0000
# 5 0.0000 0.0000 0.0000 0.0000 288.6318 0.0000
# 6 0.0000 0.0000 0.0000 0.0000 0.0000 49.3214
#
#
#
# Elastic Compliance Matrix: (Units=1/GPa)
#
#
# Indices 1 2 3 4 5 6 
#
# 1 0.008025 -0.002263 0.000395 0.000000 0.000000 0.000000
# 2 -0.002263 0.003804 -0.000838 0.000000 0.000000 0.000000
# 3 0.000395 -0.000838 0.011266 0.000000 0.000000 0.000000
# 4 0.000000 0.000000 0.000000 -0.030649 0.000000 0.000000
# 5 0.000000 0.000000 0.000000 0.000000 0.003465 0.000000
# 6 0.000000 0.000000 0.000000 0.000000 0.000000 0.020275
#
#
# Mechanical properties :
#
#
# Convention : Reuss Voigt Hill
#
# Bulk Modulus (GPa) = 56.55924 87.08571 71.82248
# Shear Modulus (GPa) = 181.85905 91.00498 136.43202
#
# Velocity S-wave (km/s) = 8.59138 6.07755 7.44139
# Velocity P-wave (km/s) = 11.01689 9.19753 10.14806
#
# Compressibility (1/GPa) = 0.01768058
#
# Stress axis : x y z
#
# Youngs Moduli (GPa) = 124.61282 262.86262 88.76176
#
# Poissons Ratio (x) = 0.59499 -0.03503
# Poissons Ratio (y) = 0.28206 0.07442
# Poissons Ratio (z) = -0.04918 0.22040
#
# Static dielectric constant tensor:
#      x y z
#    x 1.940290 0.000000 0.000000 
#    y 0.000000 2.083470 0.000000 
#    z 0.000000 0.000000 1.990390 
# 
# From -- ./inp_files/15076.got.cif
#   From: 2010.05.17/outbox.cif.g08.bks.cpg/sg49_8_cif.got.tgz:15076.got - 2010.06.03 21:02:19.
