data_PCOD9392212
_publ_section_title
;
Structure prediction by ZEFSAII (Michael W. Deem and Ramdas Pophale) SiO2 
 PCOD9392212
Probable space group: P C C M
;
_chemical_formula_sum "Si O2"
_cell_formula_units_Z 64
_cell_length_a 26.316472
_cell_length_b 15.528591
_cell_length_c 8.648341
_cell_angle_alpha 90.000000
_cell_angle_beta 90.000000
_cell_angle_gamma 90.000000
_cell_volume 3534.211403
_symmetry_space_group_name_H-M "P C C M"
_symmetry_group_IT_number 49
_symmetry_cell_setting 'orthorhombic'
loop_
_space_group_symop_operation_xyz
x,y,z
-x,-y,z
x,-y,1/2-z
-x,y,1/2-z
-x,-y,-z
x,y,-z
-x,y,1/2+z
x,-y,1/2+z
loop_
_atom_site_type_symbol
_atom_site_label
_atom_site_fract_x
_atom_site_fract_y
_atom_site_fract_z
Si Si1 0.164291 0.408040 0.184279
Si Si2 0.749685 0.286766 0.186807
Si Si3 0.135160 0.916113 0.679990
Si Si4 0.753578 0.091160 0.182709
Si Si5 0.552371 0.401978 0.814500
Si Si6 0.948196 0.817825 0.673600
Si Si7 0.658818 0.402741 0.685544
Si Si8 0.946825 0.387434 0.826526
O O1 0.184044 0.500000 0.250000
O O2 0.197527 0.329127 0.253212
O O3 0.105095 0.403562 0.233719
O O4 0.168959 0.407060 0.000000
O O5 0.738452 0.187541 0.236487
O O6 0.705241 0.346608 0.252649
O O7 0.750854 0.288484 0.000000
O O8 0.146614 0.925281 0.500000
O O9 0.186720 0.908551 0.775810
O O10 0.098410 0.838223 0.715284
O O11 0.107919 0.000000 0.750000
O O12 0.733173 0.000000 0.250000
O O13 0.746025 0.087438 0.000000
O O14 0.552569 0.500000 0.750000
O O15 0.500000 0.362221 0.750000
O O16 0.605286 0.365798 0.749985
O O17 0.552044 0.403190 0.000000
O O18 0.940142 0.852525 0.500000
O O19 0.951323 0.715479 0.660931
O O20 0.000000 0.850617 0.750000
O O21 0.664077 0.500000 0.750000
O O22 0.657763 0.405428 0.500000
O O23 0.000000 0.413708 0.750000
O O24 0.941559 0.423910 0.000000
#
# Coordination Sequence:
#
# PCOD9392212 Si02
#       8
#     8   8   8   8   8   8   8   8
#     4  12  25  40  58  80 106 138 175 216 261 316
#     4  11  23  39  57  80 110 144 179 220 269 321
#     4  11  21  33  50  70  94 121 153 191 239 298
#     4  10  21  37  58  80 104 132 167 211 259 311
#     4  10  17  28  46  71 105 147 194 239 279 320
#     4  10  20  34  51  71  95 120 150 188 235 290
#     4  11  21  34  52  77 111 152 194 235 276 322
#     4  10  21  38  58  78  99 125 160 205 253 305
#
# _framework density 18.108708
#
# number of rings (size 3 to 8) (size 9 to 14) (size 15 to 20)
#    0.000    1.375    0.000    9.000    0.000    7.000 
#    0.000    2.500    0.000    0.000    0.000    0.000 
#    0.000    0.500    0.000    5.250    0.000    2.875 
#
# Total GULP energy -357207.235943 kJ/mol
# GULP energy per Si atom -5581.363062 kJ/mol
# Density = 1.806749 g / cm^3
# Si number density = 18.108708 Si / 1000 Ang^3
#
#
#
# Elastic Constant Matrix: (Units=GPa)
#
#
# Indices 1 2 3 4 5 6 
#
# 1 96.6496 37.1735 30.2526 0.0000 0.0000 0.0000
# 2 37.1735 91.4129 36.8574 0.0000 0.0000 0.0000
# 3 30.2526 36.8574 112.8718 0.0000 0.0000 0.0000
# 4 0.0000 0.0000 0.0000 27.4257 0.0000 0.0000
# 5 0.0000 0.0000 0.0000 0.0000 33.4029 0.0000
# 6 0.0000 0.0000 0.0000 0.0000 0.0000 7.5961
#
#
#
# Elastic Compliance Matrix: (Units=1/GPa)
#
#
# Indices 1 2 3 4 5 6 
#
# 1 0.012633 -0.004344 -0.001968 0.000000 0.000000 0.000000
# 2 -0.004344 0.014092 -0.003437 0.000000 0.000000 0.000000
# 3 -0.001968 -0.003437 0.010509 0.000000 0.000000 0.000000
# 4 0.000000 0.000000 0.000000 0.036462 0.000000 0.000000
# 5 0.000000 0.000000 0.000000 0.000000 0.029938 0.000000
# 6 0.000000 0.000000 0.000000 0.000000 0.000000 0.131646
#
#
# Mechanical properties :
#
#
# Convention : Reuss Voigt Hill
#
# Bulk Modulus (GPa) = 56.38006 56.61126 56.49566
# Shear Modulus (GPa) = 19.17987 26.79500 22.98743
#
# Velocity S-wave (km/s) = 3.25799 3.85083 3.56675
# Velocity P-wave (km/s) = 6.73457 7.14854 6.94464
#
# Compressibility (1/GPa) = 0.01773677
#
# Stress axis : x y z
#
# Youngs Moduli (GPa) = 79.15549 70.96318 95.15324
#
# Poissons Ratio (x) = 0.30827 0.18722
# Poissons Ratio (y) = 0.34386 0.32706
# Poissons Ratio (z) = 0.15574 0.24392
#
# Static dielectric constant tensor:
#      x y z
#    x 1.625480 0.000000 0.000000 
#    y 0.000000 1.702820 0.000000 
#    z 0.000000 0.000000 1.631010 
# 
# From -- ./inp_files/6569.got.cif
#   From: 2010.05.17/outbox.cif.g08.bks.cpg/sg49_4_cif.got.tgz:6569.got - 2010.06.03 21:02:19.
