data_PCOD9392307
_publ_section_title
;
Structure prediction by ZEFSAII (Michael W. Deem and Ramdas Pophale) SiO2 
 PCOD9392307
Probable space group: P C C M
;
_chemical_formula_sum "Si O2"
_cell_formula_units_Z 64
_cell_length_a 19.905346
_cell_length_b 24.644748
_cell_length_c 7.708592
_cell_angle_alpha 90.000000
_cell_angle_beta 90.000000
_cell_angle_gamma 90.000000
_cell_volume 3781.544128
_symmetry_space_group_name_H-M "P C C M"
_symmetry_group_IT_number 49
_symmetry_cell_setting 'orthorhombic'
loop_
_space_group_symop_operation_xyz
x,y,z
-x,-y,z
x,-y,1/2-z
-x,y,1/2-z
-x,-y,-z
x,y,-z
-x,y,1/2+z
x,-y,1/2+z
loop_
_atom_site_type_symbol
_atom_site_label
_atom_site_fract_x
_atom_site_fract_y
_atom_site_fract_z
Si Si1 0.155157 0.666179 0.712847
Si Si2 0.078210 0.438188 0.204974
Si Si3 0.796435 0.162534 0.711344
Si Si4 0.425808 0.761285 0.291669
Si Si5 0.288513 0.938180 0.291428
Si Si6 0.716076 0.728446 0.789039
Si Si7 0.922640 0.773874 0.792186
Si Si8 0.574184 0.886204 0.208251
O O1 0.155612 0.665566 0.500000
O O2 0.125730 0.609210 0.777027
O O3 0.230158 0.683426 0.768960
O O4 0.105834 0.715422 0.767019
O O5 0.096047 0.500000 0.250000
O O6 0.000000 0.429065 0.250000
O O7 0.082558 0.434209 0.000000
O O8 0.797671 0.160460 0.500000
O O9 0.765027 0.106250 0.773266
O O10 0.747610 0.212831 0.756112
O O11 0.870561 0.180225 0.771103
O O12 0.500000 0.740091 0.250000
O O13 0.420924 0.763827 0.500000
O O14 0.360891 0.728194 0.228535
O O15 0.421660 0.823797 0.226849
O O16 0.289855 0.933550 0.500000
O O17 0.362780 0.920864 0.227102
O O18 0.272754 0.000000 0.250000
O O19 0.715579 0.725908 0.000000
O O20 0.000000 0.782059 0.750000
O O21 0.917019 0.773111 0.000000
O O22 0.500000 0.907647 0.250000
O O23 0.579180 0.883784 0.000000
#
# Coordination Sequence:
#
# PCOD9392307 Si02
#       8
#     8   8   8   8   8   8   8   8
#     4   8  15  25  41  64  85 107 141 176 200 230
#     4  10  18  28  41  59  85 118 150 176 200 232
#     4   8  14  27  45  60  77 102 132 160 195 244
#     4   9  15  24  41  61  81 106 133 161 196 241
#     4  10  19  31  45  60  77 101 134 167 198 235
#     4   8  12  23  43  62  78 103 138 170 198 236
#     4   9  16  27  45  66  84 103 127 163 205 243
#     4   9  17  28  42  59  79 104 132 162 194 233
#
# _framework density 16.924303999999999
#
# number of rings (size 3 to 8) (size 9 to 14) (size 15 to 20)
#    0.000    3.125    1.250    2.625    0.000    0.750 
#    0.000    2.500    0.000    4.875    0.000    2.625 
#    0.000    0.500    0.000    6.250    0.000    0.000 
#
# Total GULP energy -356501.103659 kJ/mol
# GULP energy per Si atom -5570.329745 kJ/mol
# Density = 1.688578 g / cm^3
# Si number density = 16.924304 Si / 1000 Ang^3
#
#
#
# Elastic Constant Matrix: (Units=GPa)
#
#
# Indices 1 2 3 4 5 6 
#
# 1 164.4962 89.7506 4.8200 0.0000 0.0000 0.0000
# 2 89.7506 123.5360 6.7678 0.0000 0.0000 0.0000
# 3 4.8200 6.7678 25.1511 0.0000 0.0000 0.0000
# 4 0.0000 0.0000 0.0000 12.9226 0.0000 0.0000
# 5 0.0000 0.0000 0.0000 0.0000 11.2582 0.0000
# 6 0.0000 0.0000 0.0000 0.0000 0.0000 27.3986
#
#
#
# Elastic Compliance Matrix: (Units=1/GPa)
#
#
# Indices 1 2 3 4 5 6 
#
# 1 0.010071 -0.007319 0.000039 0.000000 0.000000 0.000000
# 2 -0.007319 0.013535 -0.002239 0.000000 0.000000 0.000000
# 3 0.000039 -0.002239 0.040355 0.000000 0.000000 0.000000
# 4 0.000000 0.000000 0.000000 0.077384 0.000000 0.000000
# 5 0.000000 0.000000 0.000000 0.000000 0.088824 0.000000
# 6 0.000000 0.000000 0.000000 0.000000 0.000000 0.036498
#
#
# Mechanical properties :
#
#
# Convention : Reuss Voigt Hill
#
# Bulk Modulus (GPa) = 22.26044 57.31779 39.78911
# Shear Modulus (GPa) = 16.62897 24.43887 20.53392
#
# Velocity S-wave (km/s) = 3.13797 3.80414 3.48700
# Velocity P-wave (km/s) = 5.12939 7.29630 6.30661
#
# Compressibility (1/GPa) = 0.04492275
#
# Stress axis : x y z
#
# Youngs Moduli (GPa) = 99.29079 73.88265 24.78021
#
# Poissons Ratio (x) = 0.54076 -0.00098
# Poissons Ratio (y) = 0.72673 0.05549
# Poissons Ratio (z) = -0.00391 0.16545
#
# Static dielectric constant tensor:
#      x y z
#    x 1.604310 0.000000 0.000000 
#    y 0.000000 1.572130 0.000000 
#    z 0.000000 0.000000 1.637930 
# 
# From -- ./inp_files/6121.got.cif
#   From: 2010.05.17/outbox.cif.g08.bks.cpg/sg49_4_cif.got.tgz:6121.got - 2010.06.03 21:02:19.
