data_PCOD9392050
_publ_section_title
;
Structure prediction by ZEFSAII (Michael W. Deem and Ramdas Pophale) SiO2 
 PCOD9392050
Probable space group: P C C M
;
_chemical_formula_sum "Si O2"
_cell_formula_units_Z 48
_cell_length_a 8.079803
_cell_length_b 19.293960
_cell_length_c 16.134107
_cell_angle_alpha 90.000000
_cell_angle_beta 90.000000
_cell_angle_gamma 90.000000
_cell_volume 2515.168462
_symmetry_space_group_name_H-M "P C C M"
_symmetry_group_IT_number 49
_symmetry_cell_setting 'orthorhombic'
loop_
_space_group_symop_operation_xyz
x,y,z
-x,-y,z
x,-y,1/2-z
-x,y,1/2-z
-x,-y,-z
x,y,-z
-x,y,1/2+z
x,-y,1/2+z
loop_
_atom_site_type_symbol
_atom_site_label
_atom_site_fract_x
_atom_site_fract_y
_atom_site_fract_z
Si Si1 0.613010 0.301809 0.669188
Si Si2 0.496718 0.919790 0.851558
Si Si3 0.811374 0.166141 0.348236
Si Si4 0.178980 0.168507 0.350936
Si Si5 0.279333 0.678501 0.906847
Si Si6 0.803307 0.420505 0.238850
O O1 0.500000 0.278292 0.750000
O O2 0.744970 0.244414 0.643111
O O3 0.477286 0.314021 0.599535
O O4 0.706016 0.370784 0.697898
O O5 0.500000 0.917169 0.750000
O O6 0.664487 0.882414 0.879972
O O7 0.333767 0.877834 0.880731
O O8 0.500000 0.000000 0.875701
O O9 0.822664 0.157946 0.248323
O O10 0.994242 0.151791 0.382434
O O11 0.208914 0.249465 0.370169
O O12 0.234055 0.613588 0.849866
O O13 0.221728 0.670319 0.000000
O O14 0.751660 0.500000 0.250000
O O15 0.000000 0.416153 0.250000
#
# Coordination Sequence:
#
# PCOD9392050 Si02
#       6
#     8   8   8   8   8   8
#     4  10  17  32  55  78 110 148 192 232 286 352
#     4   9  17  29  47  80 117 148 190 249 299 340
#     4  10  16  29  54  81 107 148 199 240 288 348
#     4  10  18  30  53  80 112 150 191 244 294 348
#     4  11  22  36  57  88 121 149 193 251 294 337
#     4  10  21  39  62  87 113 155 199 235 288 359
#
# _framework density 19.084208
#
# number of rings (size 3 to 8) (size 9 to 14) (size 15 to 20)
#    0.000    2.000    5.000    1.500    0.000    3.667 
#    0.000   10.000    0.000    0.500    0.000    1.167 
#    0.000    0.000    0.000    0.000    0.000    0.000 
#
# Total GULP energy -267679.925568 kJ/mol
# GULP energy per Si atom -5576.665116 kJ/mol
# Density = 1.904077 g / cm^3
# Si number density = 19.084208 Si / 1000 Ang^3
#
#
#
# Elastic Constant Matrix: (Units=GPa)
#
#
# Indices 1 2 3 4 5 6 
#
# 1 163.0634 78.3447 11.4441 0.0000 0.0000 0.0000
# 2 78.3447 142.9340 21.2632 0.0000 0.0000 0.0000
# 3 11.4441 21.2632 31.6852 0.0000 0.0000 0.0000
# 4 0.0000 0.0000 0.0000 -3.1090 0.0000 0.0000
# 5 0.0000 0.0000 0.0000 0.0000 -7.6905 0.0000
# 6 0.0000 0.0000 0.0000 0.0000 0.0000 2.0434
#
#
#
# Elastic Compliance Matrix: (Units=1/GPa)
#
#
# Indices 1 2 3 4 5 6 
#
# 1 0.008325 -0.004572 0.000061 0.000000 0.000000 0.000000
# 2 -0.004572 0.010283 -0.005249 0.000000 0.000000 0.000000
# 3 0.000061 -0.005249 0.035061 0.000000 0.000000 0.000000
# 4 0.000000 0.000000 0.000000 -0.321644 0.000000 0.000000
# 5 0.000000 0.000000 0.000000 0.000000 -0.130031 0.000000
# 6 0.000000 0.000000 0.000000 0.000000 0.000000 0.489380
#
#
# Mechanical properties :
#
#
# Convention : Reuss Voigt Hill
#
# Bulk Modulus (GPa) = 29.28347 62.19850 45.74099
# Shear Modulus (GPa) = 40.89035 13.35749 27.12392
#
# Velocity S-wave (km/s) = 4.63387 2.64848 3.77407
# Velocity P-wave (km/s) = 6.63386 6.48189 6.55831
#
# Compressibility (1/GPa) = 0.03414896
#
# Stress axis : x y z
#
# Youngs Moduli (GPa) = 120.11976 97.24513 28.52163
#
# Poissons Ratio (x) = 0.44463 -0.00175
# Poissons Ratio (y) = 0.54922 0.14972
# Poissons Ratio (z) = -0.00739 0.51049
#
# Static dielectric constant tensor:
#      x y z
#    x 1.691390 0.000000 0.000000 
#    y 0.000000 1.643860 0.000000 
#    z 0.000000 0.000000 1.675500 
# 
# From -- ./inp_files/11781.got.cif
#   From: 2010.05.17/outbox.cif.g08.bks.cpg/sg49_6_cif.got.tgz:11781.got - 2010.06.03 21:02:19.
