data_PCOD9392274
_publ_section_title
;
Structure prediction by ZEFSAII (Michael W. Deem and Ramdas Pophale) SiO2 
 PCOD9392274
Probable space group: P C C M
;
_chemical_formula_sum "Si O2"
_cell_formula_units_Z 48
_cell_length_a 14.341623
_cell_length_b 8.627590
_cell_length_c 14.992537
_cell_angle_alpha 90.000000
_cell_angle_beta 90.000000
_cell_angle_gamma 90.000000
_cell_volume 1855.081223
_symmetry_space_group_name_H-M "P C C M"
_symmetry_group_IT_number 49
_symmetry_cell_setting 'orthorhombic'
loop_
_space_group_symop_operation_xyz
x,y,z
-x,-y,z
x,-y,1/2-z
-x,y,1/2-z
-x,-y,-z
x,y,-z
-x,y,1/2+z
x,-y,1/2+z
loop_
_atom_site_type_symbol
_atom_site_label
_atom_site_fract_x
_atom_site_fract_y
_atom_site_fract_z
Si Si1 0.118815 0.337804 0.607112
Si Si2 0.569798 0.732891 0.325155
Si Si3 0.707173 0.514888 0.856221
Si Si4 0.944799 0.166782 0.396439
Si Si5 0.215369 0.025902 0.395376
Si Si6 0.618840 0.163108 0.357688
O O1 0.110218 0.333827 0.500000
O O2 0.184255 0.484480 0.624788
O O3 0.014972 0.296797 0.641436
O O4 0.182024 0.191840 0.638824
O O5 0.500000 0.652907 0.250000
O O6 0.635074 0.622387 0.383070
O O7 0.490609 0.825231 0.378402
O O8 0.625134 0.830858 0.250694
O O9 0.698369 0.500000 0.750000
O O10 0.668840 0.678257 0.889184
O O11 0.929185 0.210821 0.500000
O O12 0.846691 0.114698 0.354759
O O13 0.000000 0.000000 0.395049
O O14 0.190222 0.031416 0.500000
O O15 0.322114 0.979506 0.391784
#
# Coordination Sequence:
#
# PCOD9392274 Si02
#       6
#     8   8   8   8   8   8
#     4   9  18  31  50  76 106 136 170 210 257 305
#     4   7  16  31  53  67  88 128 173 213 246 310
#     4  10  17  31  53  74  94 133 175 215 253 301
#     4   7  12  26  48  70  95 134 171 192 229 300
#     4   9  16  30  51  76 105 134 167 210 252 302
#     4   8  16  28  51  72  91 123 167 212 251 295
#
# _framework density 25.874876
#
# number of rings (size 3 to 8) (size 9 to 14) (size 15 to 20)
#    1.000    2.500    0.000    2.500    2.333    0.667 
#    0.000    5.833    3.667   14.000    0.000   14.000 
#    0.000    0.000    0.000    0.000    0.000    1.500 
#
# Total GULP energy -267386.662515 kJ/mol
# GULP energy per Si atom -5570.555469 kJ/mol
# Density = 2.581598 g / cm^3
# Si number density = 25.874876 Si / 1000 Ang^3
#
#
#
# Elastic Constant Matrix: (Units=GPa)
#
#
# Indices 1 2 3 4 5 6 
#
# 1 117.6502 11.7339 -3.8168 0.0000 0.0000 0.0000
# 2 11.7339 70.5203 -1.8790 0.0000 0.0000 0.0000
# 3 -3.8168 -1.8790 46.2773 0.0000 0.0000 0.0000
# 4 0.0000 0.0000 0.0000 5.4633 0.0000 0.0000
# 5 0.0000 0.0000 0.0000 0.0000 27.5535 0.0000
# 6 0.0000 0.0000 0.0000 0.0000 0.0000 28.2366
#
#
#
# Elastic Compliance Matrix: (Units=1/GPa)
#
#
# Indices 1 2 3 4 5 6 
#
# 1 0.008663 -0.001424 0.000657 0.000000 0.000000 0.000000
# 2 -0.001424 0.014430 0.000468 0.000000 0.000000 0.000000
# 3 0.000657 0.000468 0.021682 0.000000 0.000000 0.000000
# 4 0.000000 0.000000 0.000000 0.183039 0.000000 0.000000
# 5 0.000000 0.000000 0.000000 0.000000 0.036293 0.000000
# 6 0.000000 0.000000 0.000000 0.000000 0.000000 0.035415
#
#
# Mechanical properties :
#
#
# Convention : Reuss Voigt Hill
#
# Bulk Modulus (GPa) = 22.63609 27.39155 25.01382
# Shear Modulus (GPa) = 15.88080 27.47800 21.67940
#
# Velocity S-wave (km/s) = 2.48009 3.26230 2.89771
# Velocity P-wave (km/s) = 4.11928 4.97989 4.56989
#
# Compressibility (1/GPa) = 0.04417724
#
# Stress axis : x y z
#
# Youngs Moduli (GPa) = 115.43214 69.30138 46.12108
#
# Poissons Ratio (x) = 0.09868 -0.03029
# Poissons Ratio (y) = 0.16437 -0.02161
# Poissons Ratio (z) = -0.07580 -0.03246
#
# Static dielectric constant tensor:
#      x y z
#    x 2.148110 0.000000 0.000000 
#    y 0.000000 2.172880 0.000000 
#    z 0.000000 0.000000 2.029990 
# 
# From -- ./inp_files/17728.got.cif
#   From: 2010.05.17/outbox.cif.g08.bks.cpg/sg49_9_cif.got.tgz:17728.got - 2010.06.03 21:02:19.
