data_PCOD9392991
_publ_section_title
;
Structure prediction by ZEFSAII (Michael W. Deem and Ramdas Pophale) SiO2 
 PCOD9392991
Probable space group: P C C M
;
_chemical_formula_sum "Si O2"
_cell_formula_units_Z 64
_cell_length_a 8.115146
_cell_length_b 22.302070
_cell_length_c 17.610756
_cell_angle_alpha 90.000000
_cell_angle_beta 90.000000
_cell_angle_gamma 90.000000
_cell_volume 3187.274823
_symmetry_space_group_name_H-M "P C C M"
_symmetry_group_IT_number 49
_symmetry_cell_setting 'orthorhombic'
loop_
_space_group_symop_operation_xyz
x,y,z
-x,-y,z
x,-y,1/2-z
-x,y,1/2-z
-x,-y,-z
x,y,-z
-x,y,1/2+z
x,-y,1/2+z
loop_
_atom_site_type_symbol
_atom_site_label
_atom_site_fract_x
_atom_site_fract_y
_atom_site_fract_z
Si Si1 0.186417 0.501621 0.340652
Si Si2 0.673857 0.381480 0.911107
Si Si3 0.681142 0.858974 0.346690
Si Si4 0.837358 0.259726 0.089193
Si Si5 0.627350 0.623407 0.821745
Si Si6 0.316899 0.857477 0.332289
Si Si7 0.138402 0.735185 0.683627
Si Si8 0.000862 0.069793 0.657080
O O1 0.173261 0.500000 0.250000
O O2 0.282354 0.443420 0.369832
O O3 0.286017 0.562817 0.350930
O O4 0.000000 0.500000 0.372455
O O5 0.788961 0.326855 0.886486
O O6 0.492943 0.358658 0.889822
O O7 0.692526 0.391464 0.000000
O O8 0.737921 0.791034 0.364947
O O9 0.492506 0.867617 0.372270
O O10 0.673014 0.873928 0.257046
O O11 0.833649 0.899255 0.374659
O O12 0.029580 0.257605 0.108126
O O13 0.803038 0.252435 0.000000
O O14 0.500000 0.615797 0.750000
O O15 0.766415 0.672788 0.805420
O O16 0.271722 0.787539 0.323981
O O17 0.163215 0.894034 0.366391
O O18 0.000000 0.744586 0.750000
O O19 0.000000 0.073980 0.750000
O O20 0.000000 0.000000 0.637277
#
# Coordination Sequence:
#
# PCOD9392991 Si02
#       8
#     8   8   8   8   8   8   8   8
#     4  11  24  41  63  88 117 154 206 252 306 373
#     4  11  25  44  63  88 122 160 200 254 320 378
#     4  10  19  34  57  89 123 164 208 254 311 370
#     4  11  23  41  62  89 128 165 203 259 319 370
#     4  12  25  38  62  93 120 156 201 257 313 373
#     4  10  19  32  59  91 121 160 210 258 308 367
#     4  12  22  37  62  89 123 159 211 261 309 372
#     4   9  17  32  53  89 132 163 202 258 313 367
#
# _framework density 20.07985
#
# number of rings (size 3 to 8) (size 9 to 14) (size 15 to 20)
#    0.000    1.250    3.750    3.000    3.500    2.250 
#    0.000    3.125    0.000    0.375    0.000    0.875 
#    0.000    0.000    0.000    0.000    0.000    0.000 
#
# Total GULP energy -356858.060084 kJ/mol
# GULP energy per Si atom -5575.907189 kJ/mol
# Density = 2.003415 g / cm^3
# Si number density = 20.079850 Si / 1000 Ang^3
#
#
#
# Elastic Constant Matrix: (Units=GPa)
#
#
# Indices 1 2 3 4 5 6 
#
# 1 152.3871 60.3884 14.0371 0.0000 0.0000 0.0000
# 2 60.3884 113.3248 19.2226 0.0000 0.0000 0.0000
# 3 14.0371 19.2226 20.4250 0.0000 0.0000 0.0000
# 4 0.0000 0.0000 0.0000 -2.4056 0.0000 0.0000
# 5 0.0000 0.0000 0.0000 0.0000 21.8887 0.0000
# 6 0.0000 0.0000 0.0000 0.0000 0.0000 -2.6789
#
#
#
# Elastic Compliance Matrix: (Units=1/GPa)
#
#
# Indices 1 2 3 4 5 6 
#
# 1 0.008377 -0.004150 -0.001852 0.000000 0.000000 0.000000
# 2 -0.004150 0.012556 -0.008965 0.000000 0.000000 0.000000
# 3 -0.001852 -0.008965 0.058669 0.000000 0.000000 0.000000
# 4 0.000000 0.000000 0.000000 -0.415696 0.000000 0.000000
# 5 0.000000 0.000000 0.000000 0.000000 0.045686 0.000000
# 6 0.000000 0.000000 0.000000 0.000000 0.000000 -0.373287
#
#
# Mechanical properties :
#
#
# Convention : Reuss Voigt Hill
#
# Bulk Modulus (GPa) = 20.13303 52.60367 36.36835
# Shear Modulus (GPa) = -8.10104 16.19343 4.04619
#
# Velocity S-wave (km/s) = -2.01076 2.84289 1.42107
# Velocity P-wave (km/s) = 2.15809 6.08524 4.56550
#
# Compressibility (1/GPa) = 0.04966962
#
# Stress axis : x y z
#
# Youngs Moduli (GPa) = 119.36889 79.64088 17.04469
#
# Poissons Ratio (x) = 0.33051 0.03156
# Poissons Ratio (y) = 0.49539 0.15281
# Poissons Ratio (z) = 0.22102 0.71398
#
# Static dielectric constant tensor:
#      x y z
#    x 1.769620 0.000000 0.000000 
#    y 0.000000 1.909820 0.000000 
#    z 0.000000 0.000000 1.741580 
# 
# From -- ./inp_files/16525.got.cif
#   From: 2010.05.17/outbox.cif.g08.bks.cpg/sg49_9_cif.got.tgz:16525.got - 2010.06.03 21:02:19.
