data_PCOD9392658
_publ_section_title
;
Structure prediction by ZEFSAII (Michael W. Deem and Ramdas Pophale) SiO2 
 PCOD9392658
Probable space group: P C C M
;
_chemical_formula_sum "Si O2"
_cell_formula_units_Z 64
_cell_length_a 20.040198
_cell_length_b 19.741021
_cell_length_c 9.398172
_cell_angle_alpha 90.000000
_cell_angle_beta 90.000000
_cell_angle_gamma 90.000000
_cell_volume 3718.048132
_symmetry_space_group_name_H-M "P C C M"
_symmetry_group_IT_number 49
_symmetry_cell_setting 'orthorhombic'
loop_
_space_group_symop_operation_xyz
x,y,z
-x,-y,z
x,-y,1/2-z
-x,y,1/2-z
-x,-y,-z
x,y,-z
-x,y,1/2+z
x,-y,1/2+z
loop_
_atom_site_type_symbol
_atom_site_label
_atom_site_fract_x
_atom_site_fract_y
_atom_site_fract_z
Si Si1 0.850290 0.435315 0.161770
Si Si2 0.310037 0.565948 0.163019
Si Si3 0.671134 0.071088 0.328666
Si Si4 0.214145 0.177727 0.827108
Si Si5 0.064878 0.819777 0.336704
Si Si6 0.568543 0.186170 0.331652
Si Si7 0.686077 0.705414 0.830179
Si Si8 0.935453 0.343488 0.662688
O O1 0.875592 0.500000 0.250000
O O2 0.770493 0.439611 0.156372
O O3 0.872536 0.370410 0.250847
O O4 0.875491 0.433601 0.000000
O O5 0.334291 0.500000 0.250000
O O6 0.322561 0.636078 0.245111
O O7 0.334731 0.566780 0.000000
O O8 0.671246 0.062440 0.500000
O O9 0.735808 0.116704 0.291485
O O10 0.607127 0.117142 0.290628
O O11 0.671260 0.000000 0.250000
O O12 0.138749 0.165197 0.776315
O O13 0.250435 0.248082 0.783976
O O14 0.210549 0.181548 0.000000
O O15 0.060622 0.843873 0.500000
O O16 0.063013 0.737769 0.339937
O O17 0.000000 0.843056 0.250000
O O18 0.500000 0.195613 0.250000
O O19 0.555522 0.182932 0.500000
O O20 0.621732 0.246540 0.309535
O O21 0.693223 0.691881 0.000000
O O22 0.934814 0.367505 0.500000
O O23 0.000000 0.367454 0.750000
#
# Coordination Sequence:
#
# PCOD9392658 Si02
#       8
#     8   8   8   8   8   8   8   8
#     4  10  20  32  44  60  83 111 147 189 235 289
#     4  10  20  32  48  71  97 125 158 202 252 298
#     4   9  18  33  52  76 105 137 172 205 239 283
#     4   8  15  30  51  71  95 130 167 202 247 300
#     4   9  17  29  46  67  90 118 152 195 245 294
#     4   9  19  34  53  78 108 140 170 202 241 288
#     4   9  17  32  53  74  97 129 169 208 247 295
#     4  10  19  30  44  61  82 110 145 187 239 295
#
# _framework density 17.213332999999999
#
# number of rings (size 3 to 8) (size 9 to 14) (size 15 to 20)
#    0.000    2.750    0.000    3.375    0.000    4.500 
#    0.000    5.625    0.000    0.750    0.000    5.250 
#    0.000    0.000    0.000    0.000    0.000    0.000 
#
# Total GULP energy -356605.525971 kJ/mol
# GULP energy per Si atom -5571.961343 kJ/mol
# Density = 1.717415 g / cm^3
# Si number density = 17.213333 Si / 1000 Ang^3
#
#
#
# Elastic Constant Matrix: (Units=GPa)
#
#
# Indices 1 2 3 4 5 6 
#
# 1 84.3016 11.6426 32.9603 0.0000 0.0000 0.0000
# 2 11.6426 80.6036 41.7810 0.0000 0.0000 0.0000
# 3 32.9603 41.7810 82.6398 0.0000 0.0000 0.0000
# 4 0.0000 0.0000 0.0000 22.8614 0.0000 0.0000
# 5 0.0000 0.0000 0.0000 0.0000 25.9243 0.0000
# 6 0.0000 0.0000 0.0000 0.0000 0.0000 9.3410
#
#
#
# Elastic Compliance Matrix: (Units=1/GPa)
#
#
# Indices 1 2 3 4 5 6 
#
# 1 0.014138 0.001194 -0.006242 0.000000 0.000000 0.000000
# 2 0.001194 0.016913 -0.009027 0.000000 0.000000 0.000000
# 3 -0.006242 -0.009027 0.019154 0.000000 0.000000 0.000000
# 4 0.000000 0.000000 0.000000 0.043742 0.000000 0.000000
# 5 0.000000 0.000000 0.000000 0.000000 0.038574 0.000000
# 6 0.000000 0.000000 0.000000 0.000000 0.000000 0.107055
#
#
# Mechanical properties :
#
#
# Convention : Reuss Voigt Hill
#
# Bulk Modulus (GPa) = 45.34335 46.70145 46.02240
# Shear Modulus (GPa) = 18.17661 22.36941 20.27301
#
# Velocity S-wave (km/s) = 3.25308 3.60882 3.43556
# Velocity P-wave (km/s) = 6.36469 6.67493 6.52165
#
# Compressibility (1/GPa) = 0.02205395
#
# Stress axis : x y z
#
# Youngs Moduli (GPa) = 70.73172 59.12564 52.20778
#
# Poissons Ratio (x) = -0.07057 0.32589
# Poissons Ratio (y) = -0.08442 0.47128
# Poissons Ratio (z) = 0.44152 0.53373
#
# Static dielectric constant tensor:
#      x y z
#    x 1.603100 0.000000 0.000000 
#    y 0.000000 1.575940 0.000000 
#    z 0.000000 0.000000 1.586860 
# 
# From -- ./inp_files/5942.got.cif
#   From: 2010.05.17/outbox.cif.g08.bks.cpg/sg49_3_cif.got.tgz:5942.got - 2010.06.03 21:02:19.
