data_PCOD9392416
_publ_section_title
;
Structure prediction by ZEFSAII (Michael W. Deem and Ramdas Pophale) SiO2 
 PCOD9392416
Probable space group: P C C M
;
_chemical_formula_sum "Si O2"
_cell_formula_units_Z 48
_cell_length_a 12.115404
_cell_length_b 8.753560
_cell_length_c 21.817915
_cell_angle_alpha 90.000000
_cell_angle_beta 90.000000
_cell_angle_gamma 90.000000
_cell_volume 2313.853503
_symmetry_space_group_name_H-M "P C C M"
_symmetry_group_IT_number 49
_symmetry_cell_setting 'orthorhombic'
loop_
_space_group_symop_operation_xyz
x,y,z
-x,-y,z
x,-y,1/2-z
-x,y,1/2-z
-x,-y,-z
x,y,-z
-x,y,1/2+z
x,-y,1/2+z
loop_
_atom_site_type_symbol
_atom_site_label
_atom_site_fract_x
_atom_site_fract_y
_atom_site_fract_z
Si Si1 0.373083 0.566314 0.313105
Si Si2 0.651914 0.384716 0.930293
Si Si3 0.746732 0.183297 0.625677
Si Si4 0.168414 0.884568 0.929639
Si Si5 0.471146 0.159590 0.931256
Si Si6 0.041859 0.670986 0.427302
O O1 0.500000 0.500000 0.310966
O O2 0.324318 0.500000 0.250000
O O3 0.322680 0.497975 0.375631
O O4 0.332792 0.744425 0.320858
O O5 0.739944 0.248396 0.930910
O O6 0.536341 0.307035 0.910436
O O7 0.644892 0.448225 0.000000
O O8 0.657847 0.181913 0.570725
O O9 0.853353 0.284109 0.612571
O O10 0.795023 0.010528 0.620173
O O11 0.053449 0.797830 0.917790
O O12 0.162691 0.948726 0.000000
O O13 0.500000 0.000000 0.898840
O O14 0.515539 0.145737 0.000000
O O15 0.070069 0.672493 0.500000
O O16 0.000000 0.500000 0.413736
#
# Coordination Sequence:
#
# PCOD9392416 Si02
#       6
#     8   8   8   8   8   8
#     4  11  25  43  58  84 128 173 215 264 325 393
#     4  10  20  36  60  89 122 160 204 258 317 386
#     4  12  21  35  60  85 118 169 212 256 311 381
#     4  10  20  35  60  95 133 164 202 262 323 380
#     4  10  18  30  52  88 127 156 193 254 322 378
#     4  10  21  36  56  90 133 170 203 248 310 377
#
# _framework density 20.744616000000001
#
# number of rings (size 3 to 8) (size 9 to 14) (size 15 to 20)
#    0.000    1.500    3.333    3.000    0.000    5.000 
#    0.000    0.833    0.000    7.500    0.000    4.667 
#    0.000    0.000    0.000    0.000    0.000    0.000 
#
# Total GULP energy -267224.572848 kJ/mol
# GULP energy per Si atom -5567.178601 kJ/mol
# Density = 2.069740 g / cm^3
# Si number density = 20.744616 Si / 1000 Ang^3
#
#
#
# Elastic Constant Matrix: (Units=GPa)
#
#
# Indices 1 2 3 4 5 6 
#
# 1 113.6358 25.5217 9.9384 0.0000 0.0000 0.0000
# 2 25.5217 97.4694 42.9740 0.0000 0.0000 0.0000
# 3 9.9384 42.9740 75.5655 0.0000 0.0000 0.0000
# 4 0.0000 0.0000 0.0000 -797.3991 0.0000 0.0000
# 5 0.0000 0.0000 0.0000 0.0000 11.1659 0.0000
# 6 0.0000 0.0000 0.0000 0.0000 0.0000 39.8895
#
#
#
# Elastic Compliance Matrix: (Units=1/GPa)
#
#
# Indices 1 2 3 4 5 6 
#
# 1 0.009353 -0.002545 0.000217 0.000000 0.000000 0.000000
# 2 -0.002545 0.014385 -0.007846 0.000000 0.000000 0.000000
# 3 0.000217 -0.007846 0.017667 0.000000 0.000000 0.000000
# 4 0.000000 0.000000 0.000000 -0.001254 0.000000 0.000000
# 5 0.000000 0.000000 0.000000 0.000000 0.089558 0.000000
# 6 0.000000 0.000000 0.000000 0.000000 0.000000 0.025069
#
#
# Mechanical properties :
#
#
# Convention : Reuss Voigt Hill
#
# Bulk Modulus (GPa) = 47.48912 49.28210 48.38561
# Shear Modulus (GPa) = 27.45064 -135.38630 -53.96783
#
# Velocity S-wave (km/s) = 3.64162 -8.08734 -5.10606
# Velocity P-wave (km/s) = 6.37368 7.96232 3.37452
#
# Compressibility (1/GPa) = 0.02105745
#
# Stress axis : x y z
#
# Youngs Moduli (GPa) = 106.92265 69.51538 56.60222
#
# Poissons Ratio (x) = 0.17689 -0.01229
# Poissons Ratio (y) = 0.27208 0.44411
# Poissons Ratio (z) = -0.02321 0.54543
#
# Static dielectric constant tensor:
#      x y z
#    x 1.795060 0.000000 0.000000 
#    y 0.000000 1.928930 0.000000 
#    z 0.000000 0.000000 1.739050 
# 
# From -- ./inp_files/22843.got.cif
#   From: 2010.05.17/outbox.cif.g08.bks.cpg/sg49_12_cif.got.tgz:22843.got - 2010.06.03 21:02:19.
