data_PCOD9392884
_publ_section_title
;
Structure prediction by ZEFSAII (Michael W. Deem and Ramdas Pophale) SiO2 
 PCOD9392884
Probable space group: P C C M
;
_chemical_formula_sum "Si O2"
_cell_formula_units_Z 48
_cell_length_a 17.745923
_cell_length_b 13.404394
_cell_length_c 9.641653
_cell_angle_alpha 90.000000
_cell_angle_beta 90.000000
_cell_angle_gamma 90.000000
_cell_volume 2293.492239
_symmetry_space_group_name_H-M "P C C M"
_symmetry_group_IT_number 49
_symmetry_cell_setting 'orthorhombic'
loop_
_space_group_symop_operation_xyz
x,y,z
-x,-y,z
x,-y,1/2-z
-x,y,1/2-z
-x,-y,-z
x,y,-z
-x,y,1/2+z
x,-y,1/2+z
loop_
_atom_site_type_symbol
_atom_site_label
_atom_site_fract_x
_atom_site_fract_y
_atom_site_fract_z
Si Si1 0.104441 0.599262 0.657608
Si Si2 0.371898 0.905046 0.334821
Si Si3 0.437270 0.692904 0.653444
Si Si4 0.932605 0.205122 0.164913
Si Si5 0.240893 0.823040 0.845263
Si Si6 0.725714 0.616438 0.219801
O O1 0.092996 0.500000 0.750000
O O2 0.073344 0.593096 0.500000
O O3 0.076489 0.690673 0.751463
O O4 0.194211 0.617620 0.642923
O O5 0.368915 0.920691 0.500000
O O6 0.421924 0.807620 0.306725
O O7 0.289963 0.876522 0.271916
O O8 0.399407 0.000000 0.250000
O O9 0.500000 0.645253 0.750000
O O10 0.468545 0.690012 0.500000
O O11 0.353877 0.646863 0.655081
O O12 0.848341 0.160152 0.173144
O O13 0.000000 0.152133 0.250000
O O14 0.949508 0.216606 0.000000
O O15 0.259093 0.703807 0.833515
O O16 0.262945 0.856530 0.000000
O O17 0.716611 0.500000 0.250000
#
# Coordination Sequence:
#
# PCOD9392884 Si02
#       6
#     8   8   8   8   8   8
#     4  10  19  32  50  71  98 133 179 233 280 324
#     4  10  21  38  62  87 110 138 175 220 273 330
#     4  10  22  38  54  78 111 145 180 221 269 323
#     4  10  20  33  50  74 105 142 180 218 266 321
#     4   9  19  35  56  83 112 142 182 228 272 321
#     4   9  19  34  55  79 106 144 189 232 273 319
#
# _framework density 20.928781000000001
#
# number of rings (size 3 to 8) (size 9 to 14) (size 15 to 20)
#    0.000    2.333    0.000    2.000    0.000   13.667 
#    0.000    4.167    0.000    0.500    0.000    3.500 
#    0.000    0.000    0.000    0.000    0.000    0.000 
#
# Total GULP energy -267381.546345 kJ/mol
# GULP energy per Si atom -5570.448882 kJ/mol
# Density = 2.088115 g / cm^3
# Si number density = 20.928781 Si / 1000 Ang^3
#
#
#
# Elastic Constant Matrix: (Units=GPa)
#
#
# Indices 1 2 3 4 5 6 
#
# 1 102.4284 4.7214 43.6532 0.0000 0.0000 0.0000
# 2 4.7214 41.2855 3.5885 0.0000 0.0000 0.0000
# 3 43.6532 3.5885 97.1122 0.0000 0.0000 0.0000
# 4 0.0000 0.0000 0.0000 19.5555 0.0000 0.0000
# 5 0.0000 0.0000 0.0000 0.0000 24.7196 0.0000
# 6 0.0000 0.0000 0.0000 0.0000 0.0000 1.6569
#
#
#
# Elastic Compliance Matrix: (Units=1/GPa)
#
#
# Indices 1 2 3 4 5 6 
#
# 1 0.012111 -0.000915 -0.005410 0.000000 0.000000 0.000000
# 2 -0.000915 0.024369 -0.000489 0.000000 0.000000 0.000000
# 3 -0.005410 -0.000489 0.012747 0.000000 0.000000 0.000000
# 4 0.000000 0.000000 0.000000 0.051137 0.000000 0.000000
# 5 0.000000 0.000000 0.000000 0.000000 0.040454 0.000000
# 6 0.000000 0.000000 0.000000 0.000000 0.000000 0.603541
#
#
# Mechanical properties :
#
#
# Convention : Reuss Voigt Hill
#
# Bulk Modulus (GPa) = 28.09104 38.30580 33.19842
# Shear Modulus (GPa) = 6.49475 21.77726 14.13600
#
# Velocity S-wave (km/s) = 1.76352 3.22924 2.60173
# Velocity P-wave (km/s) = 4.19500 5.67861 4.99223
#
# Compressibility (1/GPa) = 0.03559854
#
# Stress axis : x y z
#
# Youngs Moduli (GPa) = 82.57091 41.03621 78.44744
#
# Poissons Ratio (x) = 0.03754 0.42441
# Poissons Ratio (y) = 0.07553 0.03838
# Poissons Ratio (z) = 0.44672 0.02008
#
# Static dielectric constant tensor:
#      x y z
#    x 1.791710 0.000000 0.000000 
#    y 0.000000 1.769030 0.000000 
#    z 0.000000 0.000000 1.757870 
# 
# From -- ./inp_files/4892.got.cif
#   From: 2010.05.17/outbox.cif.g08.bks.cpg/sg49_3_cif.got.tgz:4892.got - 2010.06.03 21:02:19.
