data_PCOD9392871
_publ_section_title
;
Structure prediction by ZEFSAII (Michael W. Deem and Ramdas Pophale) SiO2 
 PCOD9392871
Probable space group: P C C M
;
_chemical_formula_sum "Si O2"
_cell_formula_units_Z 64
_cell_length_a 19.833861
_cell_length_b 19.747631
_cell_length_c 8.961008
_cell_angle_alpha 90.000000
_cell_angle_beta 90.000000
_cell_angle_gamma 90.000000
_cell_volume 3509.773849
_symmetry_space_group_name_H-M "P C C M"
_symmetry_group_IT_number 49
_symmetry_cell_setting 'orthorhombic'
loop_
_space_group_symop_operation_xyz
x,y,z
-x,-y,z
x,-y,1/2-z
-x,y,1/2-z
-x,-y,-z
x,y,-z
-x,y,1/2+z
x,-y,1/2+z
loop_
_atom_site_type_symbol
_atom_site_label
_atom_site_fract_x
_atom_site_fract_y
_atom_site_fract_z
Si Si1 0.429953 0.688664 0.323573
Si Si2 0.856589 0.066784 0.168887
Si Si3 0.067112 0.178222 0.177488
Si Si4 0.302656 0.787235 0.324194
Si Si5 0.655737 0.573772 0.678688
Si Si6 0.068326 0.673017 0.821010
Si Si7 0.695367 0.932058 0.668445
Si Si8 0.781039 0.329990 0.178496
O O1 0.500000 0.709847 0.250000
O O2 0.438267 0.677803 0.500000
O O3 0.371144 0.744056 0.302172
O O4 0.403170 0.620394 0.245738
O O5 0.872660 0.130742 0.271209
O O6 0.776295 0.059629 0.158394
O O7 0.884050 0.000000 0.250000
O O8 0.882813 0.075323 0.000000
O O9 0.072356 0.250978 0.255630
O O10 0.000000 0.146101 0.250000
O O11 0.062064 0.184887 0.000000
O O12 0.289396 0.794342 0.500000
O O13 0.313008 0.860811 0.252459
O O14 0.243710 0.740116 0.253633
O O15 0.655344 0.500000 0.750000
O O16 0.649869 0.569970 0.500000
O O17 0.725441 0.613340 0.715261
O O18 0.143118 0.646035 0.783045
O O19 0.000000 0.642254 0.750000
O O20 0.060686 0.674291 0.000000
O O21 0.668512 0.927763 0.500000
O O22 0.669509 0.000000 0.750000
O O23 0.779892 0.318669 0.000000
#
# Coordination Sequence:
#
# PCOD9392871 Si02
#       8
#     8   8   8   8   8   8   8   8
#     4  10  21  37  57  84 115 148 182 217 255 303
#     4  10  20  33  46  63  86 115 153 198 247 304
#     4  11  21  32  45  62  85 116 153 197 249 306
#     4  10  20  33  53  80 108 137 176 220 264 314
#     4  10  20  36  57  83 114 147 181 218 258 305
#     4  10  19  32  49  71  97 127 165 211 261 311
#     4  10  20  33  51  73 100 132 168 212 264 314
#     4   9  19  34  53  76 105 140 177 217 265 317
#
# _framework density 18.234794000000001
#
# number of rings (size 3 to 8) (size 9 to 14) (size 15 to 20)
#    0.000    2.000    0.000    4.875    0.000    8.000 
#    0.000    2.500    0.000    0.750    0.000    5.250 
#    0.000    0.000    0.000    0.000    0.000    0.000 
#
# Total GULP energy -357000.290713 kJ/mol
# GULP energy per Si atom -5578.129542 kJ/mol
# Density = 1.819329 g / cm^3
# Si number density = 18.234794 Si / 1000 Ang^3
#
#
#
# Elastic Constant Matrix: (Units=GPa)
#
#
# Indices 1 2 3 4 5 6 
#
# 1 63.5929 -7.3359 29.7970 0.0000 0.0000 0.0000
# 2 -7.3359 64.4817 33.2409 0.0000 0.0000 0.0000
# 3 29.7970 33.2409 87.0927 0.0000 0.0000 0.0000
# 4 0.0000 0.0000 0.0000 20.2079 0.0000 0.0000
# 5 0.0000 0.0000 0.0000 0.0000 22.9166 0.0000
# 6 0.0000 0.0000 0.0000 0.0000 0.0000 10.7218
#
#
#
# Elastic Compliance Matrix: (Units=1/GPa)
#
#
# Indices 1 2 3 4 5 6 
#
# 1 0.021440 0.007744 -0.010291 0.000000 0.000000 0.000000
# 2 0.007744 0.022104 -0.011086 0.000000 0.000000 0.000000
# 3 -0.010291 -0.011086 0.019234 0.000000 0.000000 0.000000
# 4 0.000000 0.000000 0.000000 0.049486 0.000000 0.000000
# 5 0.000000 0.000000 0.000000 0.000000 0.043636 0.000000
# 6 0.000000 0.000000 0.000000 0.000000 0.000000 0.093268
#
#
# Mechanical properties :
#
#
# Convention : Reuss Voigt Hill
#
# Bulk Modulus (GPa) = 28.15869 36.28571 32.22220
# Shear Modulus (GPa) = 17.34469 21.40029 19.37249
#
# Velocity S-wave (km/s) = 3.08748 3.42950 3.26297
# Velocity P-wave (km/s) = 5.30903 5.96861 5.64846
#
# Compressibility (1/GPa) = 0.03551301
#
# Stress axis : x y z
#
# Youngs Moduli (GPa) = 46.64082 45.23984 51.99053
#
# Poissons Ratio (x) = -0.35036 0.53505
# Poissons Ratio (y) = -0.36121 0.57638
# Poissons Ratio (z) = 0.47999 0.50154
#
# Static dielectric constant tensor:
#      x y z
#    x 1.679990 0.000000 0.000000 
#    y 0.000000 1.602430 0.000000 
#    z 0.000000 0.000000 1.623140 
# 
# From -- ./inp_files/6015.got.cif
#   From: 2010.05.17/outbox.cif.g08.bks.cpg/sg49_4_cif.got.tgz:6015.got - 2010.06.03 21:02:19.
