data_PCOD9392362
_publ_section_title
;
Structure prediction by ZEFSAII (Michael W. Deem and Ramdas Pophale) SiO2 
 PCOD9392362
Probable space group: P C C M
;
_chemical_formula_sum "Si O2"
_cell_formula_units_Z 64
_cell_length_a 19.941514
_cell_length_b 20.555257
_cell_length_c 9.139676
_cell_angle_alpha 90.000000
_cell_angle_beta 90.000000
_cell_angle_gamma 90.000000
_cell_volume 3746.380111
_symmetry_space_group_name_H-M "P C C M"
_symmetry_group_IT_number 49
_symmetry_cell_setting 'orthorhombic'
loop_
_space_group_symop_operation_xyz
x,y,z
-x,-y,z
x,-y,1/2-z
-x,y,1/2-z
-x,-y,-z
x,y,-z
-x,y,1/2+z
x,-y,1/2+z
loop_
_atom_site_type_symbol
_atom_site_label
_atom_site_fract_x
_atom_site_fract_y
_atom_site_fract_z
Si Si1 0.429634 0.069398 0.676360
Si Si2 0.645983 0.433739 0.324355
Si Si3 0.067147 0.755860 0.831878
Si Si4 0.796763 0.240354 0.673560
Si Si5 0.332651 0.811464 0.172135
Si Si6 0.571693 0.687186 0.674462
Si Si7 0.067639 0.402886 0.332614
Si Si8 0.203013 0.605181 0.672913
O O1 0.500000 0.090552 0.750000
O O2 0.437662 0.063290 0.500000
O O3 0.372613 0.122582 0.705846
O O4 0.413735 0.000000 0.750000
O O5 0.621572 0.500000 0.250000
O O6 0.636957 0.433846 0.500000
O O7 0.608623 0.373100 0.251435
O O8 0.725677 0.426844 0.293721
O O9 0.133914 0.778492 0.750550
O O10 0.067199 0.676510 0.829782
O O11 0.000000 0.777002 0.750000
O O12 0.066955 0.776117 0.000000
O O13 0.802074 0.233135 0.500000
O O14 0.733676 0.201584 0.735353
O O15 0.787705 0.317699 0.704780
O O16 0.383238 0.751287 0.195680
O O17 0.314893 0.811925 0.000000
O O18 0.500000 0.696165 0.750000
O O19 0.564634 0.676099 0.500000
O O20 0.065890 0.424612 0.500000
O O21 0.138166 0.420602 0.258182
O O22 0.000000 0.423631 0.250000
O O23 0.189579 0.598921 0.500000
#
# Coordination Sequence:
#
# PCOD9392362 Si02
#       8
#     8   8   8   8   8   8   8   8
#     4  10  20  35  54  78 108 144 182 219 258 306
#     4  11  23  40  58  78 101 130 168 213 263 317
#     4   9  16  26  40  63  97 135 172 211 255 306
#     4  10  18  29  48  73 101 135 172 213 260 309
#     4  10  21  35  53  79 110 141 175 215 260 308
#     4  11  23  39  59  81 105 133 167 211 261 314
#     4   9  16  25  42  67  95 127 163 202 248 301
#     4   9  18  32  49  70  98 128 163 207 254 307
#
# _framework density 17.083157
#
# number of rings (size 3 to 8) (size 9 to 14) (size 15 to 20)
#    0.000    2.125    1.250    3.000    0.000    6.250 
#    0.000    1.250    0.000    0.375    0.000    2.625 
#    0.000    0.500    0.000    5.250    0.000    3.125 
#
# Total GULP energy -357338.680654 kJ/mol
# GULP energy per Si atom -5583.416885 kJ/mol
# Density = 1.704427 g / cm^3
# Si number density = 17.083157 Si / 1000 Ang^3
#
#
#
# Elastic Constant Matrix: (Units=GPa)
#
#
# Indices 1 2 3 4 5 6 
#
# 1 125.1964 44.3601 83.4669 0.0000 0.0000 0.0000
# 2 44.3601 56.8404 47.2336 0.0000 0.0000 0.0000
# 3 83.4669 47.2336 99.3826 0.0000 0.0000 0.0000
# 4 0.0000 0.0000 0.0000 3.7636 0.0000 0.0000
# 5 0.0000 0.0000 0.0000 0.0000 38.5738 0.0000
# 6 0.0000 0.0000 0.0000 0.0000 0.0000 51.0046
#
#
#
# Elastic Compliance Matrix: (Units=1/GPa)
#
#
# Indices 1 2 3 4 5 6 
#
# 1 0.018363 -0.002505 -0.014232 0.000000 0.000000 0.000000
# 2 -0.002505 0.029418 -0.011878 0.000000 0.000000 0.000000
# 3 -0.014232 -0.011878 0.027660 0.000000 0.000000 0.000000
# 4 0.000000 0.000000 0.000000 0.265702 0.000000 0.000000
# 5 0.000000 0.000000 0.000000 0.000000 0.025924 0.000000
# 6 0.000000 0.000000 0.000000 0.000000 0.000000 0.019606
#
#
# Mechanical properties :
#
#
# Convention : Reuss Voigt Hill
#
# Bulk Modulus (GPa) = 54.90813 70.17118 62.53966
# Shear Modulus (GPa) = 11.11172 25.75898 18.43535
#
# Velocity S-wave (km/s) = 2.55316 3.88733 3.28861
# Velocity P-wave (km/s) = 6.39554 7.83032 7.14901
#
# Compressibility (1/GPa) = 0.01821224
#
# Stress axis : x y z
#
# Youngs Moduli (GPa) = 54.45652 33.99232 36.15283
#
# Poissons Ratio (x) = 0.08514 0.51453
# Poissons Ratio (y) = 0.13639 0.42943
# Poissons Ratio (z) = 0.77503 0.40377
#
# Static dielectric constant tensor:
#      x y z
#    x 1.563590 0.000000 0.000000 
#    y 0.000000 1.569630 0.000000 
#    z 0.000000 0.000000 1.571450 
# 
# From -- ./inp_files/5316.got.cif
#   From: 2010.05.17/outbox.cif.g08.bks.cpg/sg49_3_cif.got.tgz:5316.got - 2010.06.03 21:02:19.
