data_PCOD9392914
_publ_section_title
;
Structure prediction by ZEFSAII (Michael W. Deem and Ramdas Pophale) SiO2 
 PCOD9392914
Probable space group: P C C M
;
_chemical_formula_sum "Si O2"
_cell_formula_units_Z 56
_cell_length_a 8.745330
_cell_length_b 22.542529
_cell_length_c 15.174528
_cell_angle_alpha 90.000000
_cell_angle_beta 90.000000
_cell_angle_gamma 90.000000
_cell_volume 2991.534601
_symmetry_space_group_name_H-M "P C C M"
_symmetry_group_IT_number 49
_symmetry_cell_setting 'orthorhombic'
loop_
_space_group_symop_operation_xyz
x,y,z
-x,-y,z
x,-y,1/2-z
-x,y,1/2-z
-x,-y,-z
x,y,-z
-x,y,1/2+z
x,-y,1/2+z
loop_
_atom_site_type_symbol
_atom_site_label
_atom_site_fract_x
_atom_site_fract_y
_atom_site_fract_z
Si Si1 0.182696 0.125486 0.396145
Si Si2 0.317953 0.210575 0.750000
Si Si3 0.813906 0.566526 0.601129
Si Si4 0.186094 0.566526 0.398871
Si Si5 0.182696 0.874514 0.396145
Si Si6 0.814252 0.342230 0.750000
Si Si7 0.675579 1.000000 0.892902
O O1 0.221289 0.133075 0.500000
O O2 0.257025 0.175156 0.335210
O O3 0.241515 0.060624 0.366760
O O4 1.000000 0.127703 0.387817
O O5 0.500000 0.210574 0.750000
O O6 0.257025 0.175157 0.835210
O O7 0.254521 0.277144 0.750000
O O8 0.766514 0.575615 0.500000
O O9 0.766157 0.500000 0.629049
O O10 0.765859 0.618652 0.665733
O O11 1.000000 0.566210 0.602475
O O12 0.233486 0.575615 0.500000
O O13 0.234141 0.618652 0.334267
O O14 0.221289 0.866925 0.500000
O O15 0.241515 0.939376 0.366760
O O16 0.000000 0.337792 0.750000
O O17 0.500000 0.000000 0.863340
O O18 0.676604 1.000000 0.000000
#
# Coordination Sequence:
#
# PCOD9392914 Si02
#       7
#     8   8   8   8   8   8   8
#     4  10  21  39  62  85 110 142 185 236 282 326
#     4  12  26  40  54  77 112 153 193 229 274 334
#     4   8  14  26  48  79 108 132 166 217 272 319
#     4   8  14  26  48  79 108 132 166 217 272 319
#     4  10  21  39  62  85 110 142 185 236 282 326
#     4  10  19  32  51  75 104 139 180 223 267 317
#     4   9  17  32  57  88 118 145 175 218 279 342
#
# _framework density 18.719488999999999
#
# number of rings (size 3 to 8) (size 9 to 14) (size 15 to 20)
#    0.000    2.429    0.000    3.857    0.000    6.857 
#    0.000    5.714    0.000    1.714    0.000    2.000 
#    0.000    0.000    0.000    0.000    0.000    0.000 
#
# Total GULP energy -312611.470288 kJ/mol
# GULP energy per Si atom -5582.347684 kJ/mol
# Density = 1.867688 g / cm^3
# Si number density = 18.719489 Si / 1000 Ang^3
#
#
#
# Elastic Constant Matrix: (Units=GPa)
#
#
# Indices 1 2 3 4 5 6 
#
# 1 65.0363 63.2147 50.1192 0.0000 0.0000 0.0000
# 2 63.2147 222.5816 109.4819 0.0000 0.0000 0.0000
# 3 50.1192 109.4819 109.9619 0.0000 0.0000 0.0000
# 4 0.0000 0.0000 0.0000 -44.2521 0.0000 0.0000
# 5 0.0000 0.0000 0.0000 0.0000 14.8940 0.0000
# 6 0.0000 0.0000 0.0000 0.0000 0.0000 -32.2726
#
#
#
# Elastic Compliance Matrix: (Units=1/GPa)
#
#
# Indices 1 2 3 4 5 6 
#
# 1 0.024611 -0.002885 -0.008345 0.000000 0.000000 0.000000
# 2 -0.002885 0.009143 -0.007788 0.000000 0.000000 0.000000
# 3 -0.008345 -0.007788 0.020651 0.000000 0.000000 0.000000
# 4 0.000000 0.000000 0.000000 -0.022598 0.000000 0.000000
# 5 0.000000 0.000000 0.000000 0.000000 0.067141 0.000000
# 6 0.000000 0.000000 0.000000 0.000000 0.000000 -0.030986
#
#
# Mechanical properties :
#
#
# Convention : Reuss Voigt Hill
#
# Bulk Modulus (GPa) = 61.08888 93.69015 77.38952
# Shear Modulus (GPa) = 44.86114 -0.67520 22.09297
#
# Velocity S-wave (km/s) = 4.90071 -0.60123 3.43915
# Velocity P-wave (km/s) = 8.04533 7.04814 7.56318
#
# Compressibility (1/GPa) = 0.01636959
#
# Stress axis : x y z
#
# Youngs Moduli (GPa) = 40.63183 109.37607 48.42270
#
# Poissons Ratio (x) = 0.31556 0.40409
# Poissons Ratio (y) = 0.11723 0.37711
# Poissons Ratio (z) = 0.33907 0.85181
#
# Static dielectric constant tensor:
#      x y z
#    x 1.625860 0.000000 0.000000 
#    y 0.000000 1.611720 0.000000 
#    z 0.000000 0.000000 1.667480 
# 
# From -- ./inp_files/11964.got.cif
#   From: 2010.05.17/outbox.cif.g08.bks.cpg/sg49_6_cif.got.tgz:11964.got - 2010.06.03 21:02:19.
