data_PCOD9392724
_publ_section_title
;
Structure prediction by ZEFSAII (Michael W. Deem and Ramdas Pophale) SiO2 
 PCOD9392724
Probable space group: P C C M
;
_chemical_formula_sum "Si O2"
_cell_formula_units_Z 56
_cell_length_a 32.072309
_cell_length_b 5.321983
_cell_length_c 14.202555
_cell_angle_alpha 90.000000
_cell_angle_beta 90.000000
_cell_angle_gamma 90.000000
_cell_volume 2424.209731
_symmetry_space_group_name_H-M "P C C M"
_symmetry_group_IT_number 49
_symmetry_cell_setting 'orthorhombic'
loop_
_space_group_symop_operation_xyz
x,y,z
-x,-y,z
x,-y,1/2-z
-x,y,1/2-z
-x,-y,-z
x,y,-z
-x,y,1/2+z
x,-y,1/2+z
loop_
_atom_site_type_symbol
_atom_site_label
_atom_site_fract_x
_atom_site_fract_y
_atom_site_fract_z
Si Si1 0.692407 0.112388 0.111181
Si Si2 0.261826 0.381986 0.884234
Si Si3 0.594944 0.008515 0.862183
Si Si4 0.168313 0.248532 0.114493
Si Si5 0.024798 0.750663 0.114854
Si Si6 0.880046 0.747634 0.385132
Si Si7 0.451685 0.502209 0.635404
O O1 0.715071 0.363611 0.147136
O O2 0.642929 0.078499 0.119887
O O3 0.712128 0.857408 0.148702
O O4 0.701489 0.115293 0.000000
O O5 0.214449 0.329135 0.853913
O O6 0.261567 0.387775 0.000000
O O7 0.568304 0.242692 0.896657
O O8 0.590639 0.000000 0.750000
O O9 0.575971 0.742345 0.894803
O O10 0.138017 0.476511 0.140547
O O11 0.149734 0.979021 0.143901
O O12 0.170096 0.238797 0.000000
O O13 0.072428 0.767491 0.148401
O O14 0.000000 0.500000 0.143031
O O15 0.026437 0.745237 0.000000
O O16 0.000000 0.000000 0.141484
O O17 0.880847 0.756319 0.500000
O O18 0.500000 0.500000 0.607774
O O19 0.451031 0.500000 0.750000
#
# Coordination Sequence:
#
# PCOD9392724 Si02
#       7
#     8   8   8   8   8   8   8
#     4  10  19  31  46  64  88 116 143 172 214 262
#     4   9  17  28  42  59  79 106 137 170 211 259
#     4  10  19  31  49  71  92 115 145 179 212 248
#     4   9  15  23  34  48  65  85 117 159 201 243
#     4   9  15  21  27  36  53  78 109 146 194 250
#     4   9  15  21  30  43  59  82 113 155 204 246
#     4   9  17  30  49  71  92 115 145 179 212 247
#
# _framework density 23.100311000000001
#
# number of rings (size 3 to 8) (size 9 to 14) (size 15 to 20)
#    0.000    2.714    0.000    3.000    0.000    8.571 
#    0.000    0.000    0.000    2.571    0.000    0.000 
#    0.000    0.000    0.000    0.000    0.000    0.000 
#
# Total GULP energy -313012.567459 kJ/mol
# GULP energy per Si atom -5589.510133 kJ/mol
# Density = 2.304773 g / cm^3
# Si number density = 23.100311 Si / 1000 Ang^3
#
#
#
# Elastic Constant Matrix: (Units=GPa)
#
#
# Indices 1 2 3 4 5 6 
#
# 1 1276.3275 1229.9579 262.5938 0.0000 0.0000 0.0000
# 2 1229.9579 1392.6572 286.7098 0.0000 0.0000 0.0000
# 3 262.5938 286.7098 154.0173 0.0000 0.0000 0.0000
# 4 0.0000 0.0000 0.0000 74.1200 0.0000 0.0000
# 5 0.0000 0.0000 0.0000 0.0000 10.8340 0.0000
# 6 0.0000 0.0000 0.0000 0.0000 0.0000 50.4572
#
#
#
# Elastic Compliance Matrix: (Units=1/GPa)
#
#
# Indices 1 2 3 4 5 6 
#
# 1 0.005287 -0.004562 -0.000522 0.000000 0.000000 0.000000
# 2 -0.004562 0.005101 -0.001717 0.000000 0.000000 0.000000
# 3 -0.000522 -0.001717 0.010579 0.000000 0.000000 0.000000
# 4 0.000000 0.000000 0.000000 0.013492 0.000000 0.000000
# 5 0.000000 0.000000 0.000000 0.000000 0.092302 0.000000
# 6 0.000000 0.000000 0.000000 0.000000 0.000000 0.019819
#
#
# Mechanical properties :
#
#
# Convention : Reuss Voigt Hill
#
# Bulk Modulus (GPa) = 135.78216 709.05833 422.42025
# Shear Modulus (GPa) = 30.74356 96.66495 63.70425
#
# Velocity S-wave (km/s) = 3.65207 6.47585 5.25710
# Velocity P-wave (km/s) = 8.75731 19.06644 14.83610
#
# Compressibility (1/GPa) = 0.00736474
#
# Stress axis : x y z
#
# Youngs Moduli (GPa) = 189.13519 196.05581 94.52880
#
# Poissons Ratio (x) = 0.89442 0.04935
# Poissons Ratio (y) = 0.86285 0.16229
# Poissons Ratio (z) = 0.09874 0.33659
#
# Static dielectric constant tensor:
#      x y z
#    x 1.841110 0.000000 0.000000 
#    y 0.000000 1.794920 0.000000 
#    z 0.000000 0.000000 1.944720 
# 
# From -- ./inp_files/21267.got.cif
#   From: 2010.05.17/outbox.cif.g08.bks.cpg/sg49_11_cif.got.tgz:21267.got - 2010.06.03 21:02:19.
