data_PCOD9392945
_publ_section_title
;
Structure prediction by ZEFSAII (Michael W. Deem and Ramdas Pophale) SiO2 
 PCOD9392945
Probable space group: P C C M
;
_chemical_formula_sum "Si O2"
_cell_formula_units_Z 56
_cell_length_a 19.482607
_cell_length_b 18.911967
_cell_length_c 8.729004
_cell_angle_alpha 90.000000
_cell_angle_beta 90.000000
_cell_angle_gamma 90.000000
_cell_volume 3216.240112
_symmetry_space_group_name_H-M "P C C M"
_symmetry_group_IT_number 49
_symmetry_cell_setting 'orthorhombic'
loop_
_space_group_symop_operation_xyz
x,y,z
-x,-y,z
x,-y,1/2-z
-x,y,1/2-z
-x,-y,-z
x,y,-z
-x,y,1/2+z
x,-y,1/2+z
loop_
_atom_site_type_symbol
_atom_site_label
_atom_site_fract_x
_atom_site_fract_y
_atom_site_fract_z
Si Si1 0.927833 0.812604 0.817433
Si Si2 0.649706 0.076399 0.816590
Si Si3 0.927155 0.346153 0.183609
Si Si4 0.426244 0.211512 0.817380
Si Si5 0.712303 0.286073 0.316982
Si Si6 0.789106 0.152426 0.182069
Si Si7 0.204798 0.423515 0.183298
O O1 0.918272 0.733639 0.747875
O O2 0.861288 0.856525 0.766699
O O3 0.000000 0.839506 0.750000
O O4 0.931959 0.807258 0.000000
O O5 0.600861 0.137263 0.749987
O O6 0.728146 0.098358 0.775568
O O7 0.633149 0.000000 0.750000
O O8 0.644401 0.076404 0.000000
O O9 0.865327 0.394053 0.243347
O O10 0.000000 0.371691 0.250000
O O11 0.928824 0.344056 0.000000
O O12 0.500000 0.229550 0.750000
O O13 0.366485 0.268080 0.780523
O O14 0.430920 0.205426 0.000000
O O15 0.722247 0.274243 0.500000
O O16 0.758671 0.228936 0.229207
O O17 0.737510 0.364614 0.281854
O O18 0.799756 0.149989 0.000000
O O19 0.221145 0.500000 0.250000
O O20 0.196747 0.427340 0.000000
#
# Coordination Sequence:
#
# PCOD9392945 Si02
#       7
#     8   8   8   8   8   8   8
#     4  11  20  31  49  74 103 136 176 223 272 316
#     4  10  21  36  55  82 114 147 179 214 254 310
#     4  11  21  34  51  73 102 138 177 222 271 322
#     4  10  20  36  58  85 112 142 175 214 259 310
#     4   9  19  35  55  76 104 137 175 217 262 313
#     4  10  19  32  53  78 104 136 178 220 264 312
#     4  11  22  36  53  76 104 139 179 222 271 322
#
# _framework density 17.411635
#
# number of rings (size 3 to 8) (size 9 to 14) (size 15 to 20)
#    0.000    1.714    1.429    5.143    0.000    3.429 
#    0.000    2.857    0.000    0.857    0.000    6.000 
#    0.000    0.000    0.000    0.000    0.000    0.000 
#
# Total GULP energy -312751.445224 kJ/mol
# GULP energy per Si atom -5584.847236 kJ/mol
# Density = 1.737201 g / cm^3
# Si number density = 17.411635 Si / 1000 Ang^3
#
#
#
# Elastic Constant Matrix: (Units=GPa)
#
#
# Indices 1 2 3 4 5 6 
#
# 1 129.3840 32.1356 51.2915 0.0000 0.0000 0.0000
# 2 32.1356 50.6400 22.5026 0.0000 0.0000 0.0000
# 3 51.2915 22.5026 89.2362 0.0000 0.0000 0.0000
# 4 0.0000 0.0000 0.0000 21.5078 0.0000 0.0000
# 5 0.0000 0.0000 0.0000 0.0000 11.1991 0.0000
# 6 0.0000 0.0000 0.0000 0.0000 0.0000 14.4124
#
#
#
# Elastic Compliance Matrix: (Units=1/GPa)
#
#
# Indices 1 2 3 4 5 6 
#
# 1 0.010905 -0.004657 -0.005094 0.000000 0.000000 0.000000
# 2 -0.004657 0.024228 -0.003433 0.000000 0.000000 0.000000
# 3 -0.005094 -0.003433 0.015000 0.000000 0.000000 0.000000
# 4 0.000000 0.000000 0.000000 0.046495 0.000000 0.000000
# 5 0.000000 0.000000 0.000000 0.000000 0.089293 0.000000
# 6 0.000000 0.000000 0.000000 0.000000 0.000000 0.069385
#
#
# Mechanical properties :
#
#
# Convention : Reuss Voigt Hill
#
# Bulk Modulus (GPa) = 42.07731 53.45774 47.76752
# Shear Modulus (GPa) = 17.26561 20.31255 18.78908
#
# Velocity S-wave (km/s) = 3.15241 3.41927 3.28855
# Velocity P-wave (km/s) = 6.12118 6.80863 6.47404
#
# Compressibility (1/GPa) = 0.02376578
#
# Stress axis : x y z
#
# Youngs Moduli (GPa) = 91.70301 41.27498 66.66831
#
# Poissons Ratio (x) = 0.19220 0.33958
# Poissons Ratio (y) = 0.42703 0.22887
# Poissons Ratio (z) = 0.46710 0.14169
#
# Static dielectric constant tensor:
#      x y z
#    x 1.604260 0.000000 0.000000 
#    y 0.000000 1.567430 0.000000 
#    z 0.000000 0.000000 1.581700 
# 
# From -- ./inp_files/5175.got.cif
#   From: 2010.05.17/outbox.cif.g08.bks.cpg/sg49_3_cif.got.tgz:5175.got - 2010.06.03 21:02:19.
