data_PCOD9392450
_publ_section_title
;
Structure prediction by ZEFSAII (Michael W. Deem and Ramdas Pophale) SiO2 
 PCOD9392450
Probable space group: P C C M
;
_chemical_formula_sum "Si O2"
_cell_formula_units_Z 58
_cell_length_a 18.512905
_cell_length_b 18.031312
_cell_length_c 9.443607
_cell_angle_alpha 90.000000
_cell_angle_beta 90.000000
_cell_angle_gamma 90.000000
_cell_volume 3152.389020
_symmetry_space_group_name_H-M "P C C M"
_symmetry_group_IT_number 49
_symmetry_cell_setting 'orthorhombic'
loop_
_space_group_symop_operation_xyz
x,y,z
-x,-y,z
x,-y,1/2-z
-x,y,1/2-z
-x,-y,-z
x,y,-z
-x,y,1/2+z
x,-y,1/2+z
loop_
_atom_site_type_symbol
_atom_site_label
_atom_site_fract_x
_atom_site_fract_y
_atom_site_fract_z
Si Si1 0.073385 0.283687 0.663871
Si Si2 0.158205 0.567628 0.158228
Si Si3 0.800054 0.204665 0.666028
Si Si4 0.326255 0.579085 0.172246
Si Si5 0.251128 0.073239 0.339384
Si Si6 0.409828 0.140412 0.347096
Si Si7 0.500000 0.000000 0.750000
Si Si8 0.362297 0.726979 0.666646
O O1 0.067788 0.258393 0.500000
O O2 0.099544 0.368522 0.660843
O O3 0.138866 0.246867 0.748279
O O4 0.000000 0.273590 0.750000
O O5 0.133612 0.500000 0.250000
O O6 0.239883 0.591613 0.199742
O O7 0.167406 0.539415 0.000000
O O8 0.816437 0.199242 0.500000
O O9 0.797192 0.125540 0.742582
O O10 0.721107 0.243727 0.677358
O O11 0.343728 0.500000 0.250000
O O12 0.365518 0.650375 0.243459
O O13 0.337290 0.576083 0.000000
O O14 0.224988 0.060028 0.500000
O O15 0.326705 0.116174 0.351185
O O16 0.264156 0.000000 0.250000
O O17 0.431410 0.171642 0.500000
O O18 0.411444 0.205625 0.229990
O O19 0.450443 0.061350 0.328079
O O20 0.377533 0.715011 0.500000
#
# Coordination Sequence:
#
# PCOD9392450 Si02
#       8
#     8   8   8   8   8   8   2   8
#     4  11  22  36  51  72  99 136 179 224 277 335
#     4   9  19  32  48  69  98 135 175 220 272 328
#     4  10  20  34  53  76 102 136 176 227 277 327
#     4  10  18  31  52  79 110 143 183 233 290 340
#     4  10  19  34  55  81 109 140 179 222 266 316
#     4  10  22  36  55  81 116 158 193 228 268 318
#     4  12  22  40  60  90 124 164 198 226 262 312
#     4  10  20  34  54  80 110 145 190 235 281 330
#
# _framework density 18.398745000000002
#
# number of rings (size 3 to 8) (size 9 to 14) (size 15 to 20)
#    0.000    1.931    2.069    2.276    0.000    4.690 
#    0.000    1.379    0.000    0.414    0.000    3.379 
#    0.000    3.310    0.000    0.000    0.000    0.000 
#
# Total GULP energy -322941.830513 kJ/mol
# GULP energy per Si atom -5567.962595 kJ/mol
# Density = 1.835687 g / cm^3
# Si number density = 18.398745 Si / 1000 Ang^3
#
#
#
# Elastic Constant Matrix: (Units=GPa)
#
#
# Indices 1 2 3 4 5 6 
#
# 1 36.9720 10.2843 31.9295 0.0000 0.0000 0.0000
# 2 10.2843 60.3676 63.2878 0.0000 0.0000 0.0000
# 3 31.9295 63.2878 155.8909 0.0000 0.0000 0.0000
# 4 0.0000 0.0000 0.0000 -40.6775 0.0000 0.0000
# 5 0.0000 0.0000 0.0000 0.0000 -642.6572 0.0000
# 6 0.0000 0.0000 0.0000 0.0000 0.0000 17.4618
#
#
#
# Elastic Compliance Matrix: (Units=1/GPa)
#
#
# Indices 1 2 3 4 5 6 
#
# 1 0.033085 0.002556 -0.007814 0.000000 0.000000 0.000000
# 2 0.002556 0.029037 -0.012312 0.000000 0.000000 0.000000
# 3 -0.007814 -0.012312 0.013013 0.000000 0.000000 0.000000
# 4 0.000000 0.000000 0.000000 -0.024584 0.000000 0.000000
# 5 0.000000 0.000000 0.000000 0.000000 -0.001556 0.000000
# 6 0.000000 0.000000 0.000000 0.000000 0.000000 0.057268
#
#
# Mechanical properties :
#
#
# Convention : Reuss Voigt Hill
#
# Bulk Modulus (GPa) = 25.00304 51.58151 38.29228
# Shear Modulus (GPa) = 32.31314 -123.32599 -45.50643
#
# Velocity S-wave (km/s) = 4.19533 -8.19604 -4.97867
# Velocity P-wave (km/s) = 6.08989 7.84032 3.49169
#
# Compressibility (1/GPa) = 0.03999513
#
# Stress axis : x y z
#
# Youngs Moduli (GPa) = 30.22535 34.43862 76.84350
#
# Poissons Ratio (x) = -0.08801 0.60045
# Poissons Ratio (y) = -0.07724 0.94608
# Poissons Ratio (z) = 0.23618 0.42400
#
# Static dielectric constant tensor:
#      x y z
#    x 1.646830 0.000000 0.000000 
#    y 0.000000 1.724140 0.000000 
#    z 0.000000 0.000000 1.669790 
# 
# From -- ./inp_files/5080.got.cif
#   From: 2010.05.17/outbox.cif.g08.bks.cpg/sg49_3_cif.got.tgz:5080.got - 2010.06.03 21:02:19.
