data_PCOD9392607
_publ_section_title
;
Structure prediction by ZEFSAII (Michael W. Deem and Ramdas Pophale) SiO2 
 PCOD9392607
Probable space group: P C C M
;
_chemical_formula_sum "Si O2"
_cell_formula_units_Z 44
_cell_length_a 11.451478
_cell_length_b 23.943045
_cell_length_c 9.311046
_cell_angle_alpha 90.000000
_cell_angle_beta 90.000000
_cell_angle_gamma 90.000000
_cell_volume 2552.932882
_symmetry_space_group_name_H-M "P C C M"
_symmetry_group_IT_number 49
_symmetry_cell_setting 'orthorhombic'
loop_
_space_group_symop_operation_xyz
x,y,z
-x,-y,z
x,-y,1/2-z
-x,y,1/2-z
-x,-y,-z
x,y,-z
-x,y,1/2+z
x,-y,1/2+z
loop_
_atom_site_type_symbol
_atom_site_label
_atom_site_fract_x
_atom_site_fract_y
_atom_site_fract_z
Si Si1 0.876726 0.618121 0.829318
Si Si2 0.624352 0.822547 0.330753
Si Si3 0.289360 0.722053 0.339496
Si Si4 0.500000 0.645364 0.750000
Si Si5 0.676838 0.446559 0.836784
Si Si6 0.626672 0.053012 0.172006
O O1 0.815462 0.678793 0.813962
O O2 0.788337 0.575861 0.750954
O O3 0.000000 0.616597 0.750000
O O4 0.886024 0.606477 0.000000
O O5 0.500000 0.818845 0.250000
O O6 0.603381 0.816589 0.500000
O O7 0.701673 0.772114 0.272263
O O8 0.676355 0.884671 0.306495
O O9 0.280128 0.745230 0.500000
O O10 0.408272 0.685272 0.330051
O O11 0.417950 0.603194 0.838303
O O12 0.632334 0.500000 0.750000
O O13 0.706274 0.461510 0.000000
O O14 0.500000 0.056415 0.250000
O O15 0.685758 0.000000 0.250000
O O16 0.615289 0.043708 0.000000
#
# Coordination Sequence:
#
# PCOD9392607 Si02
#       6
#     8   8   8   4   8   8
#     4  10  22  40  59  79 101 128 165 207 252 301
#     4  10  19  28  42  66  97 131 168 206 246 291
#     4  10  20  33  51  75 102 131 166 204 245 296
#     4  10  21  34  54  78 105 134 168 198 244 294
#     4  11  23  38  57  80 106 135 166 204 247 295
#     4   9  16  25  37  56  84 124 168 206 242 283
#
# _framework density 17.235078000000001
#
# number of rings (size 3 to 8) (size 9 to 14) (size 15 to 20)
#    0.000    2.000    0.909    3.545    0.000    9.091 
#    0.000    1.818    0.000    0.000    0.000    0.000 
#    0.000    0.727    0.000    8.000    0.000    5.818 
#
# Total GULP energy -245275.395955 kJ/mol
# GULP energy per Si atom -5574.440817 kJ/mol
# Density = 1.719585 g / cm^3
# Si number density = 17.235078 Si / 1000 Ang^3
#
#
#
# Elastic Constant Matrix: (Units=GPa)
#
#
# Indices 1 2 3 4 5 6 
#
# 1 73.6356 20.8017 32.0470 0.0000 0.0000 0.0000
# 2 20.8017 107.5777 64.4307 0.0000 0.0000 0.0000
# 3 32.0470 64.4307 138.1220 0.0000 0.0000 0.0000
# 4 0.0000 0.0000 0.0000 27.6199 0.0000 0.0000
# 5 0.0000 0.0000 0.0000 0.0000 8.9241 0.0000
# 6 0.0000 0.0000 0.0000 0.0000 0.0000 6.3738
#
#
#
# Elastic Compliance Matrix: (Units=1/GPa)
#
#
# Indices 1 2 3 4 5 6 
#
# 1 0.015207 -0.001148 -0.002993 0.000000 0.000000 0.000000
# 2 -0.001148 0.012986 -0.005791 0.000000 0.000000 0.000000
# 3 -0.002993 -0.005791 0.010636 0.000000 0.000000 0.000000
# 4 0.000000 0.000000 0.000000 0.036206 0.000000 0.000000
# 5 0.000000 0.000000 0.000000 0.000000 0.112057 0.000000
# 6 0.000000 0.000000 0.000000 0.000000 0.000000 0.156893
#
#
# Mechanical properties :
#
#
# Convention : Reuss Voigt Hill
#
# Bulk Modulus (GPa) = 52.72934 61.54379 57.13657
# Shear Modulus (GPa) = 13.50727 22.05393 17.78060
#
# Velocity S-wave (km/s) = 2.80252 3.58102 3.21542
# Velocity P-wave (km/s) = 6.41348 7.27216 6.85628
#
# Compressibility (1/GPa) = 0.01896477
#
# Stress axis : x y z
#
# Youngs Moduli (GPa) = 65.75828 77.00488 94.02112
#
# Poissons Ratio (x) = 0.08841 0.28139
# Poissons Ratio (y) = 0.07550 0.54451
# Poissons Ratio (z) = 0.19680 0.44596
#
# Static dielectric constant tensor:
#      x y z
#    x 1.555370 0.000000 0.000000 
#    y 0.000000 1.635760 0.000000 
#    z 0.000000 0.000000 1.589830 
# 
# From -- ./inp_files/2839.got.cif
#   From: 2010.05.17/outbox.cif.g08.bks.cpg/sg49_2_cif.got.tgz:2839.got - 2010.06.03 21:02:19.
