data_PCOD9392594
_publ_section_title
;
Structure prediction by ZEFSAII (Michael W. Deem and Ramdas Pophale) SiO2 
 PCOD9392594
Probable space group: P C C M
;
_chemical_formula_sum "Si O2"
_cell_formula_units_Z 28
_cell_length_a 16.089903
_cell_length_b 5.416354
_cell_length_c 14.102707
_cell_angle_alpha 90.000000
_cell_angle_beta 90.000000
_cell_angle_gamma 90.000000
_cell_volume 1229.031319
_symmetry_space_group_name_H-M "P C C M"
_symmetry_group_IT_number 49
_symmetry_cell_setting 'orthorhombic'
loop_
_space_group_symop_operation_xyz
x,y,z
-x,-y,z
x,-y,1/2-z
-x,y,1/2-z
-x,-y,-z
x,y,-z
-x,y,1/2+z
x,-y,1/2+z
loop_
_atom_site_type_symbol
_atom_site_label
_atom_site_fract_x
_atom_site_fract_y
_atom_site_fract_z
Si Si1 0.373243 0.134730 0.346174
Si Si2 0.093767 0.249735 0.210578
Si Si3 0.500000 0.000000 0.500000
Si Si4 0.860080 0.796187 0.000000
Si Si5 0.500000 0.500000 0.250000
Si Si6 0.243447 0.702547 0.000000
O O1 0.427313 0.966720 0.417425
O O2 0.439109 0.340164 0.314459
O O3 0.300070 0.252561 0.407537
O O4 0.346174 0.000000 0.250000
O O5 0.134467 0.500000 0.250000
O O6 0.090877 0.241123 0.097526
O O7 0.000000 0.250630 0.250000
O O8 0.134514 0.000000 0.250000
O O9 0.793030 0.573158 0.000000
O O10 0.823105 0.073266 0.000000
#
# Coordination Sequence:
#
# PCOD9392594 Si02
#       6
#     8   8   2   4   2   4
#     4  11  24  42  65 100 134 182 243 290 355 415
#     4  10  23  43  75 109 138 185 235 291 346 418
#     4  10  18  42  60  90 128 160 230 302 338 392
#     4  12  26  50  68 106 153 186 232 294 358 428
#     4  12  22  42  72  94 126 184 228 318 322 400
#     4  11  30  44  70 100 150 196 224 284 363 440
#
# _framework density 22.782170000000001
#
# number of rings (size 3 to 8) (size 9 to 14) (size 15 to 20)
#    0.000    1.143    2.857    1.714    4.000   10.286 
#    0.000    0.000    0.000    0.000    0.000    0.000 
#    0.000    0.000    0.000    0.000    0.000    0.000 
#
# Total GULP energy -156027.077821 kJ/mol
# GULP energy per Si atom -5572.395636 kJ/mol
# Density = 2.273032 g / cm^3
# Si number density = 22.782170 Si / 1000 Ang^3
#
#
#
# Elastic Constant Matrix: (Units=GPa)
#
#
# Indices 1 2 3 4 5 6 
#
# 1 52.7863 -6.0385 33.0122 0.0000 0.0000 0.0000
# 2 -6.0385 113.0545 25.1629 0.0000 0.0000 0.0000
# 3 33.0122 25.1629 217.1369 0.0000 0.0000 0.0000
# 4 0.0000 0.0000 0.0000 -22.6267 0.0000 0.0000
# 5 0.0000 0.0000 0.0000 0.0000 133.7130 0.0000
# 6 0.0000 0.0000 0.0000 0.0000 0.0000 15.8196
#
#
#
# Elastic Compliance Matrix: (Units=1/GPa)
#
#
# Indices 1 2 3 4 5 6 
#
# 1 0.021329 0.001910 -0.003464 0.000000 0.000000 0.000000
# 2 0.001910 0.009251 -0.001362 0.000000 0.000000 0.000000
# 3 -0.003464 -0.001362 0.005290 0.000000 0.000000 0.000000
# 4 0.000000 0.000000 0.000000 -0.044196 0.000000 0.000000
# 5 0.000000 0.000000 0.000000 0.000000 0.007479 0.000000
# 6 0.000000 0.000000 0.000000 0.000000 0.000000 0.063213
#
#
# Mechanical properties :
#
#
# Convention : Reuss Voigt Hill
#
# Bulk Modulus (GPa) = 33.29206 54.13899 43.71553
# Shear Modulus (GPa) = 63.93000 47.43725 55.68363
#
# Velocity S-wave (km/s) = 5.30305 4.56807 4.94922
# Velocity P-wave (km/s) = 7.22090 7.18599 7.20346
#
# Compressibility (1/GPa) = 0.03003719
#
# Stress axis : x y z
#
# Youngs Moduli (GPa) = 46.88384 108.10154 189.03792
#
# Poissons Ratio (x) = -0.20650 0.65486
# Poissons Ratio (y) = -0.08956 0.25755
# Poissons Ratio (z) = 0.16241 0.14728
#
# Static dielectric constant tensor:
#      x y z
#    x 1.741640 0.000000 0.000000 
#    y 0.000000 2.020560 0.000000 
#    z 0.000000 0.000000 1.810970 
# 
# From -- ./inp_files/9813.got.cif
#   From: 2010.05.17/outbox.cif.g08.bks.cpg/sg49_5_cif.got.tgz:9813.got - 2010.06.03 21:02:19.
