data_PCOD9392977
_publ_section_title
;
Structure prediction by ZEFSAII (Michael W. Deem and Ramdas Pophale) SiO2 
 PCOD9392977
Probable space group: P C C M
;
_chemical_formula_sum "Si O2"
_cell_formula_units_Z 40
_cell_length_a 7.398219
_cell_length_b 12.574388
_cell_length_c 17.166531
_cell_angle_alpha 90.000000
_cell_angle_beta 90.000000
_cell_angle_gamma 90.000000
_cell_volume 1596.969354
_symmetry_space_group_name_H-M "P C C M"
_symmetry_group_IT_number 49
_symmetry_cell_setting 'orthorhombic'
loop_
_space_group_symop_operation_xyz
x,y,z
-x,-y,z
x,-y,1/2-z
-x,y,1/2-z
-x,-y,-z
x,y,-z
-x,y,1/2+z
x,-y,1/2+z
loop_
_atom_site_type_symbol
_atom_site_label
_atom_site_fract_x
_atom_site_fract_y
_atom_site_fract_z
Si Si1 0.294534 0.840384 0.255658
Si Si2 0.361381 0.900376 0.414048
Si Si3 0.194552 0.392114 0.787339
Si Si4 0.279518 0.223762 0.409813
Si Si5 0.293396 0.471098 0.591056
O O1 0.500000 0.879570 0.250000
O O2 0.235460 0.895304 0.337161
O O3 0.297679 0.715870 0.277018
O O4 0.212735 0.841096 0.167759
O O5 0.272713 0.901967 0.500000
O O6 0.505072 0.802367 0.412330
O O7 0.500000 0.000000 0.411374
O O8 0.274737 0.500000 0.750000
O O9 0.175248 0.433450 0.874478
O O10 0.000000 0.376209 0.750000
O O11 0.216265 0.202446 0.500000
O O12 0.253448 0.347977 0.389392
O O13 0.500000 0.500000 0.611366
O O14 0.277222 0.475213 0.500000
#
# Coordination Sequence:
#
# PCOD9392977 Si02
#       5
#     8   8   8   8   8
#     4  10  19  32  55  79 106 152 196 245 297 363
#     4   9  18  32  52  84 119 143 179 245 315 367
#     4  11  23  36  51  80 119 162 201 247 309 372
#     4   9  17  29  45  72 105 140 182 234 290 346
#     4  10  19  33  56  82 111 153 207 257 302 364
#
# _framework density 25.047443999999999
#
# number of rings (size 3 to 8) (size 9 to 14) (size 15 to 20)
#    0.000    2.200    2.000    2.400    0.000    6.000 
#    0.000    3.000    0.000    0.000    0.000   12.600 
#    0.000   14.400    0.000    0.000    0.000    0.000 
#
# Total GULP energy -222911.250448 kJ/mol
# GULP energy per Si atom -5572.781261 kJ/mol
# Density = 2.499043 g / cm^3
# Si number density = 25.047444 Si / 1000 Ang^3
#
#
#
# Elastic Constant Matrix: (Units=GPa)
#
#
# Indices 1 2 3 4 5 6 
#
# 1 45.4860 24.4528 30.8201 0.0000 0.0000 0.0000
# 2 24.4528 106.3261 37.7478 0.0000 0.0000 0.0000
# 3 30.8201 37.7478 246.5247 0.0000 0.0000 0.0000
# 4 0.0000 0.0000 0.0000 20.0605 0.0000 0.0000
# 5 0.0000 0.0000 0.0000 0.0000 0.4687 0.0000
# 6 0.0000 0.0000 0.0000 0.0000 0.0000 -5.8811
#
#
#
# Elastic Compliance Matrix: (Units=1/GPa)
#
#
# Indices 1 2 3 4 5 6 
#
# 1 0.026483 -0.005198 -0.002515 0.000000 0.000000 0.000000
# 2 -0.005198 0.010966 -0.001029 0.000000 0.000000 0.000000
# 3 -0.002515 -0.001029 0.004528 0.000000 0.000000 0.000000
# 4 0.000000 0.000000 0.000000 0.049849 0.000000 0.000000
# 5 0.000000 0.000000 0.000000 0.000000 2.133400 0.000000
# 6 0.000000 0.000000 0.000000 0.000000 0.000000 -0.170035
#
#
# Mechanical properties :
#
#
# Convention : Reuss Voigt Hill
#
# Bulk Modulus (GPa) = 40.82734 64.93091 52.87912
# Shear Modulus (GPa) = 2.40288 23.28402 12.84345
#
# Velocity S-wave (km/s) = 0.98052 3.05224 2.26689
# Velocity P-wave (km/s) = 4.19729 6.19685 5.29236
#
# Compressibility (1/GPa) = 0.02449339
#
# Stress axis : x y z
#
# Youngs Moduli (GPa) = 37.75985 91.19253 220.82795
#
# Poissons Ratio (x) = 0.47399 0.55538
# Poissons Ratio (y) = 0.19626 0.22729
# Poissons Ratio (z) = 0.09497 0.09386
#
# Static dielectric constant tensor:
#      x y z
#    x 1.970460 0.000000 0.000000 
#    y 0.000000 2.086560 0.000000 
#    z 0.000000 0.000000 2.287320 
# 
# From -- ./inp_files/15974.got.cif
#   From: 2010.05.17/outbox.cif.g08.bks.cpg/sg49_8_cif.got.tgz:15974.got - 2010.06.03 21:02:19.
