data_PCOD9392016
_publ_section_title
;
Structure prediction by ZEFSAII (Michael W. Deem and Ramdas Pophale) SiO2 
 PCOD9392016
Probable space group: P C C M
;
_chemical_formula_sum "Si O2"
_cell_formula_units_Z 48
_cell_length_a 32.278943
_cell_length_b 9.619954
_cell_length_c 8.616053
_cell_angle_alpha 90.000000
_cell_angle_beta 90.000000
_cell_angle_gamma 90.000000
_cell_volume 2675.473552
_symmetry_space_group_name_H-M "P C C M"
_symmetry_group_IT_number 49
_symmetry_cell_setting 'orthorhombic'
loop_
_space_group_symop_operation_xyz
x,y,z
-x,-y,z
x,-y,1/2-z
-x,y,1/2-z
-x,-y,-z
x,y,-z
-x,y,1/2+z
x,-y,1/2+z
loop_
_atom_site_type_symbol
_atom_site_label
_atom_site_fract_x
_atom_site_fract_y
_atom_site_fract_z
Si Si1 0.127345 0.842401 0.685558
Si Si2 0.455600 0.156342 0.685985
Si Si3 0.292927 0.655707 0.814581
Si Si4 0.618372 0.343488 0.685900
Si Si5 0.042608 0.841310 0.184830
Si Si6 0.780680 0.157269 0.313574
O O1 0.122535 0.846785 0.500000
O O2 0.086024 0.776595 0.758465
O O3 0.173025 0.784853 0.722785
O O4 0.128931 0.000000 0.750000
O O5 0.500000 0.207317 0.750000
O O6 0.456417 0.154184 0.500000
O O7 0.418338 0.249985 0.747657
O O8 0.450372 0.000000 0.750000
O O9 0.286716 0.500000 0.750000
O O10 0.336677 0.706924 0.744859
O O11 0.255207 0.751221 0.760672
O O12 0.295898 0.651303 0.000000
O O13 0.613691 0.500000 0.750000
O O14 0.617606 0.344792 0.500000
O O15 0.000000 0.777544 0.250000
O O16 0.043229 0.000000 0.250000
O O17 0.041233 0.846407 0.000000
O O18 0.776541 0.154558 0.500000
O O19 0.778078 0.000000 0.250000
#
# Coordination Sequence:
#
# PCOD9392016 Si02
#       6
#     8   8   8   8   8   8
#     4   9  16  26  40  59  87 120 157 200 248 298
#     4  11  22  39  60  86 116 149 184 221 265 312
#     4  11  22  38  58  80 107 140 176 218 265 315
#     4  11  22  39  60  84 111 142 179 221 266 314
#     4  10  16  22  33  50  77 113 155 196 241 295
#     4  10  20  34  52  76 104 136 173 215 261 313
#
# _framework density 17.940747999999999
#
# number of rings (size 3 to 8) (size 9 to 14) (size 15 to 20)
#    0.000    1.667    0.000   10.000    0.000    3.000 
#    0.000    5.000    0.000    0.000    0.000    0.000 
#    0.000    0.667    0.000    7.000    0.000    5.167 
#
# Total GULP energy -267896.220838 kJ/mol
# GULP energy per Si atom -5581.171267 kJ/mol
# Density = 1.789991 g / cm^3
# Si number density = 17.940748 Si / 1000 Ang^3
#
#
#
# Elastic Constant Matrix: (Units=GPa)
#
#
# Indices 1 2 3 4 5 6 
#
# 1 217.2445 63.1827 94.6625 0.0000 0.0000 0.0000
# 2 63.1827 30.0044 30.7347 0.0000 0.0000 0.0000
# 3 94.6625 30.7347 185.9031 0.0000 0.0000 0.0000
# 4 0.0000 0.0000 0.0000 22.2345 0.0000 0.0000
# 5 0.0000 0.0000 0.0000 0.0000 36.0278 0.0000
# 6 0.0000 0.0000 0.0000 0.0000 0.0000 -24.0899
#
#
#
# Elastic Compliance Matrix: (Units=1/GPa)
#
#
# Indices 1 2 3 4 5 6 
#
# 1 0.012757 -0.024329 -0.002474 0.000000 0.000000 0.000000
# 2 -0.024329 0.086523 -0.001916 0.000000 0.000000 0.000000
# 3 -0.002474 -0.001916 0.006955 0.000000 0.000000 0.000000
# 4 0.000000 0.000000 0.000000 0.044975 0.000000 0.000000
# 5 0.000000 0.000000 0.000000 0.000000 0.027756 0.000000
# 6 0.000000 0.000000 0.000000 0.000000 0.000000 -0.041511
#
#
# Mechanical properties :
#
#
# Convention : Reuss Voigt Hill
#
# Bulk Modulus (GPa) = 20.49283 90.03465 55.26374
# Shear Modulus (GPa) = 23.67892 23.13928 23.40910
#
# Velocity S-wave (km/s) = 3.63690 3.59522 3.61612
# Velocity P-wave (km/s) = 5.39290 8.21751 6.95021
#
# Compressibility (1/GPa) = 0.04879755
#
# Stress axis : x y z
#
# Youngs Moduli (GPa) = 78.39009 11.55767 143.77217
#
# Poissons Ratio (x) = 0.28119 0.35562
# Poissons Ratio (y) = 1.90716 0.27547
# Poissons Ratio (z) = 0.19390 0.02215
#
# Static dielectric constant tensor:
#      x y z
#    x 1.665190 0.000000 0.000000 
#    y 0.000000 1.579520 0.000000 
#    z 0.000000 0.000000 1.577810 
# 
# From -- ./inp_files/6880.got.cif
#   From: 2010.05.17/outbox.cif.g08.bks.cpg/sg49_4_cif.got.tgz:6880.got - 2010.06.03 21:02:19.
