data_PCOD9392462
_publ_section_title
;
Structure prediction by ZEFSAII (Michael W. Deem and Ramdas Pophale) SiO2 
 PCOD9392462
Probable space group: P C C M
;
_chemical_formula_sum "Si O2"
_cell_formula_units_Z 56
_cell_length_a 9.698461
_cell_length_b 17.216595
_cell_length_c 18.044735
_cell_angle_alpha 90.000000
_cell_angle_beta 90.000000
_cell_angle_gamma 90.000000
_cell_volume 3013.010156
_symmetry_space_group_name_H-M "P C C M"
_symmetry_group_IT_number 49
_symmetry_cell_setting 'orthorhombic'
loop_
_space_group_symop_operation_xyz
x,y,z
-x,-y,z
x,-y,1/2-z
-x,y,1/2-z
-x,-y,-z
x,y,-z
-x,y,1/2+z
x,-y,1/2+z
loop_
_atom_site_type_symbol
_atom_site_label
_atom_site_fract_x
_atom_site_fract_y
_atom_site_fract_z
Si Si1 0.867940 0.613972 0.703889
Si Si2 0.980944 0.716688 0.417142
Si Si3 0.773843 0.756671 0.809977
Si Si4 0.163203 0.086656 0.729748
Si Si5 0.424434 0.423259 0.671654
Si Si6 0.259282 0.843723 0.917628
Si Si7 0.507604 0.729014 0.911512
O O1 0.928084 0.641292 0.625491
O O2 0.807972 0.690182 0.748485
O O3 0.735563 0.561624 0.689328
O O4 0.000000 0.586094 0.750000
O O5 0.031187 0.701489 0.500000
O O6 0.852913 0.774974 0.420408
O O7 0.097439 0.754221 0.365906
O O8 0.767136 0.840612 0.771662
O O9 0.640274 0.738900 0.859148
O O10 0.201874 0.099113 0.644190
O O11 0.000000 0.092645 0.750000
O O12 0.208303 0.000000 0.750000
O O13 0.500000 0.500000 0.642269
O O14 0.500000 0.404640 0.750000
O O15 0.437391 0.350679 0.616671
O O16 0.402805 0.800786 0.899349
O O17 0.269738 0.878405 0.000000
O O18 0.537219 0.725340 0.000000
#
# Coordination Sequence:
#
# PCOD9392462 Si02
#       7
#     8   8   8   8   8   8   8
#     4  10  19  34  61  85 112 152 196 241 281 335
#     4  10  18  31  56  84 113 146 192 241 285 329
#     4  11  19  36  57  85 114 150 198 246 279 336
#     4  11  21  37  59  88 117 152 195 243 296 350
#     4  11  22  38  58  86 120 153 188 235 288 352
#     4  10  20  37  58  84 116 152 194 237 284 344
#     4  11  23  38  61  88 117 154 193 240 291 342
#
# _framework density 18.586065000000001
#
# number of rings (size 3 to 8) (size 9 to 14) (size 15 to 20)
#    0.000    1.429    5.714    0.857    0.000    0.286 
#    0.000    5.714    0.000    1.714    0.000    3.000 
#    0.000    0.000    0.000    0.000    0.000    0.000 
#
# Total GULP energy -312463.861196 kJ/mol
# GULP energy per Si atom -5579.711807 kJ/mol
# Density = 1.854376 g / cm^3
# Si number density = 18.586065 Si / 1000 Ang^3
#
#
#
# Elastic Constant Matrix: (Units=GPa)
#
#
# Indices 1 2 3 4 5 6 
#
# 1 88.9648 17.6925 10.2044 0.0000 0.0000 0.0000
# 2 17.6925 75.5792 30.7874 0.0000 0.0000 0.0000
# 3 10.2044 30.7874 97.0138 0.0000 0.0000 0.0000
# 4 0.0000 0.0000 0.0000 26.3039 0.0000 0.0000
# 5 0.0000 0.0000 0.0000 0.0000 24.1089 0.0000
# 6 0.0000 0.0000 0.0000 0.0000 0.0000 12.7267
#
#
#
# Elastic Compliance Matrix: (Units=1/GPa)
#
#
# Indices 1 2 3 4 5 6 
#
# 1 0.011804 -0.002593 -0.000419 0.000000 0.000000 0.000000
# 2 -0.002593 0.015765 -0.004730 0.000000 0.000000 0.000000
# 3 -0.000419 -0.004730 0.011853 0.000000 0.000000 0.000000
# 4 0.000000 0.000000 0.000000 0.038017 0.000000 0.000000
# 5 0.000000 0.000000 0.000000 0.000000 0.041478 0.000000
# 6 0.000000 0.000000 0.000000 0.000000 0.000000 0.078575
#
#
# Mechanical properties :
#
#
# Convention : Reuss Voigt Hill
#
# Bulk Modulus (GPa) = 41.77373 42.10294 41.93834
# Shear Modulus (GPa) = 22.62896 26.15279 24.39088
#
# Velocity S-wave (km/s) = 3.49309 3.75523 3.62653
# Velocity P-wave (km/s) = 6.22844 6.44239 6.33632
#
# Compressibility (1/GPa) = 0.02393849
#
# Stress axis : x y z
#
# Youngs Moduli (GPa) = 84.71672 63.43178 84.36657
#
# Poissons Ratio (x) = 0.16445 0.03534
# Poissons Ratio (y) = 0.21964 0.39908
# Poissons Ratio (z) = 0.03548 0.30005
#
# Static dielectric constant tensor:
#      x y z
#    x 1.648130 0.000000 0.000000 
#    y 0.000000 1.635270 0.000000 
#    z 0.000000 0.000000 1.742720 
# 
# From -- ./inp_files/16521.got.cif
#   From: 2010.05.17/outbox.cif.g08.bks.cpg/sg49_9_cif.got.tgz:16521.got - 2010.06.03 21:02:19.
