data_PCOD9392017
_publ_section_title
;
Structure prediction by ZEFSAII (Michael W. Deem and Ramdas Pophale) SiO2 
 PCOD9392017
Probable space group: P C C M
;
_chemical_formula_sum "Si O2"
_cell_formula_units_Z 48
_cell_length_a 32.864828
_cell_length_b 9.274903
_cell_length_c 8.664573
_cell_angle_alpha 90.000000
_cell_angle_beta 90.000000
_cell_angle_gamma 90.000000
_cell_volume 2641.118608
_symmetry_space_group_name_H-M "P C C M"
_symmetry_group_IT_number 49
_symmetry_cell_setting 'orthorhombic'
loop_
_space_group_symop_operation_xyz
x,y,z
-x,-y,z
x,-y,1/2-z
-x,y,1/2-z
-x,-y,-z
x,y,-z
-x,y,1/2+z
x,-y,1/2+z
loop_
_atom_site_type_symbol
_atom_site_label
_atom_site_fract_x
_atom_site_fract_y
_atom_site_fract_z
Si Si1 0.958262 0.664368 0.815864
Si Si2 0.369384 0.338115 0.813930
Si Si3 0.875287 0.663193 0.684746
Si Si4 0.458710 0.336495 0.184715
Si Si5 0.214871 0.662438 0.814994
Si Si6 0.709589 0.839693 0.814638
O O1 0.957626 0.500000 0.750000
O O2 0.915700 0.731519 0.758570
O O3 0.000000 0.730577 0.750000
O O4 0.959621 0.658987 0.000000
O O5 0.365534 0.500000 0.750000
O O6 0.414163 0.277021 0.771189
O O7 0.331371 0.242927 0.762569
O O8 0.368492 0.346732 0.000000
O O9 0.873551 0.500000 0.750000
O O10 0.880190 0.658173 0.500000
O O11 0.830436 0.723344 0.721469
O O12 0.457922 0.500000 0.250000
O O13 0.500000 0.267112 0.250000
O O14 0.461723 0.341616 0.000000
O O15 0.217636 0.500000 0.750000
O O16 0.250899 0.755622 0.744882
O O17 0.218448 0.656620 0.000000
O O18 0.709624 0.000000 0.750000
O O19 0.710016 0.842029 0.000000
#
# Coordination Sequence:
#
# PCOD9392017 Si02
#       6
#     8   8   8   8   8   8
#     4  10  16  22  33  51  80 117 155 191 232 282
#     4   9  19  33  51  75 102 131 164 203 244 291
#     4   9  16  26  40  60  87 118 154 194 237 284
#     4   9  15  25  42  68  99 127 157 194 238 283
#     4  10  20  34  53  76 101 130 165 207 252 299
#     4  11  23  38  54  73  99 131 167 208 254 303
#
# _framework density 18.174118
#
# number of rings (size 3 to 8) (size 9 to 14) (size 15 to 20)
#    0.000    2.333    0.000    6.000    0.000    5.333 
#    0.000    0.000    0.000    0.500    0.000    3.500 
#    0.000    0.667    0.000    7.000    0.000    5.167 
#
# Total GULP energy -267480.187340 kJ/mol
# GULP energy per Si atom -5572.503903 kJ/mol
# Density = 1.813275 g / cm^3
# Si number density = 18.174118 Si / 1000 Ang^3
#
#
#
# Elastic Constant Matrix: (Units=GPa)
#
#
# Indices 1 2 3 4 5 6 
#
# 1 237.8223 58.6549 71.0049 0.0000 0.0000 0.0000
# 2 58.6549 42.5810 17.7318 0.0000 0.0000 0.0000
# 3 71.0049 17.7318 84.9278 0.0000 0.0000 0.0000
# 4 0.0000 0.0000 0.0000 13.8001 0.0000 0.0000
# 5 0.0000 0.0000 0.0000 0.0000 35.5300 0.0000
# 6 0.0000 0.0000 0.0000 0.0000 0.0000 -4.4020
#
#
#
# Elastic Compliance Matrix: (Units=1/GPa)
#
#
# Indices 1 2 3 4 5 6 
#
# 1 0.007749 -0.008736 -0.004655 0.000000 0.000000 0.000000
# 2 -0.008736 0.035569 -0.000123 0.000000 0.000000 0.000000
# 3 -0.004655 -0.000123 0.015692 0.000000 0.000000 0.000000
# 4 0.000000 0.000000 0.000000 0.072463 0.000000 0.000000
# 5 0.000000 0.000000 0.000000 0.000000 0.028145 0.000000
# 6 0.000000 0.000000 0.000000 0.000000 0.000000 -0.227171
#
#
# Mechanical properties :
#
#
# Convention : Reuss Voigt Hill
#
# Bulk Modulus (GPa) = 31.26579 73.34602 52.30591
# Shear Modulus (GPa) = -167.42442 23.51494 -71.95474
#
# Velocity S-wave (km/s) = -9.60846 3.60094 -6.29903
# Velocity P-wave (km/s) = 10.28862 7.59829 4.90519
#
# Compressibility (1/GPa) = 0.03198384
#
# Stress axis : x y z
#
# Youngs Moduli (GPa) = 129.04606 28.11401 63.72664
#
# Poissons Ratio (x) = 0.24560 0.29664
# Poissons Ratio (y) = 1.12735 0.00781
# Poissons Ratio (z) = 0.60069 0.00345
#
# Static dielectric constant tensor:
#      x y z
#    x 1.717280 0.000000 0.000000 
#    y 0.000000 1.561320 0.000000 
#    z 0.000000 0.000000 1.609340 
# 
# From -- ./inp_files/6872.got.cif
#   From: 2010.05.17/outbox.cif.g08.bks.cpg/sg49_4_cif.got.tgz:6872.got - 2010.06.03 21:02:19.
