data_PCOD9392211
_publ_section_title
;
Structure prediction by ZEFSAII (Michael W. Deem and Ramdas Pophale) SiO2 
 PCOD9392211
Probable space group: P C C M
;
_chemical_formula_sum "Si O2"
_cell_formula_units_Z 64
_cell_length_a 15.362584
_cell_length_b 26.311233
_cell_length_c 8.916060
_cell_angle_alpha 90.000000
_cell_angle_beta 90.000000
_cell_angle_gamma 90.000000
_cell_volume 3603.947480
_symmetry_space_group_name_H-M "P C C M"
_symmetry_group_IT_number 49
_symmetry_cell_setting 'orthorhombic'
loop_
_space_group_symop_operation_xyz
x,y,z
-x,-y,z
x,-y,1/2-z
-x,y,1/2-z
-x,-y,-z
x,y,-z
-x,y,1/2+z
x,-y,1/2+z
loop_
_atom_site_type_symbol
_atom_site_label
_atom_site_fract_x
_atom_site_fract_y
_atom_site_fract_z
Si Si1 0.681892 0.549506 0.335801
Si Si2 0.909665 0.333853 0.818444
Si Si3 0.902687 0.842967 0.181556
Si Si4 0.901963 0.051605 0.818120
Si Si5 0.412555 0.629229 0.330087
Si Si6 0.219251 0.243707 0.318904
Si Si7 0.888823 0.448919 0.166501
Si Si8 0.591929 0.248712 0.674450
O O1 0.648592 0.500000 0.250000
O O2 0.642487 0.551404 0.500000
O O3 0.664673 0.602049 0.253983
O O4 0.785178 0.545394 0.347456
O O5 0.826828 0.298147 0.781299
O O6 0.902586 0.392683 0.765481
O O7 0.000000 0.312900 0.750000
O O8 0.915127 0.334326 0.000000
O O9 0.866038 0.895753 0.251793
O O10 0.841689 0.797841 0.239187
O O11 0.000000 0.835934 0.250000
O O12 0.907343 0.845598 0.000000
O O13 0.000000 0.051910 0.750000
O O14 0.861244 0.000000 0.750000
O O15 0.903745 0.050935 0.000000
O O16 0.500000 0.611803 0.250000
O O17 0.412283 0.612493 0.500000
O O18 0.409795 0.689803 0.324127
O O19 0.217366 0.238469 0.500000
O O20 0.318146 0.236735 0.260562
O O21 0.915055 0.500000 0.250000
O O22 0.928145 0.448278 0.000000
O O23 0.500000 0.232049 0.750000
O O24 0.595447 0.232325 0.500000
#
# Coordination Sequence:
#
# PCOD9392211 Si02
#       8
#     8   8   8   8   8   8   8   8
#     4  10  19  32  49  67  89 115 146 185 233 288
#     4  10  22  37  53  74 101 132 168 208 255 309
#     4  11  21  34  51  76 111 151 193 234 275 322
#     4  10  17  28  46  71 104 146 193 237 278 318
#     4  10  20  33  49  69  92 117 148 185 234 294
#     4  11  22  37  56  78 106 141 178 220 268 320
#     4   9  19  35  52  70  90 117 153 197 246 297
#     4  10  21  37  57  80 103 130 165 209 258 313
#
# _framework density 17.758306000000001
#
# number of rings (size 3 to 8) (size 9 to 14) (size 15 to 20)
#    0.000    1.875    0.000    6.000    0.000    6.000 
#    0.000    2.500    0.000    0.000    0.000    0.000 
#    0.000    0.500    0.000    5.000    0.000    3.000 
#
# Total GULP energy -356748.279086 kJ/mol
# GULP energy per Si atom -5574.191861 kJ/mol
# Density = 1.771789 g / cm^3
# Si number density = 17.758306 Si / 1000 Ang^3
#
#
#
# Elastic Constant Matrix: (Units=GPa)
#
#
# Indices 1 2 3 4 5 6 
#
# 1 86.2755 35.6830 42.7210 0.0000 0.0000 0.0000
# 2 35.6830 94.7725 47.2680 0.0000 0.0000 0.0000
# 3 42.7210 47.2680 131.7984 0.0000 0.0000 0.0000
# 4 0.0000 0.0000 0.0000 35.6301 0.0000 0.0000
# 5 0.0000 0.0000 0.0000 0.0000 19.1500 0.0000
# 6 0.0000 0.0000 0.0000 0.0000 0.0000 18.4811
#
#
#
# Elastic Compliance Matrix: (Units=1/GPa)
#
#
# Indices 1 2 3 4 5 6 
#
# 1 0.014903 -0.003899 -0.003432 0.000000 0.000000 0.000000
# 2 -0.003899 0.013870 -0.003711 0.000000 0.000000 0.000000
# 3 -0.003432 -0.003711 0.010031 0.000000 0.000000 0.000000
# 4 0.000000 0.000000 0.000000 0.028066 0.000000 0.000000
# 5 0.000000 0.000000 0.000000 0.000000 0.052219 0.000000
# 6 0.000000 0.000000 0.000000 0.000000 0.000000 0.054109
#
#
# Mechanical properties :
#
#
# Convention : Reuss Voigt Hill
#
# Bulk Modulus (GPa) = 59.80912 62.68782 61.24847
# Shear Modulus (GPa) = 24.89344 27.13054 26.01199
#
# Velocity S-wave (km/s) = 3.74811 3.91291 3.83140
# Velocity P-wave (km/s) = 7.24457 7.46938 7.35783
#
# Compressibility (1/GPa) = 0.01671986
#
# Stress axis : x y z
#
# Youngs Moduli (GPa) = 67.10037 72.09615 99.69500
#
# Poissons Ratio (x) = 0.28113 0.34217
# Poissons Ratio (y) = 0.26165 0.36992
# Poissons Ratio (z) = 0.23030 0.26751
#
# Static dielectric constant tensor:
#      x y z
#    x 1.622690 0.000000 0.000000 
#    y 0.000000 1.638030 0.000000 
#    z 0.000000 0.000000 1.729950 
# 
# From -- ./inp_files/4392.got.cif
#   From: 2010.05.17/outbox.cif.g08.bks.cpg/sg49_3_cif.got.tgz:4392.got - 2010.06.03 21:02:19.
