data_PCOD9392442
_publ_section_title
;
Structure prediction by ZEFSAII (Michael W. Deem and Ramdas Pophale) SiO2 
 PCOD9392442
Probable space group: P C C M
;
_chemical_formula_sum "Si O2"
_cell_formula_units_Z 64
_cell_length_a 25.536336
_cell_length_b 15.814254
_cell_length_c 8.556576
_cell_angle_alpha 90.000000
_cell_angle_beta 90.000000
_cell_angle_gamma 90.000000
_cell_volume 3455.471426
_symmetry_space_group_name_H-M "P C C M"
_symmetry_group_IT_number 49
_symmetry_cell_setting 'orthorhombic'
loop_
_space_group_symop_operation_xyz
x,y,z
-x,-y,z
x,-y,1/2-z
-x,y,1/2-z
-x,-y,-z
x,y,-z
-x,y,1/2+z
x,-y,1/2+z
loop_
_atom_site_type_symbol
_atom_site_label
_atom_site_fract_x
_atom_site_fract_y
_atom_site_fract_z
Si Si1 0.172721 0.088600 0.314343
Si Si2 0.597610 0.087726 0.311779
Si Si3 0.636647 0.408699 0.813982
Si Si4 0.556796 0.269777 0.312669
Si Si5 0.736268 0.310721 0.811845
Si Si6 0.146355 0.724271 0.189659
Si Si7 0.714450 0.870864 0.814724
Si Si8 0.941443 0.407165 0.188435
O O1 0.168115 0.087388 0.500000
O O2 0.147903 0.177598 0.256215
O O3 0.234177 0.094121 0.270027
O O4 0.151380 0.000000 0.250000
O O5 0.596907 0.086737 0.500000
O O6 0.569959 0.174034 0.258743
O O7 0.658591 0.093955 0.261165
O O8 0.574830 0.000000 0.250000
O O9 0.621871 0.500000 0.750000
O O10 0.600306 0.335003 0.746125
O O11 0.697207 0.386806 0.775033
O O12 0.631439 0.408136 0.000000
O O13 0.500000 0.294480 0.250000
O O14 0.556899 0.270044 0.500000
O O15 0.797411 0.317074 0.769753
O O16 0.714652 0.228583 0.723562
O O17 0.733872 0.295288 0.000000
O O18 0.098731 0.665523 0.242099
O O19 0.144015 0.727071 0.000000
O O20 0.719929 0.885035 0.000000
O O21 0.925580 0.500000 0.250000
O O22 0.000000 0.390970 0.250000
O O23 0.942233 0.409399 0.000000
#
# Coordination Sequence:
#
# PCOD9392442 Si02
#       8
#     8   8   8   8   8   8   8   8
#     4  10  19  32  49  75 109 147 186 226 269 320
#     4  10  22  36  55  81 111 142 177 220 267 322
#     4  11  23  39  62  88 113 145 179 221 274 331
#     4  11  24  44  63  83 109 140 181 230 276 327
#     4   9  18  34  55  80 111 147 182 218 269 325
#     4   8  17  33  53  77 110 148 183 222 270 323
#     4  10  18  31  51  78 109 145 181 220 267 316
#     4  10  19  34  55  79 108 143 184 231 278 325
#
# _framework density 18.521350999999999
#
# number of rings (size 3 to 8) (size 9 to 14) (size 15 to 20)
#    0.000    2.125    1.250    3.375    0.000    4.500 
#    0.000    8.750    0.000    0.375    0.000    2.625 
#    0.000    0.000    0.000    0.000    0.000    0.000 
#
# Total GULP energy -357108.538408 kJ/mol
# GULP energy per Si atom -5579.820913 kJ/mol
# Density = 1.847920 g / cm^3
# Si number density = 18.521351 Si / 1000 Ang^3
#
#
#
# Elastic Constant Matrix: (Units=GPa)
#
#
# Indices 1 2 3 4 5 6 
#
# 1 86.5646 65.3942 21.0168 0.0000 0.0000 0.0000
# 2 65.3942 135.1609 29.1082 0.0000 0.0000 0.0000
# 3 21.0168 29.1082 34.7676 0.0000 0.0000 0.0000
# 4 0.0000 0.0000 0.0000 29.4521 0.0000 0.0000
# 5 0.0000 0.0000 0.0000 0.0000 -2.3377 0.0000
# 6 0.0000 0.0000 0.0000 0.0000 0.0000 1.7543
#
#
#
# Elastic Compliance Matrix: (Units=1/GPa)
#
#
# Indices 1 2 3 4 5 6 
#
# 1 0.018783 -0.008104 -0.004570 0.000000 0.000000 0.000000
# 2 -0.008104 0.012522 -0.005585 0.000000 0.000000 0.000000
# 3 -0.004570 -0.005585 0.036201 0.000000 0.000000 0.000000
# 4 0.000000 0.000000 0.000000 0.033953 0.000000 0.000000
# 5 0.000000 0.000000 0.000000 0.000000 -0.427771 0.000000
# 6 0.000000 0.000000 0.000000 0.000000 0.000000 0.570038
#
#
# Mechanical properties :
#
#
# Convention : Reuss Voigt Hill
#
# Bulk Modulus (GPa) = 32.26954 54.17017 43.21986
# Shear Modulus (GPa) = 17.20729 15.17199 16.18964
#
# Velocity S-wave (km/s) = 3.05134 2.86521 2.95974
# Velocity P-wave (km/s) = 5.46580 6.34482 5.92164
#
# Compressibility (1/GPa) = 0.03098897
#
# Stress axis : x y z
#
# Youngs Moduli (GPa) = 53.23845 79.85827 27.62358
#
# Poissons Ratio (x) = 0.64715 0.12624
# Poissons Ratio (y) = 0.43143 0.15428
# Poissons Ratio (z) = 0.24329 0.44602
#
# Static dielectric constant tensor:
#      x y z
#    x 1.628140 0.000000 0.000000 
#    y 0.000000 1.659870 0.000000 
#    z 0.000000 0.000000 1.628510 
# 
# From -- ./inp_files/6488.got.cif
#   From: 2010.05.17/outbox.cif.g08.bks.cpg/sg49_4_cif.got.tgz:6488.got - 2010.06.03 21:02:19.
