data_PCOD9392910
_publ_section_title
;
Structure prediction by ZEFSAII (Michael W. Deem and Ramdas Pophale) SiO2 
 PCOD9392910
Probable space group: P C C M
;
_chemical_formula_sum "Si O2"
_cell_formula_units_Z 64
_cell_length_a 19.070378
_cell_length_b 5.201215
_cell_length_c 29.613909
_cell_angle_alpha 90.000000
_cell_angle_beta 90.000000
_cell_angle_gamma 90.000000
_cell_volume 2937.378051
_symmetry_space_group_name_H-M "P C C M"
_symmetry_group_IT_number 49
_symmetry_cell_setting 'orthorhombic'
loop_
_space_group_symop_operation_xyz
x,y,z
-x,-y,z
x,-y,1/2-z
-x,y,1/2-z
-x,-y,-z
x,y,-z
-x,y,1/2+z
x,-y,1/2+z
loop_
_atom_site_type_symbol
_atom_site_label
_atom_site_fract_x
_atom_site_fract_y
_atom_site_fract_z
Si Si1 0.048956 0.756067 0.110481
Si Si2 0.204421 0.284558 0.853354
Si Si3 0.662824 0.507437 0.304181
Si Si4 0.800225 0.786510 0.408829
Si Si5 0.083505 0.485913 0.301409
Si Si6 0.338481 0.986055 0.947074
Si Si7 0.581547 0.492365 0.555537
Si Si8 0.579811 0.013050 0.305216
O O1 0.117223 0.796234 0.079155
O O2 0.083784 0.739099 0.160880
O O3 0.000000 0.500000 0.103863
O O4 0.000000 0.000000 0.107234
O O5 0.262342 0.409178 0.821113
O O6 0.208117 0.487330 0.895059
O O7 0.129183 0.308763 0.828949
O O8 0.214577 0.992488 0.868367
O O9 0.665042 0.500000 0.250000
O O10 0.632438 0.783241 0.318585
O O11 0.609265 0.287467 0.319025
O O12 0.741977 0.895563 0.442513
O O13 0.110903 0.500000 0.250000
O O14 0.000000 0.500000 0.296449
O O15 0.383160 0.752434 0.927480
O O16 0.369706 0.254037 0.928993
O O17 0.353467 0.999495 0.000000
O O18 0.500000 0.500000 0.568660
O O19 0.582472 0.493241 0.500000
O O20 0.500000 0.000000 0.321226
O O21 0.577922 0.000000 0.250000
#
# Coordination Sequence:
#
# PCOD9392910 Si02
#       8
#     8   8   8   8   8   8   8   8
#     4  10  20  37  57  79 107 144 183 218 269 328
#     4  11  22  36  53  76 108 144 175 209 266 327
#     4  10  19  32  51  74 100 132 172 218 261 309
#     4  11  22  37  57  78 107 142 176 219 265 320
#     4   9  18  34  53  78 107 137 176 223 264 311
#     4  10  20  35  58  85 111 143 184 225 264 312
#     4   9  17  31  55  87 117 143 175 217 264 317
#     4   9  17  30  50  73  94 124 174 229 270 302
#
# _framework density 21.788136999999999
#
# number of rings (size 3 to 8) (size 9 to 14) (size 15 to 20)
#    0.000    2.125    0.000    4.875    0.000    3.000 
#    0.000   18.750    0.000   15.750    0.000    0.000 
#    0.000    0.500    0.000    0.000    0.000    0.000 
#
# Total GULP energy -356408.337134 kJ/mol
# GULP energy per Si atom -5568.880268 kJ/mol
# Density = 2.173855 g / cm^3
# Si number density = 21.788137 Si / 1000 Ang^3
#
#
#
# Elastic Constant Matrix: (Units=GPa)
#
#
# Indices 1 2 3 4 5 6 
#
# 1 101.0428 29.9864 0.7277 0.0000 0.0000 0.0000
# 2 29.9864 102.5636 1.5341 0.0000 0.0000 0.0000
# 3 0.7277 1.5341 20.9709 0.0000 0.0000 0.0000
# 4 0.0000 0.0000 0.0000 2.6036 0.0000 0.0000
# 5 0.0000 0.0000 0.0000 0.0000 88.4827 0.0000
# 6 0.0000 0.0000 0.0000 0.0000 0.0000 35.6663
#
#
#
# Elastic Compliance Matrix: (Units=1/GPa)
#
#
# Indices 1 2 3 4 5 6 
#
# 1 0.010838 -0.003166 -0.000144 0.000000 0.000000 0.000000
# 2 -0.003166 0.010686 -0.000672 0.000000 0.000000 0.000000
# 3 -0.000144 -0.000672 0.047739 0.000000 0.000000 0.000000
# 4 0.000000 0.000000 0.000000 0.384082 0.000000 0.000000
# 5 0.000000 0.000000 0.000000 0.000000 0.011302 0.000000
# 6 0.000000 0.000000 0.000000 0.000000 0.000000 0.028038
#
#
# Mechanical properties :
#
#
# Convention : Reuss Voigt Hill
#
# Bulk Modulus (GPa) = 16.31394 32.11932 24.21663
# Shear Modulus (GPa) = 9.59543 38.17247 23.88395
#
# Velocity S-wave (km/s) = 2.10084 4.19021 3.31447
# Velocity P-wave (km/s) = 3.65903 6.17933 5.07802
#
# Compressibility (1/GPa) = 0.06129728
#
# Stress axis : x y z
#
# Youngs Moduli (GPa) = 92.27202 93.58171 20.94712
#
# Poissons Ratio (x) = 0.29632 0.00303
# Poissons Ratio (y) = 0.29217 0.01407
# Poissons Ratio (z) = 0.01333 0.06287
#
# Static dielectric constant tensor:
#      x y z
#    x 1.827570 0.000000 0.000000 
#    y 0.000000 1.797410 0.000000 
#    z 0.000000 0.000000 1.872500 
# 
# From -- ./inp_files/26903.got.cif
#   From: 2010.05.17/outbox.cif.g08.bks.cpg/sg49_14_cif.got.tgz:26903.got - 2010.06.03 21:02:19.
