data_PCOD9392372
_publ_section_title
;
Structure prediction by ZEFSAII (Michael W. Deem and Ramdas Pophale) SiO2 
 PCOD9392372
Probable space group: P C C M
;
_chemical_formula_sum "Si O2"
_cell_formula_units_Z 48
_cell_length_a 14.074313
_cell_length_b 24.494765
_cell_length_c 8.562946
_cell_angle_alpha 90.000000
_cell_angle_beta 90.000000
_cell_angle_gamma 90.000000
_cell_volume 2952.049855
_symmetry_space_group_name_H-M "P C C M"
_symmetry_group_IT_number 49
_symmetry_cell_setting 'orthorhombic'
loop_
_space_group_symop_operation_xyz
x,y,z
-x,-y,z
x,-y,1/2-z
-x,y,1/2-z
-x,-y,-z
x,y,-z
-x,y,1/2+z
x,-y,1/2+z
loop_
_atom_site_type_symbol
_atom_site_label
_atom_site_fract_x
_atom_site_fract_y
_atom_site_fract_z
Si Si1 0.790120 0.832098 0.689376
Si Si2 0.604438 0.230249 0.812177
Si Si3 0.104983 0.721710 0.187721
Si Si4 0.393907 0.440118 0.686611
Si Si5 0.288626 0.664025 0.686464
Si Si6 0.892887 0.058896 0.811863
O O1 0.790468 0.833229 0.500000
O O2 0.684444 0.813815 0.737223
O O3 0.860186 0.782630 0.735919
O O4 0.828069 0.890584 0.742200
O O5 0.500000 0.218148 0.750000
O O6 0.641383 0.288321 0.748307
O O7 0.603484 0.232900 0.000000
O O8 0.184169 0.680831 0.254323
O O9 0.000000 0.711157 0.250000
O O10 0.106637 0.719201 0.000000
O O11 0.367557 0.500000 0.750000
O O12 0.500000 0.428209 0.750000
O O13 0.396660 0.441067 0.500000
O O14 0.324121 0.393274 0.746413
O O15 0.291073 0.663158 0.500000
O O16 0.000000 0.067314 0.750000
O O17 0.860296 0.000000 0.750000
O O18 0.895345 0.057664 0.000000
#
# Coordination Sequence:
#
# PCOD9392372 Si02
#       6
#     8   8   8   8   8   8
#     4   8  17  31  48  68  96 127 159 197 241 286
#     4  10  19  33  50  72  98 127 160 200 244 291
#     4  10  19  33  51  74 100 130 163 202 245 291
#     4  11  21  35  53  76 103 133 166 204 245 291
#     4  11  21  34  51  74 101 133 166 201 242 289
#     4  10  18  30  46  68  94 124 156 194 238 286
#
# _framework density 16.259888
#
# number of rings (size 3 to 8) (size 9 to 14) (size 15 to 20)
#    0.000    2.000    0.000    7.500    0.000    0.000 
#    0.000    9.167    0.000    1.000    0.000    7.000 
#    0.000    0.000    0.000    0.000    0.000    0.000 
#
# Total GULP energy -267921.012869 kJ/mol
# GULP energy per Si atom -5581.687768 kJ/mol
# Density = 1.622288 g / cm^3
# Si number density = 16.259888 Si / 1000 Ang^3
#
#
#
# Elastic Constant Matrix: (Units=GPa)
#
#
# Indices 1 2 3 4 5 6 
#
# 1 128.2693 94.7841 45.8701 0.0000 0.0000 0.0000
# 2 94.7841 150.6686 50.8474 0.0000 0.0000 0.0000
# 3 45.8701 50.8474 108.6895 0.0000 0.0000 0.0000
# 4 0.0000 0.0000 0.0000 11.4497 0.0000 0.0000
# 5 0.0000 0.0000 0.0000 0.0000 23.2805 0.0000
# 6 0.0000 0.0000 0.0000 0.0000 0.0000 20.0166
#
#
#
# Elastic Compliance Matrix: (Units=1/GPa)
#
#
# Indices 1 2 3 4 5 6 
#
# 1 0.015029 -0.008686 -0.002280 0.000000 0.000000 0.000000
# 2 -0.008686 0.012901 -0.002370 0.000000 0.000000 0.000000
# 3 -0.002280 -0.002370 0.011271 0.000000 0.000000 0.000000
# 4 0.000000 0.000000 0.000000 0.087338 0.000000 0.000000
# 5 0.000000 0.000000 0.000000 0.000000 0.042954 0.000000
# 6 0.000000 0.000000 0.000000 0.000000 0.000000 0.049959
#
#
# Mechanical properties :
#
#
# Convention : Reuss Voigt Hill
#
# Bulk Modulus (GPa) = 79.79747 85.62560 82.71154
# Shear Modulus (GPa) = 19.97605 24.02441 22.00023
#
# Velocity S-wave (km/s) = 3.50887 3.84803 3.68236
# Velocity P-wave (km/s) = 8.09932 8.51575 8.31015
#
# Compressibility (1/GPa) = 0.01253173
#
# Stress axis : x y z
#
# Youngs Moduli (GPa) = 66.53598 77.51442 88.72189
#
# Poissons Ratio (x) = 0.67326 0.20225
# Poissons Ratio (y) = 0.57790 0.21025
# Poissons Ratio (z) = 0.15167 0.18369
#
# Static dielectric constant tensor:
#      x y z
#    x 1.527520 0.000000 0.000000 
#    y 0.000000 1.538320 0.000000 
#    z 0.000000 0.000000 1.547190 
# 
# From -- ./inp_files/4144.got.cif
#   From: 2010.05.17/outbox.cif.g08.bks.cpg/sg49_3_cif.got.tgz:4144.got - 2010.06.03 21:02:19.
