data_PCOD9392586
_publ_section_title
;
Structure prediction by ZEFSAII (Michael W. Deem and Ramdas Pophale) SiO2 
 PCOD9392586
Probable space group: P C C M
;
_chemical_formula_sum "Si O2"
_cell_formula_units_Z 54
_cell_length_a 28.501972
_cell_length_b 5.708318
_cell_length_c 14.761416
_cell_angle_alpha 90.000000
_cell_angle_beta 90.000000
_cell_angle_gamma 90.000000
_cell_volume 2401.657581
_symmetry_space_group_name_H-M "P C C M"
_symmetry_group_IT_number 49
_symmetry_cell_setting 'orthorhombic'
loop_
_space_group_symop_operation_xyz
x,y,z
-x,-y,z
x,-y,1/2-z
-x,y,1/2-z
-x,-y,-z
x,y,-z
-x,y,1/2+z
x,-y,1/2+z
loop_
_atom_site_type_symbol
_atom_site_label
_atom_site_fract_x
_atom_site_fract_y
_atom_site_fract_z
Si Si1 0.162059 0.428297 0.893661
Si Si2 0.963814 0.672492 0.321377
Si Si3 0.541469 0.310491 0.097440
Si Si4 0.270395 0.313338 0.900553
Si Si5 0.312232 0.000000 0.250000
Si Si6 0.357190 0.387335 0.650788
Si Si7 0.876964 0.924594 0.391720
Si Si8 0.500000 0.000000 0.750000
O O1 0.218218 0.411494 0.892071
O O2 0.149104 0.687411 0.857618
O O3 0.140197 0.180652 0.857696
O O4 0.146749 0.434494 0.000000
O O5 0.936148 0.500000 0.250000
O O6 0.930818 0.854782 0.370278
O O7 0.000000 0.500000 0.376934
O O8 0.000000 0.776685 0.250000
O O9 0.500000 0.500000 0.099674
O O10 0.593059 0.419883 0.104387
O O11 0.532527 0.150153 0.183772
O O12 0.539198 0.185738 0.000000
O O13 0.280000 0.165387 0.810509
O O14 0.312285 0.502565 0.897844
O O15 0.272689 0.192013 0.000000
O O16 0.345005 0.120831 0.325233
O O17 0.360685 0.500000 0.750000
O O18 0.869848 0.934379 0.500000
#
# Coordination Sequence:
#
# PCOD9392586 Si02
#       8
#     8   8   8   8   4   8   8   2
#     4   9  21  36  60  90 122 162 215 271 325 395
#     4   6  16  35  53  83 120 152 198 253 309 381
#     4  11  24  41  64  94 126 170 221 268 333 410
#     4  10  22  41  62  90 127 169 216 273 335 398
#     4  10  23  40  60  97 122 162 217 268 323 412
#     4  10  21  40  63  88 129 166 214 273 333 401
#     4  10  18  37  60  85 120 163 211 262 324 389
#     4  12  22  40  64  92 136 168 208 280 342 396
#
# _framework density 22.484472
#
# number of rings (size 3 to 8) (size 9 to 14) (size 15 to 20)
#    0.889    1.630    0.000    2.222    2.074    2.667 
#    2.667    1.481    0.000    2.667    0.000    0.000 
#    0.000    0.000    0.000    0.000    0.000    0.000 
#
# Total GULP energy -300605.890239 kJ/mol
# GULP energy per Si atom -5566.775745 kJ/mol
# Density = 2.243330 g / cm^3
# Si number density = 22.484472 Si / 1000 Ang^3
#
#
#
# Elastic Constant Matrix: (Units=GPa)
#
#
# Indices 1 2 3 4 5 6 
#
# 1 124.4010 49.9409 27.4233 0.0000 0.0000 0.0000
# 2 49.9409 97.2467 36.5145 0.0000 0.0000 0.0000
# 3 27.4233 36.5145 93.8637 0.0000 0.0000 0.0000
# 4 0.0000 0.0000 0.0000 25.8640 0.0000 0.0000
# 5 0.0000 0.0000 0.0000 0.0000 43.0101 0.0000
# 6 0.0000 0.0000 0.0000 0.0000 0.0000 21.6137
#
#
#
# Elastic Compliance Matrix: (Units=1/GPa)
#
#
# Indices 1 2 3 4 5 6 
#
# 1 0.010223 -0.004835 -0.001106 0.000000 0.000000 0.000000
# 2 -0.004835 0.014329 -0.004162 0.000000 0.000000 0.000000
# 3 -0.001106 -0.004162 0.012596 0.000000 0.000000 0.000000
# 4 0.000000 0.000000 0.000000 0.038664 0.000000 0.000000
# 5 0.000000 0.000000 0.000000 0.000000 0.023250 0.000000
# 6 0.000000 0.000000 0.000000 0.000000 0.000000 0.046267
#
#
# Mechanical properties :
#
#
# Convention : Reuss Voigt Hill
#
# Bulk Modulus (GPa) = 59.02167 60.36321 59.69244
# Shear Modulus (GPa) = 29.20882 31.53974 30.37428
#
# Velocity S-wave (km/s) = 3.60817 3.74937 3.67945
# Velocity P-wave (km/s) = 6.60798 6.75638 6.68259
#
# Compressibility (1/GPa) = 0.01694293
#
# Stress axis : x y z
#
# Youngs Moduli (GPa) = 97.81579 69.79023 79.39170
#
# Poissons Ratio (x) = 0.33743 0.08781
# Poissons Ratio (y) = 0.47293 0.33039
# Poissons Ratio (z) = 0.10818 0.29043
#
# Static dielectric constant tensor:
#      x y z
#    x 1.830360 0.000000 0.000000 
#    y 0.000000 1.991850 0.000000 
#    z 0.000000 0.000000 1.850210 
# 
# From -- ./inp_files/14650.got.cif
#   From: 2010.05.17/outbox.cif.g08.bks.cpg/sg49_8_cif.got.tgz:14650.got - 2010.06.03 21:02:19.
