data_PCOD9392929
_publ_section_title
;
Structure prediction by ZEFSAII (Michael W. Deem and Ramdas Pophale) SiO2 
 PCOD9392929
Probable space group: P C C M
;
_chemical_formula_sum "Si O2"
_cell_formula_units_Z 40
_cell_length_a 9.441495
_cell_length_b 8.208774
_cell_length_c 28.147186
_cell_angle_alpha 90.000000
_cell_angle_beta 90.000000
_cell_angle_gamma 90.000000
_cell_volume 2181.494134
_symmetry_space_group_name_H-M "P C C M"
_symmetry_group_IT_number 49
_symmetry_cell_setting 'orthorhombic'
loop_
_space_group_symop_operation_xyz
x,y,z
-x,-y,z
x,-y,1/2-z
-x,y,1/2-z
-x,-y,-z
x,y,-z
-x,y,1/2+z
x,-y,1/2+z
loop_
_atom_site_type_symbol
_atom_site_label
_atom_site_fract_x
_atom_site_fract_y
_atom_site_fract_z
Si Si1 0.928665 0.670887 0.364088
Si Si2 0.755303 0.200352 0.054369
Si Si3 0.205569 0.128161 0.893208
Si Si4 0.554136 0.681367 0.055156
Si Si5 0.164982 0.054153 0.698655
O O1 0.821162 0.671503 0.408472
O O2 0.849763 0.759831 0.319953
O O3 0.000000 0.500000 0.351820
O O4 0.057382 0.783541 0.383165
O O5 0.585347 0.206357 0.058344
O O6 0.805814 0.020910 0.069785
O O7 0.793066 0.237892 0.000000
O O8 0.322307 0.252395 0.911871
O O9 0.243488 0.042431 0.843224
O O10 0.500000 0.500000 0.066464
O O11 0.602255 0.680597 0.000000
O O12 0.221123 0.000000 0.750000
O O13 0.000000 0.000000 0.698884
#
# Coordination Sequence:
#
# PCOD9392929 Si02
#       5
#     8   8   8   8   8
#     4  10  20  33  52  79 106 133 167 213 262 299
#     4  10  20  33  50  73 104 143 177 205 247 306
#     4  10  19  32  52  74  98 133 175 213 252 303
#     4  10  20  33  50  74 104 137 172 211 255 301
#     4   8  16  33  53  74 100 128 166 210 256 311
#
# _framework density 18.336057
#
# number of rings (size 3 to 8) (size 9 to 14) (size 15 to 20)
#    0.000    2.400    0.000    4.200    0.000    4.400 
#    0.000    8.000    0.000    9.600    0.000    5.600 
#    0.000    0.000    0.000    0.000    0.000    0.000 
#
# Total GULP energy -222888.396378 kJ/mol
# GULP energy per Si atom -5572.209909 kJ/mol
# Density = 1.829432 g / cm^3
# Si number density = 18.336057 Si / 1000 Ang^3
#
#
#
# Elastic Constant Matrix: (Units=GPa)
#
#
# Indices 1 2 3 4 5 6 
#
# 1 45.8077 23.1147 31.3062 0.0000 0.0000 0.0000
# 2 23.1147 75.6067 36.5682 0.0000 0.0000 0.0000
# 3 31.3062 36.5682 125.5436 0.0000 0.0000 0.0000
# 4 0.0000 0.0000 0.0000 8.2795 0.0000 0.0000
# 5 0.0000 0.0000 0.0000 0.0000 -27.5777 0.0000
# 6 0.0000 0.0000 0.0000 0.0000 0.0000 28.0125
#
#
#
# Elastic Compliance Matrix: (Units=1/GPa)
#
#
# Indices 1 2 3 4 5 6 
#
# 1 0.028583 -0.006159 -0.005334 0.000000 0.000000 0.000000
# 2 -0.006159 0.016722 -0.003335 0.000000 0.000000 0.000000
# 3 -0.005334 -0.003335 0.010267 0.000000 0.000000 0.000000
# 4 0.000000 0.000000 0.000000 0.120781 0.000000 0.000000
# 5 0.000000 0.000000 0.000000 0.000000 -0.036261 0.000000
# 6 0.000000 0.000000 0.000000 0.000000 0.000000 0.035698
#
#
# Mechanical properties :
#
#
# Convention : Reuss Voigt Hill
#
# Bulk Modulus (GPa) = 38.58441 47.65959 43.12200
# Shear Modulus (GPa) = 23.35524 12.14079 17.74801
#
# Velocity S-wave (km/s) = 3.57281 2.57597 3.11453
# Velocity P-wave (km/s) = 6.17321 5.90730 6.04172
#
# Compressibility (1/GPa) = 0.02591720
#
# Stress axis : x y z
#
# Youngs Moduli (GPa) = 34.98532 59.80046 97.40096
#
# Poissons Ratio (x) = 0.36830 0.51951
# Poissons Ratio (y) = 0.21547 0.32484
# Poissons Ratio (z) = 0.18660 0.19944
#
# Static dielectric constant tensor:
#      x y z
#    x 1.629390 0.000000 0.000000 
#    y 0.000000 1.676260 0.000000 
#    z 0.000000 0.000000 1.651320 
# 
# From -- ./inp_files/24330.got.cif
#   From: 2010.05.17/outbox.cif.g08.bks.cpg/sg49_13_cif.got.tgz:24330.got - 2010.06.03 21:02:19.
