data_PCOD9392232
_publ_section_title
;
Structure prediction by ZEFSAII (Michael W. Deem and Ramdas Pophale) SiO2 
 PCOD9392232
Probable space group: P C C M
;
_chemical_formula_sum "Si O2"
_cell_formula_units_Z 40
_cell_length_a 9.208685
_cell_length_b 27.092009
_cell_length_c 8.612568
_cell_angle_alpha 90.000000
_cell_angle_beta 90.000000
_cell_angle_gamma 90.000000
_cell_volume 2148.678768
_symmetry_space_group_name_H-M "P C C M"
_symmetry_group_IT_number 49
_symmetry_cell_setting 'orthorhombic'
loop_
_space_group_symop_operation_xyz
x,y,z
-x,-y,z
x,-y,1/2-z
-x,y,1/2-z
-x,-y,-z
x,y,-z
-x,y,1/2+z
x,-y,1/2+z
loop_
_atom_site_type_symbol
_atom_site_label
_atom_site_fract_x
_atom_site_fract_y
_atom_site_fract_z
Si Si1 0.334238 0.550880 0.185720
Si Si2 0.335280 0.050116 0.185174
Si Si3 0.162410 0.252542 0.314428
Si Si4 0.664249 0.653888 0.814243
Si Si5 0.664672 0.159284 0.313059
O O1 0.267318 0.500000 0.250000
O O2 0.500000 0.551317 0.250000
O O3 0.271937 0.602397 0.248199
O O4 0.336917 0.550237 0.000000
O O5 0.500000 0.050949 0.250000
O O6 0.275393 0.104320 0.225948
O O7 0.264834 0.000000 0.250000
O O8 0.341457 0.046378 0.000000
O O9 0.163080 0.255951 0.500000
O O10 0.245718 0.299424 0.243382
O O11 0.243033 0.202843 0.260783
O O12 0.000000 0.251900 0.250000
O O13 0.500000 0.658869 0.750000
O O14 0.659445 0.651638 0.000000
O O15 0.500000 0.162495 0.250000
O O16 0.662297 0.164069 0.500000
#
# Coordination Sequence:
#
# PCOD9392232 Si02
#       5
#     8   8   8   8   8
#     4  10  17  28  47  76 110 143 177 218 266 316
#     4   9  16  26  45  73 107 139 172 212 260 310
#     4  12  25  41  58  78 105 141 180 224 273 325
#     4  11  21  36  57  83 112 144 181 224 268 317
#     4  10  20  35  55  82 111 143 180 222 266 316
#
# _framework density 18.616091000000001
#
# number of rings (size 3 to 8) (size 9 to 14) (size 15 to 20)
#    0.000    1.600    0.000    9.600    0.000    2.400 
#    0.000    0.000    0.000    1.200    0.000    8.400 
#    0.000    0.000    0.000    0.000    0.000    0.000 
#
# Total GULP energy -223280.364747 kJ/mol
# GULP energy per Si atom -5582.009119 kJ/mol
# Density = 1.857372 g / cm^3
# Si number density = 18.616091 Si / 1000 Ang^3
#
#
#
# Elastic Constant Matrix: (Units=GPa)
#
#
# Indices 1 2 3 4 5 6 
#
# 1 53.1844 61.1961 31.9177 0.0000 0.0000 0.0000
# 2 61.1961 229.3621 91.0779 0.0000 0.0000 0.0000
# 3 31.9177 91.0779 177.6058 0.0000 0.0000 0.0000
# 4 0.0000 0.0000 0.0000 38.2694 0.0000 0.0000
# 5 0.0000 0.0000 0.0000 0.0000 21.5465 0.0000
# 6 0.0000 0.0000 0.0000 0.0000 0.0000 -7.3214
#
#
#
# Elastic Compliance Matrix: (Units=1/GPa)
#
#
# Indices 1 2 3 4 5 6 
#
# 1 0.027438 -0.006734 -0.001478 0.000000 0.000000 0.000000
# 2 -0.006734 0.007127 -0.002445 0.000000 0.000000 0.000000
# 3 -0.001478 -0.002445 0.007150 0.000000 0.000000 0.000000
# 4 0.000000 0.000000 0.000000 0.026131 0.000000 0.000000
# 5 0.000000 0.000000 0.000000 0.000000 0.046411 0.000000
# 6 0.000000 0.000000 0.000000 0.000000 0.000000 -0.136585
#
#
# Mechanical properties :
#
#
# Convention : Reuss Voigt Hill
#
# Bulk Modulus (GPa) = 49.01485 92.05954 70.53719
# Shear Modulus (GPa) = 864.35727 28.89626 446.62677
#
# Velocity S-wave (km/s) = 21.57115 3.94410 15.50597
# Velocity P-wave (km/s) = 25.43238 8.38452 18.93549
#
# Compressibility (1/GPa) = 0.02040198
#
# Stress axis : x y z
#
# Youngs Moduli (GPa) = 36.44642 140.30338 139.86516
#
# Poissons Ratio (x) = 0.94478 0.20667
# Poissons Ratio (y) = 0.24542 0.34195
# Poissons Ratio (z) = 0.05386 0.34302
#
# Static dielectric constant tensor:
#      x y z
#    x 1.577590 0.000000 0.000000 
#    y 0.000000 1.708790 0.000000 
#    z 0.000000 0.000000 1.618370 
# 
# From -- ./inp_files/1904.got.cif
#   From: 2010.05.17/outbox.cif.g08.bks.cpg/sg49_1_cif.got.tgz:1904.got - 2010.06.03 21:02:19.
