data_PCOD9392271
_publ_section_title
;
Structure prediction by ZEFSAII (Michael W. Deem and Ramdas Pophale) SiO2 
 PCOD9392271
Probable space group: P C C M
;
_chemical_formula_sum "Si O2"
_cell_formula_units_Z 48
_cell_length_a 16.074374
_cell_length_b 8.813390
_cell_length_c 17.089666
_cell_angle_alpha 90.000000
_cell_angle_beta 90.000000
_cell_angle_gamma 90.000000
_cell_volume 2421.088318
_symmetry_space_group_name_H-M "P C C M"
_symmetry_group_IT_number 49
_symmetry_cell_setting 'orthorhombic'
loop_
_space_group_symop_operation_xyz
x,y,z
-x,-y,z
x,-y,1/2-z
-x,y,1/2-z
-x,-y,-z
x,y,-z
-x,y,1/2+z
x,-y,1/2+z
loop_
_atom_site_type_symbol
_atom_site_label
_atom_site_fract_x
_atom_site_fract_y
_atom_site_fract_z
Si Si1 0.424375 0.382194 0.090374
Si Si2 0.971324 0.822220 0.908845
Si Si3 0.150721 0.233705 0.592094
Si Si4 0.816115 0.921377 0.168424
Si Si5 0.630535 0.164373 0.719714
Si Si6 0.702984 0.407668 0.172411
O O1 0.500000 0.500000 0.100405
O O2 0.424535 0.247068 0.153976
O O3 0.343859 0.482485 0.112602
O O4 0.422730 0.330904 0.000000
O O5 0.887385 0.806446 0.859474
O O6 0.055622 0.742405 0.880641
O O7 0.955608 0.785411 0.000000
O O8 0.000000 0.000000 0.906280
O O9 0.151618 0.261133 0.500000
O O10 0.215893 0.336662 0.635824
O O11 0.180632 0.060404 0.607367
O O12 0.723676 0.858261 0.182432
O O13 0.841701 0.000000 0.250000
O O14 0.643061 0.274663 0.794201
O O15 0.603226 0.000000 0.750000
O O16 0.724281 0.500000 0.250000
#
# Coordination Sequence:
#
# PCOD9392271 Si02
#       6
#     8   8   8   8   8   8
#     4  10  23  43  66  91 120 160 204 241 296 376
#     4   8  16  27  43  75 114 153 196 240 299 357
#     4  10  18  31  52  80 116 159 203 248 298 355
#     4  10  17  30  51  84 120 150 195 256 302 355
#     4  10  20  38  61  93 122 152 197 254 305 356
#     4  10  20  37  60  83 121 162 204 243 302 372
#
# _framework density 19.825794999999999
#
# number of rings (size 3 to 8) (size 9 to 14) (size 15 to 20)
#    0.000    2.333    3.333    2.000    0.000    7.333 
#    0.000    1.667    0.000    9.000    0.000   10.500 
#    0.000    0.000    0.000    0.000    0.000    0.000 
#
# Total GULP energy -267763.234008 kJ/mol
# GULP energy per Si atom -5578.400709 kJ/mol
# Density = 1.978067 g / cm^3
# Si number density = 19.825795 Si / 1000 Ang^3
#
#
#
# Elastic Constant Matrix: (Units=GPa)
#
#
# Indices 1 2 3 4 5 6 
#
# 1 79.4479 17.1226 42.2955 0.0000 0.0000 0.0000
# 2 17.1226 76.5305 33.5392 0.0000 0.0000 0.0000
# 3 42.2955 33.5392 80.0418 0.0000 0.0000 0.0000
# 4 0.0000 0.0000 0.0000 23.2465 0.0000 0.0000
# 5 0.0000 0.0000 0.0000 0.0000 34.6605 0.0000
# 6 0.0000 0.0000 0.0000 0.0000 0.0000 26.9231
#
#
#
# Elastic Compliance Matrix: (Units=1/GPa)
#
#
# Indices 1 2 3 4 5 6 
#
# 1 0.017515 0.000168 -0.009326 0.000000 0.000000 0.000000
# 2 0.000168 0.016008 -0.006796 0.000000 0.000000 0.000000
# 3 -0.009326 -0.006796 0.020269 0.000000 0.000000 0.000000
# 4 0.000000 0.000000 0.000000 0.043017 0.000000 0.000000
# 5 0.000000 0.000000 0.000000 0.000000 0.028851 0.000000
# 6 0.000000 0.000000 0.000000 0.000000 0.000000 0.037143
#
#
# Mechanical properties :
#
#
# Convention : Reuss Voigt Hill
#
# Bulk Modulus (GPa) = 45.69537 46.88164 46.28850
# Shear Modulus (GPa) = 24.75165 26.50353 25.62759
#
# Velocity S-wave (km/s) = 3.53718 3.66022 3.59923
# Velocity P-wave (km/s) = 6.30719 6.44679 6.37737
#
# Compressibility (1/GPa) = 0.02188406
#
# Stress axis : x y z
#
# Youngs Moduli (GPa) = 57.09238 62.47050 49.33559
#
# Poissons Ratio (x) = -0.01051 0.46010
# Poissons Ratio (y) = -0.00961 0.33531
# Poissons Ratio (z) = 0.53244 0.42458
#
# Static dielectric constant tensor:
#      x y z
#    x 1.727210 0.000000 0.000000 
#    y 0.000000 1.732780 0.000000 
#    z 0.000000 0.000000 1.923830 
# 
# From -- ./inp_files/17688.got.cif
#   From: 2010.05.17/outbox.cif.g08.bks.cpg/sg49_9_cif.got.tgz:17688.got - 2010.06.03 21:02:19.
