data_PCOD9392557
_publ_section_title
;
Structure prediction by ZEFSAII (Michael W. Deem and Ramdas Pophale) SiO2 
 PCOD9392557
Probable space group: P C C M
;
_chemical_formula_sum "Si O2"
_cell_formula_units_Z 64
_cell_length_a 20.254773
_cell_length_b 21.222540
_cell_length_c 8.628103
_cell_angle_alpha 90.000000
_cell_angle_beta 90.000000
_cell_angle_gamma 90.000000
_cell_volume 3708.856771
_symmetry_space_group_name_H-M "P C C M"
_symmetry_group_IT_number 49
_symmetry_cell_setting 'orthorhombic'
loop_
_space_group_symop_operation_xyz
x,y,z
-x,-y,z
x,-y,1/2-z
-x,y,1/2-z
-x,-y,-z
x,y,-z
-x,y,1/2+z
x,-y,1/2+z
loop_
_atom_site_type_symbol
_atom_site_label
_atom_site_fract_x
_atom_site_fract_y
_atom_site_fract_z
Si Si1 0.928969 0.883117 0.314335
Si Si2 0.429942 0.234587 0.186629
Si Si3 0.205802 0.688784 0.687288
Si Si4 0.710632 0.188470 0.311060
Si Si5 0.429967 0.617819 0.313496
Si Si6 0.206858 0.066930 0.814146
Si Si7 0.070734 0.264851 0.314986
Si Si8 0.289400 0.567239 0.312747
O O1 0.928765 0.887823 0.500000
O O2 0.867189 0.919906 0.245066
O O3 0.920849 0.809080 0.269959
O O4 0.000000 0.904070 0.250000
O O5 0.500000 0.211699 0.250000
O O6 0.365051 0.197219 0.239334
O O7 0.422628 0.308388 0.231929
O O8 0.431785 0.232979 0.000000
O O9 0.204276 0.689391 0.500000
O O10 0.247808 0.750067 0.737574
O O11 0.132164 0.696579 0.749614
O O12 0.243064 0.625262 0.736460
O O13 0.710535 0.188592 0.500000
O O14 0.747061 0.124923 0.260852
O O15 0.500000 0.594483 0.250000
O O16 0.431990 0.615669 0.500000
O O17 0.364651 0.581459 0.260703
O O18 0.229843 0.000000 0.750000
O O19 0.206477 0.065903 0.000000
O O20 0.069958 0.267814 0.500000
O O21 0.000000 0.285623 0.250000
O O22 0.267516 0.500000 0.250000
O O23 0.289552 0.566324 0.500000
#
# Coordination Sequence:
#
# PCOD9392557 Si02
#       8
#     8   8   8   8   8   8   8   8
#     4  10  20  34  52  77 108 141 176 212 252 305
#     4   9  16  30  51  77 103 130 169 214 261 309
#     4  10  18  34  57  78 101 137 179 217 259 310
#     4   9  17  32  56  77  99 135 176 213 258 312
#     4   9  17  30  48  71 101 137 174 212 253 304
#     4  11  22  36  54  76 104 140 176 216 263 312
#     4  10  20  33  53  82 111 137 169 215 261 307
#     4  10  21  35  52  74 105 142 178 217 261 312
#
# _framework density 17.255991000000002
#
# number of rings (size 3 to 8) (size 9 to 14) (size 15 to 20)
#    0.000    2.250    2.500    1.125    0.000    2.500 
#    0.000    4.375    0.000    0.750    0.000    5.250 
#    0.000    0.000    0.000    0.000    0.000    0.000 
#
# Total GULP energy -357128.353562 kJ/mol
# GULP energy per Si atom -5580.130524 kJ/mol
# Density = 1.721672 g / cm^3
# Si number density = 17.255991 Si / 1000 Ang^3
#
#
#
# Elastic Constant Matrix: (Units=GPa)
#
#
# Indices 1 2 3 4 5 6 
#
# 1 137.1166 73.0127 21.6340 0.0000 0.0000 0.0000
# 2 73.0127 117.9785 23.4884 0.0000 0.0000 0.0000
# 3 21.6340 23.4884 15.7145 0.0000 0.0000 0.0000
# 4 0.0000 0.0000 0.0000 23.0723 0.0000 0.0000
# 5 0.0000 0.0000 0.0000 0.0000 27.2138 0.0000
# 6 0.0000 0.0000 0.0000 0.0000 0.0000 22.6274
#
#
#
# Elastic Compliance Matrix: (Units=1/GPa)
#
#
# Indices 1 2 3 4 5 6 
#
# 1 0.011446 -0.005618 -0.007360 0.000000 0.000000 0.000000
# 2 -0.005618 0.014825 -0.014424 0.000000 0.000000 0.000000
# 3 -0.007360 -0.014424 0.095328 0.000000 0.000000 0.000000
# 4 0.000000 0.000000 0.000000 0.043342 0.000000 0.000000
# 5 0.000000 0.000000 0.000000 0.000000 0.036746 0.000000
# 6 0.000000 0.000000 0.000000 0.000000 0.000000 0.044194
#
#
# Mechanical properties :
#
#
# Convention : Reuss Voigt Hill
#
# Bulk Modulus (GPa) = 14.97145 56.34221 35.65683
# Shear Modulus (GPa) = 15.48230 24.76099 20.12164
#
# Velocity S-wave (km/s) = 2.99860 3.79214 3.41848
# Velocity P-wave (km/s) = 4.54794 7.20385 6.02409
#
# Compressibility (1/GPa) = 0.06679380
#
# Stress axis : x y z
#
# Youngs Moduli (GPa) = 87.36746 67.45518 10.49014
#
# Poissons Ratio (x) = 0.37897 0.07721
# Poissons Ratio (y) = 0.49084 0.15131
# Poissons Ratio (z) = 0.64303 0.97297
#
# Static dielectric constant tensor:
#      x y z
#    x 1.577930 0.000000 0.000000 
#    y 0.000000 1.583950 0.000000 
#    z 0.000000 0.000000 1.586770 
# 
# From -- ./inp_files/5260.got.cif
#   From: 2010.05.17/outbox.cif.g08.bks.cpg/sg49_3_cif.got.tgz:5260.got - 2010.06.03 21:02:19.
