data_PCOD9392627
_publ_section_title
;
Structure prediction by ZEFSAII (Michael W. Deem and Ramdas Pophale) SiO2 
 PCOD9392627
Probable space group: P C C M
;
_chemical_formula_sum "Si O2"
_cell_formula_units_Z 56
_cell_length_a 18.912416
_cell_length_b 21.702508
_cell_length_c 8.776456
_cell_angle_alpha 90.000000
_cell_angle_beta 90.000000
_cell_angle_gamma 90.000000
_cell_volume 3602.268803
_symmetry_space_group_name_H-M "P C C M"
_symmetry_group_IT_number 49
_symmetry_cell_setting 'orthorhombic'
loop_
_space_group_symop_operation_xyz
x,y,z
-x,-y,z
x,-y,1/2-z
-x,y,1/2-z
-x,-y,-z
x,y,-z
-x,y,1/2+z
x,-y,1/2+z
loop_
_atom_site_type_symbol
_atom_site_label
_atom_site_fract_x
_atom_site_fract_y
_atom_site_fract_z
Si Si1 0.422123 0.692152 0.318029
Si Si2 0.922031 0.308394 0.183465
Si Si3 0.790045 0.746291 0.182038
Si Si4 0.422209 0.934425 0.818897
Si Si5 0.293072 0.630279 0.181743
Si Si6 0.843808 0.435674 0.182912
Si Si7 0.342932 0.820545 0.681466
O O1 0.500000 0.687215 0.250000
O O2 0.424545 0.689339 0.500000
O O3 0.369108 0.639288 0.257787
O O4 0.387699 0.758857 0.277154
O O5 0.868923 0.257666 0.253941
O O6 0.890097 0.375895 0.227277
O O7 0.000000 0.302333 0.250000
O O8 0.921696 0.304534 0.000000
O O9 0.749699 0.691363 0.269026
O O10 0.739612 0.804894 0.208592
O O11 0.789448 0.734498 0.000000
O O12 0.500000 0.921676 0.750000
O O13 0.371589 0.878936 0.770633
O O14 0.398923 0.000000 0.750000
O O15 0.427767 0.939270 0.000000
O O16 0.238007 0.577143 0.229847
O O17 0.301026 0.628230 0.000000
O O18 0.869257 0.500000 0.250000
O O19 0.845291 0.438621 0.000000
O O20 0.352644 0.830135 0.500000
#
# Coordination Sequence:
#
# PCOD9392627 Si02
#       7
#     8   8   8   8   8   8   8
#     4  10  19  29  44  66  89 115 145 184 231 274
#     4  10  20  33  48  69  96 123 150 181 221 268
#     4   9  17  30  48  68  90 118 149 184 225 268
#     4  11  21  32  46  63  90 127 164 199 235 270
#     4   9  17  30  45  63  87 113 144 182 223 269
#     4   9  19  32  47  66  87 115 149 183 218 262
#     4   9  18  31  46  66  91 118 153 189 224 268
#
# _framework density 15.545757999999999
#
# number of rings (size 3 to 8) (size 9 to 14) (size 15 to 20)
#    0.000    2.429    0.000    5.571    0.000    8.286 
#    0.000    1.429    0.000    0.429    0.000    3.000 
#    0.000    0.571    0.000    6.000    0.000    2.571 
#
# Total GULP energy -312034.998191 kJ/mol
# GULP energy per Si atom -5572.053539 kJ/mol
# Density = 1.551038 g / cm^3
# Si number density = 15.545758 Si / 1000 Ang^3
#
#
#
# Elastic Constant Matrix: (Units=GPa)
#
#
# Indices 1 2 3 4 5 6 
#
# 1 114.1024 18.8447 29.3859 0.0000 0.0000 0.0000
# 2 18.8447 30.6374 14.9290 0.0000 0.0000 0.0000
# 3 29.3859 14.9290 46.7413 0.0000 0.0000 0.0000
# 4 0.0000 0.0000 0.0000 20.7599 0.0000 0.0000
# 5 0.0000 0.0000 0.0000 0.0000 74.6655 0.0000
# 6 0.0000 0.0000 0.0000 0.0000 0.0000 15.8296
#
#
#
# Elastic Compliance Matrix: (Units=1/GPa)
#
#
# Indices 1 2 3 4 5 6 
#
# 1 0.010850 -0.003967 -0.005554 0.000000 0.000000 0.000000
# 2 -0.003967 0.040107 -0.010316 0.000000 0.000000 0.000000
# 3 -0.005554 -0.010316 0.028181 0.000000 0.000000 0.000000
# 4 0.000000 0.000000 0.000000 0.048170 0.000000 0.000000
# 5 0.000000 0.000000 0.000000 0.000000 0.013393 0.000000
# 6 0.000000 0.000000 0.000000 0.000000 0.000000 0.063173
#
#
# Mechanical properties :
#
#
# Convention : Reuss Voigt Hill
#
# Bulk Modulus (GPa) = 25.33995 35.31115 30.32555
# Shear Modulus (GPa) = 19.47787 30.80574 25.14180
#
# Velocity S-wave (km/s) = 3.54353 4.45637 4.02590
# Velocity P-wave (km/s) = 5.75132 7.01730 6.41562
#
# Compressibility (1/GPa) = 0.03946338
#
# Stress axis : x y z
#
# Youngs Moduli (GPa) = 92.16906 24.93346 35.48494
#
# Poissons Ratio (x) = 0.09891 0.19708
# Poissons Ratio (y) = 0.36565 0.36606
# Poissons Ratio (z) = 0.51191 0.25721
#
# Static dielectric constant tensor:
#      x y z
#    x 1.550450 0.000000 0.000000 
#    y 0.000000 1.505410 0.000000 
#    z 0.000000 0.000000 1.519000 
# 
# From -- ./inp_files/5176.got.cif
#   From: 2010.05.17/outbox.cif.g08.bks.cpg/sg49_3_cif.got.tgz:5176.got - 2010.06.03 21:02:19.
