data_PCOD9392651
_publ_section_title
;
Structure prediction by ZEFSAII (Michael W. Deem and Ramdas Pophale) SiO2 
 PCOD9392651
Probable space group: P C C M
;
_chemical_formula_sum "Si O2"
_cell_formula_units_Z 64
_cell_length_a 19.999825
_cell_length_b 19.969760
_cell_length_c 9.228649
_cell_angle_alpha 90.000000
_cell_angle_beta 90.000000
_cell_angle_gamma 90.000000
_cell_volume 3685.845862
_symmetry_space_group_name_H-M "P C C M"
_symmetry_group_IT_number 49
_symmetry_cell_setting 'orthorhombic'
loop_
_space_group_symop_operation_xyz
x,y,z
-x,-y,z
x,-y,1/2-z
-x,y,1/2-z
-x,-y,-z
x,y,-z
-x,y,1/2+z
x,-y,1/2+z
loop_
_atom_site_type_symbol
_atom_site_label
_atom_site_fract_x
_atom_site_fract_y
_atom_site_fract_z
Si Si1 0.428192 0.682084 0.174969
Si Si2 0.843387 0.065522 0.334891
Si Si3 0.064764 0.153032 0.335879
Si Si4 0.322280 0.780827 0.323291
Si Si5 0.677502 0.570258 0.671044
Si Si6 0.065632 0.685866 0.835228
Si Si7 0.682339 0.933918 0.834717
Si Si8 0.782666 0.312907 0.175922
O O1 0.500000 0.682860 0.250000
O O2 0.381270 0.737444 0.251323
O O3 0.390287 0.611631 0.201351
O O4 0.431139 0.692317 0.000000
O O5 0.866853 0.066141 0.500000
O O6 0.870665 0.128999 0.249755
O O7 0.763259 0.064069 0.335494
O O8 0.867557 0.000000 0.250000
O O9 0.066035 0.128218 0.500000
O O10 0.061534 0.233224 0.339384
O O11 0.000000 0.127913 0.250000
O O12 0.321090 0.776399 0.500000
O O13 0.332827 0.858750 0.281808
O O14 0.254239 0.748449 0.257325
O O15 0.681497 0.500000 0.750000
O O16 0.680516 0.558232 0.500000
O O17 0.737387 0.621924 0.706336
O O18 0.140793 0.673678 0.778458
O O19 0.000000 0.661908 0.750000
O O20 0.062478 0.660680 0.000000
O O21 0.659052 0.000000 0.750000
O O22 0.658741 0.939012 0.000000
O O23 0.782107 0.300698 0.000000
#
# Coordination Sequence:
#
# PCOD9392651 Si02
#       8
#     8   8   8   8   8   8   8   8
#     4  10  21  37  56  81 111 144 176 209 248 295
#     4  10  19  31  44  60  83 112 148 192 239 293
#     4  10  19  30  43  60  81 110 146 189 242 299
#     4  10  19  32  52  79 106 135 173 216 257 305
#     4   9  19  34  53  78 109 141 175 209 247 294
#     4   9  18  31  48  69  95 124 160 207 258 307
#     4   9  19  32  48  71  98 127 162 205 254 302
#     4   9  18  33  51  74 103 137 173 213 260 311
#
# _framework density 17.363721999999999
#
# number of rings (size 3 to 8) (size 9 to 14) (size 15 to 20)
#    0.000    2.500    0.000    3.000    0.000    5.500 
#    0.000    2.500    0.000    0.750    0.000    5.250 
#    0.000    0.000    0.000    0.000    0.000    0.000 
#
# Total GULP energy -356603.785124 kJ/mol
# GULP energy per Si atom -5571.934143 kJ/mol
# Density = 1.732420 g / cm^3
# Si number density = 17.363722 Si / 1000 Ang^3
#
#
#
# Elastic Constant Matrix: (Units=GPa)
#
#
# Indices 1 2 3 4 5 6 
#
# 1 107.0043 30.7826 39.2721 0.0000 0.0000 0.0000
# 2 30.7826 105.7297 46.0106 0.0000 0.0000 0.0000
# 3 39.2721 46.0106 78.9661 0.0000 0.0000 0.0000
# 4 0.0000 0.0000 0.0000 26.2769 0.0000 0.0000
# 5 0.0000 0.0000 0.0000 0.0000 22.4789 0.0000
# 6 0.0000 0.0000 0.0000 0.0000 0.0000 9.8738
#
#
#
# Elastic Compliance Matrix: (Units=1/GPa)
#
#
# Indices 1 2 3 4 5 6 
#
# 1 0.011536 -0.001155 -0.005064 0.000000 0.000000 0.000000
# 2 -0.001155 0.012787 -0.006876 0.000000 0.000000 0.000000
# 3 -0.005064 -0.006876 0.019189 0.000000 0.000000 0.000000
# 4 0.000000 0.000000 0.000000 0.038056 0.000000 0.000000
# 5 0.000000 0.000000 0.000000 0.000000 0.044486 0.000000
# 6 0.000000 0.000000 0.000000 0.000000 0.000000 0.101279
#
#
# Mechanical properties :
#
#
# Convention : Reuss Voigt Hill
#
# Bulk Modulus (GPa) = 57.73285 58.20341 57.96813
# Shear Modulus (GPa) = 19.28293 23.43490 21.35891
#
# Velocity S-wave (km/s) = 3.33608 3.67774 3.51107
# Velocity P-wave (km/s) = 6.93978 7.18521 7.06356
#
# Compressibility (1/GPa) = 0.01732116
#
# Stress axis : x y z
#
# Youngs Moduli (GPa) = 86.68232 78.20746 52.11394
#
# Poissons Ratio (x) = 0.09032 0.26393
# Poissons Ratio (y) = 0.10010 0.35833
# Poissons Ratio (z) = 0.43900 0.53775
#
# Static dielectric constant tensor:
#      x y z
#    x 1.601140 0.000000 0.000000 
#    y 0.000000 1.590900 0.000000 
#    z 0.000000 0.000000 1.598230 
# 
# From -- ./inp_files/6017.got.cif
#   From: 2010.05.17/outbox.cif.g08.bks.cpg/sg49_4_cif.got.tgz:6017.got - 2010.06.03 21:02:19.
