data_PCOD9392907
_publ_section_title
;
Structure prediction by ZEFSAII (Michael W. Deem and Ramdas Pophale) SiO2 
 PCOD9392907
Probable space group: P C C M
;
_chemical_formula_sum "Si O2"
_cell_formula_units_Z 64
_cell_length_a 20.229286
_cell_length_b 20.265243
_cell_length_c 8.947527
_cell_angle_alpha 90.000000
_cell_angle_beta 90.000000
_cell_angle_gamma 90.000000
_cell_volume 3668.051189
_symmetry_space_group_name_H-M "P C C M"
_symmetry_group_IT_number 49
_symmetry_cell_setting 'orthorhombic'
loop_
_space_group_symop_operation_xyz
x,y,z
-x,-y,z
x,-y,1/2-z
-x,y,1/2-z
-x,-y,-z
x,y,-z
-x,y,1/2+z
x,-y,1/2+z
loop_
_atom_site_type_symbol
_atom_site_label
_atom_site_fract_x
_atom_site_fract_y
_atom_site_fract_z
Si Si1 0.250770 0.388811 0.674264
Si Si2 0.066726 0.292453 0.178282
Si Si3 0.430599 0.928131 0.179207
Si Si4 0.431133 0.711604 0.678211
Si Si5 0.101314 0.431997 0.673753
Si Si6 0.383750 0.565252 0.677272
Si Si7 0.329287 0.187883 0.678316
Si Si8 0.211364 0.749868 0.678696
O O1 0.267096 0.378037 0.500000
O O2 0.181314 0.427221 0.680704
O O3 0.310656 0.425027 0.754756
O O4 0.238187 0.319198 0.755188
O O5 0.076606 0.366340 0.243269
O O6 0.133246 0.251502 0.214300
O O7 0.000000 0.264936 0.250000
O O8 0.060888 0.296392 0.000000
O O9 0.500000 0.903973 0.250000
O O10 0.370818 0.878206 0.211497
O O11 0.418558 0.000000 0.250000
O O12 0.438215 0.933228 0.000000
O O13 0.500000 0.733046 0.750000
O O14 0.431084 0.721448 0.500000
O O15 0.420548 0.633929 0.708786
O O16 0.372455 0.753007 0.751704
O O17 0.080104 0.500000 0.750000
O O18 0.081520 0.429919 0.500000
O O19 0.413987 0.500000 0.750000
O O20 0.379518 0.556763 0.500000
O O21 0.325282 0.195477 0.500000
O O22 0.256615 0.193786 0.749078
O O23 0.219141 0.749825 0.500000
#
# Coordination Sequence:
#
# PCOD9392907 Si02
#       8
#     8   8   8   8   8   8   8   8
#     4  10  19  32  51  72  96 126 162 211 267 322
#     4  10  21  36  53  73 100 133 169 213 265 324
#     4  10  21  36  56  85 119 158 194 226 264 312
#     4  11  24  39  55  75 100 133 174 221 273 325
#     4  10  20  32  47  69  94 124 163 208 260 322
#     4  11  23  36  51  70  93 125 167 217 275 331
#     4  11  22  36  58  85 112 144 184 224 265 312
#     4  10  20  34  54  79 106 136 173 217 265 314
#
# _framework density 17.447956999999999
#
# number of rings (size 3 to 8) (size 9 to 14) (size 15 to 20)
#    0.000    1.625    1.250    4.125    0.000    9.000 
#    0.000    2.500    0.000    0.000    0.000    0.000 
#    0.000    0.500    0.000    5.500    0.000    4.000 
#
# Total GULP energy -357622.844461 kJ/mol
# GULP energy per Si atom -5587.856945 kJ/mol
# Density = 1.740824 g / cm^3
# Si number density = 17.447957 Si / 1000 Ang^3
#
#
#
# Elastic Constant Matrix: (Units=GPa)
#
#
# Indices 1 2 3 4 5 6 
#
# 1 120.4571 45.2641 55.2216 0.0000 0.0000 0.0000
# 2 45.2641 70.4367 48.3953 0.0000 0.0000 0.0000
# 3 55.2216 48.3953 78.6892 0.0000 0.0000 0.0000
# 4 0.0000 0.0000 0.0000 17.6526 0.0000 0.0000
# 5 0.0000 0.0000 0.0000 0.0000 -20.6805 0.0000
# 6 0.0000 0.0000 0.0000 0.0000 0.0000 58.0916
#
#
#
# Elastic Compliance Matrix: (Units=1/GPa)
#
#
# Indices 1 2 3 4 5 6 
#
# 1 0.012728 -0.003537 -0.006757 0.000000 0.000000 0.000000
# 2 -0.003537 0.025569 -0.013244 0.000000 0.000000 0.000000
# 3 -0.006757 -0.013244 0.025595 0.000000 0.000000 0.000000
# 4 0.000000 0.000000 0.000000 0.056649 0.000000 0.000000
# 5 0.000000 0.000000 0.000000 0.000000 -0.048355 0.000000
# 6 0.000000 0.000000 0.000000 0.000000 0.000000 0.017214
#
#
# Mechanical properties :
#
#
# Convention : Reuss Voigt Hill
#
# Bulk Modulus (GPa) = 59.46077 63.03831 61.24954
# Shear Modulus (GPa) = 35.19082 19.05954 27.12518
#
# Velocity S-wave (km/s) = 4.49587 3.30868 3.94716
# Velocity P-wave (km/s) = 7.81686 7.12771 7.48023
#
# Compressibility (1/GPa) = 0.01681781
#
# Stress axis : x y z
#
# Youngs Moduli (GPa) = 78.56389 39.10935 39.06977
#
# Poissons Ratio (x) = 0.13833 0.26400
# Poissons Ratio (y) = 0.27787 0.51742
# Poissons Ratio (z) = 0.53087 0.51795
#
# Static dielectric constant tensor:
#      x y z
#    x 1.627270 0.000000 0.000000 
#    y 0.000000 1.579260 0.000000 
#    z 0.000000 0.000000 1.580440 
# 
# From -- ./inp_files/6101.got.cif
#   From: 2010.05.17/outbox.cif.g08.bks.cpg/sg49_4_cif.got.tgz:6101.got - 2010.06.03 21:02:19.
