data_PCOD9392092
_publ_section_title
;
Structure prediction by ZEFSAII (Michael W. Deem and Ramdas Pophale) SiO2 
 PCOD9392092
Probable space group: P C C M
;
_chemical_formula_sum "Si O2"
_cell_formula_units_Z 56
_cell_length_a 5.008042
_cell_length_b 26.167895
_cell_length_c 23.603847
_cell_angle_alpha 90.000000
_cell_angle_beta 90.000000
_cell_angle_gamma 90.000000
_cell_volume 3093.282195
_symmetry_space_group_name_H-M "P C C M"
_symmetry_group_IT_number 49
_symmetry_cell_setting 'orthorhombic'
loop_
_space_group_symop_operation_xyz
x,y,z
-x,-y,z
x,-y,1/2-z
-x,y,1/2-z
-x,-y,-z
x,y,-z
-x,y,1/2+z
x,-y,1/2+z
loop_
_atom_site_type_symbol
_atom_site_label
_atom_site_fract_x
_atom_site_fract_y
_atom_site_fract_z
Si Si1 0.635929 0.683195 0.189237
Si Si2 0.140591 0.949840 0.066466
Si Si3 0.136616 0.639531 0.873389
Si Si4 0.745397 0.463918 0.935502
Si Si5 0.534369 0.224186 0.381378
Si Si6 0.969726 0.735087 0.437967
Si Si7 0.373215 0.883275 0.432503
O O1 0.500000 0.675717 0.250000
O O2 0.426080 0.658253 0.146104
O O3 0.634248 0.743821 0.173500
O O4 0.918830 0.655994 0.174913
O O5 0.424767 0.928489 0.085612
O O6 0.926914 0.904119 0.070264
O O7 0.185736 0.961992 0.000000
O O8 0.000000 0.000000 0.091984
O O9 0.174129 0.581909 0.893735
O O10 0.052400 0.675088 0.926032
O O11 0.500000 0.500000 0.916649
O O12 0.000000 0.500000 0.939260
O O13 0.681648 0.445192 0.000000
O O14 0.226220 0.237355 0.393463
O O15 0.580378 0.164531 0.391383
O O16 0.726431 0.249018 0.428847
O O17 0.878833 0.749694 0.500000
O O18 0.426571 0.871014 0.500000
#
# Coordination Sequence:
#
# PCOD9392092 Si02
#       7
#     8   8   8   8   8   8   8
#     4  10  21  37  55  73  97 129 168 213 252 292
#     4   9  17  27  39  57  85 125 164 192 223 272
#     4  10  20  34  54  76  98 132 169 200 241 293
#     4  10  20  34  54  81 112 139 163 197 242 293
#     4  10  20  30  45  70  95 125 161 198 246 296
#     4  10  18  29  45  68 100 128 155 190 233 295
#     4  10  17  26  41  61  91 123 153 193 237 284
#
# _framework density 18.103746999999998
#
# number of rings (size 3 to 8) (size 9 to 14) (size 15 to 20)
#    0.000    2.143    0.000    4.286    0.000    2.857 
#    0.000    4.286    0.000    6.429    0.000    0.000 
#    0.000    3.429    0.000    0.000    0.000    0.000 
#
# Total GULP energy -311790.344219 kJ/mol
# GULP energy per Si atom -5567.684718 kJ/mol
# Density = 1.806254 g / cm^3
# Si number density = 18.103747 Si / 1000 Ang^3
#
#
#
# Elastic Constant Matrix: (Units=GPa)
#
#
# Indices 1 2 3 4 5 6 
#
# 1 80.0476 -1.1970 -4.0426 0.0000 0.0000 0.0000
# 2 -1.1970 68.7861 10.2745 0.0000 0.0000 0.0000
# 3 -4.0426 10.2745 23.7076 0.0000 0.0000 0.0000
# 4 0.0000 0.0000 0.0000 12.8919 0.0000 0.0000
# 5 0.0000 0.0000 0.0000 0.0000 12.4267 0.0000
# 6 0.0000 0.0000 0.0000 0.0000 0.0000 23.1757
#
#
#
# Elastic Compliance Matrix: (Units=1/GPa)
#
#
# Indices 1 2 3 4 5 6 
#
# 1 0.012602 -0.000109 0.002196 0.000000 0.000000 0.000000
# 2 -0.000109 0.015545 -0.006755 0.000000 0.000000 0.000000
# 3 0.002196 -0.006755 0.045483 0.000000 0.000000 0.000000
# 4 0.000000 0.000000 0.000000 0.077568 0.000000 0.000000
# 5 0.000000 0.000000 0.000000 0.000000 0.080472 0.000000
# 6 0.000000 0.000000 0.000000 0.000000 0.000000 0.043149
#
#
# Mechanical properties :
#
#
# Convention : Reuss Voigt Hill
#
# Bulk Modulus (GPa) = 15.55377 20.29013 17.92195
# Shear Modulus (GPa) = 16.36202 20.86595 18.61398
#
# Velocity S-wave (km/s) = 3.00957 3.39864 3.21001
# Velocity P-wave (km/s) = 4.54828 5.16072 4.86415
#
# Compressibility (1/GPa) = 0.06429311
#
# Stress axis : x y z
#
# Youngs Moduli (GPa) = 79.35351 64.32943 21.98637
#
# Poissons Ratio (x) = 0.00699 -0.04828
# Poissons Ratio (y) = 0.00863 0.14853
# Poissons Ratio (z) = -0.17426 0.43458
#
# Static dielectric constant tensor:
#      x y z
#    x 1.600900 0.000000 0.000000 
#    y 0.000000 1.663530 0.000000 
#    z 0.000000 0.000000 1.621110 
# 
# From -- ./inp_files/21898.got.cif
#   From: 2010.05.17/outbox.cif.g08.bks.cpg/sg49_11_cif.got.tgz:21898.got - 2010.06.03 21:02:19.
