data_PCOD9392376
_publ_section_title
;
Structure prediction by ZEFSAII (Michael W. Deem and Ramdas Pophale) SiO2 
 PCOD9392376
Probable space group: P C C M
;
_chemical_formula_sum "Si O2"
_cell_formula_units_Z 24
_cell_length_a 12.092186
_cell_length_b 10.617802
_cell_length_c 9.238672
_cell_angle_alpha 90.000000
_cell_angle_beta 90.000000
_cell_angle_gamma 90.000000
_cell_volume 1186.175610
_symmetry_space_group_name_H-M "P C C M"
_symmetry_group_IT_number 49
_symmetry_cell_setting 'orthorhombic'
loop_
_space_group_symop_operation_xyz
x,y,z
-x,-y,z
x,-y,1/2-z
-x,y,1/2-z
-x,-y,-z
x,y,-z
-x,y,1/2+z
x,-y,1/2+z
loop_
_atom_site_type_symbol
_atom_site_label
_atom_site_fract_x
_atom_site_fract_y
_atom_site_fract_z
Si Si1 0.000000 0.685606 0.250000
Si Si2 0.838108 0.209197 0.500000
Si Si3 0.164260 0.366856 0.500000
Si Si4 0.653900 0.584738 0.000000
Si Si5 0.500000 0.500000 0.250000
Si Si6 0.155429 0.080784 0.500000
Si Si7 0.000000 0.000000 0.750000
O O1 0.085281 0.753918 0.362994
O O2 0.915032 0.616703 0.360273
O O3 0.731548 0.295352 0.500000
O O4 0.799239 0.062668 0.500000
O O5 0.264762 0.463571 0.500000
O O6 0.207061 0.220092 0.500000
O O7 0.577622 0.578885 0.857878
O O8 0.078792 0.075113 0.641384
#
# Coordination Sequence:
#
# PCOD9392376 Si02
#       7
#     4   4   4   4   2   4   2
#     4  10  21  32  51  84 125 154 175 204 251 320
#     4  11  21  34  54  83 116 150 179 211 258 318
#     4  11  21  34  54  83 116 150 179 211 258 318
#     4  11  24  41  62  80 100 137 186 235 282 322
#     4  10  24  46  64  74  96 138 188 236 288 340
#     4  11  18  30  50  75 112 148 184 209 242 305
#     4  10  18  30  46  72 114 168 186 188 230 314
#
# _framework density 20.233091000000002
#
# number of rings (size 3 to 8) (size 9 to 14) (size 15 to 20)
#    0.000    1.333    0.000   10.000    0.000    4.000 
#    0.000    0.000    0.000    6.000    0.000    0.000 
#    0.000    0.000    0.000    0.000    0.000    0.000 
#
# Total GULP energy -133866.094707 kJ/mol
# GULP energy per Si atom -5577.753946 kJ/mol
# Density = 2.018704 g / cm^3
# Si number density = 20.233091 Si / 1000 Ang^3
#
#
#
# Elastic Constant Matrix: (Units=GPa)
#
#
# Indices 1 2 3 4 5 6 
#
# 1 113.9130 79.9407 53.5182 0.0000 0.0000 0.0000
# 2 79.9407 151.6843 42.3290 0.0000 0.0000 0.0000
# 3 53.5182 42.3290 186.9514 0.0000 0.0000 0.0000
# 4 0.0000 0.0000 0.0000 13.2833 0.0000 0.0000
# 5 0.0000 0.0000 0.0000 0.0000 33.5044 0.0000
# 6 0.0000 0.0000 0.0000 0.0000 0.0000 16.3201
#
#
#
# Elastic Compliance Matrix: (Units=1/GPa)
#
#
# Indices 1 2 3 4 5 6 
#
# 1 0.015101 -0.007208 -0.002691 0.000000 0.000000 0.000000
# 2 -0.007208 0.010477 -0.000309 0.000000 0.000000 0.000000
# 3 -0.002691 -0.000309 0.006189 0.000000 0.000000 0.000000
# 4 0.000000 0.000000 0.000000 0.075283 0.000000 0.000000
# 5 0.000000 0.000000 0.000000 0.000000 0.029847 0.000000
# 6 0.000000 0.000000 0.000000 0.000000 0.000000 0.061274
#
#
# Mechanical properties :
#
#
# Convention : Reuss Voigt Hill
#
# Bulk Modulus (GPa) = 88.08577 89.34718 88.71648
# Shear Modulus (GPa) = 22.48500 31.07229 26.77864
#
# Velocity S-wave (km/s) = 3.33723 3.92307 3.64195
# Velocity P-wave (km/s) = 7.64719 8.04832 7.85032
#
# Compressibility (1/GPa) = 0.01135257
#
# Stress axis : x y z
#
# Youngs Moduli (GPa) = 66.22097 95.44360 161.56954
#
# Poissons Ratio (x) = 0.68792 0.43478
# Poissons Ratio (y) = 0.47729 0.04992
# Poissons Ratio (z) = 0.17820 0.02949
#
# Static dielectric constant tensor:
#      x y z
#    x 1.664830 0.000000 0.000000 
#    y 0.000000 1.973750 0.000000 
#    z 0.000000 0.000000 1.741130 
# 
# From -- ./inp_files/2362.got.cif
#   From: 2010.05.17/outbox.cif.g08.bks.cpg/sg49_2_cif.got.tgz:2362.got - 2010.06.03 21:02:19.
