data_PCOD9392509
_publ_section_title
;
Structure prediction by ZEFSAII (Michael W. Deem and Ramdas Pophale) SiO2 
 PCOD9392509
Probable space group: P C C M
;
_chemical_formula_sum "Si O2"
_cell_formula_units_Z 48
_cell_length_a 17.246149
_cell_length_b 10.816430
_cell_length_c 14.160940
_cell_angle_alpha 90.000000
_cell_angle_beta 90.000000
_cell_angle_gamma 90.000000
_cell_volume 2641.606719
_symmetry_space_group_name_H-M "P C C M"
_symmetry_group_IT_number 49
_symmetry_cell_setting 'orthorhombic'
loop_
_space_group_symop_operation_xyz
x,y,z
-x,-y,z
x,-y,1/2-z
-x,y,1/2-z
-x,-y,-z
x,y,-z
-x,y,1/2+z
x,-y,1/2+z
loop_
_atom_site_type_symbol
_atom_site_label
_atom_site_fract_x
_atom_site_fract_y
_atom_site_fract_z
Si Si1 0.551163 0.878596 0.500000
Si Si2 0.557323 0.387029 0.000000
Si Si3 0.944462 0.380179 0.000000
Si Si4 0.046093 0.869704 0.500000
Si Si5 0.589668 0.870279 0.713057
Si Si6 0.339639 0.620095 0.187691
Si Si7 0.910410 0.866118 0.786772
Si Si8 0.156751 0.623429 0.811023
O O1 0.511298 0.743690 0.500000
O O2 0.594644 0.879831 0.599491
O O3 0.500000 0.000000 0.500000
O O4 0.500000 0.500000 0.000000
O O5 0.611077 0.389586 0.092147
O O6 0.892145 0.382729 0.093344
O O7 0.000000 0.500000 0.000000
O O8 0.991437 0.251219 0.000000
O O9 0.090993 0.865292 0.599462
O O10 0.000000 0.000000 0.500000
O O11 0.500000 0.861576 0.750000
O O12 0.633345 0.745378 0.739999
O O13 0.621292 0.000000 0.750000
O O14 0.355748 0.500000 0.250000
O O15 0.248290 0.625971 0.168130
O O16 0.866610 0.747838 0.744830
O O17 0.000000 0.856404 0.750000
O O18 0.881940 0.000000 0.750000
O O19 0.140306 0.500000 0.750000
#
# Coordination Sequence:
#
# PCOD9392509 Si02
#       8
#     4   4   4   4   8   8   8   8
#     4  10  18  33  52  86 117 137 177 241 292 320
#     4  10  23  37  62  89 114 154 199 248 290 358
#     4  12  23  35  64  87 110 159 201 245 296 353
#     4  12  20  35  58  94 119 148 202 257 296 345
#     4  10  20  34  59  86 112 147 192 239 283 351
#     4  10  24  40  58  85 120 159 193 241 305 359
#     4  11  21  37  62  90 120 156 204 253 303 360
#     4  11  24  41  57  84 125 157 196 249 303 369
#
# _framework density 18.170759
#
# number of rings (size 3 to 8) (size 9 to 14) (size 15 to 20)
#    0.000    1.333    5.000    1.500    4.667    0.667 
#    0.000    0.833    0.000    2.000    0.000    0.000 
#    0.000    0.000    0.000    0.000    0.000    0.000 
#
# Total GULP energy -267806.274599 kJ/mol
# GULP energy per Si atom -5579.297387 kJ/mol
# Density = 1.812940 g / cm^3
# Si number density = 18.170759 Si / 1000 Ang^3
#
#
#
# Elastic Constant Matrix: (Units=GPa)
#
#
# Indices 1 2 3 4 5 6 
#
# 1 52.0817 71.3459 45.9600 0.0000 0.0000 0.0000
# 2 71.3459 224.8396 71.9382 0.0000 0.0000 0.0000
# 3 45.9600 71.9382 140.0185 0.0000 0.0000 0.0000
# 4 0.0000 0.0000 0.0000 28.3892 0.0000 0.0000
# 5 0.0000 0.0000 0.0000 0.0000 18.9614 0.0000
# 6 0.0000 0.0000 0.0000 0.0000 0.0000 24.4140
#
#
#
# Elastic Compliance Matrix: (Units=1/GPa)
#
#
# Indices 1 2 3 4 5 6 
#
# 1 0.040211 -0.010216 -0.007950 0.000000 0.000000 0.000000
# 2 -0.010216 0.007918 -0.000715 0.000000 0.000000 0.000000
# 3 -0.007950 -0.000715 0.010119 0.000000 0.000000 0.000000
# 4 0.000000 0.000000 0.000000 0.035225 0.000000 0.000000
# 5 0.000000 0.000000 0.000000 0.000000 0.052739 0.000000
# 6 0.000000 0.000000 0.000000 0.000000 0.000000 0.040960
#
#
# Mechanical properties :
#
#
# Convention : Reuss Voigt Hill
#
# Bulk Modulus (GPa) = 48.81412 88.38088 68.59750
# Shear Modulus (GPa) = 21.57382 29.53263 25.55323
#
# Velocity S-wave (km/s) = 3.44943 4.03585 3.75411
# Velocity P-wave (km/s) = 6.54119 8.39417 7.52494
#
# Compressibility (1/GPa) = 0.02048588
#
# Stress axis : x y z
#
# Youngs Moduli (GPa) = 24.86865 126.29335 98.82648
#
# Poissons Ratio (x) = 1.29023 0.78569
# Poissons Ratio (y) = 0.25406 0.07064
# Poissons Ratio (z) = 0.19771 0.09027
#
# Static dielectric constant tensor:
#      x y z
#    x 1.582080 0.000000 0.000000 
#    y 0.000000 1.640650 0.000000 
#    z 0.000000 0.000000 1.622020 
# 
# From -- ./inp_files/14075.got.cif
#   From: 2010.05.17/outbox.cif.g08.bks.cpg/sg49_8_cif.got.tgz:14075.got - 2010.06.03 21:02:19.
