data_PCOD9392022
_publ_section_title
;
Structure prediction by ZEFSAII (Michael W. Deem and Ramdas Pophale) SiO2 
 PCOD9392022
Probable space group: P C C M
;
_chemical_formula_sum "Si O2"
_cell_formula_units_Z 48
_cell_length_a 16.422958
_cell_length_b 7.869507
_cell_length_c 14.627061
_cell_angle_alpha 90.000000
_cell_angle_beta 90.000000
_cell_angle_gamma 90.000000
_cell_volume 1890.409890
_symmetry_space_group_name_H-M "P C C M"
_symmetry_group_IT_number 49
_symmetry_cell_setting 'orthorhombic'
loop_
_space_group_symop_operation_xyz
x,y,z
-x,-y,z
x,-y,1/2-z
-x,y,1/2-z
-x,-y,-z
x,y,-z
-x,y,1/2+z
x,-y,1/2+z
loop_
_atom_site_type_symbol
_atom_site_label
_atom_site_fract_x
_atom_site_fract_y
_atom_site_fract_z
Si Si1 0.529686 0.276348 0.848641
Si Si2 0.093561 0.735811 0.225726
Si Si3 0.319453 0.891159 0.103997
Si Si4 0.369933 0.613398 0.601326
Si Si5 0.785532 0.459571 0.892765
Si Si6 0.843922 0.940558 0.888949
O O1 0.500000 0.326014 0.750000
O O2 0.597892 0.133356 0.841132
O O3 0.441298 0.247625 0.892145
O O4 0.578728 0.436799 0.890142
O O5 0.137203 0.587591 0.168400
O O6 0.131849 0.784658 0.324514
O O7 0.000000 0.708484 0.250000
O O8 0.107752 0.900506 0.157731
O O9 0.265614 0.718663 0.105783
O O10 0.252667 0.030206 0.127575
O O11 0.346672 0.914320 0.000000
O O12 0.338588 0.628197 0.500000
O O13 0.283982 0.584740 0.651271
O O14 0.809139 0.494184 0.000000
O O15 0.856218 0.930934 0.000000
#
# Coordination Sequence:
#
# PCOD9392022 Si02
#       6
#     8   8   8   8   8   8
#     4  10  16  22  38  70  98 114 142 189 241 286
#     4  10  18  26  41  68  97 125 159 206 251 291
#     4   8  14  26  41  59  90 125 154 190 237 286
#     4   9  15  25  41  62  92 125 153 186 235 289
#     4   8  15  27  42  62  91 127 162 197 239 288
#     4   9  17  28  42  63  91 126 165 202 243 290
#
# _framework density 25.391317999999998
#
# number of rings (size 3 to 8) (size 9 to 14) (size 15 to 20)
#    0.000    3.000    0.000    6.500    0.000    2.000 
#    0.000    0.000    0.000    0.000    0.000  103.833 
#    0.000  126.667    0.000  139.333    0.000    0.000 
#
# Total GULP energy -267639.990753 kJ/mol
# GULP energy per Si atom -5575.833141 kJ/mol
# Density = 2.533353 g / cm^3
# Si number density = 25.391318 Si / 1000 Ang^3
#
#
#
# Elastic Constant Matrix: (Units=GPa)
#
#
# Indices 1 2 3 4 5 6 
#
# 1 248.4446 43.5351 80.7804 0.0000 0.0000 0.0000
# 2 43.5351 94.7840 20.8473 0.0000 0.0000 0.0000
# 3 80.7804 20.8473 146.6012 0.0000 0.0000 0.0000
# 4 0.0000 0.0000 0.0000 12.4551 0.0000 0.0000
# 5 0.0000 0.0000 0.0000 0.0000 26.4565 0.0000
# 6 0.0000 0.0000 0.0000 0.0000 0.0000 -14.9294
#
#
#
# Elastic Compliance Matrix: (Units=1/GPa)
#
#
# Indices 1 2 3 4 5 6 
#
# 1 0.005188 -0.001811 -0.002601 0.000000 0.000000 0.000000
# 2 -0.001811 0.011523 -0.000641 0.000000 0.000000 0.000000
# 3 -0.002601 -0.000641 0.008346 0.000000 0.000000 0.000000
# 4 0.000000 0.000000 0.000000 0.080288 0.000000 0.000000
# 5 0.000000 0.000000 0.000000 0.000000 0.037798 0.000000
# 6 0.000000 0.000000 0.000000 0.000000 0.000000 -0.066982
#
#
# Mechanical properties :
#
#
# Convention : Reuss Voigt Hill
#
# Bulk Modulus (GPa) = 66.88513 86.68395 76.78454
# Shear Modulus (GPa) = 54.79409 27.77423 41.28416
#
# Velocity S-wave (km/s) = 4.65045 3.31092 4.03664
# Velocity P-wave (km/s) = 7.43199 6.98782 7.21333
#
# Compressibility (1/GPa) = 0.01495101
#
# Stress axis : x y z
#
# Youngs Moduli (GPa) = 192.74714 86.78318 119.82200
#
# Poissons Ratio (x) = 0.15715 0.31169
# Poissons Ratio (y) = 0.34903 0.07678
# Poissons Ratio (z) = 0.50139 0.05561
#
# Static dielectric constant tensor:
#      x y z
#    x 2.122850 0.000000 0.000000 
#    y 0.000000 2.157520 0.000000 
#    z 0.000000 0.000000 1.766240 
# 
# From -- ./inp_files/14092.got.cif
#   From: 2010.05.17/outbox.cif.g08.bks.cpg/sg49_8_cif.got.tgz:14092.got - 2010.06.03 21:02:19.
