data_PCOD9392695
_publ_section_title
;
Structure prediction by ZEFSAII (Michael W. Deem and Ramdas Pophale) SiO2 
 PCOD9392695
Probable space group: P C C M
;
_chemical_formula_sum "Si O2"
_cell_formula_units_Z 64
_cell_length_a 23.652018
_cell_length_b 18.923250
_cell_length_c 8.753521
_cell_angle_alpha 90.000000
_cell_angle_beta 90.000000
_cell_angle_gamma 90.000000
_cell_volume 3917.840089
_symmetry_space_group_name_H-M "P C C M"
_symmetry_group_IT_number 49
_symmetry_cell_setting 'orthorhombic'
loop_
_space_group_symop_operation_xyz
x,y,z
-x,-y,z
x,-y,1/2-z
-x,y,1/2-z
-x,-y,-z
x,y,-z
-x,y,1/2+z
x,-y,1/2+z
loop_
_atom_site_type_symbol
_atom_site_label
_atom_site_fract_x
_atom_site_fract_y
_atom_site_fract_z
Si Si1 0.317044 0.924054 0.817695
Si Si2 0.326654 0.311504 0.673656
Si Si3 0.558222 0.716875 0.824777
Si Si4 0.560144 0.888008 0.824024
Si Si5 0.063372 0.575440 0.314940
Si Si6 0.756206 0.201826 0.681077
Si Si7 0.238780 0.575462 0.824133
Si Si8 0.154920 0.312710 0.182151
O O1 0.381350 0.908588 0.759058
O O2 0.271019 0.866559 0.760794
O O3 0.301310 0.000000 0.750000
O O4 0.318026 0.924731 0.000000
O O5 0.319103 0.284322 0.500000
O O6 0.390512 0.309391 0.723531
O O7 0.290985 0.261510 0.785583
O O8 0.300253 0.389000 0.678761
O O9 0.500000 0.693902 0.750000
O O10 0.559442 0.802532 0.823337
O O11 0.563695 0.694277 0.000000
O O12 0.500000 0.910856 0.750000
O O13 0.562579 0.912536 0.000000
O O14 0.087061 0.500000 0.250000
O O15 0.063341 0.570854 0.500000
O O16 0.097427 0.646812 0.268102
O O17 0.000000 0.580192 0.250000
O O18 0.760553 0.188731 0.500000
O O19 0.815547 0.238771 0.736365
O O20 0.238117 0.500000 0.750000
O O21 0.199988 0.628030 0.728410
O O22 0.219268 0.573784 0.000000
O O23 0.150980 0.305345 0.000000
#
# Coordination Sequence:
#
# PCOD9392695 Si02
#       8
#     8   8   8   8   8   8   8   8
#     4  12  24  37  53  72  98 130 162 200 245 298
#     4  10  19  31  48  69  92 118 151 191 236 286
#     4  10  19  30  48  69  91 116 147 188 234 284
#     4  10  20  34  51  72  96 124 158 196 240 293
#     4  10  19  31  47  72 105 145 182 214 247 284
#     4  10  19  34  52  72  96 124 160 201 244 290
#     4  10  20  31  46  69  95 124 158 197 240 285
#     4   9  19  33  51  72  99 133 169 207 245 284
#
# _framework density 16.335532000000001
#
# number of rings (size 3 to 8) (size 9 to 14) (size 15 to 20)
#    0.000    1.875    1.250    4.125    0.000    5.250 
#    0.000    1.250    0.000    0.375    0.000    2.625 
#    0.000    0.500    0.000    5.750    0.000    1.750 
#
# Total GULP energy -356603.435058 kJ/mol
# GULP energy per Si atom -5571.928673 kJ/mol
# Density = 1.629835 g / cm^3
# Si number density = 16.335532 Si / 1000 Ang^3
#
#
#
# Elastic Constant Matrix: (Units=GPa)
#
#
# Indices 1 2 3 4 5 6 
#
# 1 81.2602 39.9411 21.3207 0.0000 0.0000 0.0000
# 2 39.9411 69.6625 24.3851 0.0000 0.0000 0.0000
# 3 21.3207 24.3851 55.3487 0.0000 0.0000 0.0000
# 4 0.0000 0.0000 0.0000 16.8647 0.0000 0.0000
# 5 0.0000 0.0000 0.0000 0.0000 15.2064 0.0000
# 6 0.0000 0.0000 0.0000 0.0000 0.0000 27.7449
#
#
#
# Elastic Compliance Matrix: (Units=1/GPa)
#
#
# Indices 1 2 3 4 5 6 
#
# 1 0.017480 -0.009063 -0.002741 0.000000 0.000000 0.000000
# 2 -0.009063 0.021671 -0.006057 0.000000 0.000000 0.000000
# 3 -0.002741 -0.006057 0.021791 0.000000 0.000000 0.000000
# 4 0.000000 0.000000 0.000000 0.059295 0.000000 0.000000
# 5 0.000000 0.000000 0.000000 0.000000 0.065762 0.000000
# 6 0.000000 0.000000 0.000000 0.000000 0.000000 0.036043
#
#
# Mechanical properties :
#
#
# Convention : Reuss Voigt Hill
#
# Bulk Modulus (GPa) = 39.64732 41.95166 40.79949
# Shear Modulus (GPa) = 18.78505 20.00485 19.39495
#
# Velocity S-wave (km/s) = 3.39477 3.50326 3.44944
# Velocity P-wave (km/s) = 6.29994 6.48851 6.39492
#
# Compressibility (1/GPa) = 0.02522238
#
# Stress axis : x y z
#
# Youngs Moduli (GPa) = 57.20926 46.14427 45.88976
#
# Poissons Ratio (x) = 0.41819 0.12576
# Poissons Ratio (y) = 0.51847 0.27794
# Poissons Ratio (z) = 0.15678 0.27948
#
# Static dielectric constant tensor:
#      x y z
#    x 1.557560 0.000000 0.000000 
#    y 0.000000 1.555650 0.000000 
#    z 0.000000 0.000000 1.539600 
# 
# From -- ./inp_files/5388.got.cif
#   From: 2010.05.17/outbox.cif.g08.bks.cpg/sg49_3_cif.got.tgz:5388.got - 2010.06.03 21:02:19.
