data_PCOD9392520
_publ_section_title
;
Structure prediction by ZEFSAII (Michael W. Deem and Ramdas Pophale) SiO2 
 PCOD9392520
Probable space group: P C C M
;
_chemical_formula_sum "Si O2"
_cell_formula_units_Z 56
_cell_length_a 18.474960
_cell_length_b 9.579838
_cell_length_c 16.552854
_cell_angle_alpha 90.000000
_cell_angle_beta 90.000000
_cell_angle_gamma 90.000000
_cell_volume 2929.642021
_symmetry_space_group_name_H-M "P C C M"
_symmetry_group_IT_number 49
_symmetry_cell_setting 'orthorhombic'
loop_
_space_group_symop_operation_xyz
x,y,z
-x,-y,z
x,-y,1/2-z
-x,y,1/2-z
-x,-y,-z
x,y,-z
-x,y,1/2+z
x,-y,1/2+z
loop_
_atom_site_type_symbol
_atom_site_label
_atom_site_fract_x
_atom_site_fract_y
_atom_site_fract_z
Si Si1 0.801228 0.708932 0.320354
Si Si2 0.738009 0.021465 0.094220
Si Si3 0.423860 0.074950 0.901430
Si Si4 0.707769 0.484833 0.912352
Si Si5 0.812051 0.268496 0.370499
Si Si6 0.082226 0.505444 0.094588
Si Si7 0.552059 0.610806 0.093025
O O1 0.731772 0.613638 0.340429
O O2 0.813206 0.727366 0.226145
O O3 0.866857 0.617336 0.359016
O O4 0.780265 0.856031 0.359822
O O5 0.654857 0.988643 0.124103
O O6 0.787882 0.883650 0.101685
O O7 0.731377 0.058981 0.000000
O O8 0.432298 0.235685 0.873473
O O9 0.500000 0.000000 0.879038
O O10 0.420277 0.074392 0.000000
O O11 0.750631 0.628324 0.903561
O O12 0.625659 0.525971 0.912168
O O13 0.727334 0.420716 0.000000
O O14 0.883985 0.349871 0.398374
O O15 0.000000 0.500000 0.124783
O O16 0.081972 0.544636 0.000000
O O17 0.500000 0.500000 0.135359
O O18 0.524806 0.635648 0.000000
#
# Coordination Sequence:
#
# PCOD9392520 Si02
#       7
#     8   8   8   8   8   8   8
#     4  11  23  35  56  87 118 151 188 232 282 339
#     4  11  21  37  59  83 114 152 198 246 287 341
#     4   9  18  31  50  78 109 145 192 247 301 341
#     4  10  18  33  55  79 106 144 193 239 283 333
#     4  11  21  37  58  83 116 155 187 227 283 345
#     4  10  21  40  66  93 119 148 187 233 279 334
#     4   9  17  28  47  76 106 137 187 246 291 336
#
# _framework density 19.114961999999998
#
# number of rings (size 3 to 8) (size 9 to 14) (size 15 to 20)
#    0.000    1.857    1.429    5.571    2.000    1.143 
#    0.000    0.714    0.000    9.429    0.000    0.000 
#    0.000    0.000    0.000    0.000    0.000    0.000 
#
# Total GULP energy -312066.801724 kJ/mol
# GULP energy per Si atom -5572.621459 kJ/mol
# Density = 1.907146 g / cm^3
# Si number density = 19.114962 Si / 1000 Ang^3
#
#
#
# Elastic Constant Matrix: (Units=GPa)
#
#
# Indices 1 2 3 4 5 6 
#
# 1 128.6035 44.4412 11.4533 0.0000 0.0000 0.0000
# 2 44.4412 99.0705 4.3816 0.0000 0.0000 0.0000
# 3 11.4533 4.3816 55.9349 0.0000 0.0000 0.0000
# 4 0.0000 0.0000 0.0000 121.4723 0.0000 0.0000
# 5 0.0000 0.0000 0.0000 0.0000 -6.9209 0.0000
# 6 0.0000 0.0000 0.0000 0.0000 0.0000 8.4673
#
#
#
# Elastic Compliance Matrix: (Units=1/GPa)
#
#
# Indices 1 2 3 4 5 6 
#
# 1 0.009341 -0.004120 -0.001590 0.000000 0.000000 0.000000
# 2 -0.004120 0.011946 -0.000092 0.000000 0.000000 0.000000
# 3 -0.001590 -0.000092 0.018211 0.000000 0.000000 0.000000
# 4 0.000000 0.000000 0.000000 0.008232 0.000000 0.000000
# 5 0.000000 0.000000 0.000000 0.000000 -0.144489 0.000000
# 6 0.000000 0.000000 0.000000 0.000000 0.000000 0.118102
#
#
# Mechanical properties :
#
#
# Convention : Reuss Voigt Hill
#
# Bulk Modulus (GPa) = 35.85041 44.90680 40.37861
# Shear Modulus (GPa) = 118.35668 39.49258 78.92463
#
# Velocity S-wave (km/s) = 7.87736 4.55032 6.43266
# Velocity P-wave (km/s) = 10.07635 7.15201 8.73739
#
# Compressibility (1/GPa) = 0.02789368
#
# Stress axis : x y z
#
# Youngs Moduli (GPa) = 107.05300 83.70974 54.91279
#
# Poissons Ratio (x) = 0.34488 0.08731
# Poissons Ratio (y) = 0.44105 0.00506
# Poissons Ratio (z) = 0.17021 0.00772
#
# Static dielectric constant tensor:
#      x y z
#    x 1.743440 0.000000 0.000000 
#    y 0.000000 1.735340 0.000000 
#    z 0.000000 0.000000 1.696700 
# 
# From -- ./inp_files/14415.got.cif
#   From: 2010.05.17/outbox.cif.g08.bks.cpg/sg49_8_cif.got.tgz:14415.got - 2010.06.03 21:02:19.
