data_PCOD9392830
_publ_section_title
;
Structure prediction by ZEFSAII (Michael W. Deem and Ramdas Pophale) SiO2 
 PCOD9392830
Probable space group: P C C M
;
_chemical_formula_sum "Si O2"
_cell_formula_units_Z 48
_cell_length_a 10.585137
_cell_length_b 9.425867
_cell_length_c 24.616496
_cell_angle_alpha 90.000000
_cell_angle_beta 90.000000
_cell_angle_gamma 90.000000
_cell_volume 2456.088575
_symmetry_space_group_name_H-M "P C C M"
_symmetry_group_IT_number 49
_symmetry_cell_setting 'orthorhombic'
loop_
_space_group_symop_operation_xyz
x,y,z
-x,-y,z
x,-y,1/2-z
-x,y,1/2-z
-x,-y,-z
x,y,-z
-x,y,1/2+z
x,-y,1/2+z
loop_
_atom_site_type_symbol
_atom_site_label
_atom_site_fract_x
_atom_site_fract_y
_atom_site_fract_z
Si Si1 0.693570 0.970912 0.095767
Si Si2 0.145317 0.728501 0.559527
Si Si3 0.061032 0.355358 0.352362
Si Si4 0.278291 0.442223 0.563234
Si Si5 0.868006 0.932623 0.691120
Si Si6 0.522382 0.218760 0.937949
O O1 0.799884 0.885083 0.063718
O O2 0.580909 0.854895 0.100604
O O3 0.755202 0.024994 0.151214
O O4 0.636681 0.104872 0.064719
O O5 0.087762 0.702081 0.500000
O O6 0.258202 0.611972 0.565276
O O7 0.047501 0.704136 0.607668
O O8 0.176815 0.387805 0.393196
O O9 0.106950 0.236049 0.310520
O O10 0.000000 0.500000 0.329165
O O11 0.250928 0.402794 0.500000
O O12 0.412618 0.368582 0.575263
O O13 0.846218 0.000000 0.750000
O O14 0.000000 0.000000 0.670866
O O15 0.473328 0.221515 0.000000
#
# Coordination Sequence:
#
# PCOD9392830 Si02
#       6
#     8   8   8   8   8   8
#     4  11  20  35  54  78 114 151 186 236 284 338
#     4  10  19  31  52  85 117 149 189 227 275 348
#     4  10  19  36  59  83 111 147 187 232 293 348
#     4   9  18  32  53  81 120 157 185 222 272 339
#     4  11  23  41  60  82 109 138 192 259 303 341
#     4  10  20  34  54  82 120 158 192 224 270 350
#
# _framework density 19.543268000000001
#
# number of rings (size 3 to 8) (size 9 to 14) (size 15 to 20)
#    0.000    1.833    3.333    2.500    0.000    2.667 
#    0.000    6.667    0.000    0.000    0.000    0.000 
#   10.000    0.000    0.000    0.000    0.000    0.000 
#
# Total GULP energy -267620.336528 kJ/mol
# GULP energy per Si atom -5575.423678 kJ/mol
# Density = 1.949879 g / cm^3
# Si number density = 19.543268 Si / 1000 Ang^3
#
#
#
# Elastic Constant Matrix: (Units=GPa)
#
#
# Indices 1 2 3 4 5 6 
#
# 1 65.5200 35.6609 34.3232 0.0000 0.0000 0.0000
# 2 35.6609 116.6727 54.4593 0.0000 0.0000 0.0000
# 3 34.3232 54.4593 75.1081 0.0000 0.0000 0.0000
# 4 0.0000 0.0000 0.0000 26.1528 0.0000 0.0000
# 5 0.0000 0.0000 0.0000 0.0000 17.8843 0.0000
# 6 0.0000 0.0000 0.0000 0.0000 0.0000 35.5089
#
#
#
# Elastic Compliance Matrix: (Units=1/GPa)
#
#
# Indices 1 2 3 4 5 6 
#
# 1 0.020691 -0.002888 -0.007361 0.000000 0.000000 0.000000
# 2 -0.002888 0.013359 -0.008366 0.000000 0.000000 0.000000
# 3 -0.007361 -0.008366 0.022744 0.000000 0.000000 0.000000
# 4 0.000000 0.000000 0.000000 0.038237 0.000000 0.000000
# 5 0.000000 0.000000 0.000000 0.000000 0.055915 0.000000
# 6 0.000000 0.000000 0.000000 0.000000 0.000000 0.028162
#
#
# Mechanical properties :
#
#
# Convention : Reuss Voigt Hill
#
# Bulk Modulus (GPa) = 51.11820 56.24307 53.68064
# Shear Modulus (GPa) = 22.43558 24.76635 23.60096
#
# Velocity S-wave (km/s) = 3.39188 3.56372 3.47886
# Velocity P-wave (km/s) = 6.44616 6.76570 6.60786
#
# Compressibility (1/GPa) = 0.01956250
#
# Stress axis : x y z
#
# Youngs Moduli (GPa) = 48.33095 74.85629 43.96678
#
# Poissons Ratio (x) = 0.21619 0.32365
# Poissons Ratio (y) = 0.13958 0.36785
# Poissons Ratio (z) = 0.35578 0.62628
#
# Static dielectric constant tensor:
#      x y z
#    x 1.727720 0.000000 0.000000 
#    y 0.000000 1.743690 0.000000 
#    z 0.000000 0.000000 1.636360 
# 
# From -- ./inp_files/24767.got.cif
#   From: 2010.05.17/outbox.cif.g08.bks.cpg/sg49_13_cif.got.tgz:24767.got - 2010.06.03 21:02:19.
