data_PCOD9392234
_publ_section_title
;
Structure prediction by ZEFSAII (Michael W. Deem and Ramdas Pophale) SiO2 
 PCOD9392234
Probable space group: P C C M
;
_chemical_formula_sum "Si O2"
_cell_formula_units_Z 34
_cell_length_a 21.851863
_cell_length_b 9.613233
_cell_length_c 8.737632
_cell_angle_alpha 90.000000
_cell_angle_beta 90.000000
_cell_angle_gamma 90.000000
_cell_volume 1835.488583
_symmetry_space_group_name_H-M "P C C M"
_symmetry_group_IT_number 49
_symmetry_cell_setting 'orthorhombic'
loop_
_space_group_symop_operation_xyz
x,y,z
-x,-y,z
x,-y,1/2-z
-x,y,1/2-z
-x,-y,-z
x,y,-z
-x,y,1/2+z
x,-y,1/2+z
loop_
_atom_site_type_symbol
_atom_site_label
_atom_site_fract_x
_atom_site_fract_y
_atom_site_fract_z
Si Si1 0.309699 0.656547 0.683864
Si Si2 0.562680 0.342113 0.184152
Si Si3 0.120461 0.638583 0.328278
Si Si4 0.202054 0.153605 0.318286
Si Si5 0.000000 0.500000 0.750000
O O1 0.302545 0.500000 0.750000
O O2 0.312353 0.650384 0.500000
O O3 0.373707 0.716172 0.751052
O O4 0.254657 0.752135 0.742016
O O5 0.563019 0.500000 0.250000
O O6 0.500000 0.277418 0.250000
O O7 0.562034 0.344493 0.000000
O O8 0.148147 0.500000 0.250000
O O9 0.143507 0.656256 0.500000
O O10 0.138982 0.769367 0.227749
O O11 0.048405 0.600801 0.332993
O O12 0.209462 0.151018 0.500000
O O13 0.203836 0.000000 0.250000
#
# Coordination Sequence:
#
# PCOD9392234 Si02
#       5
#     8   8   8   8   2
#     4  11  21  36  57  84 115 151 195 242 290 344
#     4  10  17  28  47  76 111 147 187 237 293 345
#     4  10  20  37  62  91 119 151 189 231 278 333
#     4  12  25  41  59  83 116 154 193 239 289 342
#     4   8  22  36  68  92 126 148 194 224 286 324
#
# _framework density 18.523679000000001
#
# number of rings (size 3 to 8) (size 9 to 14) (size 15 to 20)
#    0.706    0.706    0.000   10.235    0.000    0.000 
#    0.000    0.588    0.000    3.529    0.000    4.941 
#    0.000    0.000    0.000    0.000    0.000    0.000 
#
# Total GULP energy -189539.498989 kJ/mol
# GULP energy per Si atom -5574.691147 kJ/mol
# Density = 1.848152 g / cm^3
# Si number density = 18.523679 Si / 1000 Ang^3
#
#
#
# Elastic Constant Matrix: (Units=GPa)
#
#
# Indices 1 2 3 4 5 6 
#
# 1 120.6200 43.0255 48.2001 0.0000 0.0000 0.0000
# 2 43.0255 93.8372 48.1427 0.0000 0.0000 0.0000
# 3 48.2001 48.1427 209.6184 0.0000 0.0000 0.0000
# 4 0.0000 0.0000 0.0000 17.3097 0.0000 0.0000
# 5 0.0000 0.0000 0.0000 0.0000 31.5048 0.0000
# 6 0.0000 0.0000 0.0000 0.0000 0.0000 3.6733
#
#
#
# Elastic Compliance Matrix: (Units=1/GPa)
#
#
# Indices 1 2 3 4 5 6 
#
# 1 0.010288 -0.003971 -0.001454 0.000000 0.000000 0.000000
# 2 -0.003971 0.013613 -0.002213 0.000000 0.000000 0.000000
# 3 -0.001454 -0.002213 0.005613 0.000000 0.000000 0.000000
# 4 0.000000 0.000000 0.000000 0.057771 0.000000 0.000000
# 5 0.000000 0.000000 0.000000 0.000000 0.031741 0.000000
# 6 0.000000 0.000000 0.000000 0.000000 0.000000 0.272238
#
#
# Mechanical properties :
#
#
# Convention : Reuss Voigt Hill
#
# Bulk Modulus (GPa) = 70.23579 78.09025 74.16302
# Shear Modulus (GPa) = 12.15696 29.47804 20.81750
#
# Velocity S-wave (km/s) = 2.56460 3.99353 3.35600
# Velocity P-wave (km/s) = 6.83876 7.96949 7.42568
#
# Compressibility (1/GPa) = 0.01423776
#
# Stress axis : x y z
#
# Youngs Moduli (GPa) = 97.20107 73.45791 178.15362
#
# Poissons Ratio (x) = 0.29173 0.25895
# Poissons Ratio (y) = 0.38603 0.39431
# Poissons Ratio (z) = 0.14128 0.16259
#
# Static dielectric constant tensor:
#      x y z
#    x 1.726020 0.000000 0.000000 
#    y 0.000000 1.608850 0.000000 
#    z 0.000000 0.000000 1.639540 
# 
# From -- ./inp_files/5545.got.cif
#   From: 2010.05.17/outbox.cif.g08.bks.cpg/sg49_3_cif.got.tgz:5545.got - 2010.06.03 21:02:19.
