data_PCOD9392252
_publ_section_title
;
Structure prediction by ZEFSAII (Michael W. Deem and Ramdas Pophale) SiO2 
 PCOD9392252
Probable space group: P C C M
;
_chemical_formula_sum "Si O2"
_cell_formula_units_Z 40
_cell_length_a 24.695337
_cell_length_b 8.842970
_cell_length_c 9.279838
_cell_angle_alpha 90.000000
_cell_angle_beta 90.000000
_cell_angle_gamma 90.000000
_cell_volume 2026.532175
_symmetry_space_group_name_H-M "P C C M"
_symmetry_group_IT_number 49
_symmetry_cell_setting 'orthorhombic'
loop_
_space_group_symop_operation_xyz
x,y,z
-x,-y,z
x,-y,1/2-z
-x,y,1/2-z
-x,-y,-z
x,y,-z
-x,y,1/2+z
x,-y,1/2+z
loop_
_atom_site_type_symbol
_atom_site_label
_atom_site_fract_x
_atom_site_fract_y
_atom_site_fract_z
Si Si1 0.547311 0.204432 0.000000
Si Si2 0.623284 0.678219 0.269007
Si Si3 0.838101 0.664477 0.323864
Si Si4 0.419926 0.143197 0.000000
Si Si5 0.269266 0.149944 0.662157
Si Si6 0.053903 0.331288 0.177185
O O1 0.570781 0.293257 0.134213
O O2 0.483181 0.189802 0.000000
O O3 0.575877 0.038529 0.000000
O O4 0.629070 0.500000 0.250000
O O5 0.610717 0.782775 0.132788
O O6 0.678967 0.741095 0.333139
O O7 0.830337 0.500000 0.250000
O O8 0.845520 0.651888 0.500000
O O9 0.784610 0.761070 0.292465
O O10 0.890617 0.734784 0.243267
O O11 0.259657 0.100169 0.500000
O O12 0.280251 0.000000 0.750000
O O13 0.055066 0.500000 0.250000
O O14 0.000000 0.260953 0.250000
O O15 0.052281 0.336522 0.000000
#
# Coordination Sequence:
#
# PCOD9392252 Si02
#       6
#     4   8   8   4   8   8
#     4  11  23  45  65  93 131 159 218 239 314 375
#     4  12  25  42  64  95 126 161 207 261 314 366
#     4  10  20  36  57  87 122 157 202 256 309 367
#     4  11  25  41  69  93 123 175 196 261 300 379
#     4  11  25  43  64  87 119 160 205 254 310 380
#     4  10  17  28  49  81 119 162 204 251 309 367
#
# _framework density 19.738150000000001
#
# number of rings (size 3 to 8) (size 9 to 14) (size 15 to 20)
#    0.000    1.200    1.000    7.800    1.400    5.600 
#    0.000    0.000    0.000    0.600    0.000    4.200 
#    0.000    0.000    0.000    0.000    0.000    0.000 
#
# Total GULP energy -223104.635616 kJ/mol
# GULP energy per Si atom -5577.615890 kJ/mol
# Density = 1.969323 g / cm^3
# Si number density = 19.738150 Si / 1000 Ang^3
#
#
#
# Elastic Constant Matrix: (Units=GPa)
#
#
# Indices 1 2 3 4 5 6 
#
# 1 110.6082 35.7520 21.1347 0.0000 0.0000 0.0000
# 2 35.7520 87.5048 15.2515 0.0000 0.0000 0.0000
# 3 21.1347 15.2515 98.6616 0.0000 0.0000 0.0000
# 4 0.0000 0.0000 0.0000 12.6637 0.0000 0.0000
# 5 0.0000 0.0000 0.0000 0.0000 34.5732 0.0000
# 6 0.0000 0.0000 0.0000 0.0000 0.0000 -33.6190
#
#
#
# Elastic Compliance Matrix: (Units=1/GPa)
#
#
# Indices 1 2 3 4 5 6 
#
# 1 0.010674 -0.004072 -0.001657 0.000000 0.000000 0.000000
# 2 -0.004072 0.013298 -0.001183 0.000000 0.000000 0.000000
# 3 -0.001657 -0.001183 0.010674 0.000000 0.000000 0.000000
# 4 0.000000 0.000000 0.000000 0.078966 0.000000 0.000000
# 5 0.000000 0.000000 0.000000 0.000000 0.028924 0.000000
# 6 0.000000 0.000000 0.000000 0.000000 0.000000 -0.029745
#
#
# Mechanical properties :
#
#
# Convention : Reuss Voigt Hill
#
# Bulk Modulus (GPa) = 48.03012 49.00565 48.51788
# Shear Modulus (GPa) = 37.43766 17.69934 27.56850
#
# Velocity S-wave (km/s) = 4.35985 2.99776 3.74131
# Velocity P-wave (km/s) = 7.05201 6.07156 6.58007
#
# Compressibility (1/GPa) = 0.02082027
#
# Stress axis : x y z
#
# Youngs Moduli (GPa) = 93.68736 75.19937 93.68979
#
# Poissons Ratio (x) = 0.30623 0.15524
# Poissons Ratio (y) = 0.38151 0.11087
# Poissons Ratio (z) = 0.15524 0.08899
#
# Static dielectric constant tensor:
#      x y z
#    x 1.722800 0.000000 0.000000 
#    y 0.000000 1.701610 0.000000 
#    z 0.000000 0.000000 1.684960 
# 
# From -- ./inp_files/6684.got.cif
#   From: 2010.05.17/outbox.cif.g08.bks.cpg/sg49_4_cif.got.tgz:6684.got - 2010.06.03 21:02:19.
