data_PCOD9392508
_publ_section_title
;
Structure prediction by ZEFSAII (Michael W. Deem and Ramdas Pophale) SiO2 
 PCOD9392508
Probable space group: P C C M
;
_chemical_formula_sum "Si O2"
_cell_formula_units_Z 52
_cell_length_a 13.221246
_cell_length_b 9.003381
_cell_length_c 21.824003
_cell_angle_alpha 90.000000
_cell_angle_beta 90.000000
_cell_angle_gamma 90.000000
_cell_volume 2597.840167
_symmetry_space_group_name_H-M "P C C M"
_symmetry_group_IT_number 49
_symmetry_cell_setting 'orthorhombic'
loop_
_space_group_symop_operation_xyz
x,y,z
-x,-y,z
x,-y,1/2-z
-x,y,1/2-z
-x,-y,-z
x,y,-z
-x,y,1/2+z
x,-y,1/2+z
loop_
_atom_site_type_symbol
_atom_site_label
_atom_site_fract_x
_atom_site_fract_y
_atom_site_fract_z
Si Si1 0.180721 0.083864 0.429149
Si Si2 0.909519 0.618905 0.432626
Si Si3 0.540594 0.169462 0.430038
Si Si4 0.335446 0.000000 0.750000
Si Si5 0.752534 0.175286 0.360017
Si Si6 0.637319 0.235299 0.151317
Si Si7 0.216663 0.509296 0.180252
O O1 0.211038 0.061882 0.500000
O O2 0.087519 0.200580 0.429278
O O3 0.274586 0.160082 0.391480
O O4 0.167154 0.924933 0.396875
O O5 0.856418 0.595653 0.500000
O O6 0.855515 0.583520 0.369278
O O7 0.000000 0.500000 0.434574
O O8 0.545017 0.220432 0.500000
O O9 0.649736 0.169649 0.399357
O O10 0.460336 0.260560 0.390109
O O11 0.500000 0.000000 0.429341
O O12 0.267662 0.097539 0.795162
O O13 0.390234 0.116750 0.704876
O O14 0.772674 0.344862 0.345998
O O15 0.683632 0.386086 0.178854
O O16 0.179907 0.500000 0.250000
#
# Coordination Sequence:
#
# PCOD9392508 Si02
#       7
#     8   8   8   4   8   8   8
#     4   9  17  33  58  85 115 152 200 245 295 360
#     4   9  20  40  65  91 119 156 196 239 302 380
#     4  11  21  34  54  79 111 152 208 257 296 355
#     4  10  18  33  52  76 103 148 196 240 285 350
#     4  11  22  34  55  84 115 156 199 249 298 356
#     4  10  20  34  54  79 112 158 200 250 305 358
#     4  11  23  40  58  88 122 155 198 252 317 373
#
# _framework density 20.016628000000001
#
# number of rings (size 3 to 8) (size 9 to 14) (size 15 to 20)
#    0.000    1.846    4.615    0.923    0.000    4.000 
#    0.000    2.308    0.000    2.769    0.000    0.000 
#    0.000    0.000    0.000    0.000    0.000    0.000 
#
# Total GULP energy -289598.790155 kJ/mol
# GULP energy per Si atom -5569.207503 kJ/mol
# Density = 1.997107 g / cm^3
# Si number density = 20.016628 Si / 1000 Ang^3
#
#
#
# Elastic Constant Matrix: (Units=GPa)
#
#
# Indices 1 2 3 4 5 6 
#
# 1 30.4393 15.6312 24.0476 0.0000 0.0000 0.0000
# 2 15.6312 119.5688 46.3843 0.0000 0.0000 0.0000
# 3 24.0476 46.3843 159.6381 0.0000 0.0000 0.0000
# 4 0.0000 0.0000 0.0000 21.6544 0.0000 0.0000
# 5 0.0000 0.0000 0.0000 0.0000 27.9028 0.0000
# 6 0.0000 0.0000 0.0000 0.0000 0.0000 12.0129
#
#
#
# Elastic Compliance Matrix: (Units=1/GPa)
#
#
# Indices 1 2 3 4 5 6 
#
# 1 0.038296 -0.003120 -0.004862 0.000000 0.000000 0.000000
# 2 -0.003120 0.009680 -0.002343 0.000000 0.000000 0.000000
# 3 -0.004862 -0.002343 0.007677 0.000000 0.000000 0.000000
# 4 0.000000 0.000000 0.000000 0.046180 0.000000 0.000000
# 5 0.000000 0.000000 0.000000 0.000000 0.035839 0.000000
# 6 0.000000 0.000000 0.000000 0.000000 0.000000 0.083244
#
#
# Mechanical properties :
#
#
# Convention : Reuss Voigt Hill
#
# Bulk Modulus (GPa) = 28.56892 53.53026 41.04959
# Shear Modulus (GPa) = 19.74466 27.21957 23.48212
#
# Velocity S-wave (km/s) = 3.14413 3.69161 3.42881
# Velocity P-wave (km/s) = 5.24255 6.70609 6.01897
#
# Compressibility (1/GPa) = 0.03500308
#
# Stress axis : x y z
#
# Youngs Moduli (GPa) = 26.11256 103.30523 130.25466
#
# Poissons Ratio (x) = 0.32233 0.63332
# Poissons Ratio (y) = 0.08148 0.30514
# Poissons Ratio (z) = 0.12696 0.24200
#
# Static dielectric constant tensor:
#      x y z
#    x 1.721450 0.000000 0.000000 
#    y 0.000000 1.790320 0.000000 
#    z 0.000000 0.000000 1.746080 
# 
# From -- ./inp_files/20795.got.cif
#   From: 2010.05.17/outbox.cif.g08.bks.cpg/sg49_11_cif.got.tgz:20795.got - 2010.06.03 21:02:19.
