data_PCOD9392812
_publ_section_title
;
Structure prediction by ZEFSAII (Michael W. Deem and Ramdas Pophale) SiO2 
 PCOD9392812
Probable space group: P C C M
;
_chemical_formula_sum "Si O2"
_cell_formula_units_Z 56
_cell_length_a 30.906470
_cell_length_b 5.322320
_cell_length_c 14.729555
_cell_angle_alpha 90.000000
_cell_angle_beta 90.000000
_cell_angle_gamma 90.000000
_cell_volume 2422.925238
_symmetry_space_group_name_H-M "P C C M"
_symmetry_group_IT_number 49
_symmetry_cell_setting 'orthorhombic'
loop_
_space_group_symop_operation_xyz
x,y,z
-x,-y,z
x,-y,1/2-z
-x,y,1/2-z
-x,-y,-z
x,y,-z
-x,y,1/2+z
x,-y,1/2+z
loop_
_atom_site_type_symbol
_atom_site_label
_atom_site_fract_x
_atom_site_fract_y
_atom_site_fract_z
Si Si1 0.254782 0.368252 0.110351
Si Si2 0.401643 0.004854 0.641393
Si Si3 0.154944 0.547774 0.644647
Si Si4 0.449889 0.500324 0.361024
Si Si5 0.698515 0.127327 0.108356
Si Si6 0.026992 0.745552 0.107968
Si Si7 0.879765 0.945326 0.352393
O O1 0.204948 0.384120 0.137866
O O2 0.283205 0.606545 0.142424
O O3 0.274574 0.108237 0.144457
O O4 0.256108 0.366179 0.000000
O O5 0.428416 0.242830 0.607337
O O6 0.351581 0.061647 0.622988
O O7 0.406430 0.000000 0.750000
O O8 0.421884 0.741625 0.608972
O O9 0.142996 0.500000 0.750000
O O10 0.148538 0.272013 0.602415
O O11 0.125474 0.775519 0.606522
O O12 0.500000 0.500000 0.388045
O O13 0.449226 0.500000 0.250000
O O14 0.704885 0.135935 0.000000
O O15 0.073018 0.817767 0.150635
O O16 0.000000 0.500000 0.139751
O O17 0.034645 0.708401 0.000000
O O18 0.000000 0.000000 0.120125
O O19 0.864425 0.000000 0.250000
#
# Coordination Sequence:
#
# PCOD9392812 Si02
#       7
#     8   8   8   8   8   8   8
#     4  10  21  36  54  76 101 135 176 211 254 313
#     4  10  19  31  51  76  98 129 171 208 250 306
#     4  10  21  36  55  79 108 138 172 218 265 308
#     4   9  17  30  49  74 102 129 163 210 256 299
#     4  10  21  36  52  73 104 136 167 210 259 306
#     4  10  21  37  57  82 111 143 182 226 267 309
#     4  10  21  37  55  80 111 142 176 215 265 321
#
# _framework density 23.112558
#
# number of rings (size 3 to 8) (size 9 to 14) (size 15 to 20)
#    0.000    2.143    0.000    3.000    0.000    4.286 
#    0.000    0.714    0.000    2.571    0.000    0.000 
#    0.000    0.000    0.000    0.000    0.000    0.000 
#
# Total GULP energy -312812.035901 kJ/mol
# GULP energy per Si atom -5585.929213 kJ/mol
# Density = 2.305995 g / cm^3
# Si number density = 23.112558 Si / 1000 Ang^3
#
#
#
# Elastic Constant Matrix: (Units=GPa)
#
#
# Indices 1 2 3 4 5 6 
#
# 1 117.5945 58.3622 -0.6521 0.0000 0.0000 0.0000
# 2 58.3622 205.1273 30.4158 0.0000 0.0000 0.0000
# 3 -0.6521 30.4158 67.1830 0.0000 0.0000 0.0000
# 4 0.0000 0.0000 0.0000 -11.4085 0.0000 0.0000
# 5 0.0000 0.0000 0.0000 0.0000 46.1835 0.0000
# 6 0.0000 0.0000 0.0000 0.0000 0.0000 26.3109
#
#
#
# Elastic Compliance Matrix: (Units=1/GPa)
#
#
# Indices 1 2 3 4 5 6 
#
# 1 0.010039 -0.003077 0.001491 0.000000 0.000000 0.000000
# 2 -0.003077 0.006169 -0.002823 0.000000 0.000000 0.000000
# 3 0.001491 -0.002823 0.016177 0.000000 0.000000 0.000000
# 4 0.000000 0.000000 0.000000 -0.087654 0.000000 0.000000
# 5 0.000000 0.000000 0.000000 0.000000 0.021653 0.000000
# 6 0.000000 0.000000 0.000000 0.000000 0.000000 0.038007
#
#
# Mechanical properties :
#
#
# Convention : Reuss Voigt Hill
#
# Bulk Modulus (GPa) = 42.43294 62.90627 52.66961
# Shear Modulus (GPa) = 237.34749 32.33579 134.84164
#
# Velocity S-wave (km/s) = 10.14470 3.74446 7.64643
# Velocity P-wave (km/s) = 12.47474 6.78019 10.03967
#
# Compressibility (1/GPa) = 0.02356660
#
# Stress axis : x y z
#
# Youngs Moduli (GPa) = 99.60773 162.09663 61.81550
#
# Poissons Ratio (x) = 0.49884 -0.09215
# Poissons Ratio (y) = 0.30653 0.17450
# Poissons Ratio (z) = -0.14848 0.45757
#
# Static dielectric constant tensor:
#      x y z
#    x 1.632760 0.000000 0.000000 
#    y 0.000000 1.908380 0.000000 
#    z 0.000000 0.000000 1.905320 
# 
# From -- ./inp_files/14630.got.cif
#   From: 2010.05.17/outbox.cif.g08.bks.cpg/sg49_8_cif.got.tgz:14630.got - 2010.06.03 21:02:19.
