data_PCOD9392010
_publ_section_title
;
Structure prediction by ZEFSAII (Michael W. Deem and Ramdas Pophale) SiO2 
 PCOD9392010
Probable space group: P C C M
;
_chemical_formula_sum "Si O2"
_cell_formula_units_Z 64
_cell_length_a 14.694180
_cell_length_b 32.139312
_cell_length_c 8.722272
_cell_angle_alpha 90.000000
_cell_angle_beta 90.000000
_cell_angle_gamma 90.000000
_cell_volume 4119.187463
_symmetry_space_group_name_H-M "P C C M"
_symmetry_group_IT_number 49
_symmetry_cell_setting 'orthorhombic'
loop_
_space_group_symop_operation_xyz
x,y,z
-x,-y,z
x,-y,1/2-z
-x,y,1/2-z
-x,-y,-z
x,y,-z
-x,y,1/2+z
x,-y,1/2+z
loop_
_atom_site_type_symbol
_atom_site_label
_atom_site_fract_x
_atom_site_fract_y
_atom_site_fract_z
Si Si1 0.602306 0.219952 0.316559
Si Si2 0.095988 0.576001 0.316079
Si Si3 0.282329 0.704581 0.183526
Si Si4 0.601015 0.377283 0.815942
Si Si5 0.396623 0.042595 0.683272
Si Si6 0.291614 0.544086 0.315674
Si Si7 0.903122 0.673566 0.183660
Si Si8 0.397648 0.872923 0.683389
O O1 0.500000 0.223905 0.250000
O O2 0.596590 0.224067 0.500000
O O3 0.666054 0.255360 0.248169
O O4 0.639178 0.173242 0.282722
O O5 0.090896 0.574328 0.500000
O O6 0.186571 0.552025 0.266648
O O7 0.107404 0.624675 0.271343
O O8 0.000000 0.560837 0.250000
O O9 0.340126 0.663382 0.225998
O O10 0.181851 0.698624 0.250792
O O11 0.278262 0.706796 0.000000
O O12 0.500000 0.373120 0.750000
O O13 0.648958 0.418019 0.747670
O O14 0.597854 0.380294 0.000000
O O15 0.500000 0.043279 0.750000
O O16 0.400185 0.041138 0.500000
O O17 0.354208 0.086083 0.740933
O O18 0.354932 0.000000 0.750000
O O19 0.322718 0.500000 0.250000
O O20 0.295177 0.544042 0.500000
O O21 0.000000 0.687559 0.250000
O O22 0.903905 0.675591 0.000000
O O23 0.500000 0.871017 0.750000
O O24 0.401189 0.878589 0.500000
#
# Coordination Sequence:
#
# PCOD9392010 Si02
#       8
#     8   8   8   8   8   8   8   8
#     4  10  20  32  47  67  94 127 162 202 245 288
#     4   9  19  34  55  79 104 131 154 184 222 267
#     4  11  22  35  54  78 101 127 159 194 235 281
#     4  11  24  40  58  78  99 126 158 196 234 274
#     4  10  16  22  33  49  71 102 143 192 241 286
#     4  11  23  40  58  79 103 129 158 190 229 273
#     4  10  19  34  55  79 104 129 156 188 229 275
#     4   9  16  26  38  54  78 110 149 193 240 285
#
# _framework density 15.537045000000001
#
# number of rings (size 3 to 8) (size 9 to 14) (size 15 to 20)
#    0.000    1.875    1.250    4.875    0.000    6.000 
#    0.000    2.500    0.000    0.000    0.000    0.000 
#    0.000    0.000    0.000    0.000    0.000    0.625 
#
# Total GULP energy -357106.329480 kJ/mol
# GULP energy per Si atom -5579.786398 kJ/mol
# Density = 1.550168 g / cm^3
# Si number density = 15.537045 Si / 1000 Ang^3
#
#
#
# Elastic Constant Matrix: (Units=GPa)
#
#
# Indices 1 2 3 4 5 6 
#
# 1 82.7797 52.1989 33.4981 0.0000 0.0000 0.0000
# 2 52.1989 141.5688 57.4495 0.0000 0.0000 0.0000
# 3 33.4981 57.4495 72.8998 0.0000 0.0000 0.0000
# 4 0.0000 0.0000 0.0000 24.4779 0.0000 0.0000
# 5 0.0000 0.0000 0.0000 0.0000 23.0575 0.0000
# 6 0.0000 0.0000 0.0000 0.0000 0.0000 -0.6455
#
#
#
# Elastic Compliance Matrix: (Units=1/GPa)
#
#
# Indices 1 2 3 4 5 6 
#
# 1 0.016536 -0.004430 -0.004107 0.000000 0.000000 0.000000
# 2 -0.004430 0.011572 -0.007083 0.000000 0.000000 0.000000
# 3 -0.004107 -0.007083 0.021187 0.000000 0.000000 0.000000
# 4 0.000000 0.000000 0.000000 0.040853 0.000000 0.000000
# 5 0.000000 0.000000 0.000000 0.000000 0.043370 0.000000
# 6 0.000000 0.000000 0.000000 0.000000 0.000000 -1.549306
#
#
# Mechanical properties :
#
#
# Convention : Reuss Voigt Hill
#
# Bulk Modulus (GPa) = 55.39290 64.83794 60.11542
# Shear Modulus (GPa) = -3.62705 19.65144 8.01219
#
# Velocity S-wave (km/s) = -1.52955 3.56028 2.27333
# Velocity P-wave (km/s) = 5.71053 7.66306 6.75769
#
# Compressibility (1/GPa) = 0.01805285
#
# Stress axis : x y z
#
# Youngs Moduli (GPa) = 60.47438 86.41695 47.19916
#
# Poissons Ratio (x) = 0.38287 0.19384
# Poissons Ratio (y) = 0.26793 0.33433
# Poissons Ratio (z) = 0.24836 0.61213
#
# Static dielectric constant tensor:
#      x y z
#    x 1.488450 0.000000 0.000000 
#    y 0.000000 1.556150 0.000000 
#    z 0.000000 0.000000 1.518970 
# 
# From -- ./inp_files/4520.got.cif
#   From: 2010.05.17/outbox.cif.g08.bks.cpg/sg49_3_cif.got.tgz:4520.got - 2010.06.03 21:02:19.
