data_PCOD9392074
_publ_section_title
;
Structure prediction by ZEFSAII (Michael W. Deem and Ramdas Pophale) SiO2 
 PCOD9392074
Probable space group: P C C M
;
_chemical_formula_sum "Si O2"
_cell_formula_units_Z 40
_cell_length_a 21.498581
_cell_length_b 5.364688
_cell_length_c 14.495273
_cell_angle_alpha 90.000000
_cell_angle_beta 90.000000
_cell_angle_gamma 90.000000
_cell_volume 1671.785923
_symmetry_space_group_name_H-M "P C C M"
_symmetry_group_IT_number 49
_symmetry_cell_setting 'orthorhombic'
loop_
_space_group_symop_operation_xyz
x,y,z
-x,-y,z
x,-y,1/2-z
-x,y,1/2-z
-x,-y,-z
x,y,-z
-x,y,1/2+z
x,-y,1/2+z
loop_
_atom_site_type_symbol
_atom_site_label
_atom_site_fract_x
_atom_site_fract_y
_atom_site_fract_z
Si Si1 0.473072 0.244447 0.144691
Si Si2 0.667400 0.948884 0.143387
Si Si3 0.067958 0.899195 0.612467
Si Si4 0.281778 0.458959 0.643960
Si Si5 0.862447 0.604908 0.388193
O O1 0.500000 0.500000 0.105269
O O2 0.500000 0.246785 0.250000
O O3 0.400149 0.183473 0.143843
O O4 0.500000 0.000000 0.098811
O O5 0.709476 0.732741 0.101298
O O6 0.684570 0.000000 0.250000
O O7 0.678526 0.226731 0.104292
O O8 0.066214 0.884466 0.500000
O O9 0.112258 0.126097 0.640337
O O10 0.095027 0.630617 0.643191
O O11 0.000000 0.000000 0.640705
O O12 0.302485 0.500000 0.750000
O O13 0.208889 0.406720 0.641717
O O14 0.863603 0.598173 0.500000
#
# Coordination Sequence:
#
# PCOD9392074 Si02
#       5
#     8   8   8   8   8
#     4  10  17  24  41  63  92 125 150 198 243 293
#     4  10  18  30  43  66  97 133 160 192 245 296
#     4   9  17  30  52  78  99 121 158 211 256 285
#     4  10  21  32  48  67 100 138 161 196 239 298
#     4  10  19  33  52  74  99 128 166 202 240 293
#
# _framework density 23.926506
#
# number of rings (size 3 to 8) (size 9 to 14) (size 15 to 20)
#    0.000    2.200    2.000    3.000    5.600    2.400 
#    0.000    0.000    0.000    3.600    0.000    0.000 
#    0.000   16.000    0.000    0.000    0.000    0.800 
#
# Total GULP energy -223093.428952 kJ/mol
# GULP energy per Si atom -5577.335724 kJ/mol
# Density = 2.387205 g / cm^3
# Si number density = 23.926506 Si / 1000 Ang^3
#
#
#
# Elastic Constant Matrix: (Units=GPa)
#
#
# Indices 1 2 3 4 5 6 
#
# 1 113.0778 45.7591 -9.1823 0.0000 0.0000 0.0000
# 2 45.7591 230.9490 17.3304 0.0000 0.0000 0.0000
# 3 -9.1823 17.3304 88.9302 0.0000 0.0000 0.0000
# 4 0.0000 0.0000 0.0000 -8.2967 0.0000 0.0000
# 5 0.0000 0.0000 0.0000 0.0000 19.6318 0.0000
# 6 0.0000 0.0000 0.0000 0.0000 0.0000 53.4688
#
#
#
# Elastic Compliance Matrix: (Units=1/GPa)
#
#
# Indices 1 2 3 4 5 6 
#
# 1 0.009785 -0.002045 0.001409 0.000000 0.000000 0.000000
# 2 -0.002045 0.004821 -0.001151 0.000000 0.000000 0.000000
# 3 0.001409 -0.001151 0.011614 0.000000 0.000000 0.000000
# 4 0.000000 0.000000 0.000000 -0.120530 0.000000 0.000000
# 5 0.000000 0.000000 0.000000 0.000000 0.050938 0.000000
# 6 0.000000 0.000000 0.000000 0.000000 0.000000 0.018702
#
#
# Mechanical properties :
#
#
# Convention : Reuss Voigt Hill
#
# Bulk Modulus (GPa) = 44.15350 60.08573 52.11961
# Shear Modulus (GPa) = -369.10173 38.23077 -165.43548
#
# Velocity S-wave (km/s) = -12.43381 4.00164 -8.32426
# Velocity P-wave (km/s) = 13.69814 6.82041 8.40003
#
# Compressibility (1/GPa) = 0.02264826
#
# Stress axis : x y z
#
# Youngs Moduli (GPa) = 102.19496 207.40879 86.09946
#
# Poissons Ratio (x) = 0.42405 -0.12129
# Poissons Ratio (y) = 0.20894 0.09907
# Poissons Ratio (z) = -0.14397 0.23866
#
# Static dielectric constant tensor:
#      x y z
#    x 1.938470 0.000000 0.000000 
#    y 0.000000 1.955200 0.000000 
#    z 0.000000 0.000000 1.918140 
# 
# From -- ./inp_files/20973.got.cif
#   From: 2010.05.17/outbox.cif.g08.bks.cpg/sg49_11_cif.got.tgz:20973.got - 2010.06.03 21:02:19.
