data_PCOD9392124
_publ_section_title
;
Structure prediction by ZEFSAII (Michael W. Deem and Ramdas Pophale) SiO2 
 PCOD9392124
Probable space group: P C C M
;
_chemical_formula_sum "Si O2"
_cell_formula_units_Z 64
_cell_length_a 13.670074
_cell_length_b 24.687555
_cell_length_c 9.000873
_cell_angle_alpha 90.000000
_cell_angle_beta 90.000000
_cell_angle_gamma 90.000000
_cell_volume 3037.620954
_symmetry_space_group_name_H-M "P C C M"
_symmetry_group_IT_number 49
_symmetry_cell_setting 'orthorhombic'
loop_
_space_group_symop_operation_xyz
x,y,z
-x,-y,z
x,-y,1/2-z
-x,y,1/2-z
-x,-y,-z
x,y,-z
-x,y,1/2+z
x,-y,1/2+z
loop_
_atom_site_type_symbol
_atom_site_label
_atom_site_fract_x
_atom_site_fract_y
_atom_site_fract_z
Si Si1 0.816104 0.715131 0.822089
Si Si2 0.397961 0.329000 0.821616
Si Si3 0.400789 0.840481 0.828501
Si Si4 0.818208 0.822237 0.667956
Si Si5 0.393457 0.949169 0.325137
Si Si6 0.107106 0.942347 0.179626
Si Si7 0.100981 0.600031 0.679061
Si Si8 0.687249 0.555665 0.821627
O O1 0.702265 0.702247 0.781019
O O2 0.856015 0.772267 0.763968
O O3 0.877595 0.662414 0.774468
O O4 0.817069 0.716365 0.000000
O O5 0.500000 0.310799 0.750000
O O6 0.375643 0.391522 0.779781
O O7 0.407533 0.325341 0.000000
O O8 0.500000 0.819296 0.750000
O O9 0.298636 0.810033 0.837758
O O10 0.364420 0.890357 0.726620
O O11 0.425915 0.856569 0.000000
O O12 0.856501 0.818250 0.500000
O O13 0.839985 0.884686 0.713558
O O14 0.500000 0.949234 0.250000
O O15 0.395866 0.955999 0.500000
O O16 0.341675 0.000000 0.250000
O O17 0.000000 0.935337 0.250000
O O18 0.140675 0.000000 0.250000
O O19 0.106446 0.948410 0.000000
O O20 0.093757 0.598450 0.500000
O O21 0.199486 0.567675 0.721268
O O22 0.000000 0.580704 0.750000
O O23 0.653430 0.500000 0.750000
O O24 0.684441 0.551862 0.000000
#
# Coordination Sequence:
#
# PCOD9392124 Si02
#       8
#     8   8   8   8   8   8   8   8
#     4   9  20  38  57  78 109 145 184 229 281 336
#     4   9  19  36  56  80 111 151 196 243 288 333
#     4  10  20  35  50  70 101 135 170 210 252 302
#     4  10  23  39  57  83 114 143 179 226 276 331
#     4  10  17  27  43  63  87 119 157 196 237 285
#     4  10  21  40  63  88 114 142 176 219 272 333
#     4   9  19  36  56  80 110 146 185 230 280 336
#     4   9  19  35  53  78 116 154 193 238 285 334
#
# _framework density 21.069120000000002
#
# number of rings (size 3 to 8) (size 9 to 14) (size 15 to 20)
#    0.000    2.500    0.000    4.875    0.000    6.000 
#    0.000   11.250    0.000    0.000    0.000    0.000 
#    0.000    0.000    0.000    0.000    0.000    0.000 
#
# Total GULP energy -356426.001408 kJ/mol
# GULP energy per Si atom -5569.156272 kJ/mol
# Density = 2.102117 g / cm^3
# Si number density = 21.069120 Si / 1000 Ang^3
#
#
#
# Elastic Constant Matrix: (Units=GPa)
#
#
# Indices 1 2 3 4 5 6 
#
# 1 80.2820 -0.7841 13.7303 0.0000 0.0000 0.0000
# 2 -0.7841 120.8824 36.4691 0.0000 0.0000 0.0000
# 3 13.7303 36.4691 71.4403 0.0000 0.0000 0.0000
# 4 0.0000 0.0000 0.0000 -275.1972 0.0000 0.0000
# 5 0.0000 0.0000 0.0000 0.0000 -19.4143 0.0000
# 6 0.0000 0.0000 0.0000 0.0000 0.0000 0.9492
#
#
#
# Elastic Compliance Matrix: (Units=1/GPa)
#
#
# Indices 1 2 3 4 5 6 
#
# 1 0.012979 0.000989 -0.002999 0.000000 0.000000 0.000000
# 2 0.000989 0.009854 -0.005220 0.000000 0.000000 0.000000
# 3 -0.002999 -0.005220 0.017239 0.000000 0.000000 0.000000
# 4 0.000000 0.000000 0.000000 -0.003634 0.000000 0.000000
# 5 0.000000 0.000000 0.000000 0.000000 -0.051509 0.000000
# 6 0.000000 0.000000 0.000000 0.000000 0.000000 1.053537
#
#
# Mechanical properties :
#
#
# Convention : Reuss Voigt Hill
#
# Bulk Modulus (GPa) = 39.04657 41.27059 40.15858
# Shear Modulus (GPa) = 4.71047 -43.85315 -19.57134
#
# Velocity S-wave (km/s) = 1.49686 -4.56718 -3.05111
# Velocity P-wave (km/s) = 4.64330 2.86032 2.58639
#
# Compressibility (1/GPa) = 0.02561044
#
# Stress axis : x y z
#
# Youngs Moduli (GPa) = 77.04929 101.48338 58.00798
#
# Poissons Ratio (x) = -0.10037 0.17398
# Poissons Ratio (y) = -0.07621 0.30282
# Poissons Ratio (z) = 0.23109 0.52977
#
# Static dielectric constant tensor:
#      x y z
#    x 1.788900 0.000000 0.000000 
#    y 0.000000 1.903220 0.000000 
#    z 0.000000 0.000000 1.695550 
# 
# From -- ./inp_files/4368.got.cif
#   From: 2010.05.17/outbox.cif.g08.bks.cpg/sg49_3_cif.got.tgz:4368.got - 2010.06.03 21:02:19.
