data_PCOD9392678
_publ_section_title
;
Structure prediction by ZEFSAII (Michael W. Deem and Ramdas Pophale) SiO2 
 PCOD9392678
Probable space group: P C C M
;
_chemical_formula_sum "Si O2"
_cell_formula_units_Z 64
_cell_length_a 20.523066
_cell_length_b 20.433430
_cell_length_c 8.650025
_cell_angle_alpha 90.000000
_cell_angle_beta 90.000000
_cell_angle_gamma 90.000000
_cell_volume 3627.445355
_symmetry_space_group_name_H-M "P C C M"
_symmetry_group_IT_number 49
_symmetry_cell_setting 'orthorhombic'
loop_
_space_group_symop_operation_xyz
x,y,z
-x,-y,z
x,-y,1/2-z
-x,y,1/2-z
-x,-y,-z
x,y,-z
-x,y,1/2+z
x,-y,1/2+z
loop_
_atom_site_type_symbol
_atom_site_label
_atom_site_fract_x
_atom_site_fract_y
_atom_site_fract_z
Si Si1 0.247127 0.387382 0.683500
Si Si2 0.067999 0.289932 0.184881
Si Si3 0.429789 0.926840 0.184895
Si Si4 0.430866 0.711525 0.813969
Si Si5 0.101867 0.431145 0.682111
Si Si6 0.387821 0.567549 0.814899
Si Si7 0.334277 0.181058 0.814049
Si Si8 0.207870 0.751544 0.685381
O O1 0.254303 0.374083 0.500000
O O2 0.180239 0.426650 0.704370
O O3 0.312320 0.423618 0.735885
O O4 0.237851 0.318456 0.767718
O O5 0.075388 0.365614 0.237843
O O6 0.132967 0.251786 0.241302
O O7 0.000000 0.264201 0.250000
O O8 0.066648 0.288398 0.000000
O O9 0.500000 0.903545 0.250000
O O10 0.371948 0.879975 0.240772
O O11 0.420444 0.000000 0.250000
O O12 0.433064 0.928113 0.000000
O O13 0.500000 0.734671 0.750000
O O14 0.421797 0.635390 0.769531
O O15 0.374604 0.755330 0.740219
O O16 0.428046 0.716894 0.000000
O O17 0.078705 0.500000 0.750000
O O18 0.087727 0.427769 0.500000
O O19 0.414845 0.500000 0.750000
O O20 0.389516 0.563628 0.000000
O O21 0.259319 0.193358 0.763326
O O22 0.336459 0.175943 0.000000
O O23 0.205324 0.755020 0.500000
#
# Coordination Sequence:
#
# PCOD9392678 Si02
#       8
#     8   8   8   8   8   8   8   8
#     4   9  17  31  48  68  93 120 157 206 261 318
#     4  10  20  35  51  71  98 130 166 208 261 317
#     4  11  22  38  59  86 121 159 192 225 260 307
#     4  11  23  38  53  72  98 130 171 219 268 320
#     4  10  19  30  46  67  91 121 157 203 257 320
#     4  10  21  34  49  67  90 121 161 212 269 325
#     4  11  21  36  58  84 110 142 180 220 263 309
#     4   9  19  33  53  77 102 131 168 213 258 307
#
# _framework density 17.643270000000001
#
# number of rings (size 3 to 8) (size 9 to 14) (size 15 to 20)
#    0.000    1.875    1.250    3.750    0.000    3.500 
#    0.000    2.500    0.000    0.000    0.000    0.000 
#    0.000    0.500    0.000    5.750    0.000    1.750 
#
# Total GULP energy -357295.746731 kJ/mol
# GULP energy per Si atom -5582.746043 kJ/mol
# Density = 1.760311 g / cm^3
# Si number density = 17.643270 Si / 1000 Ang^3
#
#
#
# Elastic Constant Matrix: (Units=GPa)
#
#
# Indices 1 2 3 4 5 6 
#
# 1 130.8081 46.0167 37.3426 0.0000 0.0000 0.0000
# 2 46.0167 76.0745 28.2102 0.0000 0.0000 0.0000
# 3 37.3426 28.2102 54.3155 0.0000 0.0000 0.0000
# 4 0.0000 0.0000 0.0000 22.3709 0.0000 0.0000
# 5 0.0000 0.0000 0.0000 0.0000 18.6791 0.0000
# 6 0.0000 0.0000 0.0000 0.0000 0.0000 82.7384
#
#
#
# Elastic Compliance Matrix: (Units=1/GPa)
#
#
# Indices 1 2 3 4 5 6 
#
# 1 0.010684 -0.004631 -0.004940 0.000000 0.000000 0.000000
# 2 -0.004631 0.018288 -0.006314 0.000000 0.000000 0.000000
# 3 -0.004940 -0.006314 0.025087 0.000000 0.000000 0.000000
# 4 0.000000 0.000000 0.000000 0.044701 0.000000 0.000000
# 5 0.000000 0.000000 0.000000 0.000000 0.053536 0.000000
# 6 0.000000 0.000000 0.000000 0.000000 0.000000 0.012086
#
#
# Mechanical properties :
#
#
# Convention : Reuss Voigt Hill
#
# Bulk Modulus (GPa) = 44.86780 53.81524 49.34152
# Shear Modulus (GPa) = 24.56007 34.73292 29.64650
#
# Velocity S-wave (km/s) = 3.73505 4.44173 4.10363
# Velocity P-wave (km/s) = 6.63977 7.54144 7.10492
#
# Compressibility (1/GPa) = 0.02228770
#
# Stress axis : x y z
#
# Youngs Moduli (GPa) = 93.59617 54.68164 39.86109
#
# Poissons Ratio (x) = 0.25322 0.19693
# Poissons Ratio (y) = 0.43342 0.25170
# Poissons Ratio (z) = 0.46240 0.34529
#
# Static dielectric constant tensor:
#      x y z
#    x 1.655370 0.000000 0.000000 
#    y 0.000000 1.580510 0.000000 
#    z 0.000000 0.000000 1.597780 
# 
# From -- ./inp_files/6100.got.cif
#   From: 2010.05.17/outbox.cif.g08.bks.cpg/sg49_4_cif.got.tgz:6100.got - 2010.06.03 21:02:19.
