data_PCOD9392549
_publ_section_title
;
Structure prediction by ZEFSAII (Michael W. Deem and Ramdas Pophale) SiO2 
 PCOD9392549
Probable space group: P C C M
;
_chemical_formula_sum "Si O2"
_cell_formula_units_Z 58
_cell_length_a 13.907908
_cell_length_b 11.827687
_cell_length_c 19.038911
_cell_angle_alpha 90.000000
_cell_angle_beta 90.000000
_cell_angle_gamma 90.000000
_cell_volume 3131.870067
_symmetry_space_group_name_H-M "P C C M"
_symmetry_group_IT_number 49
_symmetry_cell_setting 'orthorhombic'
loop_
_space_group_symop_operation_xyz
x,y,z
-x,-y,z
x,-y,1/2-z
-x,y,1/2-z
-x,-y,-z
x,y,-z
-x,y,1/2+z
x,-y,1/2+z
loop_
_atom_site_type_symbol
_atom_site_label
_atom_site_fract_x
_atom_site_fract_y
_atom_site_fract_z
Si Si1 0.730362 0.990521 0.332908
Si Si2 0.741742 0.356110 0.083564
Si Si3 0.119659 0.807824 0.829021
Si Si4 0.089096 0.714632 0.677593
Si Si5 0.589944 0.826233 0.417071
Si Si6 0.000000 0.500000 0.250000
Si Si7 0.753008 0.613809 0.917053
Si Si8 0.633198 0.817410 0.083177
O O1 0.834885 0.931241 0.342799
O O2 0.654146 0.906073 0.368861
O O3 0.714064 0.000000 0.250000
O O4 0.705887 0.106772 0.371816
O O5 0.818099 0.280560 0.125726
O O6 0.637169 0.297857 0.091715
O O7 0.746279 0.485269 0.108556
O O8 0.763770 0.351724 0.000000
O O9 0.131527 0.777461 0.746237
O O10 0.007196 0.783393 0.843039
O O11 0.163495 0.688282 0.617182
O O12 0.058955 0.588456 0.703213
O O13 0.601187 0.856044 0.500000
O O14 0.478131 0.838001 0.399488
O O15 0.656974 0.685978 0.905157
O O16 0.769696 0.607707 0.000000
O O17 0.646541 0.841476 0.000000
#
# Coordination Sequence:
#
# PCOD9392549 Si02
#       8
#     8   8   8   8   8   2   8   8
#     4  11  21  35  55  78 101 129 172 224 265 300
#     4   9  18  33  54  81 107 131 167 214 260 307
#     4   9  20  35  54  75  99 136 174 213 260 307
#     4  10  18  34  52  75 105 136 176 212 256 317
#     4   9  19  36  56  77 103 136 172 210 258 314
#     4   8  16  28  54  76  94 130 168 210 260 310
#     4  10  20  33  51  77 108 138 169 209 255 304
#     4  10  21  36  53  74 104 141 173 205 254 315
#
# _framework density 18.519286999999998
#
# number of rings (size 3 to 8) (size 9 to 14) (size 15 to 20)
#    0.000    2.483    0.000    3.310    0.000    3.862 
#    0.000    9.310    0.000    1.655    0.000    3.862 
#    0.000    0.000    0.000    0.000    0.000    0.000 
#
# Total GULP energy -323245.099038 kJ/mol
# GULP energy per Si atom -5573.191363 kJ/mol
# Density = 1.847714 g / cm^3
# Si number density = 18.519287 Si / 1000 Ang^3
#
#
#
# Elastic Constant Matrix: (Units=GPa)
#
#
# Indices 1 2 3 4 5 6 
#
# 1 71.8120 51.0242 29.4814 0.0000 0.0000 0.0000
# 2 51.0242 86.0551 39.7429 0.0000 0.0000 0.0000
# 3 29.4814 39.7429 31.4646 0.0000 0.0000 0.0000
# 4 0.0000 0.0000 0.0000 15.5924 0.0000 0.0000
# 5 0.0000 0.0000 0.0000 0.0000 61.5126 0.0000
# 6 0.0000 0.0000 0.0000 0.0000 0.0000 20.9393
#
#
#
# Elastic Compliance Matrix: (Units=1/GPa)
#
#
# Indices 1 2 3 4 5 6 
#
# 1 0.025715 -0.009887 -0.011606 0.000000 0.000000 0.000000
# 2 -0.009887 0.031691 -0.030765 0.000000 0.000000 0.000000
# 3 -0.011606 -0.030765 0.081515 0.000000 0.000000 0.000000
# 4 0.000000 0.000000 0.000000 0.064134 0.000000 0.000000
# 5 0.000000 0.000000 0.000000 0.000000 0.016257 0.000000
# 6 0.000000 0.000000 0.000000 0.000000 0.000000 0.047757
#
#
# Mechanical properties :
#
#
# Convention : Reuss Voigt Hill
#
# Bulk Modulus (GPa) = 29.06511 47.75874 38.41193
# Shear Modulus (GPa) = 13.05303 24.21439 18.63371
#
# Velocity S-wave (km/s) = 2.65775 3.61989 3.17547
# Velocity P-wave (km/s) = 5.01466 6.58150 5.85076
#
# Compressibility (1/GPa) = 0.03440551
#
# Stress axis : x y z
#
# Youngs Moduli (GPa) = 38.88801 31.55473 12.26766
#
# Poissons Ratio (x) = 0.31199 0.14238
# Poissons Ratio (y) = 0.38449 0.37741
# Poissons Ratio (z) = 0.45132 0.97078
#
# Static dielectric constant tensor:
#      x y z
#    x 1.629770 0.000000 0.000000 
#    y 0.000000 1.673910 0.000000 
#    z 0.000000 0.000000 1.625090 
# 
# From -- ./inp_files/17909.got.cif
#   From: 2010.05.17/outbox.cif.g08.bks.cpg/sg49_9_cif.got.tgz:17909.got - 2010.06.03 21:02:19.
