data_PCOD9392326
_publ_section_title
;
Structure prediction by ZEFSAII (Michael W. Deem and Ramdas Pophale) SiO2 
 PCOD9392326
Probable space group: P C C M
;
_chemical_formula_sum "Si O2"
_cell_formula_units_Z 34
_cell_length_a 19.123071
_cell_length_b 5.378070
_cell_length_c 14.424395
_cell_angle_alpha 90.000000
_cell_angle_beta 90.000000
_cell_angle_gamma 90.000000
_cell_volume 1483.479997
_symmetry_space_group_name_H-M "P C C M"
_symmetry_group_IT_number 49
_symmetry_cell_setting 'orthorhombic'
loop_
_space_group_symop_operation_xyz
x,y,z
-x,-y,z
x,-y,1/2-z
-x,y,1/2-z
-x,-y,-z
x,y,-z
-x,y,1/2+z
x,-y,1/2+z
loop_
_atom_site_type_symbol
_atom_site_label
_atom_site_fract_x
_atom_site_fract_y
_atom_site_fract_z
Si Si1 0.686429 0.706461 0.357666
Si Si2 0.500000 0.000000 0.250000
Si Si3 0.077713 0.909362 0.386666
Si Si4 0.153107 0.596153 0.888944
Si Si5 0.370007 0.783395 0.651224
O O1 0.764434 0.606248 0.371470
O O2 0.637191 0.485292 0.393967
O O3 0.670904 0.746387 0.248826
O O4 0.666411 0.978860 0.396142
O O5 0.448320 0.845621 0.316224
O O6 0.077932 0.896758 0.500000
O O7 0.109631 0.644731 0.354653
O O8 0.125171 0.138730 0.355459
O O9 0.000000 0.000000 0.360535
O O10 0.143283 0.594399 0.000000
#
# Coordination Sequence:
#
# PCOD9392326 Si02
#       5
#     8   2   8   8   8
#     4   9  17  29  42  68  92 114 146 176 222 265
#     4   8  16  30  48  74  90 106 142 186 236 256
#     4   9  17  28  42  63  89 117 151 189 226 260
#     4  10  18  28  45  66  92 121 147 182 227 270
#     4   9  18  29  48  68  89 113 142 185 222 258
#
# _framework density 22.919082
#
# number of rings (size 3 to 8) (size 9 to 14) (size 15 to 20)
#    0.000    3.059    0.000    2.118    0.000   10.353 
#    0.000    0.000    0.000    0.000    0.000   76.588 
#    0.000    0.000    0.000    0.000    0.000    0.000 
#
# Total GULP energy -189543.412999 kJ/mol
# GULP energy per Si atom -5574.806265 kJ/mol
# Density = 2.286692 g / cm^3
# Si number density = 22.919082 Si / 1000 Ang^3
#
#
#
# Elastic Constant Matrix: (Units=GPa)
#
#
# Indices 1 2 3 4 5 6 
#
# 1 124.1435 73.2010 -17.6117 0.0000 0.0000 0.0000
# 2 73.2010 231.0180 14.6948 0.0000 0.0000 0.0000
# 3 -17.6117 14.6948 72.2485 0.0000 0.0000 0.0000
# 4 0.0000 0.0000 0.0000 -2.4373 0.0000 0.0000
# 5 0.0000 0.0000 0.0000 0.0000 4.9592 0.0000
# 6 0.0000 0.0000 0.0000 0.0000 0.0000 36.2454
#
#
#
# Elastic Compliance Matrix: (Units=1/GPa)
#
#
# Indices 1 2 3 4 5 6 
#
# 1 0.010639 -0.003582 0.003322 0.000000 0.000000 0.000000
# 2 -0.003582 0.005592 -0.002011 0.000000 0.000000 0.000000
# 3 0.003322 -0.002011 0.015060 0.000000 0.000000 0.000000
# 4 0.000000 0.000000 0.000000 -0.410293 0.000000 0.000000
# 5 0.000000 0.000000 0.000000 0.000000 0.201645 0.000000
# 6 0.000000 0.000000 0.000000 0.000000 0.000000 0.027590
#
#
# Mechanical properties :
#
#
# Convention : Reuss Voigt Hill
#
# Bulk Modulus (GPa) = 37.38531 63.10870 50.24701
# Shear Modulus (GPa) = -36.68130 31.56185 -2.55973
#
# Velocity S-wave (km/s) = -4.00493 3.71495 -1.05796
# Velocity P-wave (km/s) = 2.24469 6.78206 4.52536
#
# Compressibility (1/GPa) = 0.02674847
#
# Stress axis : x y z
#
# Youngs Moduli (GPa) = 93.99557 178.83744 66.40183
#
# Poissons Ratio (x) = 0.64066 -0.22059
# Poissons Ratio (y) = 0.33672 0.13350
# Poissons Ratio (z) = -0.31225 0.35956
#
# Static dielectric constant tensor:
#      x y z
#    x 1.873180 0.000000 0.000000 
#    y 0.000000 1.933670 0.000000 
#    z 0.000000 0.000000 1.695130 
# 
# From -- ./inp_files/23072.got.cif
#   From: 2010.05.17/outbox.cif.g08.bks.cpg/sg49_12_cif.got.tgz:23072.got - 2010.06.03 21:02:19.
