data_PCOD9392526
_publ_section_title
;
Structure prediction by ZEFSAII (Michael W. Deem and Ramdas Pophale) SiO2 
 PCOD9392526
Probable space group: P C C M
;
_chemical_formula_sum "Si O2"
_cell_formula_units_Z 64
_cell_length_a 16.307023
_cell_length_b 11.725770
_cell_length_c 17.085317
_cell_angle_alpha 90.000000
_cell_angle_beta 90.000000
_cell_angle_gamma 90.000000
_cell_volume 3266.924487
_symmetry_space_group_name_H-M "P C C M"
_symmetry_group_IT_number 49
_symmetry_cell_setting 'orthorhombic'
loop_
_space_group_symop_operation_xyz
x,y,z
-x,-y,z
x,-y,1/2-z
-x,y,1/2-z
-x,-y,-z
x,y,-z
-x,y,1/2+z
x,-y,1/2+z
loop_
_atom_site_type_symbol
_atom_site_label
_atom_site_fract_x
_atom_site_fract_y
_atom_site_fract_z
Si Si1 0.659246 0.683349 0.094000
Si Si2 0.213119 0.982469 0.091090
Si Si3 0.340906 0.425887 0.405889
Si Si4 0.476395 0.748537 0.094213
Si Si5 0.181449 0.716087 0.091295
Si Si6 0.358052 0.087448 0.687375
Si Si7 0.904786 0.629901 0.269769
Si Si8 0.216439 0.183215 0.196572
O O1 0.666144 0.553636 0.124815
O O2 0.571143 0.736043 0.115108
O O3 0.731966 0.755845 0.128982
O O4 0.662705 0.681278 0.000000
O O5 0.180262 0.853052 0.099702
O O6 0.308713 0.973120 0.116426
O O7 0.178343 0.071112 0.154906
O O8 0.203854 0.015659 0.000000
O O9 0.334741 0.432923 0.500000
O O10 0.428787 0.370074 0.390619
O O11 0.268145 0.340041 0.381408
O O12 0.426673 0.836567 0.147178
O O13 0.468784 0.772604 0.000000
O O14 0.111234 0.654588 0.139389
O O15 0.174566 0.692211 0.000000
O O16 0.284363 0.147250 0.738119
O O17 0.394122 0.000000 0.750000
O O18 0.879429 0.500000 0.250000
O O19 0.849132 0.726693 0.228679
O O20 0.000000 0.642302 0.250000
#
# Coordination Sequence:
#
# PCOD9392526 Si02
#       8
#     8   8   8   8   8   8   8   8
#     4  10  21  34  52  83 121 158 200 248 300 359
#     4  10  19  36  63  90 117 158 206 247 294 359
#     4   9  16  30  57  86 111 149 197 251 300 346
#     4  10  18  33  55  81 112 152 203 253 301 353
#     4  10  19  37  66  93 120 159 209 248 295 369
#     4  10  20  34  57  82 114 155 206 251 301 354
#     4  11  24  43  66  95 125 159 195 244 312 379
#     4  11  22  38  58  85 121 156 198 248 306 362
#
# _framework density 19.590291000000001
#
# number of rings (size 3 to 8) (size 9 to 14) (size 15 to 20)
#    0.000    1.875    2.500    1.875    0.000    2.000 
#    0.000    8.750    0.000   11.250    0.000    0.000 
#    0.000    0.000    0.000    0.000    0.000    0.000 
#
# Total GULP energy -357071.260909 kJ/mol
# GULP energy per Si atom -5579.238452 kJ/mol
# Density = 1.954570 g / cm^3
# Si number density = 19.590291 Si / 1000 Ang^3
#
#
#
# Elastic Constant Matrix: (Units=GPa)
#
#
# Indices 1 2 3 4 5 6 
#
# 1 67.9983 34.1883 27.8737 0.0000 0.0000 0.0000
# 2 34.1883 103.8298 50.9776 0.0000 0.0000 0.0000
# 3 27.8737 50.9776 71.2207 0.0000 0.0000 0.0000
# 4 0.0000 0.0000 0.0000 24.4344 0.0000 0.0000
# 5 0.0000 0.0000 0.0000 0.0000 20.2819 0.0000
# 6 0.0000 0.0000 0.0000 0.0000 0.0000 11.7965
#
#
#
# Elastic Compliance Matrix: (Units=1/GPa)
#
#
# Indices 1 2 3 4 5 6 
#
# 1 0.018491 -0.003909 -0.004439 0.000000 0.000000 0.000000
# 2 -0.003909 0.015676 -0.009691 0.000000 0.000000 0.000000
# 3 -0.004439 -0.009691 0.022714 0.000000 0.000000 0.000000
# 4 0.000000 0.000000 0.000000 0.040926 0.000000 0.000000
# 5 0.000000 0.000000 0.000000 0.000000 0.049305 0.000000
# 6 0.000000 0.000000 0.000000 0.000000 0.000000 0.084771
#
#
# Mechanical properties :
#
#
# Convention : Reuss Voigt Hill
#
# Bulk Modulus (GPa) = 48.06661 52.12533 50.09597
# Shear Modulus (GPa) = 18.18870 19.96983 19.07926
#
# Velocity S-wave (km/s) = 3.05036 3.19623 3.12415
# Velocity P-wave (km/s) = 6.08239 6.34718 6.21619
#
# Compressibility (1/GPa) = 0.02080446
#
# Stress axis : x y z
#
# Youngs Moduli (GPa) = 54.07937 63.79100 44.02528
#
# Poissons Ratio (x) = 0.24938 0.19542
# Poissons Ratio (y) = 0.21142 0.42663
# Poissons Ratio (z) = 0.24004 0.61817
#
# Static dielectric constant tensor:
#      x y z
#    x 1.656470 0.000000 0.000000 
#    y 0.000000 1.745800 0.000000 
#    z 0.000000 0.000000 1.720580 
# 
# From -- ./inp_files/17976.got.cif
#   From: 2010.05.17/outbox.cif.g08.bks.cpg/sg49_9_cif.got.tgz:17976.got - 2010.06.03 21:02:19.
