data_PCOD9392454
_publ_section_title
;
Structure prediction by ZEFSAII (Michael W. Deem and Ramdas Pophale) SiO2 
 PCOD9392454
Probable space group: P C C M
;
_chemical_formula_sum "Si O2"
_cell_formula_units_Z 64
_cell_length_a 10.300048
_cell_length_b 18.612096
_cell_length_c 14.081321
_cell_angle_alpha 90.000000
_cell_angle_beta 90.000000
_cell_angle_gamma 90.000000
_cell_volume 2699.466432
_symmetry_space_group_name_H-M "P C C M"
_symmetry_group_IT_number 49
_symmetry_cell_setting 'orthorhombic'
loop_
_space_group_symop_operation_xyz
x,y,z
-x,-y,z
x,-y,1/2-z
-x,y,1/2-z
-x,-y,-z
x,y,-z
-x,y,1/2+z
x,-y,1/2+z
loop_
_atom_site_type_symbol
_atom_site_label
_atom_site_fract_x
_atom_site_fract_y
_atom_site_fract_z
Si Si1 0.457708 0.684652 0.888538
Si Si2 0.885154 0.044893 0.347649
Si Si3 0.041297 0.642109 0.614884
Si Si4 0.999312 0.802508 0.615033
Si Si5 0.367261 0.972457 0.109404
Si Si6 0.301619 0.816512 0.883794
Si Si7 0.322203 0.576448 0.385887
Si Si8 0.774370 0.574022 0.610917
O O1 0.412324 0.761621 0.849050
O O2 0.571933 0.633576 0.848113
O O3 0.323731 0.640157 0.886363
O O4 0.493069 0.696509 0.000000
O O5 0.929336 0.127141 0.344509
O O6 0.873586 0.000000 0.250000
O O7 0.744683 0.031786 0.390536
O O8 0.000000 0.000000 0.398614
O O9 0.024374 0.644856 0.500000
O O10 0.052119 0.724965 0.644881
O O11 0.177885 0.605055 0.632662
O O12 0.914175 0.598798 0.651297
O O13 0.009450 0.809500 0.500000
O O14 0.847100 0.799238 0.640204
O O15 0.323289 0.897071 0.152487
O O16 0.500000 0.000000 0.150739
O O17 0.393574 0.953837 0.000000
O O18 0.304130 0.812890 0.000000
O O19 0.347973 0.573260 0.500000
O O20 0.308869 0.493993 0.353037
O O21 0.801118 0.555820 0.500000
#
# Coordination Sequence:
#
# PCOD9392454 Si02
#       8
#     8   8   8   8   8   8   8   8
#     4   9  15  23  35  53  81 122 169 206 248 304
#     4  11  23  37  55  79 105 136 174 219 271 333
#     4   9  16  25  38  60  86 121 169 215 261 307
#     4  10  18  31  53  74  96 132 177 224 270 318
#     4  10  21  36  56  81 105 134 174 220 274 332
#     4   9  16  28  46  67  94 127 167 220 264 307
#     4   9  16  22  32  54  88 125 164 213 254 297
#     4   9  14  22  34  51  81 125 171 207 248 303
#
# _framework density 23.708390000000001
#
# number of rings (size 3 to 8) (size 9 to 14) (size 15 to 20)
#    0.000    2.500    2.500    1.125    0.000    4.750 
#    0.000    3.750    0.000    0.000    0.000    0.000 
#    0.000    0.000    0.000   19.125    0.000   26.250 
#
# Total GULP energy -357225.222432 kJ/mol
# GULP energy per Si atom -5581.644100 kJ/mol
# Density = 2.365443 g / cm^3
# Si number density = 23.708390 Si / 1000 Ang^3
#
#
#
# Elastic Constant Matrix: (Units=GPa)
#
#
# Indices 1 2 3 4 5 6 
#
# 1 57.2310 29.4061 -5.5535 0.0000 0.0000 0.0000
# 2 29.4061 113.3924 -0.4139 0.0000 0.0000 0.0000
# 3 -5.5535 -0.4139 79.3869 0.0000 0.0000 0.0000
# 4 0.0000 0.0000 0.0000 -59.7009 0.0000 0.0000
# 5 0.0000 0.0000 0.0000 0.0000 0.4286 0.0000
# 6 0.0000 0.0000 0.0000 0.0000 0.0000 54.9087
#
#
#
# Elastic Compliance Matrix: (Units=1/GPa)
#
#
# Indices 1 2 3 4 5 6 
#
# 1 0.020312 -0.005262 0.001394 0.000000 0.000000 0.000000
# 2 -0.005262 0.010183 -0.000315 0.000000 0.000000 0.000000
# 3 0.001394 -0.000315 0.012692 0.000000 0.000000 0.000000
# 4 0.000000 0.000000 0.000000 -0.016750 0.000000 0.000000
# 5 0.000000 0.000000 0.000000 0.000000 2.333392 0.000000
# 6 0.000000 0.000000 0.000000 0.000000 0.000000 0.018212
#
#
# Mechanical properties :
#
#
# Convention : Reuss Voigt Hill
#
# Bulk Modulus (GPa) = 28.71991 32.98750 30.85371
# Shear Modulus (GPa) = 2.08506 14.23207 8.15856
#
# Velocity S-wave (km/s) = 0.93881 2.45275 1.85706
# Velocity P-wave (km/s) = 3.64901 4.68672 4.20004
#
# Compressibility (1/GPa) = 0.03481905
#
# Stress axis : x y z
#
# Youngs Moduli (GPa) = 49.23151 98.20768 78.78743
#
# Poissons Ratio (x) = 0.51682 -0.10979
# Poissons Ratio (y) = 0.25908 0.02482
# Poissons Ratio (z) = -0.06860 0.03094
#
# Static dielectric constant tensor:
#      x y z
#    x 1.929520 0.000000 0.000000 
#    y 0.000000 2.045440 0.000000 
#    z 0.000000 0.000000 2.004480 
# 
# From -- ./inp_files/20034.got.cif
#   From: 2010.05.17/outbox.cif.g08.bks.cpg/sg49_11_cif.got.tgz:20034.got - 2010.06.03 21:02:19.
