data_PCOD9392303
_publ_section_title
;
Structure prediction by ZEFSAII (Michael W. Deem and Ramdas Pophale) SiO2 
 PCOD9392303
Probable space group: P C C M
;
_chemical_formula_sum "Si O2"
_cell_formula_units_Z 56
_cell_length_a 19.119341
_cell_length_b 22.269072
_cell_length_c 8.406220
_cell_angle_alpha 90.000000
_cell_angle_beta 90.000000
_cell_angle_gamma 90.000000
_cell_volume 3579.116132
_symmetry_space_group_name_H-M "P C C M"
_symmetry_group_IT_number 49
_symmetry_cell_setting 'orthorhombic'
loop_
_space_group_symop_operation_xyz
x,y,z
-x,-y,z
x,-y,1/2-z
-x,y,1/2-z
-x,-y,-z
x,y,-z
-x,y,1/2+z
x,-y,1/2+z
loop_
_atom_site_type_symbol
_atom_site_label
_atom_site_fract_x
_atom_site_fract_y
_atom_site_fract_z
Si Si1 0.421094 0.194985 0.809263
Si Si2 0.288999 0.139535 0.689587
Si Si3 0.840960 0.065762 0.811069
Si Si4 0.078537 0.816954 0.690582
Si Si5 0.206910 0.745949 0.312314
Si Si6 0.579356 0.565324 0.190849
Si Si7 0.660168 0.683339 0.194412
O O1 0.500000 0.189779 0.750000
O O2 0.369386 0.143981 0.740384
O O3 0.388222 0.259751 0.758683
O O4 0.419252 0.192646 0.000000
O O5 0.283722 0.150848 0.500000
O O6 0.240285 0.082378 0.725806
O O7 0.251693 0.193406 0.785357
O O8 0.888471 0.119162 0.741603
O O9 0.859099 0.000000 0.750000
O O10 0.849218 0.067275 0.000000
O O11 0.079171 0.814894 0.500000
O O12 0.130962 0.764417 0.752842
O O13 0.000000 0.810753 0.750000
O O14 0.198532 0.734631 0.500000
O O15 0.260286 0.695594 0.248877
O O16 0.603153 0.500000 0.250000
O O17 0.500000 0.574144 0.250000
O O18 0.626707 0.620833 0.246684
O O19 0.578523 0.564946 0.000000
O O20 0.661227 0.683410 0.000000
#
# Coordination Sequence:
#
# PCOD9392303 Si02
#       7
#     8   8   8   8   8   8   8
#     4  10  18  28  43  63  85 109 139 176 218 261
#     4   9  17  29  44  63  85 108 135 172 214 255
#     4  10  20  33  49  67  87 112 145 176 206 247
#     4  10  19  31  48  68  93 118 140 168 207 253
#     4   8  15  29  46  63  83 111 142 172 209 253
#     4  10  18  28  40  56  83 117 151 184 215 250
#     4   8  15  27  43  61  82 110 145 180 212 250
#
# _framework density 15.646319999999999
#
# number of rings (size 3 to 8) (size 9 to 14) (size 15 to 20)
#    0.000    2.714    0.000    3.857    0.000    2.571 
#    0.000    7.857    0.000    0.429    0.000    3.000 
#    0.000    0.571    0.000    7.143    0.000    0.000 
#
# Total GULP energy -311737.929954 kJ/mol
# GULP energy per Si atom -5566.748749 kJ/mol
# Density = 1.561071 g / cm^3
# Si number density = 15.646320 Si / 1000 Ang^3
#
#
#
# Elastic Constant Matrix: (Units=GPa)
#
#
# Indices 1 2 3 4 5 6 
#
# 1 134.9931 42.9968 16.2527 0.0000 0.0000 0.0000
# 2 42.9968 48.1225 9.5564 0.0000 0.0000 0.0000
# 3 16.2527 9.5564 28.0941 0.0000 0.0000 0.0000
# 4 0.0000 0.0000 0.0000 12.0923 0.0000 0.0000
# 5 0.0000 0.0000 0.0000 0.0000 18.5118 0.0000
# 6 0.0000 0.0000 0.0000 0.0000 0.0000 20.9746
#
#
#
# Elastic Compliance Matrix: (Units=1/GPa)
#
#
# Indices 1 2 3 4 5 6 
#
# 1 0.010604 -0.008854 -0.003123 0.000000 0.000000 0.000000
# 2 -0.008854 0.029679 -0.004973 0.000000 0.000000 0.000000
# 3 -0.003123 -0.004973 0.039093 0.000000 0.000000 0.000000
# 4 0.000000 0.000000 0.000000 0.082697 0.000000 0.000000
# 5 0.000000 0.000000 0.000000 0.000000 0.054020 0.000000
# 6 0.000000 0.000000 0.000000 0.000000 0.000000 0.047677
#
#
# Mechanical properties :
#
#
# Convention : Reuss Voigt Hill
#
# Bulk Modulus (GPa) = 21.98987 38.75795 30.37391
# Shear Modulus (GPa) = 15.98320 19.80933 17.89627
#
# Velocity S-wave (km/s) = 3.19961 3.56205 3.38568
# Velocity P-wave (km/s) = 5.26639 6.46085 5.89396
#
# Compressibility (1/GPa) = 0.04547549
#
# Stress axis : x y z
#
# Youngs Moduli (GPa) = 94.30431 33.69359 25.58017
#
# Poissons Ratio (x) = 0.29834 0.07988
# Poissons Ratio (y) = 0.83501 0.12722
# Poissons Ratio (z) = 0.29447 0.16757
#
# Static dielectric constant tensor:
#      x y z
#    x 1.554390 0.000000 0.000000 
#    y 0.000000 1.515120 0.000000 
#    z 0.000000 0.000000 1.538510 
# 
# From -- ./inp_files/5206.got.cif
#   From: 2010.05.17/outbox.cif.g08.bks.cpg/sg49_3_cif.got.tgz:5206.got - 2010.06.03 21:02:19.
