data_PCOD9392381
_publ_section_title
;
Structure prediction by ZEFSAII (Michael W. Deem and Ramdas Pophale) SiO2 
 PCOD9392381
Probable space group: P C C M
;
_chemical_formula_sum "Si O2"
_cell_formula_units_Z 56
_cell_length_a 21.939768
_cell_length_b 18.911173
_cell_length_c 8.547695
_cell_angle_alpha 90.000000
_cell_angle_beta 90.000000
_cell_angle_gamma 90.000000
_cell_volume 3546.496337
_symmetry_space_group_name_H-M "P C C M"
_symmetry_group_IT_number 49
_symmetry_cell_setting 'orthorhombic'
loop_
_space_group_symop_operation_xyz
x,y,z
-x,-y,z
x,-y,1/2-z
-x,y,1/2-z
-x,-y,-z
x,y,-z
-x,y,1/2+z
x,-y,1/2+z
loop_
_atom_site_type_symbol
_atom_site_label
_atom_site_fract_x
_atom_site_fract_y
_atom_site_fract_z
Si Si1 0.136455 0.709559 0.813421
Si Si2 0.197092 0.420619 0.187102
Si Si3 0.935084 0.833199 0.811986
Si Si4 0.433317 0.420819 0.186897
Si Si5 0.744615 0.211159 0.685959
Si Si6 0.184866 0.078837 0.811553
Si Si7 0.317323 0.659158 0.814274
O O1 0.143946 0.629009 0.758498
O O2 0.079029 0.755944 0.760729
O O3 0.192340 0.748379 0.725106
O O4 0.144560 0.713881 0.000000
O O5 0.193519 0.500000 0.250000
O O6 0.261422 0.386099 0.241540
O O7 0.194461 0.419173 0.000000
O O8 0.879370 0.884840 0.763347
O O9 0.000000 0.858864 0.750000
O O10 0.935111 0.828496 0.000000
O O11 0.420974 0.500000 0.250000
O O12 0.500000 0.400219 0.250000
O O13 0.380260 0.370102 0.247356
O O14 0.434234 0.422621 0.000000
O O15 0.734228 0.212699 0.500000
O O16 0.760063 0.131322 0.737443
O O17 0.694404 0.258963 0.769854
O O18 0.190277 0.000000 0.750000
O O19 0.184908 0.078110 0.000000
O O20 0.315187 0.650582 0.000000
#
# Coordination Sequence:
#
# PCOD9392381 Si02
#       7
#     8   8   8   8   8   8   8
#     4  10  18  30  47  67  88 115 147 185 230 277
#     4  11  20  31  46  67  92 118 149 191 235 278
#     4  10  20  34  49  68  90 119 154 189 223 267
#     4  11  21  34  48  66  94 130 167 204 240 279
#     4   9  17  31  47  67  92 121 153 190 230 273
#     4   9  19  32  48  69  97 125 152 184 227 274
#     4  11  20  31  47  69  93 123 160 197 234 277
#
# _framework density 15.790232
#
# number of rings (size 3 to 8) (size 9 to 14) (size 15 to 20)
#    0.000    1.857    0.000    9.429    0.000    3.714 
#    0.000    1.429    0.000    0.429    0.000    3.000 
#    0.000    0.571    0.000    6.000    0.000    3.286 
#
# Total GULP energy -312329.159411 kJ/mol
# GULP energy per Si atom -5577.306418 kJ/mol
# Density = 1.575429 g / cm^3
# Si number density = 15.790232 Si / 1000 Ang^3
#
#
#
# Elastic Constant Matrix: (Units=GPa)
#
#
# Indices 1 2 3 4 5 6 
#
# 1 47.1204 36.4870 8.4065 0.0000 0.0000 0.0000
# 2 36.4870 119.6255 18.3767 0.0000 0.0000 0.0000
# 3 8.4065 18.3767 68.5604 0.0000 0.0000 0.0000
# 4 0.0000 0.0000 0.0000 28.0955 0.0000 0.0000
# 5 0.0000 0.0000 0.0000 0.0000 23.8874 0.0000
# 6 0.0000 0.0000 0.0000 0.0000 0.0000 19.0243
#
#
#
# Elastic Compliance Matrix: (Units=1/GPa)
#
#
# Indices 1 2 3 4 5 6 
#
# 1 0.027877 -0.008320 -0.001188 0.000000 0.000000 0.000000
# 2 -0.008320 0.011202 -0.001982 0.000000 0.000000 0.000000
# 3 -0.001188 -0.001982 0.015263 0.000000 0.000000 0.000000
# 4 0.000000 0.000000 0.000000 0.035593 0.000000 0.000000
# 5 0.000000 0.000000 0.000000 0.000000 0.041863 0.000000
# 6 0.000000 0.000000 0.000000 0.000000 0.000000 0.052564
#
#
# Mechanical properties :
#
#
# Convention : Reuss Voigt Hill
#
# Bulk Modulus (GPa) = 31.88752 40.20518 36.04635
# Shear Modulus (GPa) = 22.95728 25.67051 24.31390
#
# Velocity S-wave (km/s) = 3.81713 4.03640 3.92829
# Velocity P-wave (km/s) = 6.29806 6.87318 6.59190
#
# Compressibility (1/GPa) = 0.03136023
#
# Stress axis : x y z
#
# Youngs Moduli (GPa) = 35.87213 89.27234 65.51938
#
# Poissons Ratio (x) = 0.74276 0.07783
# Poissons Ratio (y) = 0.29846 0.12988
# Poissons Ratio (z) = 0.04261 0.17696
#
# Static dielectric constant tensor:
#      x y z
#    x 1.527400 0.000000 0.000000 
#    y 0.000000 1.551440 0.000000 
#    z 0.000000 0.000000 1.534640 
# 
# From -- ./inp_files/6571.got.cif
#   From: 2010.05.17/outbox.cif.g08.bks.cpg/sg49_4_cif.got.tgz:6571.got - 2010.06.03 21:02:19.
