data_PCOD9392397
_publ_section_title
;
Structure prediction by ZEFSAII (Michael W. Deem and Ramdas Pophale) SiO2 
 PCOD9392397
Probable space group: P C C M
;
_chemical_formula_sum "Si O2"
_cell_formula_units_Z 56
_cell_length_a 19.055596
_cell_length_b 19.559616
_cell_length_c 8.771362
_cell_angle_alpha 90.000000
_cell_angle_beta 90.000000
_cell_angle_gamma 90.000000
_cell_volume 3269.263276
_symmetry_space_group_name_H-M "P C C M"
_symmetry_group_IT_number 49
_symmetry_cell_setting 'orthorhombic'
loop_
_space_group_symop_operation_xyz
x,y,z
-x,-y,z
x,-y,1/2-z
-x,y,1/2-z
-x,-y,-z
x,y,-z
-x,y,1/2+z
x,-y,1/2+z
loop_
_atom_site_type_symbol
_atom_site_label
_atom_site_fract_x
_atom_site_fract_y
_atom_site_fract_z
Si Si1 0.842835 0.786231 0.816842
Si Si2 0.423902 0.211768 0.316326
Si Si3 0.185615 0.072712 0.682616
Si Si4 0.350819 0.927935 0.816737
Si Si5 0.288245 0.295675 0.316592
Si Si6 0.783842 0.574844 0.816598
Si Si7 0.925110 0.652813 0.182550
O O1 0.853239 0.861542 0.750473
O O2 0.770509 0.755635 0.749684
O O3 0.901303 0.729821 0.773967
O O4 0.838126 0.788472 0.000000
O O5 0.500000 0.225864 0.250000
O O6 0.427780 0.210266 0.500000
O O7 0.395149 0.137421 0.265081
O O8 0.364568 0.266961 0.274605
O O9 0.180647 0.072215 0.500000
O O10 0.268508 0.080474 0.724859
O O11 0.162176 0.000000 0.750000
O O12 0.375597 0.000000 0.750000
O O13 0.353715 0.930889 0.000000
O O14 0.282249 0.296173 0.500000
O O15 0.270275 0.369657 0.249307
O O16 0.772587 0.500000 0.750000
O O17 0.861226 0.603128 0.771399
O O18 0.780122 0.574508 0.000000
O O19 0.000000 0.634583 0.250000
O O20 0.929315 0.650568 0.000000
#
# Coordination Sequence:
#
# PCOD9392397 Si02
#       7
#     8   8   8   8   8   8   8
#     4  10  19  32  51  76 103 135 176 219 260 309
#     4  10  21  35  50  72 102 136 177 218 263 315
#     4  10  18  30  48  72 100 132 173 221 271 316
#     4   9  18  32  46  67  98 132 172 215 260 313
#     4  10  19  35  55  76 104 136 173 218 259 306
#     4  10  21  37  57  85 112 139 173 207 249 303
#     4   9  20  35  52  78 111 142 175 207 245 301
#
# _framework density 17.129242000000001
#
# number of rings (size 3 to 8) (size 9 to 14) (size 15 to 20)
#    0.000    2.286    1.429    2.571    0.000    6.286 
#    0.000    2.857    0.000    0.857    0.000    6.000 
#    0.000    0.000    0.000    0.000    0.000    0.000 
#
# Total GULP energy -312447.769488 kJ/mol
# GULP energy per Si atom -5579.424455 kJ/mol
# Density = 1.709025 g / cm^3
# Si number density = 17.129242 Si / 1000 Ang^3
#
#
#
# Elastic Constant Matrix: (Units=GPa)
#
#
# Indices 1 2 3 4 5 6 
#
# 1 60.5009 38.0028 15.9613 0.0000 0.0000 0.0000
# 2 38.0028 145.7871 35.5737 0.0000 0.0000 0.0000
# 3 15.9613 35.5737 37.2552 0.0000 0.0000 0.0000
# 4 0.0000 0.0000 0.0000 16.1219 0.0000 0.0000
# 5 0.0000 0.0000 0.0000 0.0000 24.0955 0.0000
# 6 0.0000 0.0000 0.0000 0.0000 0.0000 14.6590
#
#
#
# Elastic Compliance Matrix: (Units=1/GPa)
#
#
# Indices 1 2 3 4 5 6 
#
# 1 0.020396 -0.004152 -0.004774 0.000000 0.000000 0.000000
# 2 -0.004152 0.009788 -0.007568 0.000000 0.000000 0.000000
# 3 -0.004774 -0.007568 0.036113 0.000000 0.000000 0.000000
# 4 0.000000 0.000000 0.000000 0.062027 0.000000 0.000000
# 5 0.000000 0.000000 0.000000 0.000000 0.041501 0.000000
# 6 0.000000 0.000000 0.000000 0.000000 0.000000 0.068218
#
#
# Mechanical properties :
#
#
# Convention : Reuss Voigt Hill
#
# Bulk Modulus (GPa) = 30.02029 46.95764 38.48896
# Shear Modulus (GPa) = 17.72208 21.24232 19.48220
#
# Velocity S-wave (km/s) = 3.22002 3.52535 3.37614
# Velocity P-wave (km/s) = 5.60255 6.63657 6.14136
#
# Compressibility (1/GPa) = 0.03331081
#
# Stress axis : x y z
#
# Youngs Moduli (GPa) = 49.02920 102.16422 27.69073
#
# Poissons Ratio (x) = 0.42417 0.13219
# Poissons Ratio (y) = 0.20356 0.20955
# Poissons Ratio (z) = 0.23406 0.77314
#
# Static dielectric constant tensor:
#      x y z
#    x 1.561860 0.000000 0.000000 
#    y 0.000000 1.582500 0.000000 
#    z 0.000000 0.000000 1.574730 
# 
# From -- ./inp_files/5892.got.cif
#   From: 2010.05.17/outbox.cif.g08.bks.cpg/sg49_3_cif.got.tgz:5892.got - 2010.06.03 21:02:19.
