data_PCOD9392193
_publ_section_title
;
Structure prediction by ZEFSAII (Michael W. Deem and Ramdas Pophale) SiO2 
 PCOD9392193
Probable space group: P C C M
;
_chemical_formula_sum "Si O2"
_cell_formula_units_Z 64
_cell_length_a 14.651901
_cell_length_b 26.817911
_cell_length_c 8.599874
_cell_angle_alpha 90.000000
_cell_angle_beta 90.000000
_cell_angle_gamma 90.000000
_cell_volume 3379.177533
_symmetry_space_group_name_H-M "P C C M"
_symmetry_group_IT_number 49
_symmetry_cell_setting 'orthorhombic'
loop_
_space_group_symop_operation_xyz
x,y,z
-x,-y,z
x,-y,1/2-z
-x,y,1/2-z
-x,-y,-z
x,y,-z
-x,y,1/2+z
x,-y,1/2+z
loop_
_atom_site_type_symbol
_atom_site_label
_atom_site_fract_x
_atom_site_fract_y
_atom_site_fract_z
Si Si1 0.204607 0.157633 0.312971
Si Si2 0.600170 0.201473 0.186543
Si Si3 0.208533 0.944510 0.685368
Si Si4 0.898193 0.446307 0.184981
Si Si5 0.785312 0.354316 0.314285
Si Si6 0.408321 0.944055 0.185807
Si Si7 0.400859 0.681752 0.186017
Si Si8 0.897897 0.745316 0.187321
O O1 0.206108 0.152788 0.500000
O O2 0.309445 0.171554 0.261764
O O3 0.161572 0.106556 0.242844
O O4 0.145999 0.205264 0.261307
O O5 0.500000 0.188065 0.250000
O O6 0.613914 0.259725 0.227116
O O7 0.596194 0.196545 0.000000
O O8 0.207977 0.947992 0.500000
O O9 0.309769 0.931468 0.748578
O O10 0.183380 0.000000 0.750000
O O11 0.867724 0.500000 0.250000
O O12 0.834080 0.401594 0.238909
O O13 0.000000 0.437310 0.250000
O O14 0.902602 0.448717 0.000000
O O15 0.789454 0.358758 0.500000
O O16 0.681621 0.348782 0.258806
O O17 0.838452 0.303384 0.269964
O O18 0.500000 0.918719 0.250000
O O19 0.414117 0.000000 0.250000
O O20 0.408072 0.941952 0.000000
O O21 0.500000 0.667426 0.250000
O O22 0.399633 0.677937 0.000000
O O23 0.000000 0.738789 0.250000
O O24 0.898078 0.749900 0.000000
#
# Coordination Sequence:
#
# PCOD9392193 Si02
#       8
#     8   8   8   8   8   8   8   8
#     4  11  22  39  59  83 115 150 188 236 290 348
#     4   9  19  33  53  79 112 151 191 235 285 342
#     4  11  22  37  55  77 103 138 182 228 280 342
#     4  11  22  38  60  88 125 167 212 261 312 366
#     4  11  22  37  60  91 125 164 208 251 299 356
#     4  10  17  28  45  67  95 130 170 215 266 319
#     4  10  19  34  55  84 119 161 204 250 300 351
#     4  11  24  40  61  89 120 154 191 237 293 353
#
# _framework density 18.939519000000001
#
# number of rings (size 3 to 8) (size 9 to 14) (size 15 to 20)
#    0.000    1.500    1.250    6.750    0.000    4.500 
#    0.000    1.250    0.000    0.750    0.000    5.250 
#    0.000    0.000    0.000    0.000    0.000    0.000 
#
# Total GULP energy -357236.887186 kJ/mol
# GULP energy per Si atom -5581.826362 kJ/mol
# Density = 1.889641 g / cm^3
# Si number density = 18.939519 Si / 1000 Ang^3
#
#
#
# Elastic Constant Matrix: (Units=GPa)
#
#
# Indices 1 2 3 4 5 6 
#
# 1 84.4828 62.5486 32.3802 0.0000 0.0000 0.0000
# 2 62.5486 152.4480 63.7376 0.0000 0.0000 0.0000
# 3 32.3802 63.7376 114.9959 0.0000 0.0000 0.0000
# 4 0.0000 0.0000 0.0000 37.3897 0.0000 0.0000
# 5 0.0000 0.0000 0.0000 0.0000 29.9622 0.0000
# 6 0.0000 0.0000 0.0000 0.0000 0.0000 -3.6125
#
#
#
# Elastic Compliance Matrix: (Units=1/GPa)
#
#
# Indices 1 2 3 4 5 6 
#
# 1 0.017129 -0.006523 -0.001208 0.000000 0.000000 0.000000
# 2 -0.006523 0.011022 -0.004272 0.000000 0.000000 0.000000
# 3 -0.001208 -0.004272 0.011404 0.000000 0.000000 0.000000
# 4 0.000000 0.000000 0.000000 0.026745 0.000000 0.000000
# 5 0.000000 0.000000 0.000000 0.000000 0.033375 0.000000
# 6 0.000000 0.000000 0.000000 0.000000 0.000000 -0.276816
#
#
# Mechanical properties :
#
#
# Convention : Reuss Voigt Hill
#
# Bulk Modulus (GPa) = 64.31269 74.36218 69.33743
# Shear Modulus (GPa) = -33.79521 25.63190 -4.08165
#
# Velocity S-wave (km/s) = -4.22877 3.68279 -1.46962
# Velocity P-wave (km/s) = 3.19175 7.57840 5.81461
#
# Compressibility (1/GPa) = 0.01554903
#
# Stress axis : x y z
#
# Youngs Moduli (GPa) = 58.38021 90.72538 87.68798
#
# Poissons Ratio (x) = 0.59181 0.10590
# Poissons Ratio (y) = 0.38082 0.37464
# Poissons Ratio (z) = 0.07051 0.38762
#
# Static dielectric constant tensor:
#      x y z
#    x 1.333880 0.000000 0.000000 
#    y 0.000000 1.669360 0.000000 
#    z 0.000000 0.000000 1.650990 
# 
# From -- ./inp_files/4315.got.cif
#   From: 2010.05.17/outbox.cif.g08.bks.cpg/sg49_3_cif.got.tgz:4315.got - 2010.06.03 21:02:19.
