data_PCOD9392698
_publ_section_title
;
Structure prediction by ZEFSAII (Michael W. Deem and Ramdas Pophale) SiO2 
 PCOD9392698
Probable space group: P C C M
;
_chemical_formula_sum "Si O2"
_cell_formula_units_Z 58
_cell_length_a 15.087497
_cell_length_b 24.102093
_cell_length_c 9.537521
_cell_angle_alpha 90.000000
_cell_angle_beta 90.000000
_cell_angle_gamma 90.000000
_cell_volume 3468.226576
_symmetry_space_group_name_H-M "P C C M"
_symmetry_group_IT_number 49
_symmetry_cell_setting 'orthorhombic'
loop_
_space_group_symop_operation_xyz
x,y,z
-x,-y,z
x,-y,1/2-z
-x,y,1/2-z
-x,-y,-z
x,y,-z
-x,y,1/2+z
x,-y,1/2+z
loop_
_atom_site_type_symbol
_atom_site_label
_atom_site_fract_x
_atom_site_fract_y
_atom_site_fract_z
Si Si1 0.088659 0.599629 0.166646
Si Si2 0.778113 0.828406 0.332418
Si Si3 0.589372 0.347543 0.832956
Si Si4 0.410300 0.781519 0.832591
Si Si5 0.083217 0.891650 0.339864
Si Si6 0.000000 0.000000 0.250000
Si Si7 0.722255 0.553799 0.332021
Si Si8 0.088441 0.729303 0.165263
O O1 0.175442 0.565257 0.205679
O O2 0.109861 0.664775 0.193479
O O3 0.000000 0.584842 0.250000
O O4 0.073443 0.593703 0.000000
O O5 0.785578 0.839505 0.500000
O O6 0.675453 0.818284 0.297523
O O7 0.828455 0.874579 0.241812
O O8 0.832116 0.771412 0.303482
O O9 0.500000 0.360938 0.750000
O O10 0.612230 0.283259 0.802240
O O11 0.665503 0.391425 0.797891
O O12 0.573766 0.351029 0.000000
O O13 0.500000 0.795408 0.750000
O O14 0.425214 0.785689 0.000000
O O15 0.083008 0.872206 0.500000
O O16 0.000000 0.868248 0.250000
O O17 0.061871 0.957511 0.335439
O O18 0.689363 0.500000 0.250000
O O19 0.717222 0.545553 0.500000
O O20 0.000000 0.742484 0.250000
O O21 0.069812 0.734134 0.000000
#
# Coordination Sequence:
#
# PCOD9392698 Si02
#       8
#     8   8   8   8   8   2   8   8
#     4   9  18  33  50  66  88 121 158 193 237 289
#     4  10  19  30  48  74 104 135 168 206 252 298
#     4   9  18  34  54  73  95 125 159 195 245 302
#     4   9  18  33  52  74 100 132 167 206 250 302
#     4  10  20  33  51  74 105 142 179 214 248 286
#     4   8  22  36  54  72 108 148 186 216 248 276
#     4  10  21  35  50  68  91 119 153 198 246 296
#     4   9  17  29  45  67  95 126 157 193 237 293
#
# _framework density 16.723246
#
# number of rings (size 3 to 8) (size 9 to 14) (size 15 to 20)
#    0.414    2.207    0.000    1.862    0.000    7.172 
#    0.000    2.759    0.000    8.276    0.000    0.483 
#    0.000    3.310    0.000    0.000    0.000    0.000 
#
# Total GULP energy -323189.153107 kJ/mol
# GULP energy per Si atom -5572.226778 kJ/mol
# Density = 1.668518 g / cm^3
# Si number density = 16.723246 Si / 1000 Ang^3
#
#
#
# Elastic Constant Matrix: (Units=GPa)
#
#
# Indices 1 2 3 4 5 6 
#
# 1 117.4703 48.1623 52.1447 0.0000 0.0000 0.0000
# 2 48.1623 57.2076 33.1141 0.0000 0.0000 0.0000
# 3 52.1447 33.1141 46.1817 0.0000 0.0000 0.0000
# 4 0.0000 0.0000 0.0000 18.4417 0.0000 0.0000
# 5 0.0000 0.0000 0.0000 0.0000 28.9876 0.0000
# 6 0.0000 0.0000 0.0000 0.0000 0.0000 17.8009
#
#
#
# Elastic Compliance Matrix: (Units=1/GPa)
#
#
# Indices 1 2 3 4 5 6 
#
# 1 0.018141 -0.005840 -0.016296 0.000000 0.000000 0.000000
# 2 -0.005840 0.031763 -0.016182 0.000000 0.000000 0.000000
# 3 -0.016296 -0.016182 0.051656 0.000000 0.000000 0.000000
# 4 0.000000 0.000000 0.000000 0.054225 0.000000 0.000000
# 5 0.000000 0.000000 0.000000 0.000000 0.034498 0.000000
# 6 0.000000 0.000000 0.000000 0.000000 0.000000 0.056177
#
#
# Mechanical properties :
#
#
# Convention : Reuss Voigt Hill
#
# Bulk Modulus (GPa) = 40.11887 54.18911 47.15399
# Shear Modulus (GPa) = 15.08739 18.87526 16.98133
#
# Velocity S-wave (km/s) = 3.00689 3.36323 3.19004
# Velocity P-wave (km/s) = 6.00809 6.89606 6.46733
#
# Compressibility (1/GPa) = 0.02492593
#
# Stress axis : x y z
#
# Youngs Moduli (GPa) = 55.12479 31.48282 19.35876
#
# Poissons Ratio (x) = 0.18385 0.31546
# Poissons Ratio (y) = 0.32192 0.31326
# Poissons Ratio (z) = 0.89829 0.50945
#
# Static dielectric constant tensor:
#      x y z
#    x 1.545260 0.000000 0.000000 
#    y 0.000000 1.581880 0.000000 
#    z 0.000000 0.000000 1.556280 
# 
# From -- ./inp_files/4273.got.cif
#   From: 2010.05.17/outbox.cif.g08.bks.cpg/sg49_3_cif.got.tgz:4273.got - 2010.06.03 21:02:19.
