data_PCOD9392859
_publ_section_title
;
Structure prediction by ZEFSAII (Michael W. Deem and Ramdas Pophale) SiO2 
 PCOD9392859
Probable space group: P C C M
;
_chemical_formula_sum "Si O2"
_cell_formula_units_Z 64
_cell_length_a 22.268222
_cell_length_b 16.036104
_cell_length_c 8.955319
_cell_angle_alpha 90.000000
_cell_angle_beta 90.000000
_cell_angle_gamma 90.000000
_cell_volume 3197.904330
_symmetry_space_group_name_H-M "P C C M"
_symmetry_group_IT_number 49
_symmetry_cell_setting 'orthorhombic'
loop_
_space_group_symop_operation_xyz
x,y,z
-x,-y,z
x,-y,1/2-z
-x,y,1/2-z
-x,-y,-z
x,y,-z
-x,y,1/2+z
x,-y,1/2+z
loop_
_atom_site_type_symbol
_atom_site_label
_atom_site_fract_x
_atom_site_fract_y
_atom_site_fract_z
Si Si1 0.668702 0.145754 0.164233
Si Si2 0.192974 0.699026 0.179743
Si Si3 0.443265 0.090396 0.173748
Si Si4 0.939391 0.735029 0.322520
Si Si5 0.916053 0.084880 0.328070
Si Si6 0.680745 0.655226 0.332116
Si Si7 0.438782 0.407691 0.820974
Si Si8 0.779829 0.874109 0.168493
O O1 0.618105 0.134134 0.286342
O O2 0.680440 0.244288 0.157373
O O3 0.729136 0.099487 0.214579
O O4 0.648724 0.116980 0.000000
O O5 0.122136 0.683007 0.206705
O O6 0.249324 0.637151 0.210395
O O7 0.204901 0.779643 0.282026
O O8 0.197236 0.718411 0.000000
O O9 0.500000 0.134413 0.250000
O O10 0.438540 0.000000 0.250000
O O11 0.453492 0.082545 0.000000
O O12 0.946492 0.741512 0.500000
O O13 0.931529 0.829172 0.256813
O O14 0.000000 0.699983 0.250000
O O15 0.936679 0.090020 0.500000
O O16 0.843410 0.081059 0.328847
O O17 0.936599 0.000000 0.250000
O O18 0.669392 0.621513 0.500000
O O19 0.625204 0.631143 0.227573
O O20 0.436763 0.500000 0.750000
O O21 0.500000 0.368346 0.750000
O O22 0.444454 0.409520 0.000000
O O23 0.755728 0.876318 0.000000
#
# Coordination Sequence:
#
# PCOD9392859 Si02
#       8
#     8   8   8   8   8   8   8   8
#     4  10  20  34  52  73  97 125 160 203 251 303
#     4   8  16  31  50  70  96 129 162 201 250 300
#     4  11  22  37  53  67  87 115 151 196 250 308
#     4  10  19  32  49  69  94 126 163 205 257 313
#     4  10  20  32  45  62  85 116 155 201 251 307
#     4   9  18  34  55  79 107 139 175 215 257 301
#     4  11  22  37  57  81 113 151 186 219 254 298
#     4   9  17  29  45  65  88 113 146 191 243 295
#
# _framework density 20.013106000000001
#
# number of rings (size 3 to 8) (size 9 to 14) (size 15 to 20)
#    0.000    2.250    0.000    5.250    0.000    5.750 
#    0.000    2.500    0.000    0.000    0.000    0.000 
#    0.000    0.500    0.000    5.750    0.000    1.750 
#
# Total GULP energy -356632.597694 kJ/mol
# GULP energy per Si atom -5572.384339 kJ/mol
# Density = 1.996756 g / cm^3
# Si number density = 20.013106 Si / 1000 Ang^3
#
#
#
# Elastic Constant Matrix: (Units=GPa)
#
#
# Indices 1 2 3 4 5 6 
#
# 1 165.3734 16.6216 60.1030 0.0000 0.0000 0.0000
# 2 16.6216 13.9376 9.5888 0.0000 0.0000 0.0000
# 3 60.1030 9.5888 133.8339 0.0000 0.0000 0.0000
# 4 0.0000 0.0000 0.0000 13.4348 0.0000 0.0000
# 5 0.0000 0.0000 0.0000 0.0000 30.7597 0.0000
# 6 0.0000 0.0000 0.0000 0.0000 0.0000 148.4695
#
#
#
# Elastic Compliance Matrix: (Units=1/GPa)
#
#
# Indices 1 2 3 4 5 6 
#
# 1 0.007878 -0.007322 -0.003013 0.000000 0.000000 0.000000
# 2 -0.007322 0.082274 -0.002606 0.000000 0.000000 0.000000
# 3 -0.003013 -0.002606 0.009012 0.000000 0.000000 0.000000
# 4 0.000000 0.000000 0.000000 0.074434 0.000000 0.000000
# 5 0.000000 0.000000 0.000000 0.000000 0.032510 0.000000
# 6 0.000000 0.000000 0.000000 0.000000 0.000000 0.006735
#
#
# Mechanical properties :
#
#
# Convention : Reuss Voigt Hill
#
# Bulk Modulus (GPa) = 13.64628 53.97464 33.81046
# Shear Modulus (GPa) = 19.00036 53.65490 36.32763
#
# Velocity S-wave (km/s) = 3.08457 5.18344 4.26513
# Velocity P-wave (km/s) = 4.41810 7.92794 6.41763
#
# Compressibility (1/GPa) = 0.07328005
#
# Stress axis : x y z
#
# Youngs Moduli (GPa) = 126.93560 12.15456 110.96409
#
# Poissons Ratio (x) = 0.08900 0.33437
# Poissons Ratio (y) = 0.92943 0.28922
# Poissons Ratio (z) = 0.38250 0.03168
#
# Static dielectric constant tensor:
#      x y z
#    x 1.822680 0.000000 0.000000 
#    y 0.000000 1.706880 0.000000 
#    z 0.000000 0.000000 1.729600 
# 
# From -- ./inp_files/6002.got.cif
#   From: 2010.05.17/outbox.cif.g08.bks.cpg/sg49_4_cif.got.tgz:6002.got - 2010.06.03 21:02:19.
