data_PCOD9392179
_publ_section_title
;
Structure prediction by ZEFSAII (Michael W. Deem and Ramdas Pophale) SiO2 
 PCOD9392179
Probable space group: P C C M
;
_chemical_formula_sum "Si O2"
_cell_formula_units_Z 48
_cell_length_a 8.851530
_cell_length_b 14.918963
_cell_length_c 20.771229
_cell_angle_alpha 90.000000
_cell_angle_beta 90.000000
_cell_angle_gamma 90.000000
_cell_volume 2742.958117
_symmetry_space_group_name_H-M "P C C M"
_symmetry_group_IT_number 49
_symmetry_cell_setting 'orthorhombic'
loop_
_space_group_symop_operation_xyz
x,y,z
-x,-y,z
x,-y,1/2-z
-x,y,1/2-z
-x,-y,-z
x,y,-z
-x,y,1/2+z
x,-y,1/2+z
loop_
_atom_site_type_symbol
_atom_site_label
_atom_site_fract_x
_atom_site_fract_y
_atom_site_fract_z
Si Si1 0.383640 0.781643 0.341288
Si Si2 0.951192 0.396992 0.178359
Si Si3 0.106792 0.729391 0.426073
Si Si4 0.704845 0.273891 0.197377
Si Si5 0.230569 0.960573 0.320154
Si Si6 0.927381 0.128654 0.858003
O O1 0.272882 0.748815 0.397396
O O2 0.329456 0.739676 0.272841
O O3 0.557066 0.752406 0.343355
O O4 0.359078 0.889321 0.338047
O O5 0.774155 0.370288 0.178781
O O6 0.000000 0.500000 0.173296
O O7 0.000000 0.365915 0.250000
O O8 0.032108 0.343186 0.121385
O O9 0.110605 0.702150 0.500000
O O10 0.004303 0.819339 0.417418
O O11 0.833191 0.202254 0.180075
O O12 0.073903 0.904808 0.318756
O O13 0.263079 0.000000 0.250000
O O14 0.183955 0.043618 0.366260
#
# Coordination Sequence:
#
# PCOD9392179 Si02
#       6
#     8   8   8   8   8   8
#     4  10  20  32  50  80 118 154 184 232 286 350
#     4  10  20  37  64  88 109 139 186 246 297 349
#     4  10  21  37  58  82 114 156 191 232 293 354
#     4  10  19  33  53  81 113 142 188 233 296 341
#     4  10  17  27  48  80 113 148 193 246 279 316
#     4   9  18  29  50  76 108 146 192 240 269 319
#
# _framework density 17.499355000000001
#
# number of rings (size 3 to 8) (size 9 to 14) (size 15 to 20)
#    0.000    2.167    3.333    1.000    2.333    1.000 
#    0.000   10.833    0.000    1.000    0.000   15.167 
#    0.000    0.000    0.000    0.000    0.000    0.000 
#
# Total GULP energy -267285.688426 kJ/mol
# GULP energy per Si atom -5568.451842 kJ/mol
# Density = 1.745953 g / cm^3
# Si number density = 17.499355 Si / 1000 Ang^3
#
#
#
# Elastic Constant Matrix: (Units=GPa)
#
#
# Indices 1 2 3 4 5 6 
#
# 1 77.7793 49.3245 26.4780 0.0000 0.0000 0.0000
# 2 49.3245 97.6021 32.6530 0.0000 0.0000 0.0000
# 3 26.4780 32.6530 104.6566 0.0000 0.0000 0.0000
# 4 0.0000 0.0000 0.0000 10.9866 0.0000 0.0000
# 5 0.0000 0.0000 0.0000 0.0000 15.4515 0.0000
# 6 0.0000 0.0000 0.0000 0.0000 0.0000 28.4353
#
#
#
# Elastic Compliance Matrix: (Units=1/GPa)
#
#
# Indices 1 2 3 4 5 6 
#
# 1 0.019308 -0.009070 -0.002055 0.000000 0.000000 0.000000
# 2 -0.009070 0.015701 -0.002604 0.000000 0.000000 0.000000
# 3 -0.002055 -0.002604 0.010887 0.000000 0.000000 0.000000
# 4 0.000000 0.000000 0.000000 0.091020 0.000000 0.000000
# 5 0.000000 0.000000 0.000000 0.000000 0.064719 0.000000
# 6 0.000000 0.000000 0.000000 0.000000 0.000000 0.035168
#
#
# Mechanical properties :
#
#
# Convention : Reuss Voigt Hill
#
# Bulk Modulus (GPa) = 54.23558 55.21657 54.72607
# Shear Modulus (GPa) = 18.49065 22.41352 20.45208
#
# Velocity S-wave (km/s) = 3.25414 3.58274 3.42238
# Velocity P-wave (km/s) = 6.72156 6.98116 6.85259
#
# Compressibility (1/GPa) = 0.01843808
#
# Stress axis : x y z
#
# Youngs Moduli (GPa) = 51.79071 63.69195 91.84928
#
# Poissons Ratio (x) = 0.57770 0.18876
# Poissons Ratio (y) = 0.46975 0.23916
# Poissons Ratio (z) = 0.10643 0.16584
#
# Static dielectric constant tensor:
#      x y z
#    x 1.632710 0.000000 0.000000 
#    y 0.000000 1.660980 0.000000 
#    z 0.000000 0.000000 1.570610 
# 
# From -- ./inp_files/19744.got.cif
#   From: 2010.05.17/outbox.cif.g08.bks.cpg/sg49_10_cif.got.tgz:19744.got - 2010.06.03 21:02:19.
