data_PCOD9392676
_publ_section_title
;
Structure prediction by ZEFSAII (Michael W. Deem and Ramdas Pophale) SiO2 
 PCOD9392676
Probable space group: P C C M
;
_chemical_formula_sum "Si O2"
_cell_formula_units_Z 64
_cell_length_a 25.590403
_cell_length_b 15.484253
_cell_length_c 8.719663
_cell_angle_alpha 90.000000
_cell_angle_beta 90.000000
_cell_angle_gamma 90.000000
_cell_volume 3455.151417
_symmetry_space_group_name_H-M "P C C M"
_symmetry_group_IT_number 49
_symmetry_cell_setting 'orthorhombic'
loop_
_space_group_symop_operation_xyz
x,y,z
-x,-y,z
x,-y,1/2-z
-x,y,1/2-z
-x,-y,-z
x,y,-z
-x,y,1/2+z
x,-y,1/2+z
loop_
_atom_site_type_symbol
_atom_site_label
_atom_site_fract_x
_atom_site_fract_y
_atom_site_fract_z
Si Si1 0.057871 0.907078 0.684241
Si Si2 0.700070 0.349973 0.319615
Si Si3 0.814994 0.409176 0.315907
Si Si4 0.445466 0.774490 0.183659
Si Si5 0.334727 0.829181 0.817082
Si Si6 0.583876 0.590021 0.820675
Si Si7 0.768331 0.089643 0.816097
Si Si8 0.149584 0.777615 0.314914
O O1 0.055583 0.913221 0.500000
O O2 0.097303 0.830074 0.726769
O O3 0.000000 0.891903 0.750000
O O4 0.075727 0.000000 0.750000
O O5 0.705560 0.326189 0.500000
O O6 0.753997 0.394386 0.271501
O O7 0.689081 0.264236 0.223371
O O8 0.647174 0.405244 0.306766
O O9 0.833709 0.500000 0.250000
O O10 0.816872 0.414138 0.500000
O O11 0.845910 0.322574 0.267894
O O12 0.500000 0.806631 0.250000
O O13 0.394251 0.826614 0.240913
O O14 0.437304 0.675265 0.237056
O O15 0.446781 0.776467 0.000000
O O16 0.291470 0.896230 0.760591
O O17 0.337593 0.838303 0.000000
O O18 0.565606 0.500000 0.750000
O O19 0.570454 0.595233 0.000000
O O20 0.802770 0.168671 0.755957
O O21 0.788925 0.000000 0.750000
O O22 0.769737 0.087942 0.000000
O O23 0.154417 0.780160 0.500000
#
# Coordination Sequence:
#
# PCOD9392676 Si02
#       8
#     8   8   8   8   8   8   8   8
#     4  10  20  35  57  84 114 149 187 229 275 326
#     4   9  17  30  49  70  98 135 174 214 260 312
#     4  10  20  33  50  75 108 146 187 229 271 316
#     4  10  20  35  52  70  92 122 164 213 261 316
#     4   9  19  34  52  74 102 133 168 211 259 315
#     4  10  19  30  45  68  94 126 164 207 260 315
#     4  11  22  35  55  84 114 146 178 214 267 329
#     4  10  21  37  56  81 116 152 187 230 274 319
#
# _framework density 18.523067000000001
#
# number of rings (size 3 to 8) (size 9 to 14) (size 15 to 20)
#    0.000    2.125    1.250    2.625    0.000    4.750 
#    0.000    1.250    0.000    0.750    0.000    5.250 
#    0.000    0.000    0.000    0.000    0.000    0.000 
#
# Total GULP energy -357092.205930 kJ/mol
# GULP energy per Si atom -5579.565718 kJ/mol
# Density = 1.848091 g / cm^3
# Si number density = 18.523067 Si / 1000 Ang^3
#
#
#
# Elastic Constant Matrix: (Units=GPa)
#
#
# Indices 1 2 3 4 5 6 
#
# 1 109.0298 55.4926 28.4917 0.0000 0.0000 0.0000
# 2 55.4926 107.3229 19.4369 0.0000 0.0000 0.0000
# 3 28.4917 19.4369 21.0802 0.0000 0.0000 0.0000
# 4 0.0000 0.0000 0.0000 19.4322 0.0000 0.0000
# 5 0.0000 0.0000 0.0000 0.0000 18.9707 0.0000
# 6 0.0000 0.0000 0.0000 0.0000 0.0000 7.3655
#
#
#
# Elastic Compliance Matrix: (Units=1/GPa)
#
#
# Indices 1 2 3 4 5 6 
#
# 1 0.016402 -0.005361 -0.017225 0.000000 0.000000 0.000000
# 2 -0.005361 0.012938 -0.004683 0.000000 0.000000 0.000000
# 3 -0.017225 -0.004683 0.075038 0.000000 0.000000 0.000000
# 4 0.000000 0.000000 0.000000 0.051461 0.000000 0.000000
# 5 0.000000 0.000000 0.000000 0.000000 0.052713 0.000000
# 6 0.000000 0.000000 0.000000 0.000000 0.000000 0.135768
#
#
# Mechanical properties :
#
#
# Convention : Reuss Voigt Hill
#
# Bulk Modulus (GPa) = 20.06503 49.36393 34.71448
# Shear Modulus (GPa) = 12.03452 18.08778 15.06115
#
# Velocity S-wave (km/s) = 2.55170 3.12829 2.85459
# Velocity P-wave (km/s) = 4.42012 6.30524 5.44489
#
# Compressibility (1/GPa) = 0.04983796
#
# Stress axis : x y z
#
# Youngs Moduli (GPa) = 60.96911 77.29241 13.32664
#
# Poissons Ratio (x) = 0.41437 0.22955
# Poissons Ratio (y) = 0.32686 0.06241
# Poissons Ratio (z) = 1.05021 0.36199
#
# Static dielectric constant tensor:
#      x y z
#    x 1.671770 0.000000 0.000000 
#    y 0.000000 1.626860 0.000000 
#    z 0.000000 0.000000 1.494200 
# 
# From -- ./inp_files/6498.got.cif
#   From: 2010.05.17/outbox.cif.g08.bks.cpg/sg49_4_cif.got.tgz:6498.got - 2010.06.03 21:02:19.
