data_PCOD9392360
_publ_section_title
;
Structure prediction by ZEFSAII (Michael W. Deem and Ramdas Pophale) SiO2 
 PCOD9392360
Probable space group: P C C M
;
_chemical_formula_sum "Si O2"
_cell_formula_units_Z 56
_cell_length_a 19.588876
_cell_length_b 18.675078
_cell_length_c 8.709210
_cell_angle_alpha 90.000000
_cell_angle_beta 90.000000
_cell_angle_gamma 90.000000
_cell_volume 3186.036186
_symmetry_space_group_name_H-M "P C C M"
_symmetry_group_IT_number 49
_symmetry_cell_setting 'orthorhombic'
loop_
_space_group_symop_operation_xyz
x,y,z
-x,-y,z
x,-y,1/2-z
-x,y,1/2-z
-x,-y,-z
x,y,-z
-x,y,1/2+z
x,-y,1/2+z
loop_
_atom_site_type_symbol
_atom_site_label
_atom_site_fract_x
_atom_site_fract_y
_atom_site_fract_z
Si Si1 0.280053 0.656856 0.184418
Si Si2 0.210154 0.202908 0.816867
Si Si3 0.703795 0.078615 0.817096
Si Si4 0.570692 0.319151 0.816112
Si Si5 0.926797 0.716595 0.816615
Si Si6 0.428036 0.157897 0.815924
Si Si7 0.855756 0.422879 0.816596
O O1 0.257290 0.730327 0.265452
O O2 0.358715 0.640544 0.222102
O O3 0.222535 0.598691 0.224806
O O4 0.276323 0.668236 0.000000
O O5 0.236238 0.132681 0.732002
O O6 0.133263 0.227274 0.778098
O O7 0.216040 0.193483 0.000000
O O8 0.634860 0.111761 0.744995
O O9 0.715155 0.000000 0.750000
O O10 0.697366 0.076283 0.000000
O O11 0.500000 0.349442 0.750000
O O12 0.578340 0.239078 0.747425
O O13 0.564879 0.313500 0.000000
O O14 0.902671 0.640327 0.749246
O O15 0.000000 0.736419 0.750000
O O16 0.930207 0.710890 0.000000
O O17 0.500000 0.130068 0.750000
O O18 0.429091 0.159109 0.000000
O O19 0.873148 0.500000 0.750000
O O20 0.861499 0.423709 0.000000
#
# Coordination Sequence:
#
# PCOD9392360 Si02
#       7
#     8   8   8   8   8   8   8
#     4   9  18  32  52  74 102 139 179 220 267 318
#     4  10  20  35  56  81 107 136 176 220 262 313
#     4  12  24  38  55  77 106 142 182 224 272 321
#     4  10  18  29  47  73 101 134 175 223 274 319
#     4  10  21  37  59  87 115 144 177 213 256 311
#     4  11  21  34  51  74 104 140 179 223 273 324
#     4  10  20  35  54  80 112 146 180 218 262 314
#
# _framework density 17.576699999999999
#
# number of rings (size 3 to 8) (size 9 to 14) (size 15 to 20)
#    0.000    1.714    1.429    5.143    0.000    3.429 
#    0.000    2.857    0.000    0.857    0.000    6.000 
#    0.000    0.000    0.000    0.000    0.000    0.000 
#
# Total GULP energy -312702.965134 kJ/mol
# GULP energy per Si atom -5583.981520 kJ/mol
# Density = 1.753669 g / cm^3
# Si number density = 17.576700 Si / 1000 Ang^3
#
#
#
# Elastic Constant Matrix: (Units=GPa)
#
#
# Indices 1 2 3 4 5 6 
#
# 1 127.9848 16.4550 40.7087 0.0000 0.0000 0.0000
# 2 16.4550 35.1144 14.6780 0.0000 0.0000 0.0000
# 3 40.7087 14.6780 79.4552 0.0000 0.0000 0.0000
# 4 0.0000 0.0000 0.0000 20.0699 0.0000 0.0000
# 5 0.0000 0.0000 0.0000 0.0000 31.3698 0.0000
# 6 0.0000 0.0000 0.0000 0.0000 0.0000 12.9387
#
#
#
# Elastic Compliance Matrix: (Units=1/GPa)
#
#
# Indices 1 2 3 4 5 6 
#
# 1 0.009554 -0.002635 -0.004408 0.000000 0.000000 0.000000
# 2 -0.002635 0.031588 -0.004486 0.000000 0.000000 0.000000
# 3 -0.004408 -0.004486 0.015673 0.000000 0.000000 0.000000
# 4 0.000000 0.000000 0.000000 0.049826 0.000000 0.000000
# 5 0.000000 0.000000 0.000000 0.000000 0.031878 0.000000
# 6 0.000000 0.000000 0.000000 0.000000 0.000000 0.077287
#
#
# Mechanical properties :
#
#
# Convention : Reuss Voigt Hill
#
# Bulk Modulus (GPa) = 29.62242 42.91532 36.26887
# Shear Modulus (GPa) = 19.99071 24.25653 22.12362
#
# Velocity S-wave (km/s) = 3.37611 3.71892 3.55165
# Velocity P-wave (km/s) = 5.66456 6.55053 6.12359
#
# Compressibility (1/GPa) = 0.03375821
#
# Stress axis : x y z
#
# Youngs Moduli (GPa) = 104.66410 31.65764 63.80398
#
# Poissons Ratio (x) = 0.08340 0.28128
# Poissons Ratio (y) = 0.27574 0.28620
# Poissons Ratio (z) = 0.46141 0.14200
#
# Static dielectric constant tensor:
#      x y z
#    x 1.626690 0.000000 0.000000 
#    y 0.000000 1.561080 0.000000 
#    z 0.000000 0.000000 1.585630 
# 
# From -- ./inp_files/5897.got.cif
#   From: 2010.05.17/outbox.cif.g08.bks.cpg/sg49_3_cif.got.tgz:5897.got - 2010.06.03 21:02:19.
