data_PCOD9392117
_publ_section_title
;
Structure prediction by ZEFSAII (Michael W. Deem and Ramdas Pophale) SiO2 
 PCOD9392117
Probable space group: P C C M
;
_chemical_formula_sum "Si O2"
_cell_formula_units_Z 56
_cell_length_a 25.519575
_cell_length_b 15.969974
_cell_length_c 8.706146
_cell_angle_alpha 90.000000
_cell_angle_beta 90.000000
_cell_angle_gamma 90.000000
_cell_volume 3548.163242
_symmetry_space_group_name_H-M "P C C M"
_symmetry_group_IT_number 49
_symmetry_cell_setting 'orthorhombic'
loop_
_space_group_symop_operation_xyz
x,y,z
-x,-y,z
x,-y,1/2-z
-x,y,1/2-z
-x,-y,-z
x,y,-z
-x,y,1/2+z
x,-y,1/2+z
loop_
_atom_site_type_symbol
_atom_site_label
_atom_site_fract_x
_atom_site_fract_y
_atom_site_fract_z
Si Si1 0.633147 0.229475 0.683365
Si Si2 0.946429 0.905069 0.183932
Si Si3 0.837037 0.906245 0.315272
Si Si4 0.363863 0.583959 0.316541
Si Si5 0.249856 0.230437 0.315189
Si Si6 0.754187 0.415347 0.817006
Si Si7 0.557598 0.909703 0.317233
O O1 0.630218 0.218713 0.500000
O O2 0.613896 0.324256 0.720339
O O3 0.693680 0.222197 0.735617
O O4 0.598108 0.160847 0.766036
O O5 0.891270 0.870767 0.245148
O O6 0.000000 0.865937 0.250000
O O7 0.945841 0.000000 0.250000
O O8 0.947879 0.907026 0.000000
O O9 0.842040 0.911312 0.500000
O O10 0.789324 0.844609 0.276034
O O11 0.828659 0.000000 0.250000
O O12 0.389961 0.500000 0.250000
O O13 0.359993 0.576519 0.500000
O O14 0.305399 0.586063 0.245780
O O15 0.258072 0.229428 0.500000
O O16 0.225791 0.322254 0.276747
O O17 0.779385 0.500000 0.750000
O O18 0.753229 0.423260 0.000000
O O19 0.500000 0.891112 0.250000
O O20 0.554375 0.915233 0.500000
O O21 0.573600 0.000000 0.250000
#
# Coordination Sequence:
#
# PCOD9392117 Si02
#       7
#     8   8   8   8   8   8   8
#     4  10  20  33  50  73  98 124 156 190 228 274
#     4  10  17  27  43  62  83 111 149 190 228 265
#     4  10  19  31  44  61  88 122 156 189 225 266
#     4   9  16  26  43  67  94 122 151 184 220 265
#     4   9  19  32  45  64  94 128 157 186 227 275
#     4   9  15  25  41  61  85 115 150 187 226 267
#     4  11  22  38  58  76  95 118 150 192 235 274
#
# _framework density 15.782813000000001
#
# number of rings (size 3 to 8) (size 9 to 14) (size 15 to 20)
#    0.000    2.286    0.000    6.857    0.000    4.000 
#    0.000    1.429    0.000    0.429    0.000    3.000 
#    0.000    0.571    0.000    6.571    0.000    2.000 
#
# Total GULP energy -311946.451503 kJ/mol
# GULP energy per Si atom -5570.472348 kJ/mol
# Density = 1.574689 g / cm^3
# Si number density = 15.782813 Si / 1000 Ang^3
#
#
#
# Elastic Constant Matrix: (Units=GPa)
#
#
# Indices 1 2 3 4 5 6 
#
# 1 57.2544 63.7887 40.7452 0.0000 0.0000 0.0000
# 2 63.7887 122.2327 58.2969 0.0000 0.0000 0.0000
# 3 40.7452 58.2969 97.5405 0.0000 0.0000 0.0000
# 4 0.0000 0.0000 0.0000 25.2361 0.0000 0.0000
# 5 0.0000 0.0000 0.0000 0.0000 -33.3346 0.0000
# 6 0.0000 0.0000 0.0000 0.0000 0.0000 26.2553
#
#
#
# Elastic Compliance Matrix: (Units=1/GPa)
#
#
# Indices 1 2 3 4 5 6 
#
# 1 0.044568 -0.020112 -0.006597 0.000000 0.000000 0.000000
# 2 -0.020112 0.020519 -0.003862 0.000000 0.000000 0.000000
# 3 -0.006597 -0.003862 0.015316 0.000000 0.000000 0.000000
# 4 0.000000 0.000000 0.000000 0.039626 0.000000 0.000000
# 5 0.000000 0.000000 0.000000 0.000000 -0.029999 0.000000
# 6 0.000000 0.000000 0.000000 0.000000 0.000000 0.038088
#
#
# Mechanical properties :
#
#
# Convention : Reuss Voigt Hill
#
# Bulk Modulus (GPa) = 51.91894 66.96548 59.44221
# Shear Modulus (GPa) = 25.55194 11.24449 18.39822
#
# Velocity S-wave (km/s) = 4.02801 2.67207 3.41796
# Velocity P-wave (km/s) = 7.38921 7.21398 7.30212
#
# Compressibility (1/GPa) = 0.01926079
#
# Stress axis : x y z
#
# Youngs Moduli (GPa) = 22.43761 48.73565 65.29092
#
# Poissons Ratio (x) = 0.98018 0.43071
# Poissons Ratio (y) = 0.45127 0.25216
# Poissons Ratio (z) = 0.14802 0.18822
#
# Static dielectric constant tensor:
#      x y z
#    x 1.519720 0.000000 0.000000 
#    y 0.000000 1.567390 0.000000 
#    z 0.000000 0.000000 1.528840 
# 
# From -- ./inp_files/6580.got.cif
#   From: 2010.05.17/outbox.cif.g08.bks.cpg/sg49_4_cif.got.tgz:6580.got - 2010.06.03 21:02:19.
