data_PCOD9392382
_publ_section_title
;
Structure prediction by ZEFSAII (Michael W. Deem and Ramdas Pophale) SiO2 
 PCOD9392382
Probable space group: P C C M
;
_chemical_formula_sum "Si O2"
_cell_formula_units_Z 56
_cell_length_a 21.691066
_cell_length_b 18.825228
_cell_length_c 8.657341
_cell_angle_alpha 90.000000
_cell_angle_beta 90.000000
_cell_angle_gamma 90.000000
_cell_volume 3535.132244
_symmetry_space_group_name_H-M "P C C M"
_symmetry_group_IT_number 49
_symmetry_cell_setting 'orthorhombic'
loop_
_space_group_symop_operation_xyz
x,y,z
-x,-y,z
x,-y,1/2-z
-x,y,1/2-z
-x,-y,-z
x,y,-z
-x,y,1/2+z
x,-y,1/2+z
loop_
_atom_site_type_symbol
_atom_site_label
_atom_site_fract_x
_atom_site_fract_y
_atom_site_fract_z
Si Si1 0.310889 0.420888 0.685351
Si Si2 0.934441 0.421242 0.682709
Si Si3 0.565480 0.156796 0.184135
Si Si4 0.686925 0.078967 0.685141
Si Si5 0.818337 0.656611 0.683738
Si Si6 0.625141 0.289628 0.682767
Si Si7 0.256025 0.210214 0.315381
O O1 0.315851 0.500000 0.750000
O O2 0.315057 0.420217 0.500000
O O3 0.243368 0.388151 0.726269
O O4 0.362957 0.368456 0.753560
O O5 0.922936 0.500000 0.750000
O O6 0.939506 0.426750 0.500000
O O7 0.877690 0.371887 0.729635
O O8 0.000000 0.396382 0.750000
O O9 0.500000 0.132354 0.250000
O O10 0.621864 0.112009 0.256330
O O11 0.575829 0.239004 0.234129
O O12 0.567553 0.150889 0.000000
O O13 0.688211 0.080118 0.500000
O O14 0.739925 0.130413 0.754406
O O15 0.692829 0.000000 0.750000
O O16 0.827285 0.646903 0.500000
O O17 0.802651 0.739529 0.711396
O O18 0.614822 0.289805 0.500000
O O19 0.688932 0.249666 0.725241
O O20 0.269093 0.212062 0.500000
#
# Coordination Sequence:
#
# PCOD9392382 Si02
#       7
#     8   8   8   8   8   8   8
#     4  10  19  30  45  67  92 119 150 192 238 281
#     4  11  21  32  46  63  91 128 167 204 242 281
#     4  11  21  35  52  71  93 120 155 190 225 270
#     4  11  21  34  51  73 100 128 155 186 227 275
#     4   9  18  31  47  67  93 122 157 195 234 276
#     4  10  18  30  47  67  90 118 150 187 230 276
#     4   9  17  31  49  69  93 122 153 190 231 274
#
# _framework density 15.840992
#
# number of rings (size 3 to 8) (size 9 to 14) (size 15 to 20)
#    0.000    1.857    0.000    9.429    0.000    4.857 
#    0.000    1.429    0.000    0.429    0.000    3.000 
#    0.000    0.571    0.000    6.000    0.000    2.571 
#
# Total GULP energy -312369.823214 kJ/mol
# GULP energy per Si atom -5578.032557 kJ/mol
# Density = 1.580494 g / cm^3
# Si number density = 15.840992 Si / 1000 Ang^3
#
#
#
# Elastic Constant Matrix: (Units=GPa)
#
#
# Indices 1 2 3 4 5 6 
#
# 1 30.3806 18.4339 16.1533 0.0000 0.0000 0.0000
# 2 18.4339 112.8169 33.0764 0.0000 0.0000 0.0000
# 3 16.1533 33.0764 102.2412 0.0000 0.0000 0.0000
# 4 0.0000 0.0000 0.0000 30.6047 0.0000 0.0000
# 5 0.0000 0.0000 0.0000 0.0000 10.3108 0.0000
# 6 0.0000 0.0000 0.0000 0.0000 0.0000 15.5633
#
#
#
# Elastic Compliance Matrix: (Units=1/GPa)
#
#
# Indices 1 2 3 4 5 6 
#
# 1 0.038285 -0.004952 -0.004447 0.000000 0.000000 0.000000
# 2 -0.004952 0.010433 -0.002593 0.000000 0.000000 0.000000
# 3 -0.004447 -0.002593 0.011322 0.000000 0.000000 0.000000
# 4 0.000000 0.000000 0.000000 0.032675 0.000000 0.000000
# 5 0.000000 0.000000 0.000000 0.000000 0.096985 0.000000
# 6 0.000000 0.000000 0.000000 0.000000 0.000000 0.064254
#
#
# Mechanical properties :
#
#
# Convention : Reuss Voigt Hill
#
# Bulk Modulus (GPa) = 27.73377 42.30734 35.02055
# Shear Modulus (GPa) = 17.24400 23.14745 20.19573
#
# Velocity S-wave (km/s) = 3.30293 3.82676 3.57445
# Velocity P-wave (km/s) = 5.66492 6.80374 6.26028
#
# Compressibility (1/GPa) = 0.03605713
#
# Stress axis : x y z
#
# Youngs Moduli (GPa) = 26.12006 95.84735 88.32221
#
# Poissons Ratio (x) = 0.47463 0.39274
# Poissons Ratio (y) = 0.12934 0.22901
# Poissons Ratio (z) = 0.11615 0.24853
#
# Static dielectric constant tensor:
#      x y z
#    x 1.520660 0.000000 0.000000 
#    y 0.000000 1.556960 0.000000 
#    z 0.000000 0.000000 1.526950 
# 
# From -- ./inp_files/5899.got.cif
#   From: 2010.05.17/outbox.cif.g08.bks.cpg/sg49_3_cif.got.tgz:5899.got - 2010.06.03 21:02:19.
