data_PCOD9392448
_publ_section_title
;
Structure prediction by ZEFSAII (Michael W. Deem and Ramdas Pophale) SiO2 
 PCOD9392448
Probable space group: P C C M
;
_chemical_formula_sum "Si O2"
_cell_formula_units_Z 40
_cell_length_a 9.607040
_cell_length_b 26.778568
_cell_length_c 8.600373
_cell_angle_alpha 90.000000
_cell_angle_beta 90.000000
_cell_angle_gamma 90.000000
_cell_volume 2212.555815
_symmetry_space_group_name_H-M "P C C M"
_symmetry_group_IT_number 49
_symmetry_cell_setting 'orthorhombic'
loop_
_space_group_symop_operation_xyz
x,y,z
-x,-y,z
x,-y,1/2-z
-x,y,1/2-z
-x,-y,-z
x,y,-z
-x,y,1/2+z
x,-y,1/2+z
loop_
_atom_site_type_symbol
_atom_site_label
_atom_site_fract_x
_atom_site_fract_y
_atom_site_fract_z
Si Si1 0.655942 0.446786 0.186245
Si Si2 0.156968 0.647714 0.813217
Si Si3 0.656592 0.946077 0.186468
Si Si4 0.157801 0.856263 0.186141
Si Si5 0.841550 0.248191 0.314161
O O1 0.708073 0.500000 0.250000
O O2 0.500000 0.439805 0.250000
O O3 0.752417 0.400318 0.231166
O O4 0.650431 0.449369 0.000000
O O5 0.218662 0.699316 0.744946
O O6 0.000000 0.641956 0.750000
O O7 0.151850 0.651777 0.000000
O O8 0.500000 0.938927 0.250000
O O9 0.753081 0.901987 0.249140
O O10 0.704729 0.000000 0.250000
O O11 0.654945 0.946749 0.000000
O O12 0.218193 0.803224 0.246282
O O13 0.000000 0.860299 0.250000
O O14 0.154805 0.856359 0.000000
O O15 0.842891 0.246427 0.500000
O O16 0.000000 0.249061 0.250000
#
# Coordination Sequence:
#
# PCOD9392448 Si02
#       5
#     8   8   8   8   8
#     4  10  21  36  55  76 103 137 175 214 261 313
#     4  10  20  34  53  79 106 137 174 216 261 312
#     4  11  22  39  59  82 110 145 183 222 270 323
#     4  11  21  36  57  83 112 144 181 225 269 318
#     4  10  18  31  52  78 107 141 175 215 265 318
#
# _framework density 18.07864
#
# number of rings (size 3 to 8) (size 9 to 14) (size 15 to 20)
#    0.000    1.600    0.000   10.200    0.000    4.000 
#    0.000    5.000    0.000    2.400    0.000    0.000 
#    0.000    0.000    0.000    0.000    0.000    0.000 
#
# Total GULP energy -223365.930493 kJ/mol
# GULP energy per Si atom -5584.148262 kJ/mol
# Density = 1.803749 g / cm^3
# Si number density = 18.078640 Si / 1000 Ang^3
#
#
#
# Elastic Constant Matrix: (Units=GPa)
#
#
# Indices 1 2 3 4 5 6 
#
# 1 45.3903 78.8036 35.2521 0.0000 0.0000 0.0000
# 2 78.8036 228.4235 87.7822 0.0000 0.0000 0.0000
# 3 35.2521 87.7822 162.3176 0.0000 0.0000 0.0000
# 4 0.0000 0.0000 0.0000 37.7008 0.0000 0.0000
# 5 0.0000 0.0000 0.0000 0.0000 7.6050 0.0000
# 6 0.0000 0.0000 0.0000 0.0000 0.0000 183.1928
#
#
#
# Elastic Compliance Matrix: (Units=1/GPa)
#
#
# Indices 1 2 3 4 5 6 
#
# 1 0.055519 -0.018329 -0.002145 0.000000 0.000000 0.000000
# 2 -0.018329 0.011578 -0.002280 0.000000 0.000000 0.000000
# 3 -0.002145 -0.002280 0.007860 0.000000 0.000000 0.000000
# 4 0.000000 0.000000 0.000000 0.026525 0.000000 0.000000
# 5 0.000000 0.000000 0.000000 0.000000 0.131492 0.000000
# 6 0.000000 0.000000 0.000000 0.000000 0.000000 0.005459
#
#
# Mechanical properties :
#
#
# Convention : Reuss Voigt Hill
#
# Bulk Modulus (GPa) = 33.95934 93.31191 63.63563
# Shear Modulus (GPa) = 17.02088 61.31929 39.17009
#
# Velocity S-wave (km/s) = 3.07170 5.83024 4.65978
# Velocity P-wave (km/s) = 5.60406 9.85133 8.01418
#
# Compressibility (1/GPa) = 0.02944698
#
# Stress axis : x y z
#
# Youngs Moduli (GPa) = 18.01191 86.37428 127.22738
#
# Poissons Ratio (x) = 1.58315 0.27292
# Poissons Ratio (y) = 0.33014 0.29014
# Poissons Ratio (z) = 0.03864 0.19698
#
# Static dielectric constant tensor:
#      x y z
#    x 1.607020 0.000000 0.000000 
#    y 0.000000 1.653930 0.000000 
#    z 0.000000 0.000000 1.602990 
# 
# From -- ./inp_files/1931.got.cif
#   From: 2010.05.17/outbox.cif.g08.bks.cpg/sg49_1_cif.got.tgz:1931.got - 2010.06.03 21:02:19.
