data_PCOD9392612
_publ_section_title
;
Structure prediction by ZEFSAII (Michael W. Deem and Ramdas Pophale) SiO2 
 PCOD9392612
Probable space group: P C C M
;
_chemical_formula_sum "Si O2"
_cell_formula_units_Z 64
_cell_length_a 21.002887
_cell_length_b 20.488733
_cell_length_c 8.483801
_cell_angle_alpha 90.000000
_cell_angle_beta 90.000000
_cell_angle_gamma 90.000000
_cell_volume 3650.770829
_symmetry_space_group_name_H-M "P C C M"
_symmetry_group_IT_number 49
_symmetry_cell_setting 'orthorhombic'
loop_
_space_group_symop_operation_xyz
x,y,z
-x,-y,z
x,-y,1/2-z
-x,y,1/2-z
-x,-y,-z
x,y,-z
-x,y,1/2+z
x,-y,1/2+z
loop_
_atom_site_type_symbol
_atom_site_label
_atom_site_fract_x
_atom_site_fract_y
_atom_site_fract_z
Si Si1 0.571092 0.427938 0.810723
Si Si2 0.890700 0.789679 0.309597
Si Si3 0.687071 0.661603 0.690327
Si Si4 0.254121 0.790460 0.312355
Si Si5 0.898906 0.931422 0.313455
Si Si6 0.193407 0.573329 0.190362
Si Si7 0.066925 0.648881 0.190164
Si Si8 0.754372 0.934242 0.188143
O O1 0.589757 0.500000 0.750000
O O2 0.500000 0.414512 0.750000
O O3 0.622336 0.374085 0.758976
O O4 0.570144 0.430035 0.000000
O O5 0.893339 0.790907 0.500000
O O6 0.816397 0.783563 0.262211
O O7 0.918470 0.859436 0.251539
O O8 0.924491 0.723815 0.253624
O O9 0.687426 0.663576 0.500000
O O10 0.700052 0.733976 0.751822
O O11 0.746824 0.617067 0.741971
O O12 0.246914 0.785014 0.500000
O O13 0.276685 0.864360 0.276731
O O14 0.907540 0.932453 0.500000
O O15 0.823591 0.932232 0.271348
O O16 0.925447 0.000000 0.250000
O O17 0.198686 0.500000 0.250000
O O18 0.127714 0.607130 0.242925
O O19 0.193581 0.572855 0.000000
O O20 0.000000 0.622470 0.250000
O O21 0.067008 0.649468 0.000000
O O22 0.721768 0.000000 0.250000
O O23 0.764178 0.939046 0.000000
#
# Coordination Sequence:
#
# PCOD9392612 Si02
#       8
#     8   8   8   8   8   8   8   8
#     4  10  20  34  54  77 105 140 175 209 245 291
#     4   9  17  32  49  64  91 127 158 193 244 300
#     4  10  20  35  53  74 103 138 169 199 244 297
#     4  10  19  28  45  73 100 126 163 210 247 284
#     4   9  15  23  40  63  87 118 151 188 235 285
#     4  10  21  37  55  74  97 123 157 199 244 296
#     4  10  21  37  54  70  92 121 158 203 248 300
#     4   9  16  25  37  60  93 127 161 196 239 285
#
# _framework density 17.530543000000002
#
# number of rings (size 3 to 8) (size 9 to 14) (size 15 to 20)
#    0.000    2.375    1.250    3.000    0.000    4.750 
#    0.000    1.250    0.000    0.375    0.000    2.625 
#    0.000    0.500    0.000    5.500    0.000    4.000 
#
# Total GULP energy -356856.867507 kJ/mol
# GULP energy per Si atom -5575.888555 kJ/mol
# Density = 1.749064 g / cm^3
# Si number density = 17.530543 Si / 1000 Ang^3
#
#
#
# Elastic Constant Matrix: (Units=GPa)
#
#
# Indices 1 2 3 4 5 6 
#
# 1 67.9641 50.5634 10.7873 0.0000 0.0000 0.0000
# 2 50.5634 138.8397 16.3409 0.0000 0.0000 0.0000
# 3 10.7873 16.3409 13.1757 0.0000 0.0000 0.0000
# 4 0.0000 0.0000 0.0000 27.9860 0.0000 0.0000
# 5 0.0000 0.0000 0.0000 0.0000 1.9538 0.0000
# 6 0.0000 0.0000 0.0000 0.0000 0.0000 38.1423
#
#
#
# Elastic Compliance Matrix: (Units=1/GPa)
#
#
# Indices 1 2 3 4 5 6 
#
# 1 0.021065 -0.006606 -0.009054 0.000000 0.000000 0.000000
# 2 -0.006606 0.010505 -0.007620 0.000000 0.000000 0.000000
# 3 -0.009054 -0.007620 0.092760 0.000000 0.000000 0.000000
# 4 0.000000 0.000000 0.000000 0.035732 0.000000 0.000000
# 5 0.000000 0.000000 0.000000 0.000000 0.511812 0.000000
# 6 0.000000 0.000000 0.000000 0.000000 0.000000 0.026218
#
#
# Mechanical properties :
#
#
# Convention : Reuss Voigt Hill
#
# Bulk Modulus (GPa) = 12.85828 41.70695 27.28261
# Shear Modulus (GPa) = 6.48864 23.10229 14.79547
#
# Velocity S-wave (km/s) = 1.92597 3.63413 2.90829
# Velocity P-wave (km/s) = 3.50664 6.43831 5.18403
#
# Compressibility (1/GPa) = 0.07777092
#
# Stress axis : x y z
#
# Youngs Moduli (GPa) = 47.47109 95.19004 10.78046
#
# Poissons Ratio (x) = 0.62884 0.09760
# Poissons Ratio (y) = 0.31360 0.08215
# Poissons Ratio (z) = 0.42979 0.72538
#
# Static dielectric constant tensor:
#      x y z
#    x 1.575510 0.000000 0.000000 
#    y 0.000000 1.647260 0.000000 
#    z 0.000000 0.000000 1.605980 
# 
# From -- ./inp_files/5248.got.cif
#   From: 2010.05.17/outbox.cif.g08.bks.cpg/sg49_3_cif.got.tgz:5248.got - 2010.06.03 21:02:19.
