data_PCOD9392667
_publ_section_title
;
Structure prediction by ZEFSAII (Michael W. Deem and Ramdas Pophale) SiO2 
 PCOD9392667
Probable space group: P C C M
;
_chemical_formula_sum "Si O2"
_cell_formula_units_Z 32
_cell_length_a 14.199961
_cell_length_b 14.234170
_cell_length_c 8.845501
_cell_angle_alpha 90.000000
_cell_angle_beta 90.000000
_cell_angle_gamma 90.000000
_cell_volume 1787.893872
_symmetry_space_group_name_H-M "P C C M"
_symmetry_group_IT_number 49
_symmetry_cell_setting 'orthorhombic'
loop_
_space_group_symop_operation_xyz
x,y,z
-x,-y,z
x,-y,1/2-z
-x,y,1/2-z
-x,-y,-z
x,y,-z
-x,y,1/2+z
x,-y,1/2+z
loop_
_atom_site_type_symbol
_atom_site_label
_atom_site_fract_x
_atom_site_fract_y
_atom_site_fract_z
Si Si1 0.101885 0.604452 0.683693
Si Si2 0.395240 0.099514 0.681285
Si Si3 0.257437 0.755879 0.674104
Si Si4 0.910087 0.901705 0.828948
O O1 0.114346 0.500000 0.750000
O O2 0.095377 0.604637 0.500000
O O3 0.194434 0.666376 0.724815
O O4 0.000000 0.637000 0.750000
O O5 0.500000 0.107016 0.750000
O O6 0.397102 0.090946 0.500000
O O7 0.339027 0.193749 0.729763
O O8 0.356294 0.000000 0.750000
O O9 0.289314 0.739817 0.500000
O O10 0.178639 0.836264 0.673748
O O11 0.000000 0.856593 0.750000
O O12 0.890795 0.000000 0.750000
O O13 0.936141 0.919160 0.000000
#
# Coordination Sequence:
#
# PCOD9392667 Si02
#       4
#     8   8   8   8
#     4  10  20  35  55  79 110 144 181 225 269 319
#     4  11  22  37  58  81 109 142 177 219 265 317
#     4  10  21  35  52  76 104 136 176 220 265 314
#     4  10  19  30  44  65  97 133 167 204 247 299
#
# _framework density 17.898154000000002
#
# number of rings (size 3 to 8) (size 9 to 14) (size 15 to 20)
#    0.000    1.750    0.000    7.500    0.000    6.000 
#    0.000    0.000    0.000    0.750    0.000    5.250 
#    0.000    0.000    0.000    0.000    0.000    0.000 
#
# Total GULP energy -178314.492548 kJ/mol
# GULP energy per Si atom -5572.327892 kJ/mol
# Density = 1.785742 g / cm^3
# Si number density = 17.898154 Si / 1000 Ang^3
#
#
#
# Elastic Constant Matrix: (Units=GPa)
#
#
# Indices 1 2 3 4 5 6 
#
# 1 75.7219 43.0950 38.8228 0.0000 0.0000 0.0000
# 2 43.0950 109.3099 40.1815 0.0000 0.0000 0.0000
# 3 38.8228 40.1815 121.5534 0.0000 0.0000 0.0000
# 4 0.0000 0.0000 0.0000 17.0438 0.0000 0.0000
# 5 0.0000 0.0000 0.0000 0.0000 93.9213 0.0000
# 6 0.0000 0.0000 0.0000 0.0000 0.0000 36.6679
#
#
#
# Elastic Compliance Matrix: (Units=1/GPa)
#
#
# Indices 1 2 3 4 5 6 
#
# 1 0.018592 -0.005859 -0.004001 0.000000 0.000000 0.000000
# 2 -0.005859 0.012260 -0.002181 0.000000 0.000000 0.000000
# 3 -0.004001 -0.002181 0.010226 0.000000 0.000000 0.000000
# 4 0.000000 0.000000 0.000000 0.058672 0.000000 0.000000
# 5 0.000000 0.000000 0.000000 0.000000 0.010647 0.000000
# 6 0.000000 0.000000 0.000000 0.000000 0.000000 0.027272
#
#
# Mechanical properties :
#
#
# Convention : Reuss Voigt Hill
#
# Bulk Modulus (GPa) = 58.84237 61.19820 60.02029
# Shear Modulus (GPa) = 29.86534 41.82566 35.84550
#
# Velocity S-wave (km/s) = 4.08931 4.83936 4.48006
# Velocity P-wave (km/s) = 7.43265 8.09275 7.76971
#
# Compressibility (1/GPa) = 0.01699456
#
# Stress axis : x y z
#
# Youngs Moduli (GPa) = 53.78589 81.56541 97.79052
#
# Poissons Ratio (x) = 0.47790 0.39129
# Poissons Ratio (y) = 0.31513 0.21333
# Poissons Ratio (z) = 0.21522 0.17793
#
# Static dielectric constant tensor:
#      x y z
#    x 1.632570 0.000000 0.000000 
#    y 0.000000 1.634480 0.000000 
#    z 0.000000 0.000000 1.648330 
# 
# From -- ./inp_files/3330.got.cif
#   From: 2010.05.17/outbox.cif.g08.bks.cpg/sg49_2_cif.got.tgz:3330.got - 2010.06.03 21:02:19.
