data_PCOD9392394
_publ_section_title
;
Structure prediction by ZEFSAII (Michael W. Deem and Ramdas Pophale) SiO2 
 PCOD9392394
Probable space group: P C C M
;
_chemical_formula_sum "Si O2"
_cell_formula_units_Z 56
_cell_length_a 21.870979
_cell_length_b 18.892489
_cell_length_c 8.516391
_cell_angle_alpha 90.000000
_cell_angle_beta 90.000000
_cell_angle_gamma 90.000000
_cell_volume 3518.949172
_symmetry_space_group_name_H-M "P C C M"
_symmetry_group_IT_number 49
_symmetry_cell_setting 'orthorhombic'
loop_
_space_group_symop_operation_xyz
x,y,z
-x,-y,z
x,-y,1/2-z
-x,y,1/2-z
-x,-y,-z
x,y,-z
-x,y,1/2+z
x,-y,1/2+z
loop_
_atom_site_type_symbol
_atom_site_label
_atom_site_fract_x
_atom_site_fract_y
_atom_site_fract_z
Si Si1 0.311255 0.579365 0.811013
Si Si2 0.746959 0.288174 0.313752
Si Si3 0.631607 0.797056 0.685655
Si Si4 0.180939 0.833513 0.812781
Si Si5 0.067726 0.920947 0.312003
Si Si6 0.297310 0.921113 0.313885
Si Si7 0.565408 0.338575 0.188926
O O1 0.306162 0.500000 0.750000
O O2 0.259853 0.630845 0.737984
O O3 0.377421 0.612386 0.762188
O O4 0.307867 0.581804 0.000000
O O5 0.736804 0.281008 0.500000
O O6 0.692561 0.249036 0.218942
O O7 0.805784 0.242962 0.264324
O O8 0.625493 0.809487 0.500000
O O9 0.645347 0.870716 0.770471
O O10 0.579250 0.742649 0.740677
O O11 0.118714 0.868104 0.752415
O O12 0.237055 0.884818 0.761189
O O13 0.181133 0.827637 0.000000
O O14 0.067887 0.921782 0.500000
O O15 0.000000 0.903241 0.250000
O O16 0.082007 0.000000 0.250000
O O17 0.289054 0.921994 0.500000
O O18 0.304774 0.000000 0.250000
O O19 0.500000 0.362748 0.250000
O O20 0.565004 0.338264 0.000000
#
# Coordination Sequence:
#
# PCOD9392394 Si02
#       7
#     8   8   8   8   8   8   8
#     4  10  20  34  49  70  97 126 153 186 228 275
#     4  10  18  30  48  70  92 120 153 189 230 277
#     4   9  17  31  46  64  88 115 146 186 229 274
#     4  11  20  32  48  68  94 125 159 198 234 274
#     4  11  21  34  48  67  95 131 170 206 243 283
#     4  11  20  30  45  67  90 116 148 189 236 282
#     4   9  19  32  48  67  90 118 152 186 222 268
#
# _framework density 15.913842000000001
#
# number of rings (size 3 to 8) (size 9 to 14) (size 15 to 20)
#    0.000    1.857    0.000    9.429    0.000    3.714 
#    0.000    1.429    0.000    0.429    0.000    3.000 
#    0.000    0.571    0.000    5.714    0.000    3.429 
#
# Total GULP energy -312345.688834 kJ/mol
# GULP energy per Si atom -5577.601586 kJ/mol
# Density = 1.587762 g / cm^3
# Si number density = 15.913842 Si / 1000 Ang^3
#
#
#
# Elastic Constant Matrix: (Units=GPa)
#
#
# Indices 1 2 3 4 5 6 
#
# 1 51.7222 42.9550 11.6736 0.0000 0.0000 0.0000
# 2 42.9550 128.6338 27.4708 0.0000 0.0000 0.0000
# 3 11.6736 27.4708 72.1231 0.0000 0.0000 0.0000
# 4 0.0000 0.0000 0.0000 29.7958 0.0000 0.0000
# 5 0.0000 0.0000 0.0000 0.0000 68.6132 0.0000
# 6 0.0000 0.0000 0.0000 0.0000 0.0000 21.5448
#
#
#
# Elastic Compliance Matrix: (Units=1/GPa)
#
#
# Indices 1 2 3 4 5 6 
#
# 1 0.026821 -0.008740 -0.001012 0.000000 0.000000 0.000000
# 2 -0.008740 0.011311 -0.002893 0.000000 0.000000 0.000000
# 3 -0.001012 -0.002893 0.015131 0.000000 0.000000 0.000000
# 4 0.000000 0.000000 0.000000 0.033562 0.000000 0.000000
# 5 0.000000 0.000000 0.000000 0.000000 0.014574 0.000000
# 6 0.000000 0.000000 0.000000 0.000000 0.000000 0.046415
#
#
# Mechanical properties :
#
#
# Convention : Reuss Voigt Hill
#
# Bulk Modulus (GPa) = 35.75098 46.29755 41.02427
# Shear Modulus (GPa) = 27.40783 35.34941 31.37862
#
# Velocity S-wave (km/s) = 4.15452 4.71818 4.44529
# Velocity P-wave (km/s) = 6.74740 7.67055 7.22374
#
# Compressibility (1/GPa) = 0.02797126
#
# Stress axis : x y z
#
# Youngs Moduli (GPa) = 37.28377 88.41261 66.08925
#
# Poissons Ratio (x) = 0.77276 0.06689
# Poissons Ratio (y) = 0.32587 0.19122
# Poissons Ratio (z) = 0.03774 0.25581
#
# Static dielectric constant tensor:
#      x y z
#    x 1.527750 0.000000 0.000000 
#    y 0.000000 1.556030 0.000000 
#    z 0.000000 0.000000 1.520100 
# 
# From -- ./inp_files/6037.got.cif
#   From: 2010.05.17/outbox.cif.g08.bks.cpg/sg49_4_cif.got.tgz:6037.got - 2010.06.03 21:02:19.
