data_PCOD9392037
_publ_section_title
;
Structure prediction by ZEFSAII (Michael W. Deem and Ramdas Pophale) SiO2 
 PCOD9392037
Probable space group: P C C M
;
_chemical_formula_sum "Si O2"
_cell_formula_units_Z 40
_cell_length_a 9.280160
_cell_length_b 26.971949
_cell_length_c 8.631606
_cell_angle_alpha 90.000000
_cell_angle_beta 90.000000
_cell_angle_gamma 90.000000
_cell_volume 2160.525527
_symmetry_space_group_name_H-M "P C C M"
_symmetry_group_IT_number 49
_symmetry_cell_setting 'orthorhombic'
loop_
_space_group_symop_operation_xyz
x,y,z
-x,-y,z
x,-y,1/2-z
-x,y,1/2-z
-x,-y,-z
x,y,-z
-x,y,1/2+z
x,-y,1/2+z
loop_
_atom_site_type_symbol
_atom_site_label
_atom_site_fract_x
_atom_site_fract_y
_atom_site_fract_z
Si Si1 0.161503 0.447004 0.185000
Si Si2 0.164158 0.846841 0.314978
Si Si3 0.838054 0.743979 0.314432
Si Si4 0.835345 0.051123 0.814729
Si Si5 0.660522 0.354929 0.814332
O O1 0.213532 0.500000 0.250000
O O2 0.258980 0.401968 0.241787
O O3 0.000000 0.439742 0.250000
O O4 0.156272 0.448935 0.000000
O O5 0.160808 0.849464 0.500000
O O6 0.226229 0.794483 0.257936
O O7 0.230653 0.897335 0.246343
O O8 0.000000 0.845394 0.250000
O O9 0.845570 0.749744 0.500000
O O10 0.746147 0.695498 0.275994
O O11 0.000000 0.737356 0.250000
O O12 0.000000 0.051537 0.750000
O O13 0.769549 0.000000 0.750000
O O14 0.839367 0.050392 0.000000
O O15 0.500000 0.352016 0.750000
O O16 0.659167 0.360060 0.000000
#
# Coordination Sequence:
#
# PCOD9392037 Si02
#       5
#     8   8   8   8   8
#     4  11  22  39  63  89 117 147 183 222 264 313
#     4  10  17  26  41  62  89 123 164 208 255 307
#     4  10  20  34  53  76 102 135 175 219 264 314
#     4  10  16  23  34  52  82 119 159 201 250 307
#     4  11  24  40  58  82 112 145 182 223 271 321
#
# _framework density 18.514015000000001
#
# number of rings (size 3 to 8) (size 9 to 14) (size 15 to 20)
#    0.000    1.600    0.000   10.800    0.000    5.200 
#    0.000    2.000    0.000    0.000    0.000    0.000 
#    0.000    0.800    0.000    8.400    0.000    8.000 
#
# Total GULP energy -223338.446692 kJ/mol
# GULP energy per Si atom -5583.461167 kJ/mol
# Density = 1.847188 g / cm^3
# Si number density = 18.514015 Si / 1000 Ang^3
#
#
#
# Elastic Constant Matrix: (Units=GPa)
#
#
# Indices 1 2 3 4 5 6 
#
# 1 44.8875 69.5142 36.9119 0.0000 0.0000 0.0000
# 2 69.5142 226.4771 106.8678 0.0000 0.0000 0.0000
# 3 36.9119 106.8678 166.3250 0.0000 0.0000 0.0000
# 4 0.0000 0.0000 0.0000 39.2962 0.0000 0.0000
# 5 0.0000 0.0000 0.0000 0.0000 13.9404 0.0000
# 6 0.0000 0.0000 0.0000 0.0000 0.0000 -6.9712
#
#
#
# Elastic Compliance Matrix: (Units=1/GPa)
#
#
# Indices 1 2 3 4 5 6 
#
# 1 0.042725 -0.012399 -0.001515 0.000000 0.000000 0.000000
# 2 -0.012399 0.009935 -0.003632 0.000000 0.000000 0.000000
# 3 -0.001515 -0.003632 0.008682 0.000000 0.000000 0.000000
# 4 0.000000 0.000000 0.000000 0.025448 0.000000 0.000000
# 5 0.000000 0.000000 0.000000 0.000000 0.071734 0.000000
# 6 0.000000 0.000000 0.000000 0.000000 0.000000 -0.143447
#
#
# Mechanical properties :
#
#
# Convention : Reuss Voigt Hill
#
# Bulk Modulus (GPa) = 38.09465 96.03084 67.06275
# Shear Modulus (GPa) = 84.86280 24.21279 54.53779
#
# Velocity S-wave (km/s) = 6.77765 3.62029 5.43337
# Velocity P-wave (km/s) = 9.04818 8.33410 8.69847
#
# Compressibility (1/GPa) = 0.02625040
#
# Stress axis : x y z
#
# Youngs Moduli (GPa) = 23.40528 100.65549 115.17994
#
# Poissons Ratio (x) = 1.24803 0.17452
# Poissons Ratio (y) = 0.29020 0.41830
# Poissons Ratio (z) = 0.03546 0.36555
#
# Static dielectric constant tensor:
#      x y z
#    x 1.593700 0.000000 0.000000 
#    y 0.000000 1.700320 0.000000 
#    z 0.000000 0.000000 1.616420 
# 
# From -- ./inp_files/1913.got.cif
#   From: 2010.05.17/outbox.cif.g08.bks.cpg/sg49_1_cif.got.tgz:1913.got - 2010.06.03 21:02:19.
