data_PCOD9392277
_publ_section_title
;
Structure prediction by ZEFSAII (Michael W. Deem and Ramdas Pophale) SiO2 
 PCOD9392277
Probable space group: P C C M
;
_chemical_formula_sum "Si O2"
_cell_formula_units_Z 48
_cell_length_a 15.615866
_cell_length_b 7.565999
_cell_length_c 18.720820
_cell_angle_alpha 90.000000
_cell_angle_beta 90.000000
_cell_angle_gamma 90.000000
_cell_volume 2211.857892
_symmetry_space_group_name_H-M "P C C M"
_symmetry_group_IT_number 49
_symmetry_cell_setting 'orthorhombic'
loop_
_space_group_symop_operation_xyz
x,y,z
-x,-y,z
x,-y,1/2-z
-x,y,1/2-z
-x,-y,-z
x,y,-z
-x,y,1/2+z
x,-y,1/2+z
loop_
_atom_site_type_symbol
_atom_site_label
_atom_site_fract_x
_atom_site_fract_y
_atom_site_fract_z
Si Si1 0.012644 0.285618 0.415470
Si Si2 0.253862 0.471116 0.421728
Si Si3 0.716117 0.134317 0.304241
Si Si4 0.400909 0.450469 0.169188
Si Si5 0.140189 0.328410 0.293986
Si Si6 0.825123 0.866598 0.077138
O O1 0.040166 0.253908 0.500000
O O2 0.922984 0.182628 0.407869
O O3 0.000000 0.500000 0.412139
O O4 0.067248 0.237746 0.343961
O O5 0.239709 0.395753 0.500000
O O6 0.350535 0.454952 0.394551
O O7 0.199376 0.395666 0.357934
O O8 0.222443 0.675439 0.425127
O O9 0.639254 0.254207 0.333852
O O10 0.795193 0.231526 0.261759
O O11 0.769210 0.032498 0.365217
O O12 0.674960 0.000000 0.250000
O O13 0.500000 0.500000 0.164484
O O14 0.372946 0.500000 0.250000
O O15 0.106338 0.500000 0.250000
O O16 0.820231 0.951057 0.000000
#
# Coordination Sequence:
#
# PCOD9392277 Si02
#       6
#     8   8   8   8   8   8
#     4  10  18  29  50  82 115 150 201 256 298 328
#     4  10  17  31  55  82 112 145 185 234 291 343
#     4  11  22  38  58  84 116 153 194 228 281 357
#     4  10  19  37  62  86 113 138 176 238 288 345
#     4  12  19  33  52  81 114 150 200 251 290 330
#     4   9  18  34  53  80 117 157 194 241 295 335
#
# _framework density 21.701214
#
# number of rings (size 3 to 8) (size 9 to 14) (size 15 to 20)
#    0.000    1.667    6.667    0.500    0.000    2.667 
#    0.000    5.000    0.000    2.000    0.000    1.167 
#    0.000    0.000    0.000    0.000    0.000    0.000 
#
# Total GULP energy -267304.661494 kJ/mol
# GULP energy per Si atom -5568.847114 kJ/mol
# Density = 2.165182 g / cm^3
# Si number density = 21.701214 Si / 1000 Ang^3
#
#
#
# Elastic Constant Matrix: (Units=GPa)
#
#
# Indices 1 2 3 4 5 6 
#
# 1 120.7996 17.9142 58.2223 0.0000 0.0000 0.0000
# 2 17.9142 29.5539 9.8828 0.0000 0.0000 0.0000
# 3 58.2223 9.8828 122.9686 0.0000 0.0000 0.0000
# 4 0.0000 0.0000 0.0000 7.4354 0.0000 0.0000
# 5 0.0000 0.0000 0.0000 0.0000 31.8292 0.0000
# 6 0.0000 0.0000 0.0000 0.0000 0.0000 15.0726
#
#
#
# Elastic Compliance Matrix: (Units=1/GPa)
#
#
# Indices 1 2 3 4 5 6 
#
# 1 0.011475 -0.005281 -0.005009 0.000000 0.000000 0.000000
# 2 -0.005281 0.037201 -0.000489 0.000000 0.000000 0.000000
# 3 -0.005009 -0.000489 0.010543 0.000000 0.000000 0.000000
# 4 0.000000 0.000000 0.000000 0.134492 0.000000 0.000000
# 5 0.000000 0.000000 0.000000 0.000000 0.031418 0.000000
# 6 0.000000 0.000000 0.000000 0.000000 0.000000 0.066346
#
#
# Mechanical properties :
#
#
# Convention : Reuss Voigt Hill
#
# Bulk Modulus (GPa) = 26.55253 49.48452 38.01853
# Shear Modulus (GPa) = 15.35686 23.35428 19.35557
#
# Velocity S-wave (km/s) = 2.66305 3.28407 2.98973
# Velocity P-wave (km/s) = 4.66024 6.10183 5.42910
#
# Compressibility (1/GPa) = 0.03766119
#
# Stress axis : x y z
#
# Youngs Moduli (GPa) = 87.14231 26.88089 94.84895
#
# Poissons Ratio (x) = 0.14196 0.47509
# Poissons Ratio (y) = 0.46019 0.04642
# Poissons Ratio (z) = 0.43649 0.01316
#
# Static dielectric constant tensor:
#      x y z
#    x 1.828440 0.000000 0.000000 
#    y 0.000000 1.885040 0.000000 
#    z 0.000000 0.000000 1.874680 
# 
# From -- ./inp_files/17714.got.cif
#   From: 2010.05.17/outbox.cif.g08.bks.cpg/sg49_9_cif.got.tgz:17714.got - 2010.06.03 21:02:19.
