data_PCOD9392855
_publ_section_title
;
Structure prediction by ZEFSAII (Michael W. Deem and Ramdas Pophale) SiO2 
 PCOD9392855
Probable space group: P C C M
;
_chemical_formula_sum "Si O2"
_cell_formula_units_Z 64
_cell_length_a 26.166629
_cell_length_b 15.326035
_cell_length_c 9.155570
_cell_angle_alpha 90.000000
_cell_angle_beta 90.000000
_cell_angle_gamma 90.000000
_cell_volume 3671.664389
_symmetry_space_group_name_H-M "P C C M"
_symmetry_group_IT_number 49
_symmetry_cell_setting 'orthorhombic'
loop_
_space_group_symop_operation_xyz
x,y,z
-x,-y,z
x,-y,1/2-z
-x,y,1/2-z
-x,-y,-z
x,y,-z
-x,y,1/2+z
x,-y,1/2+z
loop_
_atom_site_type_symbol
_atom_site_label
_atom_site_fract_x
_atom_site_fract_y
_atom_site_fract_z
Si Si1 0.625595 0.085710 0.834592
Si Si2 0.550007 0.611685 0.162464
Si Si3 0.251569 0.910056 0.830421
Si Si4 0.666145 0.588637 0.823429
Si Si5 0.835466 0.595498 0.674794
Si Si6 0.245660 0.723643 0.676277
Si Si7 0.951313 0.405137 0.173226
Si Si8 0.451149 0.180822 0.838438
O O1 0.686604 0.086892 0.833219
O O2 0.600707 0.163807 0.747282
O O3 0.607946 0.000000 0.750000
O O4 0.607608 0.086089 0.000000
O O5 0.500000 0.585301 0.250000
O O6 0.606848 0.596880 0.225312
O O7 0.544326 0.715690 0.149219
O O8 0.549400 0.572771 0.000000
O O9 0.240137 0.820123 0.745196
O O10 0.234733 0.000000 0.750000
O O11 0.234182 0.907567 0.000000
O O12 0.687205 0.500000 0.750000
O O13 0.700733 0.673364 0.788870
O O14 0.666765 0.580142 0.000000
O O15 0.831574 0.500000 0.750000
O O16 0.825678 0.588050 0.500000
O O17 0.797023 0.661006 0.753674
O O18 0.893918 0.629842 0.692736
O O19 0.241540 0.728389 0.500000
O O20 0.948656 0.500000 0.250000
O O21 0.000000 0.359908 0.250000
O O22 0.960598 0.413511 0.000000
O O23 0.500000 0.147030 0.750000
O O24 0.448948 0.142531 0.000000
#
# Coordination Sequence:
#
# PCOD9392855 Si02
#       8
#     8   8   8   8   8   8   8   8
#     4  10  20  33  49  69  91 116 146 182 231 290
#     4   9  19  35  52  69  89 115 150 194 242 291
#     4  10  21  37  57  79 102 128 162 206 254 308
#     4  10  22  37  52  73 100 130 165 205 250 301
#     4  10  20  33  49  74 109 148 188 228 269 312
#     4  11  22  36  55  77 104 139 176 215 261 312
#     4   9  16  26  43  67  99 140 185 229 268 307
#     4  10  19  32  49  67  89 115 145 184 230 284
#
# _framework density 17.430788
#
# number of rings (size 3 to 8) (size 9 to 14) (size 15 to 20)
#    0.000    2.125    0.000    3.750    0.000    7.500 
#    0.000    2.500    0.000    0.000    0.000    0.000 
#    0.000    0.500    0.000    5.250    0.000    2.875 
#
# Total GULP energy -356709.910725 kJ/mol
# GULP energy per Si atom -5573.592355 kJ/mol
# Density = 1.739111 g / cm^3
# Si number density = 17.430788 Si / 1000 Ang^3
#
#
#
# Elastic Constant Matrix: (Units=GPa)
#
#
# Indices 1 2 3 4 5 6 
#
# 1 87.5030 39.2750 49.6944 0.0000 0.0000 0.0000
# 2 39.2750 97.5822 52.1946 0.0000 0.0000 0.0000
# 3 49.6944 52.1946 117.6885 0.0000 0.0000 0.0000
# 4 0.0000 0.0000 0.0000 19.5745 0.0000 0.0000
# 5 0.0000 0.0000 0.0000 0.0000 35.5840 0.0000
# 6 0.0000 0.0000 0.0000 0.0000 0.0000 36.8087
#
#
#
# Elastic Compliance Matrix: (Units=1/GPa)
#
#
# Indices 1 2 3 4 5 6 
#
# 1 0.015993 -0.003703 -0.005111 0.000000 0.000000 0.000000
# 2 -0.003703 0.014292 -0.004775 0.000000 0.000000 0.000000
# 3 -0.005111 -0.004775 0.012773 0.000000 0.000000 0.000000
# 4 0.000000 0.000000 0.000000 0.051087 0.000000 0.000000
# 5 0.000000 0.000000 0.000000 0.000000 0.028103 0.000000
# 6 0.000000 0.000000 0.000000 0.000000 0.000000 0.027167
#
#
# Mechanical properties :
#
#
# Convention : Reuss Voigt Hill
#
# Bulk Modulus (GPa) = 62.97163 65.01130 63.99147
# Shear Modulus (GPa) = 27.48985 29.16741 28.32863
#
# Velocity S-wave (km/s) = 3.97556 4.09507 4.03576
# Velocity P-wave (km/s) = 7.56826 7.72899 7.64905
#
# Compressibility (1/GPa) = 0.01588017
#
# Stress axis : x y z
#
# Youngs Moduli (GPa) = 62.52837 69.96811 78.29245
#
# Poissons Ratio (x) = 0.25911 0.40012
# Poissons Ratio (y) = 0.23156 0.37384
# Poissons Ratio (z) = 0.31956 0.33409
#
# Static dielectric constant tensor:
#      x y z
#    x 1.619770 0.000000 0.000000 
#    y 0.000000 1.610520 0.000000 
#    z 0.000000 0.000000 1.640560 
# 
# From -- ./inp_files/6564.got.cif
#   From: 2010.05.17/outbox.cif.g08.bks.cpg/sg49_4_cif.got.tgz:6564.got - 2010.06.03 21:02:19.
