data_PCOD9392121
_publ_section_title
;
Structure prediction by ZEFSAII (Michael W. Deem and Ramdas Pophale) SiO2 
 PCOD9392121
Probable space group: P C C M
;
_chemical_formula_sum "Si O2"
_cell_formula_units_Z 64
_cell_length_a 32.050517
_cell_length_b 14.775058
_cell_length_c 8.569584
_cell_angle_alpha 90.000000
_cell_angle_beta 90.000000
_cell_angle_gamma 90.000000
_cell_volume 4058.111486
_symmetry_space_group_name_H-M "P C C M"
_symmetry_group_IT_number 49
_symmetry_cell_setting 'orthorhombic'
loop_
_space_group_symop_operation_xyz
x,y,z
-x,-y,z
x,-y,1/2-z
-x,y,1/2-z
-x,-y,-z
x,y,-z
-x,y,1/2+z
x,-y,1/2+z
loop_
_atom_site_type_symbol
_atom_site_label
_atom_site_fract_x
_atom_site_fract_y
_atom_site_fract_z
Si Si1 0.874489 0.786230 0.689912
Si Si2 0.045550 0.898787 0.812138
Si Si3 0.207106 0.101698 0.312760
Si Si4 0.369250 0.897374 0.312307
Si Si5 0.286709 0.210609 0.188346
Si Si6 0.456946 0.103213 0.686118
Si Si7 0.254910 0.403412 0.812876
Si Si8 0.160642 0.596719 0.812586
O O1 0.874562 0.786793 0.500000
O O2 0.917586 0.831994 0.740135
O O3 0.834775 0.846184 0.739830
O O4 0.866452 0.682932 0.738603
O O5 0.000000 0.871944 0.750000
O O6 0.054120 0.000000 0.750000
O O7 0.044515 0.901664 0.000000
O O8 0.207310 0.099985 0.500000
O O9 0.247617 0.155426 0.254972
O O10 0.207516 0.000000 0.250000
O O11 0.371561 0.901233 0.500000
O O12 0.329869 0.836651 0.264327
O O13 0.413013 0.859256 0.247242
O O14 0.363608 0.000000 0.250000
O O15 0.281592 0.315679 0.233821
O O16 0.284540 0.206294 0.000000
O O17 0.500000 0.145064 0.750000
O O18 0.457767 0.101507 0.500000
O O19 0.456554 0.000000 0.750000
O O20 0.270285 0.500000 0.750000
O O21 0.207940 0.390538 0.748270
O O22 0.252740 0.407604 0.000000
O O23 0.145643 0.500000 0.750000
O O24 0.161990 0.594132 0.000000
#
# Coordination Sequence:
#
# PCOD9392121 Si02
#       8
#     8   8   8   8   8   8   8   8
#     4   9  19  33  50  70  96 124 154 191 234 277
#     4  10  19  34  52  73  97 124 154 190 231 277
#     4  11  21  33  47  66  93 127 160 193 230 272
#     4  10  19  31  44  62  90 125 161 196 233 275
#     4  10  21  34  47  66  94 127 161 196 233 278
#     4  10  17  27  43  63  86 116 155 198 239 278
#     4  10  19  32  49  70  93 121 157 198 239 280
#     4  10  18  32  50  72  95 121 153 191 236 280
#
# _framework density 15.770883
#
# number of rings (size 3 to 8) (size 9 to 14) (size 15 to 20)
#    0.000    2.000    1.250    6.000    0.000    2.500 
#    0.000    4.375    0.000    0.375    0.000    2.625 
#    0.000    0.500    0.000    5.750    0.000    1.750 
#
# Total GULP energy -357019.372968 kJ/mol
# GULP energy per Si atom -5578.427703 kJ/mol
# Density = 1.573499 g / cm^3
# Si number density = 15.770883 Si / 1000 Ang^3
#
#
#
# Elastic Constant Matrix: (Units=GPa)
#
#
# Indices 1 2 3 4 5 6 
#
# 1 143.9654 85.5898 37.4693 0.0000 0.0000 0.0000
# 2 85.5898 128.7956 32.1273 0.0000 0.0000 0.0000
# 3 37.4693 32.1273 53.2416 0.0000 0.0000 0.0000
# 4 0.0000 0.0000 0.0000 13.0145 0.0000 0.0000
# 5 0.0000 0.0000 0.0000 0.0000 22.2599 0.0000
# 6 0.0000 0.0000 0.0000 0.0000 0.0000 3.5192
#
#
#
# Elastic Compliance Matrix: (Units=1/GPa)
#
#
# Indices 1 2 3 4 5 6 
#
# 1 0.012294 -0.007077 -0.004382 0.000000 0.000000 0.000000
# 2 -0.007077 0.013214 -0.002993 0.000000 0.000000 0.000000
# 3 -0.004382 -0.002993 0.023672 0.000000 0.000000 0.000000
# 4 0.000000 0.000000 0.000000 0.076837 0.000000 0.000000
# 5 0.000000 0.000000 0.000000 0.000000 0.044924 0.000000
# 6 0.000000 0.000000 0.000000 0.000000 0.000000 0.284157
#
#
# Mechanical properties :
#
#
# Convention : Reuss Voigt Hill
#
# Bulk Modulus (GPa) = 49.31805 70.70837 60.01321
# Shear Modulus (GPa) = 10.18829 19.14647 14.66738
#
# Velocity S-wave (km/s) = 2.54445 3.48809 3.05295
# Velocity P-wave (km/s) = 6.32232 7.82013 7.11077
#
# Compressibility (1/GPa) = 0.02027655
#
# Stress axis : x y z
#
# Youngs Moduli (GPa) = 81.34256 75.67967 42.24399
#
# Poissons Ratio (x) = 0.53556 0.18509
# Poissons Ratio (y) = 0.57564 0.12644
# Poissons Ratio (z) = 0.35641 0.22652
#
# Static dielectric constant tensor:
#      x y z
#    x 1.533860 0.000000 0.000000 
#    y 0.000000 1.521160 0.000000 
#    z 0.000000 0.000000 1.536540 
# 
# From -- ./inp_files/7057.got.cif
#   From: 2010.05.17/outbox.cif.g08.bks.cpg/sg49_4_cif.got.tgz:7057.got - 2010.06.03 21:02:19.
