data_PCOD9392268
_publ_section_title
;
Structure prediction by ZEFSAII (Michael W. Deem and Ramdas Pophale) SiO2 
 PCOD9392268
Probable space group: P C C M
;
_chemical_formula_sum "Si O2"
_cell_formula_units_Z 40
_cell_length_a 21.469304
_cell_length_b 5.333197
_cell_length_c 14.324923
_cell_angle_alpha 90.000000
_cell_angle_beta 90.000000
_cell_angle_gamma 90.000000
_cell_volume 1640.204080
_symmetry_space_group_name_H-M "P C C M"
_symmetry_group_IT_number 49
_symmetry_cell_setting 'orthorhombic'
loop_
_space_group_symop_operation_xyz
x,y,z
-x,-y,z
x,-y,1/2-z
-x,y,1/2-z
-x,-y,-z
x,y,-z
-x,y,1/2+z
x,-y,1/2+z
loop_
_atom_site_type_symbol
_atom_site_label
_atom_site_fract_x
_atom_site_fract_y
_atom_site_fract_z
Si Si1 0.160274 0.988207 0.137687
Si Si2 0.371832 0.391244 0.891842
Si Si3 0.048562 0.326029 0.326642
Si Si4 0.227793 0.490851 0.862169
Si Si5 0.568043 0.896636 0.613837
O O1 0.090743 0.875607 0.122545
O O2 0.204163 0.761732 0.105034
O O3 0.164211 0.000000 0.250000
O O4 0.183457 0.260269 0.105574
O O5 0.298840 0.445983 0.889567
O O6 0.410699 0.624397 0.851098
O O7 0.385462 0.115513 0.853789
O O8 0.391723 0.375648 0.000000
O O9 0.087781 0.500000 0.250000
O O10 0.000000 0.500000 0.384658
O O11 0.000000 0.229142 0.250000
O O12 0.228212 0.500000 0.750000
O O13 0.569799 0.877512 0.500000
O O14 0.500000 0.000000 0.638582
#
# Coordination Sequence:
#
# PCOD9392268 Si02
#       5
#     8   8   8   8   8
#     4  10  17  30  43  65  96 132 161 191 241 299
#     4  10  19  33  51  73  99 127 164 202 241 293
#     4   6  14  25  40  64  91 127 151 197 248 294
#     4  10  21  31  48  67  98 137 162 195 238 296
#     4   9  17  30  52  77  97 120 158 210 255 286
#
# _framework density 24.387208000000001
#
# number of rings (size 3 to 8) (size 9 to 14) (size 15 to 20)
#    1.200    1.800    0.000    3.600    0.000    2.800 
#    0.000    0.000    0.000    3.600    0.000    0.000 
#    0.000    4.800    0.000    1.200    0.000    0.800 
#
# Total GULP energy -222825.920287 kJ/mol
# GULP energy per Si atom -5570.648007 kJ/mol
# Density = 2.433170 g / cm^3
# Si number density = 24.387208 Si / 1000 Ang^3
#
#
#
# Elastic Constant Matrix: (Units=GPa)
#
#
# Indices 1 2 3 4 5 6 
#
# 1 94.3775 37.8938 -12.7124 0.0000 0.0000 0.0000
# 2 37.8938 160.9311 18.4324 0.0000 0.0000 0.0000
# 3 -12.7124 18.4324 86.7412 0.0000 0.0000 0.0000
# 4 0.0000 0.0000 0.0000 -4.8036 0.0000 0.0000
# 5 0.0000 0.0000 0.0000 0.0000 21.3458 0.0000
# 6 0.0000 0.0000 0.0000 0.0000 0.0000 -162.2137
#
#
#
# Elastic Compliance Matrix: (Units=1/GPa)
#
#
# Indices 1 2 3 4 5 6 
#
# 1 0.012192 -0.003152 0.002457 0.000000 0.000000 0.000000
# 2 -0.003152 0.007184 -0.001989 0.000000 0.000000 0.000000
# 3 0.002457 -0.001989 0.012311 0.000000 0.000000 0.000000
# 4 0.000000 0.000000 0.000000 -0.208175 0.000000 0.000000
# 5 0.000000 0.000000 0.000000 0.000000 0.046848 0.000000
# 6 0.000000 0.000000 0.000000 0.000000 0.000000 -0.006165
#
#
# Mechanical properties :
#
#
# Convention : Reuss Voigt Hill
#
# Bulk Modulus (GPa) = 37.99515 47.69748 42.84631
# Shear Modulus (GPa) = -41.09679 -9.23856 -25.16768
#
# Velocity S-wave (km/s) = -4.10955 -1.94846 -3.21597
# Velocity P-wave (km/s) = 2.62756 3.81298 1.95382
#
# Compressibility (1/GPa) = 0.02631915
#
# Stress axis : x y z
#
# Youngs Moduli (GPa) = 82.01872 139.20112 81.22718
#
# Poissons Ratio (x) = 0.43880 -0.19955
# Poissons Ratio (y) = 0.25854 0.16152
# Poissons Ratio (z) = -0.20150 0.27681
#
# Static dielectric constant tensor:
#      x y z
#    x 2.066630 0.000000 0.000000 
#    y 0.000000 2.041760 0.000000 
#    z 0.000000 0.000000 2.006300 
# 
# From -- ./inp_files/20978.got.cif
#   From: 2010.05.17/outbox.cif.g08.bks.cpg/sg49_11_cif.got.tgz:20978.got - 2010.06.03 21:02:19.
