data_PCOD9392453
_publ_section_title
;
Structure prediction by ZEFSAII (Michael W. Deem and Ramdas Pophale) SiO2 
 PCOD9392453
Probable space group: P C C M
;
_chemical_formula_sum "Si O2"
_cell_formula_units_Z 64
_cell_length_a 18.403942
_cell_length_b 12.207836
_cell_length_c 16.660488
_cell_angle_alpha 90.000000
_cell_angle_beta 90.000000
_cell_angle_gamma 90.000000
_cell_volume 3743.150253
_symmetry_space_group_name_H-M "P C C M"
_symmetry_group_IT_number 49
_symmetry_cell_setting 'orthorhombic'
loop_
_space_group_symop_operation_xyz
x,y,z
-x,-y,z
x,-y,1/2-z
-x,y,1/2-z
-x,-y,-z
x,y,-z
-x,y,1/2+z
x,-y,1/2+z
loop_
_atom_site_type_symbol
_atom_site_label
_atom_site_fract_x
_atom_site_fract_y
_atom_site_fract_z
Si Si1 0.520084 0.877892 0.844011
Si Si2 0.720393 0.412766 0.857009
Si Si3 0.609271 0.741457 0.595341
Si Si4 0.915945 0.367823 0.243179
Si Si5 0.231511 0.349101 0.822836
Si Si6 0.684043 0.149194 0.597539
Si Si7 0.843137 0.735779 0.589820
Si Si8 0.733969 0.090830 0.902758
O O1 0.500000 0.879020 0.750000
O O2 0.469294 0.784223 0.880885
O O3 0.603459 0.854447 0.864877
O O4 0.500000 0.000000 0.876128
O O5 0.638194 0.375287 0.873177
O O6 0.745354 0.537623 0.866022
O O7 0.739269 0.371863 0.767254
O O8 0.771262 0.339885 0.913663
O O9 0.613532 0.738940 0.500000
O O10 0.666639 0.834159 0.626279
O O11 0.911764 0.500000 0.250000
O O12 0.854970 0.331386 0.308363
O O13 0.891446 0.322121 0.156677
O O14 0.000000 0.335900 0.250000
O O15 0.270093 0.248613 0.865891
O O16 0.679508 0.155871 0.500000
O O17 0.721869 0.033992 0.620482
O O18 0.874194 0.745095 0.500000
O O19 0.809815 0.851491 0.619566
O O20 0.732291 0.094402 0.000000
#
# Coordination Sequence:
#
# PCOD9392453 Si02
#       8
#     8   8   8   8   8   8   8   8
#     4  11  22  35  50  76 109 145 188 240 290 331
#     4   9  17  33  53  77 105 140 181 223 272 329
#     4  10  18  31  53  74 100 138 182 229 272 323
#     4  10  19  37  58  83 118 145 172 224 288 337
#     4  10  19  36  54  78 111 148 174 222 283 335
#     4  11  22  35  54  81 115 150 189 235 289 338
#     4   9  16  31  56  81 105 141 188 222 260 329
#     4   8  16  30  50  78 105 136 178 229 275 317
#
# _framework density 17.097897
#
# number of rings (size 3 to 8) (size 9 to 14) (size 15 to 20)
#    0.000    2.250    3.750    2.250    0.000    1.500 
#    0.000    2.500    0.000    5.250    0.000    2.625 
#    0.000    0.000    0.000    0.000    0.000    0.000 
#
# Total GULP energy -356334.325861 kJ/mol
# GULP energy per Si atom -5567.723842 kJ/mol
# Density = 1.705898 g / cm^3
# Si number density = 17.097897 Si / 1000 Ang^3
#
#
#
# Elastic Constant Matrix: (Units=GPa)
#
#
# Indices 1 2 3 4 5 6 
#
# 1 122.8562 64.1608 41.2154 0.0000 0.0000 0.0000
# 2 64.1608 105.3531 38.1795 0.0000 0.0000 0.0000
# 3 41.2154 38.1795 48.8482 0.0000 0.0000 0.0000
# 4 0.0000 0.0000 0.0000 23.8938 0.0000 0.0000
# 5 0.0000 0.0000 0.0000 0.0000 12.3209 0.0000
# 6 0.0000 0.0000 0.0000 0.0000 0.0000 20.3724
#
#
#
# Elastic Compliance Matrix: (Units=1/GPa)
#
#
# Indices 1 2 3 4 5 6 
#
# 1 0.013411 -0.005674 -0.006881 0.000000 0.000000 0.000000
# 2 -0.005674 0.015643 -0.007439 0.000000 0.000000 0.000000
# 3 -0.006881 -0.007439 0.032092 0.000000 0.000000 0.000000
# 4 0.000000 0.000000 0.000000 0.041852 0.000000 0.000000
# 5 0.000000 0.000000 0.000000 0.000000 0.081163 0.000000
# 6 0.000000 0.000000 0.000000 0.000000 0.000000 0.049086
#
#
# Mechanical properties :
#
#
# Convention : Reuss Voigt Hill
#
# Bulk Modulus (GPa) = 47.26351 62.68544 54.97448
# Shear Modulus (GPa) = 17.83876 20.21753 19.02814
#
# Velocity S-wave (km/s) = 3.23357 3.44242 3.33963
# Velocity P-wave (km/s) = 6.45323 7.24863 6.86246
#
# Compressibility (1/GPa) = 0.02115797
#
# Stress axis : x y z
#
# Youngs Moduli (GPa) = 74.56498 63.92500 31.16044
#
# Poissons Ratio (x) = 0.36270 0.21441
# Poissons Ratio (y) = 0.42307 0.23182
# Poissons Ratio (z) = 0.51307 0.47557
#
# Static dielectric constant tensor:
#      x y z
#    x 1.595600 0.000000 0.000000 
#    y 0.000000 1.601710 0.000000 
#    z 0.000000 0.000000 1.599430 
# 
# From -- ./inp_files/18222.got.cif
#   From: 2010.05.17/outbox.cif.g08.bks.cpg/sg49_10_cif.got.tgz:18222.got - 2010.06.03 21:02:19.
