data_PCOD9392731
_publ_section_title
;
Structure prediction by ZEFSAII (Michael W. Deem and Ramdas Pophale) SiO2 
 PCOD9392731
Probable space group: P C C M
;
_chemical_formula_sum "Si O2"
_cell_formula_units_Z 64
_cell_length_a 15.301715
_cell_length_b 28.813122
_cell_length_c 8.707315
_cell_angle_alpha 90.000000
_cell_angle_beta 90.000000
_cell_angle_gamma 90.000000
_cell_volume 3838.969687
_symmetry_space_group_name_H-M "P C C M"
_symmetry_group_IT_number 49
_symmetry_cell_setting 'orthorhombic'
loop_
_space_group_symop_operation_xyz
x,y,z
-x,-y,z
x,-y,1/2-z
-x,y,1/2-z
-x,-y,-z
x,y,-z
-x,y,1/2+z
x,-y,1/2+z
loop_
_atom_site_type_symbol
_atom_site_label
_atom_site_fract_x
_atom_site_fract_y
_atom_site_fract_z
Si Si1 0.095027 0.873657 0.184325
Si Si2 0.598478 0.546808 0.683606
Si Si3 0.401920 0.350141 0.685222
Si Si4 0.220259 0.951566 0.684329
Si Si5 0.719768 0.734710 0.685877
Si Si6 0.591781 0.080478 0.315860
Si Si7 0.093978 0.234498 0.684505
Si Si8 0.593223 0.189147 0.316011
O O1 0.166066 0.907991 0.254260
O O2 0.109907 0.819645 0.227120
O O3 0.000000 0.886440 0.250000
O O4 0.095389 0.877021 0.000000
O O5 0.641218 0.500000 0.750000
O O6 0.500000 0.547570 0.750000
O O7 0.595177 0.542907 0.500000
O O8 0.632573 0.598095 0.725003
O O9 0.500000 0.343864 0.750000
O O10 0.408618 0.348151 0.500000
O O11 0.335894 0.310011 0.736667
O O12 0.217420 0.951979 0.500000
O O13 0.321050 0.945425 0.735597
O O14 0.185559 0.000000 0.750000
O O15 0.718287 0.735925 0.500000
O O16 0.821014 0.736665 0.734642
O O17 0.669803 0.779873 0.747456
O O18 0.500000 0.063317 0.250000
O O19 0.587259 0.078314 0.500000
O O20 0.601977 0.134928 0.272654
O O21 0.088668 0.236349 0.500000
O O22 0.000000 0.248658 0.750000
O O23 0.500000 0.205674 0.250000
O O24 0.592588 0.192499 0.500000
#
# Coordination Sequence:
#
# PCOD9392731 Si02
#       8
#     8   8   8   8   8   8   8   8
#     4  10  20  36  57  79  99 122 149 182 223 271
#     4   9  15  24  38  56  79 114 156 197 233 268
#     4   9  18  29  41  60  91 126 160 193 230 272
#     4  11  23  38  54  75  99 123 151 186 226 271
#     4  10  19  31  46  67  95 126 155 188 229 275
#     4   9  20  36  53  71  94 123 156 191 226 263
#     4   9  19  34  53  74  96 121 152 187 226 271
#     4  10  19  31  47  69  94 123 156 189 223 265
#
# _framework density 16.671140000000001
#
# number of rings (size 3 to 8) (size 9 to 14) (size 15 to 20)
#    0.000    2.375    0.000    3.000    0.000    5.000 
#    0.000    2.500    0.000    0.000    0.000    0.000 
#    0.000    0.500    0.000    6.250    0.000    0.000 
#
# Total GULP energy -356961.303771 kJ/mol
# GULP energy per Si atom -5577.520371 kJ/mol
# Density = 1.663320 g / cm^3
# Si number density = 16.671140 Si / 1000 Ang^3
#
#
#
# Elastic Constant Matrix: (Units=GPa)
#
#
# Indices 1 2 3 4 5 6 
#
# 1 105.0234 49.3521 19.6796 0.0000 0.0000 0.0000
# 2 49.3521 71.8977 20.3678 0.0000 0.0000 0.0000
# 3 19.6796 20.3678 23.8777 0.0000 0.0000 0.0000
# 4 0.0000 0.0000 0.0000 11.4510 0.0000 0.0000
# 5 0.0000 0.0000 0.0000 0.0000 23.9858 0.0000
# 6 0.0000 0.0000 0.0000 0.0000 0.0000 10.1740
#
#
#
# Elastic Compliance Matrix: (Units=1/GPa)
#
#
# Indices 1 2 3 4 5 6 
#
# 1 0.014419 -0.008612 -0.004538 0.000000 0.000000 0.000000
# 2 -0.008612 0.023484 -0.012934 0.000000 0.000000 0.000000
# 3 -0.004538 -0.012934 0.056653 0.000000 0.000000 0.000000
# 4 0.000000 0.000000 0.000000 0.087329 0.000000 0.000000
# 5 0.000000 0.000000 0.000000 0.000000 0.041691 0.000000
# 6 0.000000 0.000000 0.000000 0.000000 0.000000 0.098289
#
#
# Mechanical properties :
#
#
# Convention : Reuss Voigt Hill
#
# Bulk Modulus (GPa) = 23.59156 42.17755 32.88455
# Shear Modulus (GPa) = 12.88118 16.54877 14.71498
#
# Velocity S-wave (km/s) = 2.78270 3.15407 2.97419
# Velocity P-wave (km/s) = 4.95039 6.21441 5.61806
#
# Compressibility (1/GPa) = 0.04238805
#
# Stress axis : x y z
#
# Youngs Moduli (GPa) = 69.35363 42.58190 17.65131
#
# Poissons Ratio (x) = 0.36671 0.08010
# Poissons Ratio (y) = 0.59727 0.22831
# Poissons Ratio (z) = 0.31471 0.55077
#
# Static dielectric constant tensor:
#      x y z
#    x 1.551920 0.000000 0.000000 
#    y 0.000000 1.587730 0.000000 
#    z 0.000000 0.000000 1.565460 
# 
# From -- ./inp_files/4515.got.cif
#   From: 2010.05.17/outbox.cif.g08.bks.cpg/sg49_3_cif.got.tgz:4515.got - 2010.06.03 21:02:19.
