data_PCOD9392424
_publ_section_title
;
Structure prediction by ZEFSAII (Michael W. Deem and Ramdas Pophale) SiO2 
 PCOD9392424
Probable space group: P C C M
;
_chemical_formula_sum "Si O2"
_cell_formula_units_Z 64
_cell_length_a 23.314467
_cell_length_b 18.809832
_cell_length_c 9.023164
_cell_angle_alpha 90.000000
_cell_angle_beta 90.000000
_cell_angle_gamma 90.000000
_cell_volume 3957.029235
_symmetry_space_group_name_H-M "P C C M"
_symmetry_group_IT_number 49
_symmetry_cell_setting 'orthorhombic'
loop_
_space_group_symop_operation_xyz
x,y,z
-x,-y,z
x,-y,1/2-z
-x,y,1/2-z
-x,-y,-z
x,y,-z
-x,y,1/2+z
x,-y,1/2+z
loop_
_atom_site_type_symbol
_atom_site_label
_atom_site_fract_x
_atom_site_fract_y
_atom_site_fract_z
Si Si1 0.255759 0.283687 0.679000
Si Si2 0.940309 0.383206 0.173423
Si Si3 0.058801 0.211577 0.673485
Si Si4 0.187823 0.426063 0.678748
Si Si5 0.645637 0.814942 0.331262
Si Si6 0.563090 0.075472 0.678865
Si Si7 0.826205 0.166192 0.675872
Si Si8 0.255564 0.933168 0.833027
O O1 0.249872 0.274300 0.500000
O O2 0.231939 0.362120 0.714893
O O3 0.320898 0.257710 0.715006
O O4 0.212659 0.230380 0.761003
O O5 0.936964 0.297487 0.185931
O O6 0.878280 0.410544 0.229165
O O7 0.000000 0.406291 0.250000
O O8 0.944702 0.401573 0.000000
O O9 0.060261 0.194264 0.500000
O O10 0.111362 0.177560 0.758724
O O11 0.000000 0.189798 0.750000
O O12 0.206113 0.500000 0.750000
O O13 0.186060 0.430751 0.500000
O O14 0.622977 0.806595 0.500000
O O15 0.600330 0.855839 0.228118
O O16 0.697963 0.870919 0.338033
O O17 0.500000 0.084619 0.750000
O O18 0.561299 0.069079 0.500000
O O19 0.584117 0.000000 0.750000
O O20 0.825644 0.166838 0.500000
O O21 0.797764 0.095292 0.739998
O O22 0.281232 0.000000 0.750000
O O23 0.239044 0.950944 0.000000
#
# Coordination Sequence:
#
# PCOD9392424 Si02
#       8
#     8   8   8   8   8   8   8   8
#     4   9  18  35  52  67  94 128 163 203 247 292
#     4   9  18  31  47  64  89 119 154 194 239 294
#     4  10  18  31  48  67  89 114 148 191 238 289
#     4  10  20  34  49  68  94 128 161 200 250 301
#     4   9  18  32  52  73  96 131 169 205 244 281
#     4  11  21  33  50  73 107 144 179 211 240 281
#     4  11  20  30  48  71  92 118 153 193 239 289
#     4  10  20  33  49  70  97 127 158 197 240 284
#
# _framework density 16.173749000000001
#
# number of rings (size 3 to 8) (size 9 to 14) (size 15 to 20)
#    0.000    2.125    1.250    4.500    0.000    5.250 
#    0.000    1.250    0.000    0.375    0.000    2.625 
#    0.000    0.500    0.000    5.750    0.000    1.750 
#
# Total GULP energy -356645.811924 kJ/mol
# GULP energy per Si atom -5572.590811 kJ/mol
# Density = 1.613694 g / cm^3
# Si number density = 16.173749 Si / 1000 Ang^3
#
#
#
# Elastic Constant Matrix: (Units=GPa)
#
#
# Indices 1 2 3 4 5 6 
#
# 1 86.6982 39.9004 47.7063 0.0000 0.0000 0.0000
# 2 39.9004 66.8997 30.2368 0.0000 0.0000 0.0000
# 3 47.7063 30.2368 83.2511 0.0000 0.0000 0.0000
# 4 0.0000 0.0000 0.0000 11.6070 0.0000 0.0000
# 5 0.0000 0.0000 0.0000 0.0000 20.5124 0.0000
# 6 0.0000 0.0000 0.0000 0.0000 0.0000 17.7056
#
#
#
# Elastic Compliance Matrix: (Units=1/GPa)
#
#
# Indices 1 2 3 4 5 6 
#
# 1 0.019901 -0.008034 -0.008486 0.000000 0.000000 0.000000
# 2 -0.008034 0.021127 -0.003069 0.000000 0.000000 0.000000
# 3 -0.008486 -0.003069 0.017990 0.000000 0.000000 0.000000
# 4 0.000000 0.000000 0.000000 0.086155 0.000000 0.000000
# 5 0.000000 0.000000 0.000000 0.000000 0.048751 0.000000
# 6 0.000000 0.000000 0.000000 0.000000 0.000000 0.056479
#
#
# Mechanical properties :
#
#
# Convention : Reuss Voigt Hill
#
# Bulk Modulus (GPa) = 50.40769 52.50398 51.45583
# Shear Modulus (GPa) = 16.88076 17.89870 17.38973
#
# Velocity S-wave (km/s) = 3.23416 3.33025 3.28255
# Velocity P-wave (km/s) = 6.72164 6.87898 6.80076
#
# Compressibility (1/GPa) = 0.01983824
#
# Stress axis : x y z
#
# Youngs Moduli (GPa) = 50.24789 47.33352 55.58747
#
# Poissons Ratio (x) = 0.38028 0.47173
# Poissons Ratio (y) = 0.40369 0.17062
# Poissons Ratio (z) = 0.42642 0.14529
#
# Static dielectric constant tensor:
#      x y z
#    x 1.537950 0.000000 0.000000 
#    y 0.000000 1.521880 0.000000 
#    z 0.000000 0.000000 1.548610 
# 
# From -- ./inp_files/6067.got.cif
#   From: 2010.05.17/outbox.cif.g08.bks.cpg/sg49_4_cif.got.tgz:6067.got - 2010.06.03 21:02:19.
