data_PCOD9392939
_publ_section_title
;
Structure prediction by ZEFSAII (Michael W. Deem and Ramdas Pophale) SiO2 
 PCOD9392939
Probable space group: P C C M
;
_chemical_formula_sum "Si O2"
_cell_formula_units_Z 56
_cell_length_a 20.665282
_cell_length_b 15.856148
_cell_length_c 8.783299
_cell_angle_alpha 90.000000
_cell_angle_beta 90.000000
_cell_angle_gamma 90.000000
_cell_volume 2878.039128
_symmetry_space_group_name_H-M "P C C M"
_symmetry_group_IT_number 49
_symmetry_cell_setting 'orthorhombic'
loop_
_space_group_symop_operation_xyz
x,y,z
-x,-y,z
x,-y,1/2-z
-x,y,1/2-z
-x,-y,-z
x,y,-z
-x,y,1/2+z
x,-y,1/2+z
loop_
_atom_site_type_symbol
_atom_site_label
_atom_site_fract_x
_atom_site_fract_y
_atom_site_fract_z
Si Si1 0.245182 0.640432 0.180195
Si Si2 0.201541 0.182227 0.817354
Si Si3 0.620845 0.413585 0.682271
Si Si4 0.099446 0.413424 0.321960
Si Si5 0.430909 0.231102 0.816295
Si Si6 0.067167 0.224883 0.683323
Si Si7 0.672047 0.089482 0.683246
O O1 0.232700 0.730121 0.259769
O O2 0.305730 0.596353 0.258315
O O3 0.177258 0.591911 0.195699
O O4 0.257318 0.651512 0.000000
O O5 0.130899 0.177366 0.742815
O O6 0.254077 0.111917 0.773390
O O7 0.195504 0.184373 0.000000
O O8 0.593085 0.500000 0.750000
O O9 0.620617 0.418179 0.500000
O O10 0.585870 0.326996 0.730775
O O11 0.075806 0.500000 0.250000
O O12 0.084248 0.415783 0.500000
O O13 0.074461 0.323042 0.262625
O O14 0.500000 0.206329 0.750000
O O15 0.375259 0.165532 0.767791
O O16 0.432991 0.230156 0.000000
O O17 0.067094 0.224347 0.500000
O O18 0.000000 0.191745 0.750000
O O19 0.669564 0.086266 0.500000
O O20 0.652128 0.000000 0.750000
#
# Coordination Sequence:
#
# PCOD9392939 Si02
#       7
#     8   8   8   8   8   8   8
#     4  10  19  32  52  80 111 149 198 245 297 355
#     4  10  19  36  60  85 118 154 190 242 299 350
#     4  11  22  37  56  82 118 157 204 254 300 355
#     4   9  19  31  44  68 103 141 188 241 288 343
#     4  10  23  43  62  86 123 162 202 248 300 358
#     4  10  21  36  53  79 111 150 200 243 294 360
#     4  10  22  41  65  95 125 155 195 241 299 363
#
# _framework density 19.457692999999999
#
# number of rings (size 3 to 8) (size 9 to 14) (size 15 to 20)
#    0.000    2.000    1.429    3.000    0.000    8.286 
#    0.000    4.286    0.000    0.429    0.000    3.000 
#    0.000    0.000    0.000    0.000    0.000    0.000 
#
# Total GULP energy -312670.298553 kJ/mol
# GULP energy per Si atom -5583.398188 kJ/mol
# Density = 1.941341 g / cm^3
# Si number density = 19.457693 Si / 1000 Ang^3
#
#
#
# Elastic Constant Matrix: (Units=GPa)
#
#
# Indices 1 2 3 4 5 6 
#
# 1 117.1059 43.9708 29.5244 0.0000 0.0000 0.0000
# 2 43.9708 90.2431 25.0444 0.0000 0.0000 0.0000
# 3 29.5244 25.0444 34.5601 0.0000 0.0000 0.0000
# 4 0.0000 0.0000 0.0000 32.9695 0.0000 0.0000
# 5 0.0000 0.0000 0.0000 0.0000 -81.0238 0.0000
# 6 0.0000 0.0000 0.0000 0.0000 0.0000 -17.0099
#
#
#
# Elastic Compliance Matrix: (Units=1/GPa)
#
#
# Indices 1 2 3 4 5 6 
#
# 1 0.011790 -0.003692 -0.007397 0.000000 0.000000 0.000000
# 2 -0.003692 0.015027 -0.007735 0.000000 0.000000 0.000000
# 3 -0.007397 -0.007735 0.040860 0.000000 0.000000 0.000000
# 4 0.000000 0.000000 0.000000 0.030331 0.000000 0.000000
# 5 0.000000 0.000000 0.000000 0.000000 -0.012342 0.000000
# 6 0.000000 0.000000 0.000000 0.000000 0.000000 -0.058789
#
#
# Mechanical properties :
#
#
# Convention : Reuss Voigt Hill
#
# Bulk Modulus (GPa) = 33.30185 48.77648 41.03917
# Shear Modulus (GPa) = 67.08252 -3.45488 31.81382
#
# Velocity S-wave (km/s) = 5.87800 -1.33396 4.04793
# Velocity P-wave (km/s) = 7.95111 4.76967 6.55629
#
# Compressibility (1/GPa) = 0.03002836
#
# Stress axis : x y z
#
# Youngs Moduli (GPa) = 84.81410 66.54761 24.47396
#
# Poissons Ratio (x) = 0.24570 0.18103
# Poissons Ratio (y) = 0.31314 0.18931
# Poissons Ratio (z) = 0.62737 0.51476
#
# Static dielectric constant tensor:
#      x y z
#    x 1.680100 0.000000 0.000000 
#    y 0.000000 1.683450 0.000000 
#    z 0.000000 0.000000 1.657340 
# 
# From -- ./inp_files/4013.got.cif
#   From: 2010.05.17/outbox.cif.g08.bks.cpg/sg49_3_cif.got.tgz:4013.got - 2010.06.03 21:02:19.
