data_PCOD9392109
_publ_section_title
;
Structure prediction by ZEFSAII (Michael W. Deem and Ramdas Pophale) SiO2 
 PCOD9392109
Probable space group: P C C M
;
_chemical_formula_sum "Si O2"
_cell_formula_units_Z 64
_cell_length_a 12.120832
_cell_length_b 31.795233
_cell_length_c 8.500839
_cell_angle_alpha 90.000000
_cell_angle_beta 90.000000
_cell_angle_gamma 90.000000
_cell_volume 3276.093097
_symmetry_space_group_name_H-M "P C C M"
_symmetry_group_IT_number 49
_symmetry_cell_setting 'orthorhombic'
loop_
_space_group_symop_operation_xyz
x,y,z
-x,-y,z
x,-y,1/2-z
-x,y,1/2-z
-x,-y,-z
x,y,-z
-x,y,1/2+z
x,-y,1/2+z
loop_
_atom_site_type_symbol
_atom_site_label
_atom_site_fract_x
_atom_site_fract_y
_atom_site_fract_z
Si Si1 0.376345 0.129279 0.184801
Si Si2 0.672845 0.218713 0.820874
Si Si3 0.111668 0.752431 0.318716
Si Si4 0.838273 0.344523 0.678772
Si Si5 0.613582 0.689031 0.689246
Si Si6 0.377507 0.452083 0.309825
Si Si7 0.626337 0.956550 0.313747
Si Si8 0.120280 0.429089 0.680972
O O1 0.500000 0.129985 0.250000
O O2 0.335446 0.175665 0.226788
O O3 0.321569 0.087792 0.260524
O O4 0.376788 0.123051 0.000000
O O5 0.797853 0.232984 0.804486
O O6 0.616240 0.261557 0.760446
O O7 0.636761 0.211023 0.000000
O O8 0.135576 0.764774 0.500000
O O9 0.109266 0.701730 0.317767
O O10 0.000000 0.769878 0.250000
O O11 0.845934 0.360934 0.500000
O O12 0.712977 0.334988 0.729045
O O13 0.885122 0.378667 0.797316
O O14 0.500000 0.670768 0.750000
O O15 0.624354 0.687649 0.500000
O O16 0.379508 0.500000 0.250000
O O17 0.500000 0.434699 0.250000
O O18 0.380381 0.448395 0.500000
O O19 0.249333 0.438019 0.260968
O O20 0.500000 0.955994 0.250000
O O21 0.621943 0.958219 0.500000
O O22 0.677067 0.000000 0.250000
O O23 0.120279 0.442228 0.500000
O O24 0.000000 0.444599 0.750000
#
# Coordination Sequence:
#
# PCOD9392109 Si02
#       8
#     8   8   8   8   8   8   8   8
#     4  11  20  30  44  64  91 124 159 196 239 289
#     4  10  20  33  48  68  93 124 162 206 253 303
#     4  10  20  34  52  73  96 127 165 207 255 306
#     4  10  21  36  55  78 107 143 182 224 271 320
#     4  10  20  33  50  71 100 137 179 224 269 318
#     4  10  22  41  66  93 121 155 193 234 281 338
#     4  10  17  27  41  59  84 116 154 193 234 283
#     4  11  24  40  60  89 122 155 193 236 284 336
#
# _framework density 19.535464999999999
#
# number of rings (size 3 to 8) (size 9 to 14) (size 15 to 20)
#    0.000    1.750    0.000    6.750    0.000    7.750 
#    0.000    2.500    0.000    0.000    0.000    0.000 
#    0.000    0.500    0.000    5.000    0.000    3.000 
#
# Total GULP energy -356275.368876 kJ/mol
# GULP energy per Si atom -5566.802639 kJ/mol
# Density = 1.949100 g / cm^3
# Si number density = 19.535465 Si / 1000 Ang^3
#
#
#
# Elastic Constant Matrix: (Units=GPa)
#
#
# Indices 1 2 3 4 5 6 
#
# 1 113.7761 6.8420 9.4648 0.0000 0.0000 0.0000
# 2 6.8420 66.2764 12.2200 0.0000 0.0000 0.0000
# 3 9.4648 12.2200 70.7884 0.0000 0.0000 0.0000
# 4 0.0000 0.0000 0.0000 20.9042 0.0000 0.0000
# 5 0.0000 0.0000 0.0000 0.0000 44.9100 0.0000
# 6 0.0000 0.0000 0.0000 0.0000 0.0000 -15.7613
#
#
#
# Elastic Compliance Matrix: (Units=1/GPa)
#
#
# Indices 1 2 3 4 5 6 
#
# 1 0.008922 -0.000724 -0.001068 0.000000 0.000000 0.000000
# 2 -0.000724 0.015643 -0.002604 0.000000 0.000000 0.000000
# 3 -0.001068 -0.002604 0.014719 0.000000 0.000000 0.000000
# 4 0.000000 0.000000 0.000000 0.047837 0.000000 0.000000
# 5 0.000000 0.000000 0.000000 0.000000 0.022267 0.000000
# 6 0.000000 0.000000 0.000000 0.000000 0.000000 -0.063446
#
#
# Mechanical properties :
#
#
# Convention : Reuss Voigt Hill
#
# Bulk Modulus (GPa) = 32.79509 34.21050 33.50280
# Shear Modulus (GPa) = 77.04565 24.83150 50.93857
#
# Velocity S-wave (km/s) = 6.28685 3.56911 5.11190
# Velocity P-wave (km/s) = 8.33806 5.87663 7.21311
#
# Compressibility (1/GPa) = 0.03049237
#
# Stress axis : x y z
#
# Youngs Moduli (GPa) = 112.08785 63.92578 67.94009
#
# Poissons Ratio (x) = 0.04629 0.07255
# Poissons Ratio (y) = 0.08117 0.17689
# Poissons Ratio (z) = 0.11969 0.16644
#
# Static dielectric constant tensor:
#      x y z
#    x 1.914470 0.000000 0.000000 
#    y 0.000000 1.757420 0.000000 
#    z 0.000000 0.000000 1.694670 
# 
# From -- ./inp_files/3087.got.cif
#   From: 2010.05.17/outbox.cif.g08.bks.cpg/sg49_2_cif.got.tgz:3087.got - 2010.06.03 21:02:19.
