data_PCOD9392170
_publ_section_title
;
Structure prediction by ZEFSAII (Michael W. Deem and Ramdas Pophale) SiO2 
 PCOD9392170
Probable space group: P C C M
;
_chemical_formula_sum "Si O2"
_cell_formula_units_Z 48
_cell_length_a 31.675266
_cell_length_b 9.602351
_cell_length_c 8.695856
_cell_angle_alpha 90.000000
_cell_angle_beta 90.000000
_cell_angle_gamma 90.000000
_cell_volume 2644.905666
_symmetry_space_group_name_H-M "P C C M"
_symmetry_group_IT_number 49
_symmetry_cell_setting 'orthorhombic'
loop_
_space_group_symop_operation_xyz
x,y,z
-x,-y,z
x,-y,1/2-z
-x,y,1/2-z
-x,-y,-z
x,y,-z
-x,y,1/2+z
x,-y,1/2+z
loop_
_atom_site_type_symbol
_atom_site_label
_atom_site_fract_x
_atom_site_fract_y
_atom_site_fract_z
Si Si1 0.382424 0.345752 0.684356
Si Si2 0.285014 0.345609 0.683820
Si Si3 0.211805 0.845070 0.316033
Si Si4 0.131029 0.343663 0.184686
Si Si5 0.455772 0.844314 0.683660
Si Si6 0.043162 0.658075 0.184003
O O1 0.389376 0.500000 0.750000
O O2 0.387143 0.345472 0.500000
O O3 0.333696 0.308534 0.720832
O O4 0.416145 0.244046 0.759767
O O5 0.276630 0.500000 0.750000
O O6 0.280762 0.350885 0.500000
O O7 0.252444 0.235718 0.751938
O O8 0.214442 0.851650 0.500000
O O9 0.170547 0.753507 0.275927
O O10 0.208969 0.000000 0.250000
O O11 0.137598 0.500000 0.250000
O O12 0.087550 0.283870 0.255428
O O13 0.126822 0.353002 0.000000
O O14 0.500000 0.786518 0.750000
O O15 0.457884 0.848780 0.500000
O O16 0.451753 0.000000 0.750000
O O17 0.043735 0.500000 0.250000
O O18 0.000000 0.723119 0.250000
O O19 0.041906 0.654714 0.000000
#
# Coordination Sequence:
#
# PCOD9392170 Si02
#       6
#     8   8   8   8   8   8
#     4  10  21  38  59  86 115 146 183 227 276 327
#     4  10  21  38  61  85 113 145 182 226 274 328
#     4  11  24  39  57  80 110 145 184 228 275 326
#     4  10  20  34  53  79 107 140 179 221 268 321
#     4  11  22  38  59  83 113 150 189 231 275 326
#     4  10  17  27  46  73 105 138 172 217 265 314
#
# _framework density 18.148095999999999
#
# number of rings (size 3 to 8) (size 9 to 14) (size 15 to 20)
#    0.000    1.667    0.000    7.500    0.000    7.000 
#    0.000    1.667    0.000    0.500    0.000    3.500 
#    0.000    0.000    0.000    0.000    0.000    0.000 
#
# Total GULP energy -268108.892469 kJ/mol
# GULP energy per Si atom -5585.601926 kJ/mol
# Density = 1.810679 g / cm^3
# Si number density = 18.148096 Si / 1000 Ang^3
#
#
#
# Elastic Constant Matrix: (Units=GPa)
#
#
# Indices 1 2 3 4 5 6 
#
# 1 175.1679 99.4005 86.4456 0.0000 0.0000 0.0000
# 2 99.4005 89.7534 53.4744 0.0000 0.0000 0.0000
# 3 86.4456 53.4744 122.4280 0.0000 0.0000 0.0000
# 4 0.0000 0.0000 0.0000 28.4924 0.0000 0.0000
# 5 0.0000 0.0000 0.0000 0.0000 288.3349 0.0000
# 6 0.0000 0.0000 0.0000 0.0000 0.0000 -24.5197
#
#
#
# Elastic Compliance Matrix: (Units=1/GPa)
#
#
# Indices 1 2 3 4 5 6 
#
# 1 0.017575 -0.016316 -0.005283 0.000000 0.000000 0.000000
# 2 -0.016316 0.030209 -0.001674 0.000000 0.000000 0.000000
# 3 -0.005283 -0.001674 0.012629 0.000000 0.000000 0.000000
# 4 0.000000 0.000000 0.000000 0.035097 0.000000 0.000000
# 5 0.000000 0.000000 0.000000 0.000000 0.003468 0.000000
# 6 0.000000 0.000000 0.000000 0.000000 0.000000 -0.040784
#
#
# Mechanical properties :
#
#
# Convention : Reuss Voigt Hill
#
# Bulk Modulus (GPa) = 72.11300 96.22113 84.16707
# Shear Modulus (GPa) = 45.71948 68.33010 57.02479
#
# Velocity S-wave (km/s) = 5.02465 6.14273 5.61161
# Velocity P-wave (km/s) = 8.57234 10.17084 9.40561
#
# Compressibility (1/GPa) = 0.01386712
#
# Stress axis : x y z
#
# Youngs Moduli (GPa) = 56.90036 33.10280 79.18113
#
# Poissons Ratio (x) = 0.54011 0.41829
# Poissons Ratio (y) = 0.92840 0.13255
# Poissons Ratio (z) = 0.30059 0.05541
#
# Static dielectric constant tensor:
#      x y z
#    x 1.651310 0.000000 0.000000 
#    y 0.000000 1.572580 0.000000 
#    z 0.000000 0.000000 1.606850 
# 
# From -- ./inp_files/6873.got.cif
#   From: 2010.05.17/outbox.cif.g08.bks.cpg/sg49_4_cif.got.tgz:6873.got - 2010.06.03 21:02:19.
