data_PCOD9392471
_publ_section_title
;
Structure prediction by ZEFSAII (Michael W. Deem and Ramdas Pophale) SiO2 
 PCOD9392471
Probable space group: P C C M
;
_chemical_formula_sum "Si O2"
_cell_formula_units_Z 64
_cell_length_a 20.557415
_cell_length_b 20.522366
_cell_length_c 8.544189
_cell_angle_alpha 90.000000
_cell_angle_beta 90.000000
_cell_angle_gamma 90.000000
_cell_volume 3604.680510
_symmetry_space_group_name_H-M "P C C M"
_symmetry_group_IT_number 49
_symmetry_cell_setting 'orthorhombic'
loop_
_space_group_symop_operation_xyz
x,y,z
-x,-y,z
x,-y,1/2-z
-x,y,1/2-z
-x,-y,-z
x,y,-z
-x,y,1/2+z
x,-y,1/2+z
loop_
_atom_site_type_symbol
_atom_site_label
_atom_site_fract_x
_atom_site_fract_y
_atom_site_fract_z
Si Si1 0.745653 0.288530 0.187221
Si Si2 0.568133 0.886499 0.188071
Si Si3 0.073012 0.929218 0.687939
Si Si4 0.604443 0.740681 0.186397
Si Si5 0.183464 0.171916 0.811040
Si Si6 0.432041 0.396666 0.684742
Si Si7 0.288612 0.432227 0.311933
Si Si8 0.708049 0.931412 0.188597
O O1 0.680864 0.261544 0.271859
O O2 0.805017 0.242726 0.237702
O O3 0.748086 0.365200 0.230558
O O4 0.736091 0.284861 0.000000
O O5 0.500000 0.912656 0.250000
O O6 0.575859 0.810418 0.233039
O O7 0.634077 0.920788 0.244669
O O8 0.567667 0.889500 0.000000
O O9 0.072254 0.932363 0.500000
O O10 0.120398 0.870149 0.734929
O O11 0.000000 0.919411 0.750000
O O12 0.095577 0.000000 0.750000
O O13 0.572929 0.680039 0.275176
O O14 0.596174 0.732260 0.000000
O O15 0.245091 0.127250 0.763266
O O16 0.183714 0.177900 0.000000
O O17 0.500000 0.422336 0.750000
O O18 0.432563 0.405570 0.500000
O O19 0.363642 0.425014 0.747190
O O20 0.261198 0.500000 0.250000
O O21 0.290741 0.434735 0.500000
O O22 0.733108 0.000000 0.250000
O O23 0.707699 0.932082 0.000000
#
# Coordination Sequence:
#
# PCOD9392471 Si02
#       8
#     8   8   8   8   8   8   8   8
#     4  10  20  33  52  78 103 127 165 214 255 302
#     4  10  21  34  48  64  88 117 155 207 258 312
#     4  10  20  34  55  82 117 155 188 221 256 305
#     4  10  18  32  50  67  91 123 156 203 261 313
#     4  10  20  36  56  78 106 139 177 215 254 303
#     4  10  20  32  45  67  93 119 159 205 253 315
#     4   9  20  35  49  69  97 128 164 206 256 314
#     4  10  21  37  51  69  94 123 164 210 256 307
#
# _framework density 17.754693
#
# number of rings (size 3 to 8) (size 9 to 14) (size 15 to 20)
#    0.000    2.125    1.250    3.375    0.000    7.500 
#    0.000    2.500    0.000    0.000    0.000    0.000 
#    0.000    0.500    0.000    5.500    0.000    4.000 
#
# Total GULP energy -357202.105993 kJ/mol
# GULP energy per Si atom -5581.282906 kJ/mol
# Density = 1.771428 g / cm^3
# Si number density = 17.754693 Si / 1000 Ang^3
#
#
#
# Elastic Constant Matrix: (Units=GPa)
#
#
# Indices 1 2 3 4 5 6 
#
# 1 73.2855 45.2465 14.9634 0.0000 0.0000 0.0000
# 2 45.2465 122.8954 18.1470 0.0000 0.0000 0.0000
# 3 14.9634 18.1470 16.6350 0.0000 0.0000 0.0000
# 4 0.0000 0.0000 0.0000 17.0022 0.0000 0.0000
# 5 0.0000 0.0000 0.0000 0.0000 19.3896 0.0000
# 6 0.0000 0.0000 0.0000 0.0000 0.0000 66.2167
#
#
#
# Elastic Compliance Matrix: (Units=1/GPa)
#
#
# Indices 1 2 3 4 5 6 
#
# 1 0.019338 -0.005425 -0.011477 0.000000 0.000000 0.000000
# 2 -0.005425 0.011221 -0.007361 0.000000 0.000000 0.000000
# 3 -0.011477 -0.007361 0.078468 0.000000 0.000000 0.000000
# 4 0.000000 0.000000 0.000000 0.058816 0.000000 0.000000
# 5 0.000000 0.000000 0.000000 0.000000 0.051574 0.000000
# 6 0.000000 0.000000 0.000000 0.000000 0.000000 0.015102
#
#
# Mechanical properties :
#
#
# Convention : Reuss Voigt Hill
#
# Bulk Modulus (GPa) = 16.52858 41.05886 28.79372
# Shear Modulus (GPa) = 16.49009 29.48563 22.98786
#
# Velocity S-wave (km/s) = 3.05088 4.07962 3.60216
# Velocity P-wave (km/s) = 4.66263 6.73549 5.79254
#
# Compressibility (1/GPa) = 0.06050126
#
# Stress axis : x y z
#
# Youngs Moduli (GPa) = 51.71178 89.11611 12.74403
#
# Poissons Ratio (x) = 0.48345 0.14626
# Poissons Ratio (y) = 0.28054 0.09381
# Poissons Ratio (z) = 0.59348 0.65602
#
# Static dielectric constant tensor:
#      x y z
#    x 1.616220 0.000000 0.000000 
#    y 0.000000 1.621180 0.000000 
#    z 0.000000 0.000000 1.603810 
# 
# From -- ./inp_files/6051.got.cif
#   From: 2010.05.17/outbox.cif.g08.bks.cpg/sg49_4_cif.got.tgz:6051.got - 2010.06.03 21:02:19.
