data_PCOD9392361
_publ_section_title
;
Structure prediction by ZEFSAII (Michael W. Deem and Ramdas Pophale) SiO2 
 PCOD9392361
Probable space group: P C C M
;
_chemical_formula_sum "Si O2"
_cell_formula_units_Z 56
_cell_length_a 5.233011
_cell_length_b 25.697347
_cell_length_c 22.640980
_cell_angle_alpha 90.000000
_cell_angle_beta 90.000000
_cell_angle_gamma 90.000000
_cell_volume 3044.634454
_symmetry_space_group_name_H-M "P C C M"
_symmetry_group_IT_number 49
_symmetry_cell_setting 'orthorhombic'
loop_
_space_group_symop_operation_xyz
x,y,z
-x,-y,z
x,-y,1/2-z
-x,y,1/2-z
-x,-y,-z
x,y,-z
-x,y,1/2+z
x,-y,1/2+z
loop_
_atom_site_type_symbol
_atom_site_label
_atom_site_fract_x
_atom_site_fract_y
_atom_site_fract_z
Si Si1 0.745230 0.523095 0.316685
Si Si2 0.615455 0.632476 0.640314
Si Si3 0.121899 0.770610 0.620638
Si Si4 0.957033 0.880554 0.429174
Si Si5 0.456588 0.059508 0.072100
Si Si6 0.620436 0.251506 0.813130
Si Si7 0.112908 0.344692 0.069136
O O1 0.500000 0.500000 0.348695
O O2 0.746741 0.500000 0.250000
O O3 0.700308 0.584485 0.318580
O O4 0.000000 0.500000 0.344529
O O5 0.613661 0.686312 0.676283
O O6 0.338856 0.630178 0.608850
O O7 0.837190 0.635902 0.591064
O O8 0.030307 0.822141 0.587851
O O9 0.415494 0.773474 0.641579
O O10 0.109762 0.717530 0.582523
O O11 0.912141 0.764013 0.673143
O O12 0.949718 0.883133 0.500000
O O13 0.184971 0.918157 0.408417
O O14 0.685878 0.902769 0.407990
O O15 0.500000 0.000000 0.090455
O O16 0.456261 0.059635 0.000000
O O17 0.500000 0.239466 0.750000
O O18 0.154888 0.353721 0.000000
#
# Coordination Sequence:
#
# PCOD9392361 Si02
#       7
#     8   8   8   8   8   8   8
#     4  10  21  36  55  82 107 132 162 217 266 310
#     4  10  21  36  56  82 107 136 172 209 260 311
#     4  10  20  34  50  79 105 135 179 212 252 308
#     4  10  18  29  48  71 104 142 172 214 254 299
#     4   9  17  28  43  68 102 141 177 210 258 309
#     4  10  21  35  53  75 107 137 163 213 264 322
#     4  10  20  36  57  78 107 144 177 210 244 304
#
# _framework density 18.393013
#
# number of rings (size 3 to 8) (size 9 to 14) (size 15 to 20)
#    0.000    2.143    0.000    3.429    2.000    1.714 
#    5.143    4.286    0.000    8.571    0.000    0.000 
#    0.000   40.000    0.000    0.000    0.000    0.000 
#
# Total GULP energy -312080.754588 kJ/mol
# GULP energy per Si atom -5572.870618 kJ/mol
# Density = 1.835115 g / cm^3
# Si number density = 18.393013 Si / 1000 Ang^3
#
#
#
# Elastic Constant Matrix: (Units=GPa)
#
#
# Indices 1 2 3 4 5 6 
#
# 1 96.5220 6.7686 -2.1613 0.0000 0.0000 0.0000
# 2 6.7686 59.8604 4.3347 0.0000 0.0000 0.0000
# 3 -2.1613 4.3347 29.9085 0.0000 0.0000 0.0000
# 4 0.0000 0.0000 0.0000 15.5453 0.0000 0.0000
# 5 0.0000 0.0000 0.0000 0.0000 9.3003 0.0000
# 6 0.0000 0.0000 0.0000 0.0000 0.0000 27.7972
#
#
#
# Elastic Compliance Matrix: (Units=1/GPa)
#
#
# Indices 1 2 3 4 5 6 
#
# 1 0.010469 -0.001252 0.000938 0.000000 0.000000 0.000000
# 2 -0.001252 0.017032 -0.002559 0.000000 0.000000 0.000000
# 3 0.000938 -0.002559 0.033874 0.000000 0.000000 0.000000
# 4 0.000000 0.000000 0.000000 0.064328 0.000000 0.000000
# 5 0.000000 0.000000 0.000000 0.000000 0.107523 0.000000
# 6 0.000000 0.000000 0.000000 0.000000 0.000000 0.035975
#
#
# Mechanical properties :
#
#
# Convention : Reuss Voigt Hill
#
# Bulk Modulus (GPa) = 17.97593 22.68611 20.33102
# Shear Modulus (GPa) = 17.03631 22.35181 19.69406
#
# Velocity S-wave (km/s) = 3.04672 3.48980 3.27576
# Velocity P-wave (km/s) = 4.70862 5.34782 5.03837
#
# Compressibility (1/GPa) = 0.05562994
#
# Stress axis : x y z
#
# Youngs Moduli (GPa) = 95.51913 58.71171 29.52121
#
# Poissons Ratio (x) = 0.07349 -0.02769
# Poissons Ratio (y) = 0.11956 0.07555
# Poissons Ratio (z) = -0.08959 0.15024
#
# Static dielectric constant tensor:
#      x y z
#    x 1.647780 0.000000 0.000000 
#    y 0.000000 1.644910 0.000000 
#    z 0.000000 0.000000 1.615310 
# 
# From -- ./inp_files/21892.got.cif
#   From: 2010.05.17/outbox.cif.g08.bks.cpg/sg49_11_cif.got.tgz:21892.got - 2010.06.03 21:02:19.
