data_PCOD9392406
_publ_section_title
;
Structure prediction by ZEFSAII (Michael W. Deem and Ramdas Pophale) SiO2 
 PCOD9392406
Probable space group: P C C M
;
_chemical_formula_sum "Si O2"
_cell_formula_units_Z 56
_cell_length_a 19.023353
_cell_length_b 19.656689
_cell_length_c 8.597433
_cell_angle_alpha 90.000000
_cell_angle_beta 90.000000
_cell_angle_gamma 90.000000
_cell_volume 3214.890855
_symmetry_space_group_name_H-M "P C C M"
_symmetry_group_IT_number 49
_symmetry_cell_setting 'orthorhombic'
loop_
_space_group_symop_operation_xyz
x,y,z
-x,-y,z
x,-y,1/2-z
-x,y,1/2-z
-x,-y,-z
x,y,-z
-x,y,1/2+z
x,-y,1/2+z
loop_
_atom_site_type_symbol
_atom_site_label
_atom_site_fract_x
_atom_site_fract_y
_atom_site_fract_z
Si Si1 0.309192 0.927886 0.686944
Si Si2 0.423923 0.652323 0.815466
Si Si3 0.849834 0.926969 0.686069
Si Si4 0.208029 0.705510 0.311793
Si Si5 0.922764 0.207204 0.687307
Si Si6 0.647991 0.781677 0.187239
Si Si7 0.288429 0.575108 0.313375
O O1 0.303524 0.930502 0.500000
O O2 0.230499 0.918808 0.754437
O O3 0.354040 0.861104 0.728877
O O4 0.336212 0.000000 0.750000
O O5 0.500000 0.633881 0.750000
O O6 0.405394 0.729922 0.767118
O O7 0.362743 0.605632 0.743242
O O8 0.422772 0.645767 0.000000
O O9 0.850506 0.927093 0.500000
O O10 0.895965 0.865614 0.751707
O O11 0.874455 0.000000 0.750000
O O12 0.205387 0.704455 0.500000
O O13 0.135198 0.737680 0.257946
O O14 0.273838 0.754159 0.271536
O O15 0.229824 0.630019 0.260217
O O16 0.923362 0.205949 0.500000
O O17 0.000000 0.221872 0.750000
O O18 0.640292 0.775141 0.000000
O O19 0.277088 0.500000 0.250000
O O20 0.288918 0.573871 0.500000
#
# Coordination Sequence:
#
# PCOD9392406 Si02
#       7
#     8   8   8   8   8   8   8
#     4  10  18  30  49  74 104 137 175 223 273 316
#     4  11  22  36  55  82 113 146 178 214 253 309
#     4  11  21  33  49  72 101 138 178 223 270 324
#     4   8  16  33  55  74 103 137 171 211 261 311
#     4  11  21  36  53  75 103 139 178 222 273 322
#     4   9  17  33  54  75 102 141 178 219 267 313
#     4  10  20  37  59  86 112 142 174 211 257 308
#
# _framework density 17.418942000000001
#
# number of rings (size 3 to 8) (size 9 to 14) (size 15 to 20)
#    0.000    2.000    1.429    5.571    0.000    1.714 
#    0.000    5.000    0.000    0.857    0.000    6.000 
#    0.000    0.000    0.000    0.000    0.000    0.000 
#
# Total GULP energy -312534.938091 kJ/mol
# GULP energy per Si atom -5580.981037 kJ/mol
# Density = 1.737930 g / cm^3
# Si number density = 17.418942 Si / 1000 Ang^3
#
#
#
# Elastic Constant Matrix: (Units=GPa)
#
#
# Indices 1 2 3 4 5 6 
#
# 1 62.1079 46.6294 18.9931 0.0000 0.0000 0.0000
# 2 46.6294 146.2656 37.9213 0.0000 0.0000 0.0000
# 3 18.9931 37.9213 80.0913 0.0000 0.0000 0.0000
# 4 0.0000 0.0000 0.0000 -142.5158 0.0000 0.0000
# 5 0.0000 0.0000 0.0000 0.0000 6.2847 0.0000
# 6 0.0000 0.0000 0.0000 0.0000 0.0000 23.8222
#
#
#
# Elastic Compliance Matrix: (Units=1/GPa)
#
#
# Indices 1 2 3 4 5 6 
#
# 1 0.021476 -0.006299 -0.002110 0.000000 0.000000 0.000000
# 2 -0.006299 0.009641 -0.003071 0.000000 0.000000 0.000000
# 3 -0.002110 -0.003071 0.014440 0.000000 0.000000 0.000000
# 4 0.000000 0.000000 0.000000 -0.007017 0.000000 0.000000
# 5 0.000000 0.000000 0.000000 0.000000 0.159116 0.000000
# 6 0.000000 0.000000 0.000000 0.000000 0.000000 0.041978
#
#
# Mechanical properties :
#
#
# Convention : Reuss Voigt Hill
#
# Bulk Modulus (GPa) = 44.25562 55.06139 49.65851
# Shear Modulus (GPa) = 18.50975 -10.15371 4.17802
#
# Velocity S-wave (km/s) = 3.26333 -2.41698 1.55041
# Velocity P-wave (km/s) = 6.29768 4.88770 5.63695
#
# Compressibility (1/GPa) = 0.02259600
#
# Stress axis : x y z
#
# Youngs Moduli (GPa) = 46.56412 103.72005 69.25081
#
# Poissons Ratio (x) = 0.65337 0.14613
# Poissons Ratio (y) = 0.29332 0.21268
# Poissons Ratio (z) = 0.09826 0.31853
#
# Static dielectric constant tensor:
#      x y z
#    x 1.571500 0.000000 0.000000 
#    y 0.000000 1.604870 0.000000 
#    z 0.000000 0.000000 1.585910 
# 
# From -- ./inp_files/5181.got.cif
#   From: 2010.05.17/outbox.cif.g08.bks.cpg/sg49_3_cif.got.tgz:5181.got - 2010.06.03 21:02:19.
