data_PCOD9392979
_publ_section_title
;
Structure prediction by ZEFSAII (Michael W. Deem and Ramdas Pophale) SiO2 
 PCOD9392979
Probable space group: P C C M
;
_chemical_formula_sum "Si O2"
_cell_formula_units_Z 60
_cell_length_a 28.615796
_cell_length_b 5.470434
_cell_length_c 19.549060
_cell_angle_alpha 90.000000
_cell_angle_beta 90.000000
_cell_angle_gamma 90.000000
_cell_volume 3060.225949
_symmetry_space_group_name_H-M "P C C M"
_symmetry_group_IT_number 49
_symmetry_cell_setting 'orthorhombic'
loop_
_space_group_symop_operation_xyz
x,y,z
-x,-y,z
x,-y,1/2-z
-x,y,1/2-z
-x,-y,-z
x,y,-z
-x,y,1/2+z
x,-y,1/2+z
loop_
_atom_site_type_symbol
_atom_site_label
_atom_site_fract_x
_atom_site_fract_y
_atom_site_fract_z
Si Si1 0.155436 0.031185 0.173456
Si Si2 0.553593 0.999995 0.832900
Si Si3 0.000000 0.000000 0.879718
Si Si4 0.091388 0.744313 0.922722
Si Si5 0.242108 0.890747 0.420440
Si Si6 0.936650 0.641104 0.820419
Si Si7 0.300163 0.612630 0.080183
Si Si8 0.392408 0.496305 0.667103
O O1 0.196582 0.128197 0.126280
O O2 0.109593 0.194552 0.183754
O O3 0.174377 0.000000 0.250000
O O4 0.132785 0.809316 0.130059
O O5 0.576448 0.259421 0.851480
O O6 0.500000 0.000000 0.857336
O O7 0.552420 0.000000 0.750000
O O8 0.582856 0.755350 0.852298
O O9 0.984234 0.785300 0.830217
O O10 0.047183 0.930429 0.919586
O O11 0.069553 0.503018 0.891102
O O12 0.108227 0.724513 0.000000
O O13 0.228864 0.925838 0.500000
O O14 0.268782 0.632353 0.415192
O O15 0.272996 0.133263 0.401731
O O16 0.936958 0.500000 0.750000
O O17 0.343905 0.554766 0.128731
O O18 0.314270 0.638492 0.000000
O O19 0.386327 0.500000 0.750000
#
# Coordination Sequence:
#
# PCOD9392979 Si02
#       8
#     8   8   4   8   8   8   8   8
#     4  11  24  43  64  91 123 155 197 251 307 369
#     4   9  17  30  51  82 118 158 204 257 309 360
#     4  10  25  41  62  94 124 156 208 244 292 356
#     4  11  24  42  65  91 124 160 199 244 296 358
#     4  10  23  41  64  91 119 158 207 250 308 379
#     4  11  24  43  64  92 126 161 202 244 307 364
#     4  10  22  40  60  87 122 160 201 252 313 375
#     4  10  19  32  55  83 116 155 206 256 306 365
#
# _framework density 19.606393000000001
#
# number of rings (size 3 to 8) (size 9 to 14) (size 15 to 20)
#    0.000    1.733    1.333    2.200    1.867    8.000 
#    0.000    0.000    0.000    2.400    0.000    0.000 
#    0.000    0.000    0.000    0.000    0.000    0.000 
#
# Total GULP energy -334585.937502 kJ/mol
# GULP energy per Si atom -5576.432292 kJ/mol
# Density = 1.956177 g / cm^3
# Si number density = 19.606393 Si / 1000 Ang^3
#
#
#
# Elastic Constant Matrix: (Units=GPa)
#
#
# Indices 1 2 3 4 5 6 
#
# 1 64.0520 4.5851 39.8467 0.0000 0.0000 0.0000
# 2 4.5851 90.1421 28.2705 0.0000 0.0000 0.0000
# 3 39.8467 28.2705 90.2206 0.0000 0.0000 0.0000
# 4 0.0000 0.0000 0.0000 10.8461 0.0000 0.0000
# 5 0.0000 0.0000 0.0000 0.0000 10.1362 0.0000
# 6 0.0000 0.0000 0.0000 0.0000 0.0000 5.8052
#
#
#
# Elastic Compliance Matrix: (Units=1/GPa)
#
#
# Indices 1 2 3 4 5 6 
#
# 1 0.021889 0.002128 -0.010334 0.000000 0.000000 0.000000
# 2 0.002128 0.012509 -0.004859 0.000000 0.000000 0.000000
# 3 -0.010334 -0.004859 0.017171 0.000000 0.000000 0.000000
# 4 0.000000 0.000000 0.000000 0.092199 0.000000 0.000000
# 5 0.000000 0.000000 0.000000 0.000000 0.098656 0.000000
# 6 0.000000 0.000000 0.000000 0.000000 0.000000 0.172259
#
#
# Mechanical properties :
#
#
# Convention : Reuss Voigt Hill
#
# Bulk Modulus (GPa) = 39.31260 43.31325 41.31292
# Shear Modulus (GPa) = 11.12855 16.80499 13.96677
#
# Velocity S-wave (km/s) = 2.38502 2.93083 2.67190
# Velocity P-wave (km/s) = 5.26107 5.79589 5.53495
#
# Compressibility (1/GPa) = 0.02543714
#
# Stress axis : x y z
#
# Youngs Moduli (GPa) = 45.68536 79.93981 58.23841
#
# Poissons Ratio (x) = -0.17008 0.60184
# Poissons Ratio (y) = -0.09720 0.28301
# Poissons Ratio (z) = 0.47212 0.38847
#
# Static dielectric constant tensor:
#      x y z
#    x 1.683210 0.000000 0.000000 
#    y 0.000000 1.771360 0.000000 
#    z 0.000000 0.000000 1.679020 
# 
# From -- ./inp_files/21246.got.cif
#   From: 2010.05.17/outbox.cif.g08.bks.cpg/sg49_11_cif.got.tgz:21246.got - 2010.06.03 21:02:19.
