data_PCOD9392751
_publ_section_title
;
Structure prediction by ZEFSAII (Michael W. Deem and Ramdas Pophale) SiO2 
 PCOD9392751
Probable space group: P C C M
;
_chemical_formula_sum "Si O2"
_cell_formula_units_Z 64
_cell_length_a 21.174770
_cell_length_b 20.717222
_cell_length_c 7.659461
_cell_angle_alpha 90.000000
_cell_angle_beta 90.000000
_cell_angle_gamma 90.000000
_cell_volume 3360.070818
_symmetry_space_group_name_H-M "P C C M"
_symmetry_group_IT_number 49
_symmetry_cell_setting 'orthorhombic'
loop_
_space_group_symop_operation_xyz
x,y,z
-x,-y,z
x,-y,1/2-z
-x,y,1/2-z
-x,-y,-z
x,y,-z
-x,y,1/2+z
x,-y,1/2+z
loop_
_atom_site_type_symbol
_atom_site_label
_atom_site_fract_x
_atom_site_fract_y
_atom_site_fract_z
Si Si1 0.754953 0.291353 0.212322
Si Si2 0.568547 0.848641 0.290516
Si Si3 0.072974 0.925495 0.794026
Si Si4 0.605691 0.709664 0.287439
Si Si5 0.188621 0.157753 0.714621
Si Si6 0.397498 0.430242 0.709159
Si Si7 0.251800 0.430996 0.708913
Si Si8 0.690714 0.924784 0.290584
O O1 0.680461 0.285104 0.256930
O O2 0.795366 0.230416 0.272908
O O3 0.776187 0.362879 0.270489
O O4 0.756844 0.289969 0.000000
O O5 0.500000 0.876245 0.250000
O O6 0.574478 0.845553 0.500000
O O7 0.573364 0.774932 0.222959
O O8 0.627116 0.890584 0.223687
O O9 0.123976 0.875055 0.721768
O O10 0.000000 0.913011 0.750000
O O11 0.088061 0.000000 0.750000
O O12 0.077747 0.920993 0.000000
O O13 0.602450 0.709564 0.500000
O O14 0.579268 0.639967 0.226841
O O15 0.187775 0.158702 0.500000
O O16 0.247083 0.112752 0.770286
O O17 0.426803 0.500000 0.750000
O O18 0.396637 0.426753 0.500000
O O19 0.324546 0.432937 0.774236
O O20 0.221536 0.500000 0.750000
O O21 0.255403 0.427238 0.500000
O O22 0.690288 0.918134 0.500000
O O23 0.692765 0.000000 0.250000
#
# Coordination Sequence:
#
# PCOD9392751 Si02
#       8
#     8   8   8   8   8   8   8   8
#     4   8  12  22  42  65  85 110 149 187 216 253
#     4  10  20  34  51  67  85 112 146 186 228 271
#     4  10  19  31  48  69  95 126 156 187 220 262
#     4   8  13  25  44  62  82 110 144 179 217 262
#     4   9  16  28  48  72  93 117 154 191 220 257
#     4   8  13  21  36  59  82 106 136 170 210 256
#     4   8  13  20  34  56  84 114 140 172 212 257
#     4  10  20  34  52  71  90 113 144 185 228 269
#
# _framework density 19.047218999999998
#
# number of rings (size 3 to 8) (size 9 to 14) (size 15 to 20)
#    0.000    3.125    1.250    2.625    0.000    0.750 
#    0.000    2.500    0.000    3.375    0.000    2.625 
#    0.000    0.500    0.000    6.250    0.000    0.250 
#
# Total GULP energy -356569.291428 kJ/mol
# GULP energy per Si atom -5571.395179 kJ/mol
# Density = 1.900387 g / cm^3
# Si number density = 19.047219 Si / 1000 Ang^3
#
#
#
# Elastic Constant Matrix: (Units=GPa)
#
#
# Indices 1 2 3 4 5 6 
#
# 1 90.6616 76.5249 3.4518 0.0000 0.0000 0.0000
# 2 76.5249 180.9037 3.6971 0.0000 0.0000 0.0000
# 3 3.4518 3.6971 32.4670 0.0000 0.0000 0.0000
# 4 0.0000 0.0000 0.0000 8.0923 0.0000 0.0000
# 5 0.0000 0.0000 0.0000 0.0000 4.4420 0.0000
# 6 0.0000 0.0000 0.0000 0.0000 0.0000 -83.2289
#
#
#
# Elastic Compliance Matrix: (Units=1/GPa)
#
#
# Indices 1 2 3 4 5 6 
#
# 1 0.017188 -0.007250 -0.001002 0.000000 0.000000 0.000000
# 2 -0.007250 0.008599 -0.000208 0.000000 0.000000 0.000000
# 3 -0.001002 -0.000208 0.030931 0.000000 0.000000 0.000000
# 4 0.000000 0.000000 0.000000 0.123575 0.000000 0.000000
# 5 0.000000 0.000000 0.000000 0.000000 0.225122 0.000000
# 6 0.000000 0.000000 0.000000 0.000000 0.000000 -0.012015
#
#
# Mechanical properties :
#
#
# Convention : Reuss Voigt Hill
#
# Bulk Modulus (GPa) = 25.12756 52.37551 38.75153
# Shear Modulus (GPa) = 11.80399 0.55165 6.17782
#
# Velocity S-wave (km/s) = 2.49212 0.53875 1.80290
# Velocity P-wave (km/s) = 4.63700 5.28625 4.97223
#
# Compressibility (1/GPa) = 0.03979694
#
# Stress axis : x y z
#
# Youngs Moduli (GPa) = 58.18042 116.29220 32.33027
#
# Poissons Ratio (x) = 0.84315 0.03239
# Poissons Ratio (y) = 0.42182 0.00674
# Poissons Ratio (z) = 0.05828 0.02423
#
# Static dielectric constant tensor:
#      x y z
#    x 1.662100 0.000000 0.000000 
#    y 0.000000 1.725580 0.000000 
#    z 0.000000 0.000000 1.545970 
# 
# From -- ./inp_files/6055.got.cif
#   From: 2010.05.17/outbox.cif.g08.bks.cpg/sg49_4_cif.got.tgz:6055.got - 2010.06.03 21:02:19.
