data_PCOD9392154
_publ_section_title
;
Structure prediction by ZEFSAII (Michael W. Deem and Ramdas Pophale) SiO2 
 PCOD9392154
Probable space group: P C C M
;
_chemical_formula_sum "Si O2"
_cell_formula_units_Z 58
_cell_length_a 14.904221
_cell_length_b 25.851981
_cell_length_c 8.402973
_cell_angle_alpha 90.000000
_cell_angle_beta 90.000000
_cell_angle_gamma 90.000000
_cell_volume 3237.696068
_symmetry_space_group_name_H-M "P C C M"
_symmetry_group_IT_number 49
_symmetry_cell_setting 'orthorhombic'
loop_
_space_group_symop_operation_xyz
x,y,z
-x,-y,z
x,-y,1/2-z
-x,y,1/2-z
-x,-y,-z
x,y,-z
-x,y,1/2+z
x,-y,1/2+z
loop_
_atom_site_type_symbol
_atom_site_label
_atom_site_fract_x
_atom_site_fract_y
_atom_site_fract_z
Si Si1 0.897043 0.946092 0.189303
Si Si2 0.597198 0.307930 0.312438
Si Si3 0.232268 0.256888 0.312439
Si Si4 0.102577 0.164556 0.690646
Si Si5 0.150600 0.556324 0.187319
Si Si6 0.904276 0.336654 0.314226
Si Si7 0.500000 0.500000 0.750000
Si Si8 0.638113 0.578180 0.312983
O O1 0.861978 0.891467 0.253346
O O2 0.000000 0.946357 0.250000
O O3 0.855510 0.000000 0.250000
O O4 0.897068 0.945920 0.000000
O O5 0.500000 0.291597 0.250000
O O6 0.594120 0.317930 0.500000
O O7 0.673976 0.266368 0.274007
O O8 0.622279 0.361860 0.225485
O O9 0.248528 0.250643 0.500000
O O10 0.169755 0.209693 0.255099
O O11 0.173477 0.308147 0.282142
O O12 0.098859 0.165325 0.500000
O O13 0.000000 0.171931 0.750000
O O14 0.125287 0.500000 0.250000
O O15 0.104554 0.602412 0.283196
O O16 0.258037 0.563815 0.208014
O O17 0.130338 0.561626 0.000000
O O18 0.894668 0.325131 0.500000
O O19 0.000000 0.318310 0.250000
O O20 0.425078 0.456965 0.799280
O O21 0.613988 0.567802 0.500000
#
# Coordination Sequence:
#
# PCOD9392154 Si02
#       8
#     8   8   8   8   8   8   2   8
#     4  10  17  27  45  70 107 151 196 239 280 327
#     4  12  25  40  61  83 109 141 178 219 271 331
#     4  11  23  40  60  83 113 146 184 230 278 328
#     4  10  20  33  52  79 113 152 194 238 280 327
#     4  11  23  40  59  80 107 135 169 213 262 320
#     4  12  25  41  61  83 107 139 179 221 272 326
#     4  12  22  36  60  86 112 136 170 208 268 332
#     4  11  23  37  56  81 110 135 166 206 258 322
#
# _framework density 17.913972000000001
#
# number of rings (size 3 to 8) (size 9 to 14) (size 15 to 20)
#    0.000    0.966    2.759    6.828    0.000    4.690 
#    0.000    1.379    0.000    0.000    0.000    0.000 
#    0.000    0.552    0.000    5.793    0.000    2.483 
#
# Total GULP energy -323901.832544 kJ/mol
# GULP energy per Si atom -5584.514354 kJ/mol
# Density = 1.787320 g / cm^3
# Si number density = 17.913972 Si / 1000 Ang^3
#
#
#
# Elastic Constant Matrix: (Units=GPa)
#
#
# Indices 1 2 3 4 5 6 
#
# 1 71.2716 28.3919 14.0902 0.0000 0.0000 0.0000
# 2 28.3919 111.7543 10.1844 0.0000 0.0000 0.0000
# 3 14.0902 10.1844 65.9270 0.0000 0.0000 0.0000
# 4 0.0000 0.0000 0.0000 -53.4589 0.0000 0.0000
# 5 0.0000 0.0000 0.0000 0.0000 18.5878 0.0000
# 6 0.0000 0.0000 0.0000 0.0000 0.0000 2.9252
#
#
#
# Elastic Compliance Matrix: (Units=1/GPa)
#
#
# Indices 1 2 3 4 5 6 
#
# 1 0.016123 -0.003836 -0.002853 0.000000 0.000000 0.000000
# 2 -0.003836 0.009989 -0.000723 0.000000 0.000000 0.000000
# 3 -0.002853 -0.000723 0.015890 0.000000 0.000000 0.000000
# 4 0.000000 0.000000 0.000000 -0.018706 0.000000 0.000000
# 5 0.000000 0.000000 0.000000 0.000000 0.053799 0.000000
# 6 0.000000 0.000000 0.000000 0.000000 0.000000 0.341857
#
#
# Mechanical properties :
#
#
# Convention : Reuss Voigt Hill
#
# Bulk Modulus (GPa) = 36.79664 39.36511 38.08087
# Shear Modulus (GPa) = 11.29087 6.69658 8.99372
#
# Velocity S-wave (km/s) = 2.51327 1.93554 2.24308
# Velocity P-wave (km/s) = 5.38585 5.19782 5.29267
#
# Compressibility (1/GPa) = 0.02717640
#
# Stress axis : x y z
#
# Youngs Moduli (GPa) = 62.02284 100.11310 62.93333
#
# Poissons Ratio (x) = 0.38405 0.17957
# Poissons Ratio (y) = 0.23793 0.04551
# Poissons Ratio (z) = 0.17697 0.07240
#
# Static dielectric constant tensor:
#      x y z
#    x 1.538160 0.000000 0.000000 
#    y 0.000000 1.637980 0.000000 
#    z 0.000000 0.000000 1.653850 
# 
# From -- ./inp_files/4251.got.cif
#   From: 2010.05.17/outbox.cif.g08.bks.cpg/sg49_3_cif.got.tgz:4251.got - 2010.06.03 21:02:19.
