data_PCOD9392419
_publ_section_title
;
Structure prediction by ZEFSAII (Michael W. Deem and Ramdas Pophale) SiO2 
 PCOD9392419
Probable space group: P C C M
;
_chemical_formula_sum "Si O2"
_cell_formula_units_Z 64
_cell_length_a 8.603500
_cell_length_b 16.525377
_cell_length_c 22.076305
_cell_angle_alpha 90.000000
_cell_angle_beta 90.000000
_cell_angle_gamma 90.000000
_cell_volume 3138.722528
_symmetry_space_group_name_H-M "P C C M"
_symmetry_group_IT_number 49
_symmetry_cell_setting 'orthorhombic'
loop_
_space_group_symop_operation_xyz
x,y,z
-x,-y,z
x,-y,1/2-z
-x,y,1/2-z
-x,-y,-z
x,y,-z
-x,y,1/2+z
x,-y,1/2+z
loop_
_atom_site_type_symbol
_atom_site_label
_atom_site_fract_x
_atom_site_fract_y
_atom_site_fract_z
Si Si1 0.888642 0.579264 0.181504
Si Si2 0.171338 0.832215 0.633726
Si Si3 0.163542 0.665487 0.568405
Si Si4 0.193265 0.146398 0.612180
Si Si5 0.325473 0.983315 0.430255
Si Si6 0.679406 0.815556 0.736494
Si Si7 0.786103 0.674339 0.432864
Si Si8 0.208063 0.641744 0.197246
O O1 0.802582 0.596864 0.118936
O O2 0.786254 0.586230 0.242290
O O3 0.000000 0.500000 0.178692
O O4 0.020465 0.649769 0.188077
O O5 0.217724 0.750527 0.597398
O O6 0.251632 0.911083 0.606862
O O7 0.218502 0.827049 0.703700
O O8 0.988492 0.842153 0.623728
O O9 0.222666 0.653366 0.500000
O O10 0.974436 0.666967 0.563495
O O11 0.269733 0.134355 0.677972
O O12 0.248817 0.230811 0.581537
O O13 0.230780 0.066788 0.574515
O O14 0.332968 0.957477 0.500000
O O15 0.500000 0.000000 0.408795
O O16 0.500000 0.829587 0.750000
O O17 0.709002 0.723332 0.716188
O O18 0.725936 0.652193 0.500000
O O19 0.737639 0.624367 0.372051
#
# Coordination Sequence:
#
# PCOD9392419 Si02
#       8
#     8   8   8   8   8   8   8   8
#     4  10  18  30  54  84 117 153 186 239 293 351
#     4  11  21  37  60  81 112 149 202 249 300 356
#     4   9  17  30  50  81 114 145 186 237 290 348
#     4  10  21  35  57  82 108 149 199 247 296 353
#     4  11  24  40  56  80 119 159 196 246 309 367
#     4  11  22  36  57  83 116 150 189 246 308 369
#     4   8  15  27  48  75 106 138 180 236 280 328
#     4   9  17  30  50  77 110 148 188 224 288 352
#
# _framework density 20.390461999999999
#
# number of rings (size 3 to 8) (size 9 to 14) (size 15 to 20)
#    0.000    2.125    1.250    3.750    3.500    2.750 
#    0.000    2.500    0.000    3.375    0.000    0.000 
#    0.000    1.000    0.000    0.000    0.000    0.000 
#
# Total GULP energy -356514.680026 kJ/mol
# GULP energy per Si atom -5570.541875 kJ/mol
# Density = 2.034405 g / cm^3
# Si number density = 20.390462 Si / 1000 Ang^3
#
#
#
# Elastic Constant Matrix: (Units=GPa)
#
#
# Indices 1 2 3 4 5 6 
#
# 1 32.5855 3.4558 12.5821 0.0000 0.0000 0.0000
# 2 3.4558 56.7157 42.0250 0.0000 0.0000 0.0000
# 3 12.5821 42.0250 180.2249 0.0000 0.0000 0.0000
# 4 0.0000 0.0000 0.0000 12.0079 0.0000 0.0000
# 5 0.0000 0.0000 0.0000 0.0000 17.0064 0.0000
# 6 0.0000 0.0000 0.0000 0.0000 0.0000 9.6652
#
#
#
# Elastic Compliance Matrix: (Units=1/GPa)
#
#
# Indices 1 2 3 4 5 6 
#
# 1 0.031544 -0.000351 -0.002120 0.000000 0.000000 0.000000
# 2 -0.000351 0.021318 -0.004947 0.000000 0.000000 0.000000
# 3 -0.002120 -0.004947 0.006850 0.000000 0.000000 0.000000
# 4 0.000000 0.000000 0.000000 0.083279 0.000000 0.000000
# 5 0.000000 0.000000 0.000000 0.000000 0.058801 0.000000
# 6 0.000000 0.000000 0.000000 0.000000 0.000000 0.103464
#
#
# Mechanical properties :
#
#
# Convention : Reuss Voigt Hill
#
# Bulk Modulus (GPa) = 22.28300 42.85023 32.56661
# Shear Modulus (GPa) = 14.92306 21.83344 18.37825
#
# Velocity S-wave (km/s) = 2.70824 3.27581 3.00545
# Velocity P-wave (km/s) = 4.55316 5.94713 5.29621
#
# Compressibility (1/GPa) = 0.04487726
#
# Stress axis : x y z
#
# Youngs Moduli (GPa) = 31.70133 46.90764 145.98323
#
# Poissons Ratio (x) = 0.01646 0.30954
# Poissons Ratio (y) = 0.01112 0.72212
# Poissons Ratio (z) = 0.06722 0.23203
#
# Static dielectric constant tensor:
#      x y z
#    x 1.687420 0.000000 0.000000 
#    y 0.000000 1.764040 0.000000 
#    z 0.000000 0.000000 1.803040 
# 
# From -- ./inp_files/20026.got.cif
#   From: 2010.05.17/outbox.cif.g08.bks.cpg/sg49_11_cif.got.tgz:20026.got - 2010.06.03 21:02:19.
