data_PCOD9392119
_publ_section_title
;
Structure prediction by ZEFSAII (Michael W. Deem and Ramdas Pophale) SiO2 
 PCOD9392119
Probable space group: P C C M
;
_chemical_formula_sum "Si O2"
_cell_formula_units_Z 64
_cell_length_a 15.275430
_cell_length_b 28.676835
_cell_length_c 8.646626
_cell_angle_alpha 90.000000
_cell_angle_beta 90.000000
_cell_angle_gamma 90.000000
_cell_volume 3787.663042
_symmetry_space_group_name_H-M "P C C M"
_symmetry_group_IT_number 49
_symmetry_cell_setting 'orthorhombic'
loop_
_space_group_symop_operation_xyz
x,y,z
-x,-y,z
x,-y,1/2-z
-x,y,1/2-z
-x,-y,-z
x,y,-z
-x,y,1/2+z
x,-y,1/2+z
loop_
_atom_site_type_symbol
_atom_site_label
_atom_site_fract_x
_atom_site_fract_y
_atom_site_fract_z
Si Si1 0.280200 0.548686 0.814598
Si Si2 0.900519 0.047885 0.814935
Si Si3 0.405419 0.263591 0.814044
Si Si4 0.907699 0.419357 0.185725
Si Si5 0.906537 0.310558 0.185088
Si Si6 0.404492 0.627970 0.314460
Si Si7 0.219098 0.766793 0.313361
Si Si8 0.901148 0.145938 0.686363
O O1 0.315757 0.500000 0.750000
O O2 0.179357 0.554496 0.761838
O O3 0.333932 0.592851 0.754357
O O4 0.282394 0.548265 0.000000
O O5 0.865143 0.096959 0.752512
O O6 0.000000 0.048188 0.750000
O O7 0.859664 0.000000 0.750000
O O8 0.902084 0.046987 0.000000
O O9 0.500000 0.249334 0.750000
O O10 0.389466 0.317897 0.769596
O O11 0.320478 0.234446 0.763213
O O12 0.410152 0.262073 0.000000
O O13 0.897660 0.364804 0.231575
O O14 0.000000 0.436763 0.250000
O O15 0.911406 0.421010 0.000000
O O16 0.829941 0.278774 0.250723
O O17 0.000000 0.293670 0.250000
O O18 0.907450 0.308133 0.000000
O O19 0.500000 0.615112 0.250000
O O20 0.403766 0.625153 0.500000
O O21 0.218055 0.764852 0.500000
O O22 0.162275 0.811745 0.267371
O O23 0.906020 0.143260 0.500000
O O24 0.000000 0.153241 0.750000
#
# Coordination Sequence:
#
# PCOD9392119 Si02
#       8
#     8   8   8   8   8   8   8   8
#     4  11  23  38  54  75 100 124 154 190 232 280
#     4  10  17  27  43  62  87 122 166 209 247 285
#     4   9  19  35  54  76  99 125 158 195 236 282
#     4   9  20  36  53  72  95 124 158 196 232 272
#     4  10  19  31  48  70  95 125 160 194 231 276
#     4  10  20  36  58  80 101 125 153 188 232 282
#     4  10  20  32  47  69  99 131 161 197 240 284
#     4  10  19  30  43  63  95 132 168 204 241 281
#
# _framework density 16.896963
#
# number of rings (size 3 to 8) (size 9 to 14) (size 15 to 20)
#    0.000    2.125    0.000    4.875    0.000    5.000 
#    0.000    2.500    0.000    0.000    0.000    0.000 
#    0.000    0.500    0.000    5.750    0.000    1.750 
#
# Total GULP energy -357155.503182 kJ/mol
# GULP energy per Si atom -5580.554737 kJ/mol
# Density = 1.685850 g / cm^3
# Si number density = 16.896963 Si / 1000 Ang^3
#
#
#
# Elastic Constant Matrix: (Units=GPa)
#
#
# Indices 1 2 3 4 5 6 
#
# 1 103.3881 48.1037 22.7588 0.0000 0.0000 0.0000
# 2 48.1037 71.9524 24.5738 0.0000 0.0000 0.0000
# 3 22.7588 24.5738 42.3626 0.0000 0.0000 0.0000
# 4 0.0000 0.0000 0.0000 11.3605 0.0000 0.0000
# 5 0.0000 0.0000 0.0000 0.0000 23.5961 0.0000
# 6 0.0000 0.0000 0.0000 0.0000 0.0000 15.4052
#
#
#
# Elastic Compliance Matrix: (Units=1/GPa)
#
#
# Indices 1 2 3 4 5 6 
#
# 1 0.014276 -0.008636 -0.002660 0.000000 0.000000 0.000000
# 2 -0.008636 0.022555 -0.008445 0.000000 0.000000 0.000000
# 3 -0.002660 -0.008445 0.029934 0.000000 0.000000 0.000000
# 4 0.000000 0.000000 0.000000 0.088025 0.000000 0.000000
# 5 0.000000 0.000000 0.000000 0.000000 0.042380 0.000000
# 6 0.000000 0.000000 0.000000 0.000000 0.000000 0.064913
#
#
# Mechanical properties :
#
#
# Convention : Reuss Voigt Hill
#
# Bulk Modulus (GPa) = 36.65161 45.39732 41.02446
# Shear Modulus (GPa) = 16.09488 18.22347 17.15917
#
# Velocity S-wave (km/s) = 3.08966 3.28762 3.19018
# Velocity P-wave (km/s) = 5.87080 6.42937 6.15642
#
# Compressibility (1/GPa) = 0.02728393
#
# Stress axis : x y z
#
# Youngs Moduli (GPa) = 70.04879 44.33515 33.40736
#
# Poissons Ratio (x) = 0.38286 0.08887
# Poissons Ratio (y) = 0.60491 0.28212
# Poissons Ratio (z) = 0.18634 0.37440
#
# Static dielectric constant tensor:
#      x y z
#    x 1.568780 0.000000 0.000000 
#    y 0.000000 1.590160 0.000000 
#    z 0.000000 0.000000 1.574270 
# 
# From -- ./inp_files/4505.got.cif
#   From: 2010.05.17/outbox.cif.g08.bks.cpg/sg49_3_cif.got.tgz:4505.got - 2010.06.03 21:02:19.
