data_PCOD9392597
_publ_section_title
;
Structure prediction by ZEFSAII (Michael W. Deem and Ramdas Pophale) SiO2 
 PCOD9392597
Probable space group: P C C M
;
_chemical_formula_sum "Si O2"
_cell_formula_units_Z 64
_cell_length_a 19.261202
_cell_length_b 22.016780
_cell_length_c 8.610345
_cell_angle_alpha 90.000000
_cell_angle_beta 90.000000
_cell_angle_gamma 90.000000
_cell_volume 3651.385964
_symmetry_space_group_name_H-M "P C C M"
_symmetry_group_IT_number 49
_symmetry_cell_setting 'orthorhombic'
loop_
_space_group_symop_operation_xyz
x,y,z
-x,-y,z
x,-y,1/2-z
-x,y,1/2-z
-x,-y,-z
x,y,-z
-x,y,1/2+z
x,-y,1/2+z
loop_
_atom_site_type_symbol
_atom_site_label
_atom_site_fract_x
_atom_site_fract_y
_atom_site_fract_z
Si Si1 0.626911 0.063910 0.314030
Si Si2 0.073097 0.241165 0.320096
Si Si3 0.820380 0.670599 0.182386
Si Si4 0.925945 0.905664 0.677509
Si Si5 0.716089 0.763464 0.188672
Si Si6 0.426403 0.189502 0.684601
Si Si7 0.075739 0.568087 0.312031
Si Si8 0.220832 0.892451 0.685976
O O1 0.621511 0.066950 0.500000
O O2 0.586906 0.120578 0.241515
O O3 0.708779 0.071875 0.272230
O O4 0.601631 0.000000 0.250000
O O5 0.082018 0.259703 0.500000
O O6 0.128602 0.272727 0.210680
O O7 0.074335 0.168174 0.315688
O O8 0.000000 0.260594 0.250000
O O9 0.749173 0.699818 0.244117
O O10 0.862590 0.612632 0.243883
O O11 0.810636 0.659248 0.000000
O O12 0.925323 0.925793 0.500000
O O13 0.851206 0.919965 0.752361
O O14 0.000000 0.925054 0.750000
O O15 0.638882 0.773658 0.248774
O O16 0.761380 0.822971 0.239168
O O17 0.716035 0.764519 0.000000
O O18 0.500000 0.210685 0.750000
O O19 0.426298 0.191433 0.500000
O O20 0.086623 0.500000 0.250000
O O21 0.073467 0.568126 0.500000
O O22 0.000000 0.588101 0.250000
O O23 0.215201 0.890719 0.500000
#
# Coordination Sequence:
#
# PCOD9392597 Si02
#       8
#     8   8   8   8   8   8   8   8
#     4  10  21  37  56  80 104 132 167 205 245 289
#     4  10  19  27  38  60  89 121 157 198 243 292
#     4  10  19  31  48  68  94 128 166 210 257 301
#     4  10  19  28  41  62  89 120 156 195 241 293
#     4   9  18  33  51  73 101 130 161 200 247 301
#     4  11  22  37  57  80 108 139 167 197 237 291
#     4  10  20  33  48  66  93 135 182 226 267 305
#     4   9  17  31  50  68  95 127 156 196 249 297
#
# _framework density 17.527591000000001
#
# number of rings (size 3 to 8) (size 9 to 14) (size 15 to 20)
#    0.000    2.125    1.250    4.125    0.000    6.250 
#    0.000    1.250    0.000    0.375    0.000    2.625 
#    0.000    0.500    0.000    5.750    0.000    1.750 
#
# Total GULP energy -356899.629385 kJ/mol
# GULP energy per Si atom -5576.556709 kJ/mol
# Density = 1.748770 g / cm^3
# Si number density = 17.527591 Si / 1000 Ang^3
#
#
#
# Elastic Constant Matrix: (Units=GPa)
#
#
# Indices 1 2 3 4 5 6 
#
# 1 114.8946 29.6410 17.2859 0.0000 0.0000 0.0000
# 2 29.6410 72.2900 11.2618 0.0000 0.0000 0.0000
# 3 17.2859 11.2618 27.2228 0.0000 0.0000 0.0000
# 4 0.0000 0.0000 0.0000 108.8925 0.0000 0.0000
# 5 0.0000 0.0000 0.0000 0.0000 23.6533 0.0000
# 6 0.0000 0.0000 0.0000 0.0000 0.0000 10.8898
#
#
#
# Elastic Compliance Matrix: (Units=1/GPa)
#
#
# Indices 1 2 3 4 5 6 
#
# 1 0.010369 -0.003448 -0.005158 0.000000 0.000000 0.000000
# 2 -0.003448 0.015933 -0.004402 0.000000 0.000000 0.000000
# 3 -0.005158 -0.004402 0.041830 0.000000 0.000000 0.000000
# 4 0.000000 0.000000 0.000000 0.009183 0.000000 0.000000
# 5 0.000000 0.000000 0.000000 0.000000 0.042277 0.000000
# 6 0.000000 0.000000 0.000000 0.000000 0.000000 0.091829
#
#
# Mechanical properties :
#
#
# Convention : Reuss Voigt Hill
#
# Bulk Modulus (GPa) = 23.74361 36.75387 30.24874
# Shear Modulus (GPa) = 19.88266 39.10171 29.49219
#
# Velocity S-wave (km/s) = 3.37169 4.72833 4.10642
# Velocity P-wave (km/s) = 5.36036 7.12910 6.30705
#
# Compressibility (1/GPa) = 0.04211659
#
# Stress axis : x y z
#
# Youngs Moduli (GPa) = 96.43974 62.76379 23.90635
#
# Poissons Ratio (x) = 0.21642 0.12330
# Poissons Ratio (y) = 0.33254 0.10523
# Poissons Ratio (z) = 0.49741 0.27627
#
# Static dielectric constant tensor:
#      x y z
#    x 1.614350 0.000000 0.000000 
#    y 0.000000 1.615670 0.000000 
#    z 0.000000 0.000000 1.591730 
# 
# From -- ./inp_files/5423.got.cif
#   From: 2010.05.17/outbox.cif.g08.bks.cpg/sg49_3_cif.got.tgz:5423.got - 2010.06.03 21:02:19.
