data_PCOD9392888
_publ_section_title
;
Structure prediction by ZEFSAII (Michael W. Deem and Ramdas Pophale) SiO2 
 PCOD9392888
Probable space group: P C C M
;
_chemical_formula_sum "Si O2"
_cell_formula_units_Z 64
_cell_length_a 24.262411
_cell_length_b 19.723578
_cell_length_c 8.566980
_cell_angle_alpha 90.000000
_cell_angle_beta 90.000000
_cell_angle_gamma 90.000000
_cell_volume 4099.655938
_symmetry_space_group_name_H-M "P C C M"
_symmetry_group_IT_number 49
_symmetry_cell_setting 'orthorhombic'
loop_
_space_group_symop_operation_xyz
x,y,z
-x,-y,z
x,-y,1/2-z
-x,y,1/2-z
-x,-y,-z
x,y,-z
-x,y,1/2+z
x,-y,1/2+z
loop_
_atom_site_type_symbol
_atom_site_label
_atom_site_fract_x
_atom_site_fract_y
_atom_site_fract_z
Si Si1 0.560428 0.713677 0.311377
Si Si2 0.258198 0.427882 0.688244
Si Si3 0.728892 0.075083 0.685823
Si Si4 0.664256 0.801759 0.688537
Si Si5 0.387180 0.572360 0.811982
Si Si6 0.835749 0.846814 0.687800
Si Si7 0.060358 0.075414 0.185967
Si Si8 0.226975 0.283415 0.310849
O O1 0.500000 0.729279 0.250000
O O2 0.560085 0.712937 0.500000
O O3 0.606824 0.768015 0.263345
O O4 0.579596 0.638491 0.258679
O O5 0.237974 0.500000 0.750000
O O6 0.256931 0.429139 0.500000
O O7 0.322751 0.420691 0.734695
O O8 0.226262 0.360850 0.744098
O O9 0.734273 0.073711 0.500000
O O10 0.680857 0.127079 0.736097
O O11 0.785258 0.105330 0.758603
O O12 0.719418 0.000000 0.750000
O O13 0.664688 0.809200 0.500000
O O14 0.713838 0.749747 0.728430
O O15 0.407661 0.500000 0.750000
O O16 0.388603 0.571016 0.000000
O O17 0.838435 0.848425 0.500000
O O18 0.892231 0.874228 0.757508
O O19 0.818853 0.770721 0.739865
O O20 0.000000 0.094127 0.250000
O O21 0.073012 0.000000 0.250000
O O22 0.058609 0.072508 0.000000
O O23 0.224662 0.285277 0.500000
#
# Coordination Sequence:
#
# PCOD9392888 Si02
#       8
#     8   8   8   8   8   8   8   8
#     4  10  20  33  49  66  88 118 152 190 232 281
#     4   9  15  26  43  64  88 119 154 187 227 276
#     4  11  21  33  50  74  98 121 149 187 231 278
#     4   9  17  33  51  66  87 118 150 185 231 283
#     4   9  17  29  45  63  87 118 153 189 227 272
#     4  10  19  32  50  72  98 131 165 199 236 274
#     4  11  21  34  50  70  99 135 173 207 236 274
#     4   8  14  27  48  66  87 120 156 189 230 280
#
# _framework density 15.611067
#
# number of rings (size 3 to 8) (size 9 to 14) (size 15 to 20)
#    0.000    2.375    1.250    4.125    0.000    1.250 
#    0.000    4.375    0.000    0.375    0.000    2.625 
#    0.000    0.500    0.000    5.750    0.000    1.750 
#
# Total GULP energy -356875.708540 kJ/mol
# GULP energy per Si atom -5576.182946 kJ/mol
# Density = 1.557554 g / cm^3
# Si number density = 15.611067 Si / 1000 Ang^3
#
#
#
# Elastic Constant Matrix: (Units=GPa)
#
#
# Indices 1 2 3 4 5 6 
#
# 1 101.8342 71.2068 29.4662 0.0000 0.0000 0.0000
# 2 71.2068 143.7003 32.1959 0.0000 0.0000 0.0000
# 3 29.4662 32.1959 52.6557 0.0000 0.0000 0.0000
# 4 0.0000 0.0000 0.0000 21.4848 0.0000 0.0000
# 5 0.0000 0.0000 0.0000 0.0000 26.3545 0.0000
# 6 0.0000 0.0000 0.0000 0.0000 0.0000 25.8659
#
#
#
# Elastic Compliance Matrix: (Units=1/GPa)
#
#
# Indices 1 2 3 4 5 6 
#
# 1 0.015992 -0.006859 -0.004755 0.000000 0.000000 0.000000
# 2 -0.006859 0.011005 -0.002891 0.000000 0.000000 0.000000
# 3 -0.004755 -0.002891 0.023420 0.000000 0.000000 0.000000
# 4 0.000000 0.000000 0.000000 0.046545 0.000000 0.000000
# 5 0.000000 0.000000 0.000000 0.000000 0.037944 0.000000
# 6 0.000000 0.000000 0.000000 0.000000 0.000000 0.038661
#
#
# Mechanical properties :
#
#
# Convention : Reuss Voigt Hill
#
# Bulk Modulus (GPa) = 46.71347 62.65865 54.68606
# Shear Modulus (GPa) = 23.84215 25.76248 24.80231
#
# Velocity S-wave (km/s) = 3.91226 4.06676 3.99026
# Velocity P-wave (km/s) = 7.09901 7.89150 7.50572
#
# Compressibility (1/GPa) = 0.02140710
#
# Stress axis : x y z
#
# Youngs Moduli (GPa) = 62.53168 90.86464 42.69863
#
# Poissons Ratio (x) = 0.62323 0.20304
# Poissons Ratio (y) = 0.42890 0.12344
# Poissons Ratio (z) = 0.29735 0.26268
#
# Static dielectric constant tensor:
#      x y z
#    x 1.499310 0.000000 0.000000 
#    y 0.000000 1.532520 0.000000 
#    z 0.000000 0.000000 1.532950 
# 
# From -- ./inp_files/6604.got.cif
#   From: 2010.05.17/outbox.cif.g08.bks.cpg/sg49_4_cif.got.tgz:6604.got - 2010.06.03 21:02:19.
