data_PCOD9392061
_publ_section_title
;
Structure prediction by ZEFSAII (Michael W. Deem and Ramdas Pophale) SiO2 
 PCOD9392061
Probable space group: P C C M
;
_chemical_formula_sum "Si O2"
_cell_formula_units_Z 42
_cell_length_a 23.786678
_cell_length_b 5.557993
_cell_length_c 14.602918
_cell_angle_alpha 90.000000
_cell_angle_beta 90.000000
_cell_angle_gamma 90.000000
_cell_volume 1930.596149
_symmetry_space_group_name_H-M "P C C M"
_symmetry_group_IT_number 49
_symmetry_cell_setting 'orthorhombic'
loop_
_space_group_symop_operation_xyz
x,y,z
-x,-y,z
x,-y,1/2-z
-x,y,1/2-z
-x,-y,-z
x,y,-z
-x,y,1/2+z
x,-y,1/2+z
loop_
_atom_site_type_symbol
_atom_site_label
_atom_site_fract_x
_atom_site_fract_y
_atom_site_fract_z
Si Si1 0.350078 0.248180 0.307338
Si Si2 0.057712 0.384142 0.851021
Si Si3 0.477337 0.747984 0.856013
Si Si4 0.815511 0.624186 0.895290
Si Si5 0.000000 0.000000 0.750000
Si Si6 0.768021 0.131887 0.890736
O O1 0.341965 0.500000 0.250000
O O2 0.410149 0.267712 0.356266
O O3 0.296787 0.191813 0.370935
O O4 0.355034 0.000000 0.250000
O O5 0.064317 0.500000 0.750000
O O6 0.116992 0.380894 0.898851
O O7 0.000000 0.500000 0.890833
O O8 0.041613 0.119149 0.822238
O O9 0.500000 0.500000 0.896655
O O10 0.500000 0.748369 0.750000
O O11 0.500000 0.000000 0.894533
O O12 0.799203 0.368111 0.851893
O O13 0.789748 0.871793 0.854787
O O14 0.793582 0.617409 0.000000
O O15 0.778852 0.121873 0.000000
#
# Coordination Sequence:
#
# PCOD9392061 Si02
#       6
#     8   8   8   8   2   8
#     4  12  21  34  58  90 109 144 197 238 273 338
#     4   9  20  35  57  85 114 146 178 233 292 335
#     4  10  16  30  50  79 114 141 171 231 290 325
#     4  10  22  41  60  79 110 154 194 230 275 337
#     4   8  18  36  50  78 120 136 170 218 308 324
#     4  10  24  42  56  78 119 157 185 231 294 334
#
# _framework density 21.754937000000002
#
# number of rings (size 3 to 8) (size 9 to 14) (size 15 to 20)
#    0.000    2.095    3.810    1.143    5.333    2.667 
#    0.000    0.476    0.000    1.143    0.000    0.000 
#    0.000    0.000    0.000    0.000    0.000    0.000 
#
# Total GULP energy -233831.586139 kJ/mol
# GULP energy per Si atom -5567.418718 kJ/mol
# Density = 2.170542 g / cm^3
# Si number density = 21.754937 Si / 1000 Ang^3
#
#
#
# Elastic Constant Matrix: (Units=GPa)
#
#
# Indices 1 2 3 4 5 6 
#
# 1 134.3796 50.6461 -2.3510 0.0000 0.0000 0.0000
# 2 50.6461 192.7802 22.7869 0.0000 0.0000 0.0000
# 3 -2.3510 22.7869 42.4397 0.0000 0.0000 0.0000
# 4 0.0000 0.0000 0.0000 0.4176 0.0000 0.0000
# 5 0.0000 0.0000 0.0000 0.0000 -163.6319 0.0000
# 6 0.0000 0.0000 0.0000 0.0000 0.0000 56.3719
#
#
#
# Elastic Compliance Matrix: (Units=1/GPa)
#
#
# Indices 1 2 3 4 5 6 
#
# 1 0.008380 -0.002409 0.001758 0.000000 0.000000 0.000000
# 2 -0.002409 0.006232 -0.003479 0.000000 0.000000 0.000000
# 3 0.001758 -0.003479 0.025528 0.000000 0.000000 0.000000
# 4 0.000000 0.000000 0.000000 2.394817 0.000000 0.000000
# 5 0.000000 0.000000 0.000000 0.000000 -0.006111 0.000000
# 6 0.000000 0.000000 0.000000 0.000000 0.000000 0.017739
#
#
# Mechanical properties :
#
#
# Convention : Reuss Voigt Hill
#
# Bulk Modulus (GPa) = 31.36894 56.86259 44.11577
# Shear Modulus (GPa) = 2.02801 -1.46730 0.28035
#
# Velocity S-wave (km/s) = 0.96656 -0.82215 0.35937
# Velocity P-wave (km/s) = 3.96184 5.02924 4.52711
#
# Compressibility (1/GPa) = 0.03187866
#
# Stress axis : x y z
#
# Youngs Moduli (GPa) = 119.32525 160.47464 39.17213
#
# Poissons Ratio (x) = 0.38666 -0.06886
# Poissons Ratio (y) = 0.28751 0.13629
# Poissons Ratio (z) = -0.20977 0.55834
#
# Static dielectric constant tensor:
#      x y z
#    x 1.759260 0.000000 0.000000 
#    y 0.000000 1.851760 0.000000 
#    z 0.000000 0.000000 1.796280 
# 
# From -- ./inp_files/18358.got.cif
#   From: 2010.05.17/outbox.cif.g08.bks.cpg/sg49_10_cif.got.tgz:18358.got - 2010.06.03 21:02:19.
