data_PCOD9392183
_publ_section_title
;
Structure prediction by ZEFSAII (Michael W. Deem and Ramdas Pophale) SiO2 
 PCOD9392183
Probable space group: P C C M
;
_chemical_formula_sum "Si O2"
_cell_formula_units_Z 64
_cell_length_a 24.349105
_cell_length_b 15.395337
_cell_length_c 8.619743
_cell_angle_alpha 90.000000
_cell_angle_beta 90.000000
_cell_angle_gamma 90.000000
_cell_volume 3231.219937
_symmetry_space_group_name_H-M "P C C M"
_symmetry_group_IT_number 49
_symmetry_cell_setting 'orthorhombic'
loop_
_space_group_symop_operation_xyz
x,y,z
-x,-y,z
x,-y,1/2-z
-x,y,1/2-z
-x,-y,-z
x,y,-z
-x,y,1/2+z
x,-y,1/2+z
loop_
_atom_site_type_symbol
_atom_site_label
_atom_site_fract_x
_atom_site_fract_y
_atom_site_fract_z
Si Si1 0.725099 0.095789 0.186385
Si Si2 0.852808 0.095957 0.813966
Si Si3 0.103899 0.595013 0.813497
Si Si4 0.560747 0.276413 0.684858
Si Si5 0.941723 0.770870 0.815455
Si Si6 0.672256 0.276408 0.811846
Si Si7 0.438336 0.913364 0.185346
Si Si8 0.769251 0.594153 0.686301
O O1 0.788935 0.114181 0.225660
O O2 0.688378 0.177590 0.237714
O O3 0.712333 0.000000 0.250000
O O4 0.720304 0.091689 0.000000
O O5 0.893190 0.167294 0.744737
O O6 0.865826 0.000000 0.750000
O O7 0.857302 0.096355 0.000000
O O8 0.088421 0.500000 0.750000
O O9 0.068909 0.673676 0.746359
O O10 0.167725 0.611375 0.765779
O O11 0.100656 0.595006 0.000000
O O12 0.500000 0.300976 0.750000
O O13 0.556688 0.275751 0.500000
O O14 0.617117 0.320544 0.741874
O O15 0.575334 0.180662 0.750225
O O16 0.000000 0.802286 0.750000
O O17 0.942786 0.770837 0.000000
O O18 0.725133 0.333887 0.768130
O O19 0.666391 0.275119 0.000000
O O20 0.500000 0.918846 0.250000
O O21 0.409779 0.000000 0.250000
O O22 0.436416 0.913810 0.000000
O O23 0.753640 0.500000 0.750000
O O24 0.769476 0.591247 0.500000
#
# Coordination Sequence:
#
# PCOD9392183 Si02
#       8
#     8   8   8   8   8   8   8   8
#     4   9  19  35  57  83 115 150 187 229 280 335
#     4  10  20  38  61  86 115 152 195 243 294 346
#     4  10  20  38  62  90 121 155 190 231 282 342
#     4  11  22  36  52  73 101 139 182 225 271 327
#     4  12  25  40  58  84 116 156 201 247 292 342
#     4  10  20  36  56  81 113 150 183 223 277 333
#     4  10  17  28  45  65  90 124 166 213 258 306
#     4   9  19  36  61  89 118 147 181 226 281 337
#
# _framework density 19.806760000000001
#
# number of rings (size 3 to 8) (size 9 to 14) (size 15 to 20)
#    0.000    1.875    0.000    6.000    0.000    5.000 
#    0.000    5.000    0.000    0.375    0.000    2.625 
#    0.000    0.000    0.000    0.000    0.000    0.000 
#
# Total GULP energy -357119.954026 kJ/mol
# GULP energy per Si atom -5579.999282 kJ/mol
# Density = 1.976168 g / cm^3
# Si number density = 19.806760 Si / 1000 Ang^3
#
#
#
# Elastic Constant Matrix: (Units=GPa)
#
#
# Indices 1 2 3 4 5 6 
#
# 1 114.7441 43.6601 35.2617 0.0000 0.0000 0.0000
# 2 43.6601 53.5298 17.9889 0.0000 0.0000 0.0000
# 3 35.2617 17.9889 90.3099 0.0000 0.0000 0.0000
# 4 0.0000 0.0000 0.0000 30.6440 0.0000 0.0000
# 5 0.0000 0.0000 0.0000 0.0000 30.4324 0.0000
# 6 0.0000 0.0000 0.0000 0.0000 0.0000 -2.2793
#
#
#
# Elastic Compliance Matrix: (Units=1/GPa)
#
#
# Indices 1 2 3 4 5 6 
#
# 1 0.013495 -0.009899 -0.003297 0.000000 0.000000 0.000000
# 2 -0.009899 0.027282 -0.001569 0.000000 0.000000 0.000000
# 3 -0.003297 -0.001569 0.012673 0.000000 0.000000 0.000000
# 4 0.000000 0.000000 0.000000 0.032633 0.000000 0.000000
# 5 0.000000 0.000000 0.000000 0.000000 0.032860 0.000000
# 6 0.000000 0.000000 0.000000 0.000000 0.000000 -0.438737
#
#
# Mechanical properties :
#
#
# Convention : Reuss Voigt Hill
#
# Bulk Modulus (GPa) = 41.80733 50.26722 46.03728
# Shear Modulus (GPa) = -17.71222 22.53762 2.41270
#
# Velocity S-wave (km/s) = -2.99365 3.37690 1.10488
# Velocity P-wave (km/s) = 3.03384 6.37483 4.99213
#
# Compressibility (1/GPa) = 0.02391925
#
# Stress axis : x y z
#
# Youngs Moduli (GPa) = 74.10301 36.65411 78.90761
#
# Poissons Ratio (x) = 0.36282 0.26019
# Poissons Ratio (y) = 0.73351 0.12384
# Poissons Ratio (z) = 0.24434 0.05753
#
# Static dielectric constant tensor:
#      x y z
#    x 1.727160 0.000000 0.000000 
#    y 0.000000 0.544360 0.000000 
#    z 0.000000 0.000000 1.673430 
# 
# From -- ./inp_files/6528.got.cif
#   From: 2010.05.17/outbox.cif.g08.bks.cpg/sg49_4_cif.got.tgz:6528.got - 2010.06.03 21:02:19.
