data_PCOD9392899
_publ_section_title
;
Structure prediction by ZEFSAII (Michael W. Deem and Ramdas Pophale) SiO2 
 PCOD9392899
Probable space group: P C C M
;
_chemical_formula_sum "Si O2"
_cell_formula_units_Z 64
_cell_length_a 15.571239
_cell_length_b 25.469000
_cell_length_c 8.888354
_cell_angle_alpha 90.000000
_cell_angle_beta 90.000000
_cell_angle_gamma 90.000000
_cell_volume 3524.977970
_symmetry_space_group_name_H-M "P C C M"
_symmetry_group_IT_number 49
_symmetry_cell_setting 'orthorhombic'
loop_
_space_group_symop_operation_xyz
x,y,z
-x,-y,z
x,-y,1/2-z
-x,y,1/2-z
-x,-y,-z
x,y,-z
-x,y,1/2+z
x,-y,1/2+z
loop_
_atom_site_type_symbol
_atom_site_label
_atom_site_fract_x
_atom_site_fract_y
_atom_site_fract_z
Si Si1 0.770245 0.944473 0.181078
Si Si2 0.220916 0.349663 0.180556
Si Si3 0.827373 0.759536 0.673401
Si Si4 0.586959 0.675307 0.179979
Si Si5 0.090099 0.857802 0.320314
Si Si6 0.091973 0.557156 0.681061
Si Si7 0.412657 0.101391 0.819724
Si Si8 0.627316 0.786966 0.674776
O O1 0.834876 0.898073 0.226749
O O2 0.673131 0.929591 0.226204
O O3 0.795373 0.000000 0.250000
O O4 0.772190 0.947640 0.000000
O O5 0.180200 0.298280 0.256894
O O6 0.322183 0.351871 0.221773
O O7 0.165735 0.400890 0.218606
O O8 0.217564 0.342474 0.000000
O O9 0.854757 0.756761 0.500000
O O10 0.886273 0.799736 0.763545
O O11 0.730670 0.782849 0.678516
O O12 0.500000 0.652006 0.250000
O O13 0.595245 0.734537 0.243269
O O14 0.579977 0.676299 0.000000
O O15 0.085120 0.857944 0.500000
O O16 0.000000 0.874293 0.250000
O O17 0.111056 0.500000 0.750000
O O18 0.084706 0.553380 0.500000
O O19 0.000000 0.573701 0.750000
O O20 0.500000 0.079233 0.750000
O O21 0.401578 0.160592 0.758110
O O22 0.417957 0.102290 0.000000
O O23 0.599591 0.787503 0.500000
#
# Coordination Sequence:
#
# PCOD9392899 Si02
#       8
#     8   8   8   8   8   8   8   8
#     4  10  24  43  63  82 108 142 180 227 279 331
#     4   9  20  36  55  80 115 156 191 229 279 335
#     4  10  20  34  56  85 115 148 185 226 274 328
#     4  10  19  32  50  75 110 150 189 231 275 324
#     4  11  23  41  62  86 113 145 182 224 277 335
#     4  10  20  36  58  84 112 147 189 234 284 332
#     4  11  22  37  56  82 110 143 181 222 273 328
#     4  10  19  32  52  79 109 145 184 223 268 324
#
# _framework density 18.156143
#
# number of rings (size 3 to 8) (size 9 to 14) (size 15 to 20)
#    0.000    1.875    1.250    3.000    0.000    5.500 
#    0.000    3.750    0.000    0.375    0.000    2.625 
#    0.000    0.000    0.000    0.000    0.000    0.000 
#
# Total GULP energy -357431.031457 kJ/mol
# GULP energy per Si atom -5584.859867 kJ/mol
# Density = 1.811482 g / cm^3
# Si number density = 18.156143 Si / 1000 Ang^3
#
#
#
# Elastic Constant Matrix: (Units=GPa)
#
#
# Indices 1 2 3 4 5 6 
#
# 1 117.5248 61.0876 46.3633 0.0000 0.0000 0.0000
# 2 61.0876 84.2616 34.6561 0.0000 0.0000 0.0000
# 3 46.3633 34.6561 61.3557 0.0000 0.0000 0.0000
# 4 0.0000 0.0000 0.0000 22.3378 0.0000 0.0000
# 5 0.0000 0.0000 0.0000 0.0000 -86.3000 0.0000
# 6 0.0000 0.0000 0.0000 0.0000 0.0000 6.8687
#
#
#
# Elastic Compliance Matrix: (Units=1/GPa)
#
#
# Indices 1 2 3 4 5 6 
#
# 1 0.015708 -0.008475 -0.007083 0.000000 0.000000 0.000000
# 2 -0.008475 0.020032 -0.004911 0.000000 0.000000 0.000000
# 3 -0.007083 -0.004911 0.024424 0.000000 0.000000 0.000000
# 4 0.000000 0.000000 0.000000 0.044767 0.000000 0.000000
# 5 0.000000 0.000000 0.000000 0.000000 -0.011587 0.000000
# 6 0.000000 0.000000 0.000000 0.000000 0.000000 0.145589
#
#
# Mechanical properties :
#
#
# Convention : Reuss Voigt Hill
#
# Bulk Modulus (GPa) = 52.00947 60.81737 56.41342
# Shear Modulus (GPa) = 17.46552 -3.34970 7.05791
#
# Velocity S-wave (km/s) = 3.10492 -1.35976 1.97377
# Velocity P-wave (km/s) = 6.44685 5.57712 6.02769
#
# Compressibility (1/GPa) = 0.01922727
#
# Stress axis : x y z
#
# Youngs Moduli (GPa) = 63.66124 49.92119 40.94290
#
# Poissons Ratio (x) = 0.42308 0.28999
# Poissons Ratio (y) = 0.53952 0.20105
# Poissons Ratio (z) = 0.45090 0.24514
#
# Static dielectric constant tensor:
#      x y z
#    x 1.656420 0.000000 0.000000 
#    y 0.000000 1.580490 0.000000 
#    z 0.000000 0.000000 1.609500 
# 
# From -- ./inp_files/4333.got.cif
#   From: 2010.05.17/outbox.cif.g08.bks.cpg/sg49_3_cif.got.tgz:4333.got - 2010.06.03 21:02:19.
