data_PCOD9392435
_publ_section_title
;
Structure prediction by ZEFSAII (Michael W. Deem and Ramdas Pophale) SiO2 
 PCOD9392435
Probable space group: P C C M
;
_chemical_formula_sum "Si O2"
_cell_formula_units_Z 64
_cell_length_a 23.977449
_cell_length_b 19.444250
_cell_length_c 8.777976
_cell_angle_alpha 90.000000
_cell_angle_beta 90.000000
_cell_angle_gamma 90.000000
_cell_volume 4092.498805
_symmetry_space_group_name_H-M "P C C M"
_symmetry_group_IT_number 49
_symmetry_cell_setting 'orthorhombic'
loop_
_space_group_symop_operation_xyz
x,y,z
-x,-y,z
x,-y,1/2-z
-x,y,1/2-z
-x,-y,-z
x,y,-z
-x,y,1/2+z
x,-y,1/2+z
loop_
_atom_site_type_symbol
_atom_site_label
_atom_site_fract_x
_atom_site_fract_y
_atom_site_fract_z
Si Si1 0.160232 0.660903 0.317301
Si Si2 0.559731 0.788239 0.316984
Si Si3 0.223022 0.785922 0.182172
Si Si4 0.665864 0.300490 0.817446
Si Si5 0.257859 0.926445 0.318167
Si Si6 0.390186 0.073640 0.817905
Si Si7 0.938637 0.574529 0.682636
Si Si8 0.728353 0.424422 0.681516
O O1 0.154216 0.661024 0.500000
O O2 0.177536 0.736105 0.257909
O O3 0.105610 0.630458 0.238623
O O4 0.212457 0.611051 0.276582
O O5 0.500000 0.768986 0.250000
O O6 0.557839 0.790425 0.500000
O O7 0.608261 0.734933 0.270332
O O8 0.577037 0.863160 0.255078
O O9 0.283047 0.751103 0.219591
O O10 0.225154 0.862739 0.246106
O O11 0.216745 0.785937 0.000000
O O12 0.680992 0.372750 0.741745
O O13 0.665385 0.309067 0.000000
O O14 0.251917 0.926649 0.500000
O O15 0.324068 0.917677 0.282953
O O16 0.240994 0.000000 0.250000
O O17 0.407482 0.000000 0.750000
O O18 0.396998 0.073583 0.000000
O O19 0.921573 0.500000 0.750000
O O20 0.940884 0.570751 0.500000
O O21 0.000000 0.588753 0.750000
O O22 0.724278 0.500000 0.750000
O O23 0.725880 0.428103 0.500000
#
# Coordination Sequence:
#
# PCOD9392435 Si02
#       8
#     8   8   8   8   8   8   8   8
#     4  10  20  33  49  74 104 135 170 209 246 289
#     4  11  22  36  52  71  93 121 155 196 239 289
#     4  10  18  31  50  72  98 129 163 202 247 295
#     4   9  19  34  51  69  94 122 153 191 237 290
#     4  10  19  30  47  70  97 129 163 199 242 294
#     4  10  20  33  50  70  94 124 158 197 237 285
#     4  11  21  34  51  72 101 141 181 217 252 291
#     4  10  20  32  51  75 100 126 156 194 240 288
#
# _framework density 15.638368
#
# number of rings (size 3 to 8) (size 9 to 14) (size 15 to 20)
#    0.000    1.875    1.250    4.125    0.000    5.250 
#    0.000    1.250    0.000    0.375    0.000    2.625 
#    0.000    0.500    0.000    5.000    0.000    3.000 
#
# Total GULP energy -357353.035448 kJ/mol
# GULP energy per Si atom -5583.641179 kJ/mol
# Density = 1.560277 g / cm^3
# Si number density = 15.638368 Si / 1000 Ang^3
#
#
#
# Elastic Constant Matrix: (Units=GPa)
#
#
# Indices 1 2 3 4 5 6 
#
# 1 74.3981 48.7940 38.7342 0.0000 0.0000 0.0000
# 2 48.7940 118.5239 44.2380 0.0000 0.0000 0.0000
# 3 38.7342 44.2380 62.0166 0.0000 0.0000 0.0000
# 4 0.0000 0.0000 0.0000 29.6307 0.0000 0.0000
# 5 0.0000 0.0000 0.0000 0.0000 19.1173 0.0000
# 6 0.0000 0.0000 0.0000 0.0000 0.0000 25.2695
#
#
#
# Elastic Compliance Matrix: (Units=1/GPa)
#
#
# Indices 1 2 3 4 5 6 
#
# 1 0.022195 -0.005401 -0.010010 0.000000 0.000000 0.000000
# 2 -0.005401 0.012813 -0.005766 0.000000 0.000000 0.000000
# 3 -0.010010 -0.005766 0.026490 0.000000 0.000000 0.000000
# 4 0.000000 0.000000 0.000000 0.033749 0.000000 0.000000
# 5 0.000000 0.000000 0.000000 0.000000 0.052309 0.000000
# 6 0.000000 0.000000 0.000000 0.000000 0.000000 0.039573
#
#
# Mechanical properties :
#
#
# Convention : Reuss Voigt Hill
#
# Bulk Modulus (GPa) = 52.23758 57.60788 54.92273
# Shear Modulus (GPa) = 21.19866 23.01498 22.10682
#
# Velocity S-wave (km/s) = 3.68578 3.84044 3.76390
# Velocity P-wave (km/s) = 7.18257 7.52215 7.35432
#
# Compressibility (1/GPa) = 0.01914331
#
# Stress axis : x y z
#
# Youngs Moduli (GPa) = 45.05523 78.04624 37.75043
#
# Poissons Ratio (x) = 0.42155 0.37787
# Poissons Ratio (y) = 0.24335 0.21768
# Poissons Ratio (z) = 0.45099 0.45004
#
# Static dielectric constant tensor:
#      x y z
#    x 1.509390 0.000000 0.000000 
#    y 0.000000 1.504470 0.000000 
#    z 0.000000 0.000000 1.516640 
# 
# From -- ./inp_files/5240.got.cif
#   From: 2010.05.17/outbox.cif.g08.bks.cpg/sg49_3_cif.got.tgz:5240.got - 2010.06.03 21:02:19.
