data_PCOD9392055
_publ_section_title
;
Structure prediction by ZEFSAII (Michael W. Deem and Ramdas Pophale) SiO2 
 PCOD9392055
Probable space group: P C C M
;
_chemical_formula_sum "Si O2"
_cell_formula_units_Z 64
_cell_length_a 37.284993
_cell_length_b 5.405033
_cell_length_c 14.615989
_cell_angle_alpha 90.000000
_cell_angle_beta 90.000000
_cell_angle_gamma 90.000000
_cell_volume 2945.510826
_symmetry_space_group_name_H-M "P C C M"
_symmetry_group_IT_number 49
_symmetry_cell_setting 'orthorhombic'
loop_
_space_group_symop_operation_xyz
x,y,z
-x,-y,z
x,-y,1/2-z
-x,y,1/2-z
-x,-y,-z
x,y,-z
-x,y,1/2+z
x,-y,1/2+z
loop_
_atom_site_type_symbol
_atom_site_label
_atom_site_fract_x
_atom_site_fract_y
_atom_site_fract_z
Si Si1 0.484773 0.248998 0.355633
Si Si2 0.784922 0.250604 0.308672
Si Si3 0.327052 0.336971 0.390961
Si Si4 0.984826 0.248866 0.853400
Si Si5 0.708411 0.837612 0.890593
Si Si6 0.403181 0.749971 0.190537
Si Si7 0.902196 0.180197 0.888436
Si Si8 0.136949 0.678756 0.609954
O O1 0.500000 0.500000 0.396168
O O2 0.500000 0.249242 0.250000
O O3 0.441967 0.241183 0.356576
O O4 0.500000 0.000000 0.397203
O O5 0.780045 0.500000 0.250000
O O6 0.749685 0.217781 0.370093
O O7 0.822124 0.281348 0.362040
O O8 0.787727 0.000000 0.250000
O O9 0.321307 0.348415 0.500000
O O10 0.315207 0.606506 0.354709
O O11 0.368311 0.275186 0.372016
O O12 0.303609 0.106537 0.354273
O O13 0.942142 0.233310 0.854131
O O14 0.000000 0.500000 0.895883
O O15 0.000000 0.249530 0.750000
O O16 0.000000 0.000000 0.897310
O O17 0.703227 0.848382 0.000000
O O18 0.403893 0.500000 0.250000
O O19 0.399937 0.000000 0.250000
O O20 0.877377 0.410739 0.858823
O O21 0.886873 0.913518 0.858576
O O22 0.903379 0.178620 0.000000
O O23 0.134690 0.677390 0.500000
#
# Coordination Sequence:
#
# PCOD9392055 Si02
#       8
#     8   8   8   8   8   8   8   8
#     4  10  16  30  48  74 107 142 184 243 276 350
#     4  12  25  41  62  98 127 152 193 250 298 336
#     4  10  23  40  58  85 119 155 197 238 294 355
#     4  10  21  38  54  85 118 154 194 242 299 354
#     4  10  22  43  65  82 115 168 199 229 287 357
#     4  12  21  32  56  86 110 148 195 243 297 337
#     4  10  21  39  64  87 116 159 206 247 284 341
#     4  10  22  43  64  89 122 162 204 239 288 360
#
# _framework density 21.727979000000001
#
# number of rings (size 3 to 8) (size 9 to 14) (size 15 to 20)
#    0.000    1.500    2.500    3.375    0.000    3.500 
#   13.500    5.000    0.000    0.750    0.000    0.000 
#    0.000    0.000    0.000    0.000    0.000    0.000 
#
# Total GULP energy -357868.437191 kJ/mol
# GULP energy per Si atom -5591.694331 kJ/mol
# Density = 2.167853 g / cm^3
# Si number density = 21.727979 Si / 1000 Ang^3
#
#
#
# Elastic Constant Matrix: (Units=GPa)
#
#
# Indices 1 2 3 4 5 6 
#
# 1 116.2719 28.5440 -20.5141 0.0000 0.0000 0.0000
# 2 28.5440 201.1261 9.0216 0.0000 0.0000 0.0000
# 3 -20.5141 9.0216 34.8345 0.0000 0.0000 0.0000
# 4 0.0000 0.0000 0.0000 -13.9721 0.0000 0.0000
# 5 0.0000 0.0000 0.0000 0.0000 42.2747 0.0000
# 6 0.0000 0.0000 0.0000 0.0000 0.0000 50.6333
#
#
#
# Elastic Compliance Matrix: (Units=1/GPa)
#
#
# Indices 1 2 3 4 5 6 
#
# 1 0.010160 -0.001730 0.006431 0.000000 0.000000 0.000000
# 2 -0.001730 0.005325 -0.002398 0.000000 0.000000 0.000000
# 3 0.006431 -0.002398 0.033116 0.000000 0.000000 0.000000
# 4 0.000000 0.000000 0.000000 -0.071571 0.000000 0.000000
# 5 0.000000 0.000000 0.000000 0.000000 0.023655 0.000000
# 6 0.000000 0.000000 0.000000 0.000000 0.000000 0.019750
#
#
# Mechanical properties :
#
#
# Convention : Reuss Voigt Hill
#
# Bulk Modulus (GPa) = 18.79467 42.92617 30.86042
# Shear Modulus (GPa) = 148.96742 38.13258 93.55000
#
# Velocity S-wave (km/s) = 8.28909 4.19382 6.56876
# Velocity P-wave (km/s) = 10.01403 6.57646 8.47144
#
# Compressibility (1/GPa) = 0.05320659
#
# Stress axis : x y z
#
# Youngs Moduli (GPa) = 98.42475 187.78790 30.19715
#
# Poissons Ratio (x) = 0.32495 -0.19421
# Poissons Ratio (y) = 0.17031 0.07242
# Poissons Ratio (z) = -0.63301 0.45035
#
# Static dielectric constant tensor:
#      x y z
#    x 1.751370 0.000000 0.000000 
#    y 0.000000 1.780110 0.000000 
#    z 0.000000 0.000000 1.785090 
# 
# From -- ./inp_files/18444.got.cif
#   From: 2010.05.17/outbox.cif.g08.bks.cpg/sg49_10_cif.got.tgz:18444.got - 2010.06.03 21:02:19.
