data_PCOD9392603
_publ_section_title
;
Structure prediction by ZEFSAII (Michael W. Deem and Ramdas Pophale) SiO2 
 PCOD9392603
Probable space group: P C C M
;
_chemical_formula_sum "Si O2"
_cell_formula_units_Z 48
_cell_length_a 24.757728
_cell_length_b 13.961534
_cell_length_c 8.977485
_cell_angle_alpha 90.000000
_cell_angle_beta 90.000000
_cell_angle_gamma 90.000000
_cell_volume 3103.120309
_symmetry_space_group_name_H-M "P C C M"
_symmetry_group_IT_number 49
_symmetry_cell_setting 'orthorhombic'
loop_
_space_group_symop_operation_xyz
x,y,z
-x,-y,z
x,-y,1/2-z
-x,y,1/2-z
-x,-y,-z
x,y,-z
-x,y,1/2+z
x,-y,1/2+z
loop_
_atom_site_type_symbol
_atom_site_label
_atom_site_fract_x
_atom_site_fract_y
_atom_site_fract_z
Si Si1 0.775197 0.703499 0.179316
Si Si2 0.326722 0.394436 0.322247
Si Si3 0.553065 0.393871 0.177956
Si Si4 0.886741 0.601466 0.178952
Si Si5 0.943151 0.797747 0.820592
Si Si6 0.832889 0.899098 0.820909
O O1 0.720945 0.669501 0.257078
O O2 0.825751 0.634532 0.219064
O O3 0.793759 0.810907 0.219644
O O4 0.769218 0.699144 0.000000
O O5 0.322661 0.500000 0.250000
O O6 0.321472 0.404138 0.500000
O O7 0.387064 0.353787 0.291308
O O8 0.555188 0.500000 0.250000
O O9 0.500000 0.346264 0.250000
O O10 0.546131 0.400999 0.000000
O O11 0.900267 0.500000 0.250000
O O12 0.925521 0.689547 0.223082
O O13 0.888786 0.594060 0.000000
O O14 0.893445 0.866175 0.776360
O O15 0.000000 0.823983 0.750000
O O16 0.946742 0.799907 0.000000
O O17 0.818604 0.000000 0.750000
O O18 0.832327 0.906315 0.000000
#
# Coordination Sequence:
#
# PCOD9392603 Si02
#       6
#     8   8   8   8   8   8
#     4   9  18  32  47  64  88 115 145 182 220 261
#     4  10  19  28  41  64  92 122 155 188 220 255
#     4   9  16  25  37  55  82 117 155 189 218 249
#     4   9  18  31  45  62  86 115 145 177 212 251
#     4   9  19  34  48  65  89 113 140 175 213 256
#     4   9  19  35  52  69  89 112 139 176 222 268
#
# _framework density 15.468301
#
# number of rings (size 3 to 8) (size 9 to 14) (size 15 to 20)
#    0.000    2.833    0.000    4.000    0.000    6.667 
#    0.000    6.667    0.000    0.000    0.000    0.000 
#    0.000    0.667    0.000    7.333    0.000    5.333 
#
# Total GULP energy -267433.320709 kJ/mol
# GULP energy per Si atom -5571.527515 kJ/mol
# Density = 1.543309 g / cm^3
# Si number density = 15.468301 Si / 1000 Ang^3
#
#
#
# Elastic Constant Matrix: (Units=GPa)
#
#
# Indices 1 2 3 4 5 6 
#
# 1 117.0887 23.6963 35.6546 0.0000 0.0000 0.0000
# 2 23.6963 61.6418 16.4138 0.0000 0.0000 0.0000
# 3 35.6546 16.4138 30.5378 0.0000 0.0000 0.0000
# 4 0.0000 0.0000 0.0000 20.7853 0.0000 0.0000
# 5 0.0000 0.0000 0.0000 0.0000 38.0217 0.0000
# 6 0.0000 0.0000 0.0000 0.0000 0.0000 10.0232
#
#
#
# Elastic Compliance Matrix: (Units=1/GPa)
#
#
# Indices 1 2 3 4 5 6 
#
# 1 0.013321 -0.001143 -0.014938 0.000000 0.000000 0.000000
# 2 -0.001143 0.019030 -0.008894 0.000000 0.000000 0.000000
# 3 -0.014938 -0.008894 0.054968 0.000000 0.000000 0.000000
# 4 0.000000 0.000000 0.000000 0.048111 0.000000 0.000000
# 5 0.000000 0.000000 0.000000 0.000000 0.026301 0.000000
# 6 0.000000 0.000000 0.000000 0.000000 0.000000 0.099769
#
#
# Mechanical properties :
#
#
# Convention : Reuss Voigt Hill
#
# Bulk Modulus (GPa) = 26.76060 40.08863 33.42462
# Shear Modulus (GPa) = 15.43652 22.66627 19.05140
#
# Velocity S-wave (km/s) = 3.16245 3.83212 3.51328
# Velocity P-wave (km/s) = 5.53829 6.74931 6.17356
#
# Compressibility (1/GPa) = 0.03736838
#
# Stress axis : x y z
#
# Youngs Moduli (GPa) = 75.07097 52.54738 18.19234
#
# Poissons Ratio (x) = 0.06006 0.27176
# Poissons Ratio (y) = 0.08581 0.16180
# Poissons Ratio (z) = 1.12144 0.46736
#
# Static dielectric constant tensor:
#      x y z
#    x 1.540760 0.000000 0.000000 
#    y 0.000000 1.489380 0.000000 
#    z 0.000000 0.000000 1.514880 
# 
# From -- ./inp_files/6366.got.cif
#   From: 2010.05.17/outbox.cif.g08.bks.cpg/sg49_4_cif.got.tgz:6366.got - 2010.06.03 21:02:19.
