data_PCOD9392702
_publ_section_title
;
Structure prediction by ZEFSAII (Michael W. Deem and Ramdas Pophale) SiO2 
 PCOD9392702
Probable space group: P C C M
;
_chemical_formula_sum "Si O2"
_cell_formula_units_Z 52
_cell_length_a 17.503789
_cell_length_b 15.657010
_cell_length_c 9.226652
_cell_angle_alpha 90.000000
_cell_angle_beta 90.000000
_cell_angle_gamma 90.000000
_cell_volume 2528.628562
_symmetry_space_group_name_H-M "P C C M"
_symmetry_group_IT_number 49
_symmetry_cell_setting 'orthorhombic'
loop_
_space_group_symop_operation_xyz
x,y,z
-x,-y,z
x,-y,1/2-z
-x,y,1/2-z
-x,-y,-z
x,y,-z
-x,y,1/2+z
x,-y,1/2+z
loop_
_atom_site_type_symbol
_atom_site_label
_atom_site_fract_x
_atom_site_fract_y
_atom_site_fract_z
Si Si1 0.574886 0.734772 0.172923
Si Si2 0.610297 0.085913 0.168087
Si Si3 0.072429 0.114113 0.161918
Si Si4 0.000000 0.282688 0.250000
Si Si5 0.125942 0.416521 0.666399
Si Si6 0.256404 0.316983 0.827348
Si Si7 0.218521 0.859288 0.833275
O O1 0.500000 0.697649 0.250000
O O2 0.586834 0.828299 0.246345
O O3 0.652009 0.679843 0.196736
O O4 0.564628 0.744506 0.000000
O O5 0.702867 0.088693 0.166242
O O6 0.586248 0.000000 0.250000
O O7 0.584387 0.088529 0.000000
O O8 0.052351 0.216447 0.158871
O O9 0.147749 0.098434 0.253808
O O10 0.000000 0.082950 0.250000
O O11 0.079075 0.081370 0.000000
O O12 0.061070 0.343385 0.327626
O O13 0.097429 0.500000 0.750000
O O14 0.143045 0.436320 0.500000
O O15 0.202345 0.384561 0.748032
O O16 0.233973 0.226478 0.756982
O O17 0.242871 0.317401 0.000000
O O18 0.198733 0.838607 0.000000
#
# Coordination Sequence:
#
# PCOD9392702 Si02
#       7
#     8   8   8   4   8   8   8
#     4  10  21  37  60  90 118 148 185 229 277 333
#     4  10  21  36  55  81 115 151 185 225 272 332
#     4  10  19  30  50  75 102 135 179 229 278 326
#     4  10  23  34  54  78 111 146 190 226 283 326
#     4  12  25  39  56  79 114 152 190 233 284 339
#     4  10  20  36  58  81 109 145 189 231 275 329
#     4  10  19  32  52  77 105 140 183 228 277 326
#
# _framework density 20.564506999999999
#
# number of rings (size 3 to 8) (size 9 to 14) (size 15 to 20)
#    0.462    1.231    1.538    3.462    0.000    6.462 
#    0.000    1.538    0.000    0.923    0.000    6.462 
#    0.000    0.000    0.000    0.000    0.000    0.000 
#
# Total GULP energy -290350.457060 kJ/mol
# GULP energy per Si atom -5583.662636 kJ/mol
# Density = 2.051770 g / cm^3
# Si number density = 20.564507 Si / 1000 Ang^3
#
#
#
# Elastic Constant Matrix: (Units=GPa)
#
#
# Indices 1 2 3 4 5 6 
#
# 1 136.5885 10.1682 64.0983 0.0000 0.0000 0.0000
# 2 10.1682 71.5420 22.6907 0.0000 0.0000 0.0000
# 3 64.0983 22.6907 163.6698 0.0000 0.0000 0.0000
# 4 0.0000 0.0000 0.0000 12.8792 0.0000 0.0000
# 5 0.0000 0.0000 0.0000 0.0000 26.1678 0.0000
# 6 0.0000 0.0000 0.0000 0.0000 0.0000 43.8100
#
#
#
# Elastic Compliance Matrix: (Units=1/GPa)
#
#
# Indices 1 2 3 4 5 6 
#
# 1 0.008972 -0.000168 -0.003490 0.000000 0.000000 0.000000
# 2 -0.000168 0.014624 -0.001962 0.000000 0.000000 0.000000
# 3 -0.003490 -0.001962 0.007749 0.000000 0.000000 0.000000
# 4 0.000000 0.000000 0.000000 0.077644 0.000000 0.000000
# 5 0.000000 0.000000 0.000000 0.000000 0.038215 0.000000
# 6 0.000000 0.000000 0.000000 0.000000 0.000000 0.022826
#
#
# Mechanical properties :
#
#
# Convention : Reuss Voigt Hill
#
# Bulk Modulus (GPa) = 49.74065 62.85719 56.29892
# Shear Modulus (GPa) = 26.59988 34.89427 30.74708
#
# Velocity S-wave (km/s) = 3.60041 4.12372 3.87092
# Velocity P-wave (km/s) = 6.44391 7.30107 6.88584
#
# Compressibility (1/GPa) = 0.02010428
#
# Stress axis : x y z
#
# Youngs Moduli (GPa) = 111.46152 68.38146 129.05363
#
# Poissons Ratio (x) = 0.01150 0.45044
# Poissons Ratio (y) = 0.01874 0.25315
# Poissons Ratio (z) = 0.38903 0.13413
#
# Static dielectric constant tensor:
#      x y z
#    x 1.753020 0.000000 0.000000 
#    y 0.000000 1.739170 0.000000 
#    z 0.000000 0.000000 1.700920 
# 
# From -- ./inp_files/5027.got.cif
#   From: 2010.05.17/outbox.cif.g08.bks.cpg/sg49_3_cif.got.tgz:5027.got - 2010.06.03 21:02:19.
