data_PCOD9392933
_publ_section_title
;
Structure prediction by ZEFSAII (Michael W. Deem and Ramdas Pophale) SiO2 
 PCOD9392933
Probable space group: P C C M
;
_chemical_formula_sum "Si O2"
_cell_formula_units_Z 58
_cell_length_a 13.261849
_cell_length_b 26.560473
_cell_length_c 9.023027
_cell_angle_alpha 90.000000
_cell_angle_beta 90.000000
_cell_angle_gamma 90.000000
_cell_volume 3178.279894
_symmetry_space_group_name_H-M "P C C M"
_symmetry_group_IT_number 49
_symmetry_cell_setting 'orthorhombic'
loop_
_space_group_symop_operation_xyz
x,y,z
-x,-y,z
x,-y,1/2-z
-x,y,1/2-z
-x,-y,-z
x,y,-z
-x,y,1/2+z
x,-y,1/2+z
loop_
_atom_site_type_symbol
_atom_site_label
_atom_site_fract_x
_atom_site_fract_y
_atom_site_fract_z
Si Si1 0.101792 0.656774 0.674920
Si Si2 0.394555 0.601345 0.176321
Si Si3 0.291277 0.705960 0.823600
Si Si4 0.500000 0.000000 0.750000
Si Si5 0.317957 0.920742 0.173584
Si Si6 0.607196 0.808626 0.677183
Si Si7 0.102926 0.055446 0.179379
Si Si8 0.800525 0.552173 0.177223
O O1 0.095855 0.661323 0.500000
O O2 0.193420 0.688732 0.737167
O O3 0.124762 0.598311 0.710895
O O4 0.000000 0.673404 0.750000
O O5 0.500000 0.588117 0.250000
O O6 0.371466 0.660875 0.201725
O O7 0.305466 0.569741 0.252141
O O8 0.394827 0.592657 0.000000
O O9 0.325415 0.761249 0.776155
O O10 0.271489 0.706482 0.000000
O O11 0.413913 0.959599 0.810313
O O12 0.354420 0.864509 0.211423
O O13 0.215975 0.928048 0.270098
O O14 0.288490 0.923515 0.000000
O O15 0.500000 0.801621 0.750000
O O16 0.597964 0.805722 0.500000
O O17 0.000000 0.080341 0.250000
O O18 0.100772 0.000000 0.250000
O O19 0.095560 0.055432 0.000000
O O20 0.832512 0.500000 0.250000
O O21 0.791062 0.547278 0.000000
#
# Coordination Sequence:
#
# PCOD9392933 Si02
#       8
#     8   8   8   2   8   8   8   8
#     4  10  21  37  59  84 110 142 184 230 281 337
#     4  10  19  32  52  77 105 141 182 225 273 329
#     4   9  19  36  57  80 109 143 182 229 280 332
#     4  12  22  36  62  86 126 164 202 242 292 348
#     4  11  23  38  58  88 124 160 201 244 292 349
#     4  10  21  37  57  85 119 154 190 234 284 340
#     4  11  22  38  61  85 112 147 191 238 286 339
#     4  10  21  36  53  77 109 144 182 227 274 328
#
# _framework density 18.248864999999999
#
# number of rings (size 3 to 8) (size 9 to 14) (size 15 to 20)
#    0.000    1.793    1.379    3.517    0.000    4.414 
#    0.000    3.448    0.000    0.000    0.000    0.000 
#    0.000    0.000    0.000    0.000    0.000    0.000 
#
# Total GULP energy -323156.444352 kJ/mol
# GULP energy per Si atom -5571.662834 kJ/mol
# Density = 1.820733 g / cm^3
# Si number density = 18.248865 Si / 1000 Ang^3
#
#
#
# Elastic Constant Matrix: (Units=GPa)
#
#
# Indices 1 2 3 4 5 6 
#
# 1 113.1901 30.4674 51.6213 0.0000 0.0000 0.0000
# 2 30.4674 104.4589 38.3162 0.0000 0.0000 0.0000
# 3 51.6213 38.3162 52.9568 0.0000 0.0000 0.0000
# 4 0.0000 0.0000 0.0000 22.1657 0.0000 0.0000
# 5 0.0000 0.0000 0.0000 0.0000 15.4285 0.0000
# 6 0.0000 0.0000 0.0000 0.0000 0.0000 -6.4385
#
#
#
# Elastic Compliance Matrix: (Units=1/GPa)
#
#
# Indices 1 2 3 4 5 6 
#
# 1 0.016063 0.001441 -0.016701 0.000000 0.000000 0.000000
# 2 0.001441 0.013161 -0.010927 0.000000 0.000000 0.000000
# 3 -0.016701 -0.010927 0.043069 0.000000 0.000000 0.000000
# 4 0.000000 0.000000 0.000000 0.045115 0.000000 0.000000
# 5 0.000000 0.000000 0.000000 0.000000 0.064815 0.000000
# 6 0.000000 0.000000 0.000000 0.000000 0.000000 -0.155315
#
#
# Mechanical properties :
#
#
# Convention : Reuss Voigt Hill
#
# Bulk Modulus (GPa) = 50.20194 56.82394 53.51294
# Shear Modulus (GPa) = 58.19289 16.24454 37.21871
#
# Velocity S-wave (km/s) = 5.65312 2.98680 4.52099
# Velocity P-wave (km/s) = 8.37733 6.56510 7.52596
#
# Compressibility (1/GPa) = 0.01991955
#
# Stress axis : x y z
#
# Youngs Moduli (GPa) = 62.25342 75.98234 23.21867
#
# Poissons Ratio (x) = -0.10947 0.38777
# Poissons Ratio (y) = -0.08969 0.25371
# Poissons Ratio (z) = 1.03967 0.83025
#
# Static dielectric constant tensor:
#      x y z
#    x 1.630490 0.000000 0.000000 
#    y 0.000000 1.636780 0.000000 
#    z 0.000000 0.000000 1.605290 
# 
# From -- ./inp_files/3010.got.cif
#   From: 2010.05.17/outbox.cif.g08.bks.cpg/sg49_2_cif.got.tgz:3010.got - 2010.06.03 21:02:19.
