data_PCOD9392481
_publ_section_title
;
Structure prediction by ZEFSAII (Michael W. Deem and Ramdas Pophale) SiO2 
 PCOD9392481
Probable space group: P C C M
;
_chemical_formula_sum "Si O2"
_cell_formula_units_Z 64
_cell_length_a 14.593540
_cell_length_b 24.023177
_cell_length_c 9.439645
_cell_angle_alpha 90.000000
_cell_angle_beta 90.000000
_cell_angle_gamma 90.000000
_cell_volume 3309.380899
_symmetry_space_group_name_H-M "P C C M"
_symmetry_group_IT_number 49
_symmetry_cell_setting 'orthorhombic'
loop_
_space_group_symop_operation_xyz
x,y,z
-x,-y,z
x,-y,1/2-z
-x,y,1/2-z
-x,-y,-z
x,y,-z
-x,y,1/2+z
x,-y,1/2+z
loop_
_atom_site_type_symbol
_atom_site_label
_atom_site_fract_x
_atom_site_fract_y
_atom_site_fract_z
Si Si1 0.723698 0.337992 0.337585
Si Si2 0.405438 0.442405 0.170508
Si Si3 0.637935 0.052216 0.658087
Si Si4 0.138145 0.055662 0.164767
Si Si5 0.910422 0.280065 0.332302
Si Si6 0.416268 0.276803 0.657865
Si Si7 0.146265 0.832632 0.166487
Si Si8 0.365990 0.151395 0.653775
O O1 0.700144 0.322266 0.500000
O O2 0.676038 0.397519 0.312469
O O3 0.831121 0.326708 0.321810
O O4 0.676002 0.296281 0.230064
O O5 0.381179 0.500000 0.250000
O O6 0.500000 0.424801 0.250000
O O7 0.420324 0.449491 0.000000
O O8 0.606053 0.045750 0.500000
O O9 0.749941 0.054084 0.660061
O O10 0.606523 0.110037 0.723770
O O11 0.609888 0.000000 0.750000
O O12 0.113371 0.111482 0.252153
O O13 0.109880 0.000000 0.250000
O O14 0.107134 0.056429 0.000000
O O15 0.925603 0.269369 0.500000
O O16 0.881985 0.222381 0.253597
O O17 0.000000 0.299631 0.250000
O O18 0.500000 0.297245 0.750000
O O19 0.423659 0.298625 0.500000
O O20 0.415479 0.210218 0.655585
O O21 0.257147 0.836255 0.165963
O O22 0.117432 0.830839 0.000000
O O23 0.379491 0.123982 0.500000
#
# Coordination Sequence:
#
# PCOD9392481 Si02
#       8
#     8   8   8   8   8   8   8   8
#     4  10  22  39  60  86 119 156 197 242 286 336
#     4  10  20  36  59  92 129 167 204 241 283 332
#     4   9  16  25  41  64  91 125 168 217 271 331
#     4   9  16  26  42  69 100 134 175 224 283 349
#     4  11  23  39  59  84 114 150 194 245 296 349
#     4  11  22  35  53  80 113 150 188 229 280 339
#     4  10  18  32  52  75 104 140 183 233 289 350
#     4   9  18  31  47  69 100 135 174 221 273 333
#
# _framework density 19.338964000000001
#
# number of rings (size 3 to 8) (size 9 to 14) (size 15 to 20)
#    0.000    2.125    1.250    3.000    0.000    7.000 
#    0.000    0.000    0.000    1.125    0.000    7.875 
#    0.000    0.000    0.000    0.000    0.000    0.000 
#
# Total GULP energy -357297.722869 kJ/mol
# GULP energy per Si atom -5582.776920 kJ/mol
# Density = 1.929495 g / cm^3
# Si number density = 19.338964 Si / 1000 Ang^3
#
#
#
# Elastic Constant Matrix: (Units=GPa)
#
#
# Indices 1 2 3 4 5 6 
#
# 1 76.6765 27.6897 58.7996 0.0000 0.0000 0.0000
# 2 27.6897 102.3977 69.8054 0.0000 0.0000 0.0000
# 3 58.7996 69.8054 180.3703 0.0000 0.0000 0.0000
# 4 0.0000 0.0000 0.0000 -375.5446 0.0000 0.0000
# 5 0.0000 0.0000 0.0000 0.0000 13.1201 0.0000
# 6 0.0000 0.0000 0.0000 0.0000 0.0000 -81.3582
#
#
#
# Elastic Compliance Matrix: (Units=1/GPa)
#
#
# Indices 1 2 3 4 5 6 
#
# 1 0.017487 -0.001144 -0.005258 0.000000 0.000000 0.000000
# 2 -0.001144 0.013341 -0.004790 0.000000 0.000000 0.000000
# 3 -0.005258 -0.004790 0.009112 0.000000 0.000000 0.000000
# 4 0.000000 0.000000 0.000000 -0.002663 0.000000 0.000000
# 5 0.000000 0.000000 0.000000 0.000000 0.076219 0.000000
# 6 0.000000 0.000000 0.000000 0.000000 0.000000 -0.012291
#
#
# Mechanical properties :
#
#
# Convention : Reuss Voigt Hill
#
# Bulk Modulus (GPa) = 56.96275 74.67043 65.81659
# Shear Modulus (GPa) = 38.62787 -75.21322 -18.29268
#
# Velocity S-wave (km/s) = 4.47409 -6.24312 -3.07888
# Velocity P-wave (km/s) = 7.49725 3.64327 4.63332
#
# Compressibility (1/GPa) = 0.01755533
#
# Stress axis : x y z
#
# Youngs Moduli (GPa) = 57.18526 74.95896 109.74685
#
# Poissons Ratio (x) = 0.08579 0.57702
# Poissons Ratio (y) = 0.06545 0.52567
# Poissons Ratio (z) = 0.30066 0.35904
#
# Static dielectric constant tensor:
#      x y z
#    x 1.706340 0.000000 0.000000 
#    y 0.000000 1.657850 0.000000 
#    z 0.000000 0.000000 1.669270 
# 
# From -- ./inp_files/4390.got.cif
#   From: 2010.05.17/outbox.cif.g08.bks.cpg/sg49_3_cif.got.tgz:4390.got - 2010.06.03 21:02:19.
