data_PCOD9392366
_publ_section_title
;
Structure prediction by ZEFSAII (Michael W. Deem and Ramdas Pophale) SiO2 
 PCOD9392366
Probable space group: P C C M
;
_chemical_formula_sum "Si O2"
_cell_formula_units_Z 64
_cell_length_a 14.298617
_cell_length_b 18.708639
_cell_length_c 15.081062
_cell_angle_alpha 90.000000
_cell_angle_beta 90.000000
_cell_angle_gamma 90.000000
_cell_volume 4034.299661
_symmetry_space_group_name_H-M "P C C M"
_symmetry_group_IT_number 49
_symmetry_cell_setting 'orthorhombic'
loop_
_space_group_symop_operation_xyz
x,y,z
-x,-y,z
x,-y,1/2-z
-x,y,1/2-z
-x,-y,-z
x,y,-z
-x,y,1/2+z
x,-y,1/2+z
loop_
_atom_site_type_symbol
_atom_site_label
_atom_site_fract_x
_atom_site_fract_y
_atom_site_fract_z
Si Si1 0.345886 0.421995 0.247990
Si Si2 0.630734 0.169715 0.894683
Si Si3 0.563937 0.228261 0.601888
Si Si4 0.107352 0.168641 0.233221
Si Si5 0.083210 0.046411 0.901814
Si Si6 0.498772 0.392077 0.604016
Si Si7 0.280330 0.264002 0.244305
Si Si8 0.769520 0.053022 0.832711
O O1 0.299284 0.500000 0.250000
O O2 0.409135 0.411654 0.336564
O O3 0.415053 0.422408 0.162228
O O4 0.286776 0.349529 0.241473
O O5 0.519836 0.174085 0.875106
O O6 0.681406 0.231090 0.836629
O O7 0.680077 0.095514 0.867855
O O8 0.641658 0.182060 0.000000
O O9 0.594302 0.216497 0.500000
O O10 0.515265 0.306567 0.606003
O O11 0.649079 0.231509 0.670208
O O12 0.105094 0.119255 0.146842
O O13 0.177027 0.234791 0.227478
O O14 0.156155 0.114471 0.303563
O O15 0.000000 0.187799 0.250000
O O16 0.174811 0.997229 0.899973
O O17 0.050786 0.063069 0.000000
O O18 0.000000 0.000000 0.857236
O O19 0.495299 0.413202 0.500000
O O20 0.749242 0.000000 0.750000
#
# Coordination Sequence:
#
# PCOD9392366 Si02
#       8
#     8   8   8   8   8   8   8   8
#     4  10  19  29  44  69  99 130 165 204 245 295
#     4  10  18  30  50  75 100 132 167 203 241 294
#     4   9  17  30  50  71  98 133 168 203 239 288
#     4  10  19  33  50  69  92 126 158 199 249 298
#     4  10  18  29  49  74  98 121 147 198 257 305
#     4   9  16  28  45  69 100 130 161 200 246 294
#     4  10  20  33  49  70  99 131 169 205 249 299
#     4   9  18  30  49  72 100 129 159 200 247 299
#
# _framework density 15.863967000000001
#
# number of rings (size 3 to 8) (size 9 to 14) (size 15 to 20)
#    0.000    2.375    2.500    1.500    0.000    1.500 
#    0.000    0.000    0.000   13.125    0.000   22.750 
#    0.000    0.000    0.000   11.750    0.000    0.000 
#
# Total GULP energy -356357.462025 kJ/mol
# GULP energy per Si atom -5568.085344 kJ/mol
# Density = 1.582786 g / cm^3
# Si number density = 15.863967 Si / 1000 Ang^3
#
#
#
# Elastic Constant Matrix: (Units=GPa)
#
#
# Indices 1 2 3 4 5 6 
#
# 1 95.2287 64.0708 36.7107 0.0000 0.0000 0.0000
# 2 64.0708 96.5581 27.3001 0.0000 0.0000 0.0000
# 3 36.7107 27.3001 89.3962 0.0000 0.0000 0.0000
# 4 0.0000 0.0000 0.0000 24.3967 0.0000 0.0000
# 5 0.0000 0.0000 0.0000 0.0000 11.2114 0.0000
# 6 0.0000 0.0000 0.0000 0.0000 0.0000 13.0970
#
#
#
# Elastic Compliance Matrix: (Units=1/GPa)
#
#
# Indices 1 2 3 4 5 6 
#
# 1 0.020627 -0.012359 -0.004696 0.000000 0.000000 0.000000
# 2 -0.012359 0.018740 -0.000648 0.000000 0.000000 0.000000
# 3 -0.004696 -0.000648 0.013312 0.000000 0.000000 0.000000
# 4 0.000000 0.000000 0.000000 0.040989 0.000000 0.000000
# 5 0.000000 0.000000 0.000000 0.000000 0.089195 0.000000
# 6 0.000000 0.000000 0.000000 0.000000 0.000000 0.076353
#
#
# Mechanical properties :
#
#
# Convention : Reuss Voigt Hill
#
# Bulk Modulus (GPa) = 57.89150 59.70514 58.79832
# Shear Modulus (GPa) = 16.64558 19.94780 18.29669
#
# Velocity S-wave (km/s) = 3.24276 3.54987 3.39978
# Velocity P-wave (km/s) = 7.11283 7.38373 7.24954
#
# Compressibility (1/GPa) = 0.01727369
#
# Stress axis : x y z
#
# Youngs Moduli (GPa) = 48.48103 53.36077 75.11766
#
# Poissons Ratio (x) = 0.65948 0.35276
# Poissons Ratio (y) = 0.59918 0.04866
# Poissons Ratio (z) = 0.22767 0.03456
#
# Static dielectric constant tensor:
#      x y z
#    x 1.528170 0.000000 0.000000 
#    y 0.000000 1.546840 0.000000 
#    z 0.000000 0.000000 1.557750 
# 
# From -- ./inp_files/13781.got.cif
#   From: 2010.05.17/outbox.cif.g08.bks.cpg/sg49_7_cif.got.tgz:13781.got - 2010.06.03 21:02:19.
