data_PCOD9392559
_publ_section_title
;
Structure prediction by ZEFSAII (Michael W. Deem and Ramdas Pophale) SiO2 
 PCOD9392559
Probable space group: P C C M
;
_chemical_formula_sum "Si O2"
_cell_formula_units_Z 64
_cell_length_a 20.598250
_cell_length_b 20.483812
_cell_length_c 8.571059
_cell_angle_alpha 90.000000
_cell_angle_beta 90.000000
_cell_angle_gamma 90.000000
_cell_volume 3616.392757
_symmetry_space_group_name_H-M "P C C M"
_symmetry_group_IT_number 49
_symmetry_cell_setting 'orthorhombic'
loop_
_space_group_symop_operation_xyz
x,y,z
-x,-y,z
x,-y,1/2-z
-x,y,1/2-z
-x,-y,-z
x,y,-z
-x,y,1/2+z
x,-y,1/2+z
loop_
_atom_site_type_symbol
_atom_site_label
_atom_site_fract_x
_atom_site_fract_y
_atom_site_fract_z
Si Si1 0.238476 0.398060 0.685774
Si Si2 0.897522 0.568774 0.182482
Si Si3 0.206504 0.247118 0.313134
Si Si4 0.068239 0.709747 0.186533
Si Si5 0.385209 0.431734 0.312668
Si Si6 0.568323 0.292131 0.812370
Si Si7 0.667945 0.820567 0.310735
Si Si8 0.430001 0.073412 0.813897
O O1 0.226743 0.409793 0.500000
O O2 0.179843 0.427584 0.784174
O O3 0.236020 0.319784 0.708313
O O4 0.309001 0.424401 0.728659
O O5 0.921311 0.500000 0.250000
O O6 0.924314 0.633832 0.264447
O O7 0.911121 0.572380 0.000000
O O8 0.202091 0.237650 0.500000
O O9 0.132628 0.252520 0.253514
O O10 0.258517 0.194145 0.255608
O O11 0.000000 0.734822 0.250000
O O12 0.068327 0.712232 0.000000
O O13 0.411085 0.500000 0.250000
O O14 0.388860 0.432216 0.500000
O O15 0.419410 0.365860 0.254662
O O16 0.500000 0.267652 0.750000
O O17 0.625742 0.243351 0.768090
O O18 0.566944 0.293935 0.000000
O O19 0.668208 0.825694 0.500000
O O20 0.629032 0.881506 0.242650
O O21 0.500000 0.097566 0.750000
O O22 0.421937 0.000000 0.750000
O O23 0.432997 0.072298 0.000000
#
# Coordination Sequence:
#
# PCOD9392559 Si02
#       8
#     8   8   8   8   8   8   8   8
#     4   9  16  31  50  68  91 120 157 202 258 316
#     4  11  21  32  46  67  92 121 159 204 256 318
#     4   8  15  30  54  76  98 132 168 204 252 309
#     4  10  20  35  53  73  99 132 166 206 258 314
#     4  10  20  33  48  65  87 120 161 210 265 321
#     4  10  21  35  51  69  94 127 167 211 262 314
#     4  10  18  34  58  81 106 139 176 216 259 306
#     4  11  22  37  56  83 117 154 188 220 257 305
#
# _framework density 17.697192999999999
#
# number of rings (size 3 to 8) (size 9 to 14) (size 15 to 20)
#    0.000    2.125    1.250    4.500    0.000    4.000 
#    0.000    5.625    0.000    0.000    0.000    0.000 
#    0.000    0.500    0.000    5.750    0.000    1.750 
#
# Total GULP energy -357203.119433 kJ/mol
# GULP energy per Si atom -5581.298741 kJ/mol
# Density = 1.765691 g / cm^3
# Si number density = 17.697193 Si / 1000 Ang^3
#
#
#
# Elastic Constant Matrix: (Units=GPa)
#
#
# Indices 1 2 3 4 5 6 
#
# 1 126.0981 49.3263 28.9685 0.0000 0.0000 0.0000
# 2 49.3263 72.9033 20.3038 0.0000 0.0000 0.0000
# 3 28.9685 20.3038 43.4916 0.0000 0.0000 0.0000
# 4 0.0000 0.0000 0.0000 18.5450 0.0000 0.0000
# 5 0.0000 0.0000 0.0000 0.0000 40.7670 0.0000
# 6 0.0000 0.0000 0.0000 0.0000 0.0000 30.9096
#
#
#
# Elastic Compliance Matrix: (Units=1/GPa)
#
#
# Indices 1 2 3 4 5 6 
#
# 1 0.011548 -0.006519 -0.004649 0.000000 0.000000 0.000000
# 2 -0.006519 0.019447 -0.004736 0.000000 0.000000 0.000000
# 3 -0.004649 -0.004736 0.028301 0.000000 0.000000 0.000000
# 4 0.000000 0.000000 0.000000 0.053923 0.000000 0.000000
# 5 0.000000 0.000000 0.000000 0.000000 0.024530 0.000000
# 6 0.000000 0.000000 0.000000 0.000000 0.000000 0.032352
#
#
# Mechanical properties :
#
#
# Convention : Reuss Voigt Hill
#
# Bulk Modulus (GPa) = 36.38045 48.85445 42.61745
# Shear Modulus (GPa) = 23.68872 27.63728 25.66300
#
# Velocity S-wave (km/s) = 3.66260 3.95609 3.81217
# Velocity P-wave (km/s) = 6.20387 6.96658 6.59626
#
# Compressibility (1/GPa) = 0.02748729
#
# Stress axis : x y z
#
# Youngs Moduli (GPa) = 86.59288 51.42285 35.33506
#
# Poissons Ratio (x) = 0.33522 0.16426
# Poissons Ratio (y) = 0.56449 0.16736
# Poissons Ratio (z) = 0.40254 0.24356
#
# Static dielectric constant tensor:
#      x y z
#    x 1.638470 0.000000 0.000000 
#    y 0.000000 1.597050 0.000000 
#    z 0.000000 0.000000 1.605810 
# 
# From -- ./inp_files/6090.got.cif
#   From: 2010.05.17/outbox.cif.g08.bks.cpg/sg49_4_cif.got.tgz:6090.got - 2010.06.03 21:02:19.
