data_PCOD9392390
_publ_section_title
;
Structure prediction by ZEFSAII (Michael W. Deem and Ramdas Pophale) SiO2 
 PCOD9392390
Probable space group: P C C M
;
_chemical_formula_sum "Si O2"
_cell_formula_units_Z 64
_cell_length_a 18.874162
_cell_length_b 10.633006
_cell_length_c 14.190706
_cell_angle_alpha 90.000000
_cell_angle_beta 90.000000
_cell_angle_gamma 90.000000
_cell_volume 2847.919700
_symmetry_space_group_name_H-M "P C C M"
_symmetry_group_IT_number 49
_symmetry_cell_setting 'orthorhombic'
loop_
_space_group_symop_operation_xyz
x,y,z
-x,-y,z
x,-y,1/2-z
-x,y,1/2-z
-x,-y,-z
x,y,-z
-x,y,1/2+z
x,-y,1/2+z
loop_
_atom_site_type_symbol
_atom_site_label
_atom_site_fract_x
_atom_site_fract_y
_atom_site_fract_z
Si Si1 0.448080 0.887459 0.114378
Si Si2 0.689521 0.417535 0.616011
Si Si3 0.209600 0.196850 0.111548
Si Si4 0.084060 0.378216 0.635253
Si Si5 0.711155 0.946633 0.384354
Si Si6 0.931413 0.333851 0.640996
Si Si7 0.754070 0.678509 0.608148
Si Si8 0.469902 0.636547 0.385373
O O1 0.370612 0.933195 0.144264
O O2 0.480499 0.752975 0.145668
O O3 0.500000 0.000000 0.139748
O O4 0.445432 0.879495 0.000000
O O5 0.689597 0.421255 0.500000
O O6 0.749066 0.319468 0.648330
O O7 0.712366 0.557578 0.647613
O O8 0.612397 0.366222 0.644793
O O9 0.126466 0.227968 0.120324
O O10 0.244189 0.067723 0.147495
O O11 0.223848 0.195435 0.000000
O O12 0.082549 0.524376 0.605140
O O13 0.076742 0.359325 0.747480
O O14 0.161699 0.336977 0.607130
O O15 0.011408 0.308422 0.606414
O O16 0.713167 0.950483 0.500000
O O17 0.742145 0.814858 0.349769
O O18 0.728067 0.685992 0.500000
O O19 0.500000 0.500000 0.359752
O O20 0.469131 0.643032 0.500000
#
# Coordination Sequence:
#
# PCOD9392390 Si02
#       8
#     8   8   8   8   8   8   8   8
#     4   9  15  24  38  57  86 130 168 188 224 283
#     4   9  16  25  40  64  92 121 160 201 234 272
#     4  10  18  30  47  70  97 127 160 198 238 281
#     4   9  18  33  52  73  96 122 153 197 247 292
#     4   9  18  29  42  64 100 135 160 194 242 286
#     4   9  18  33  52  73  96 121 154 199 246 286
#     4  10  18  30  47  70  99 131 160 194 243 291
#     4   9  15  22  34  55  86 122 156 191 231 273
#
# _framework density 22.472543000000002
#
# number of rings (size 3 to 8) (size 9 to 14) (size 15 to 20)
#    0.000    2.750    1.250    2.250    0.000    6.500 
#    0.000    2.500    0.000    3.750    0.000    0.000 
#    0.000   15.000    0.000    0.000    0.000    0.000 
#
# Total GULP energy -356988.066932 kJ/mol
# GULP energy per Si atom -5577.938546 kJ/mol
# Density = 2.242139 g / cm^3
# Si number density = 22.472543 Si / 1000 Ang^3
#
#
#
# Elastic Constant Matrix: (Units=GPa)
#
#
# Indices 1 2 3 4 5 6 
#
# 1 151.1586 85.8353 -11.7757 0.0000 0.0000 0.0000
# 2 85.8353 176.8972 9.6203 0.0000 0.0000 0.0000
# 3 -11.7757 9.6203 77.6603 0.0000 0.0000 0.0000
# 4 0.0000 0.0000 0.0000 8.8794 0.0000 0.0000
# 5 0.0000 0.0000 0.0000 0.0000 8.9004 0.0000
# 6 0.0000 0.0000 0.0000 0.0000 0.0000 40.7424
#
#
#
# Elastic Compliance Matrix: (Units=1/GPa)
#
#
# Indices 1 2 3 4 5 6 
#
# 1 0.009434 -0.004687 0.002011 0.000000 0.000000 0.000000
# 2 -0.004687 0.008020 -0.001704 0.000000 0.000000 0.000000
# 3 0.002011 -0.001704 0.013393 0.000000 0.000000 0.000000
# 4 0.000000 0.000000 0.000000 0.112620 0.000000 0.000000
# 5 0.000000 0.000000 0.000000 0.000000 0.112355 0.000000
# 6 0.000000 0.000000 0.000000 0.000000 0.000000 0.024544
#
#
# Mechanical properties :
#
#
# Convention : Reuss Voigt Hill
#
# Bulk Modulus (GPa) = 45.27710 63.67512 54.47611
# Shear Modulus (GPa) = 16.86412 33.17351 25.01882
#
# Velocity S-wave (km/s) = 2.74237 3.84628 3.34024
# Velocity P-wave (km/s) = 5.49718 6.93695 6.25860
#
# Compressibility (1/GPa) = 0.02208622
#
# Stress axis : x y z
#
# Youngs Moduli (GPa) = 106.00361 124.69055 74.66796
#
# Poissons Ratio (x) = 0.58440 -0.15016
# Poissons Ratio (y) = 0.49682 0.12724
# Poissons Ratio (z) = -0.21317 0.21249
#
# Static dielectric constant tensor:
#      x y z
#    x 1.865600 0.000000 0.000000 
#    y 0.000000 1.802550 0.000000 
#    z 0.000000 0.000000 1.932750 
# 
# From -- ./inp_files/21064.got.cif
#   From: 2010.05.17/outbox.cif.g08.bks.cpg/sg49_11_cif.got.tgz:21064.got - 2010.06.03 21:02:19.
