data_PCOD9392819
_publ_section_title
;
Structure prediction by ZEFSAII (Michael W. Deem and Ramdas Pophale) SiO2 
 PCOD9392819
Probable space group: P C C M
;
_chemical_formula_sum "Si O2"
_cell_formula_units_Z 64
_cell_length_a 15.652296
_cell_length_b 25.103452
_cell_length_c 8.773187
_cell_angle_alpha 90.000000
_cell_angle_beta 90.000000
_cell_angle_gamma 90.000000
_cell_volume 3447.219077
_symmetry_space_group_name_H-M "P C C M"
_symmetry_group_IT_number 49
_symmetry_cell_setting 'orthorhombic'
loop_
_space_group_symop_operation_xyz
x,y,z
-x,-y,z
x,-y,1/2-z
-x,y,1/2-z
-x,-y,-z
x,y,-z
-x,y,1/2+z
x,-y,1/2+z
loop_
_atom_site_type_symbol
_atom_site_label
_atom_site_fract_x
_atom_site_fract_y
_atom_site_fract_z
Si Si1 0.908944 0.940529 0.683221
Si Si2 0.771894 0.443758 0.184216
Si Si3 0.412516 0.595412 0.817830
Si Si4 0.354011 0.287736 0.319598
Si Si5 0.175875 0.739994 0.320477
Si Si6 0.409629 0.832192 0.180629
Si Si7 0.089141 0.356815 0.681251
Si Si8 0.226491 0.140981 0.183509
O O1 0.912893 0.942030 0.500000
O O2 0.830870 0.904379 0.740392
O O3 0.000000 0.920497 0.750000
O O4 0.898330 0.000000 0.750000
O O5 0.800799 0.500000 0.250000
O O6 0.674944 0.431886 0.235792
O O7 0.834317 0.395870 0.231189
O O8 0.771801 0.445416 0.000000
O O9 0.500000 0.573951 0.750000
O O10 0.403213 0.658388 0.780531
O O11 0.416069 0.590856 0.000000
O O12 0.330706 0.291184 0.500000
O O13 0.268358 0.283791 0.222036
O O14 0.402434 0.232005 0.297051
O O15 0.160487 0.736843 0.500000
O O16 0.108882 0.703091 0.234814
O O17 0.183319 0.801962 0.276375
O O18 0.500000 0.850233 0.250000
O O19 0.324336 0.856413 0.257244
O O20 0.407390 0.842409 0.000000
O O21 0.085329 0.358038 0.500000
O O22 0.000000 0.375213 0.750000
O O23 0.226789 0.135803 0.000000
#
# Coordination Sequence:
#
# PCOD9392819 Si02
#       8
#     8   8   8   8   8   8   8   8
#     4  11  22  39  63  90 120 157 200 247 298 347
#     4  10  23  42  61  79 107 141 179 229 282 335
#     4  10  20  35  54  80 109 142 180 222 275 330
#     4   9  17  32  52  75 111 149 185 228 277 332
#     4  10  20  34  56  85 116 150 188 228 278 335
#     4  10  19  31  51  80 116 159 199 241 290 340
#     4  11  23  41  62  84 112 143 180 227 280 342
#     4  10  21  37  57  86 122 158 200 245 288 343
#
# _framework density 18.565688999999999
#
# number of rings (size 3 to 8) (size 9 to 14) (size 15 to 20)
#    0.000    1.875    1.250    3.375    0.000    5.000 
#    0.000    2.500    0.000    0.375    0.000    2.625 
#    0.000    0.000    0.000    0.000    0.000    0.000 
#
# Total GULP energy -357323.368663 kJ/mol
# GULP energy per Si atom -5583.177635 kJ/mol
# Density = 1.852343 g / cm^3
# Si number density = 18.565689 Si / 1000 Ang^3
#
#
#
# Elastic Constant Matrix: (Units=GPa)
#
#
# Indices 1 2 3 4 5 6 
#
# 1 117.1542 52.5519 51.4284 0.0000 0.0000 0.0000
# 2 52.5519 72.3217 37.8269 0.0000 0.0000 0.0000
# 3 51.4284 37.8269 58.6668 0.0000 0.0000 0.0000
# 4 0.0000 0.0000 0.0000 15.8699 0.0000 0.0000
# 5 0.0000 0.0000 0.0000 0.0000 35.0716 0.0000
# 6 0.0000 0.0000 0.0000 0.0000 0.0000 4.6926
#
#
#
# Elastic Compliance Matrix: (Units=1/GPa)
#
#
# Indices 1 2 3 4 5 6 
#
# 1 0.015570 -0.006299 -0.009587 0.000000 0.000000 0.000000
# 2 -0.006299 0.023412 -0.009573 0.000000 0.000000 0.000000
# 3 -0.009587 -0.009573 0.031622 0.000000 0.000000 0.000000
# 4 0.000000 0.000000 0.000000 0.063012 0.000000 0.000000
# 5 0.000000 0.000000 0.000000 0.000000 0.028513 0.000000
# 6 0.000000 0.000000 0.000000 0.000000 0.000000 0.213100
#
#
# Mechanical properties :
#
#
# Convention : Reuss Voigt Hill
#
# Bulk Modulus (GPa) = 50.80155 59.08413 54.94284
# Shear Modulus (GPa) = 11.55506 18.21585 14.88546
#
# Velocity S-wave (km/s) = 2.49748 3.13574 2.83463
# Velocity P-wave (km/s) = 5.97822 6.70850 6.35386
#
# Compressibility (1/GPa) = 0.01968444
#
# Stress axis : x y z
#
# Youngs Moduli (GPa) = 64.22548 42.71396 31.62311
#
# Poissons Ratio (x) = 0.26907 0.30318
# Poissons Ratio (y) = 0.40458 0.30273
# Poissons Ratio (z) = 0.61576 0.40890
#
# Static dielectric constant tensor:
#      x y z
#    x 1.640920 0.000000 0.000000 
#    y 0.000000 1.630460 0.000000 
#    z 0.000000 0.000000 1.624040 
# 
# From -- ./inp_files/4431.got.cif
#   From: 2010.05.17/outbox.cif.g08.bks.cpg/sg49_3_cif.got.tgz:4431.got - 2010.06.03 21:02:19.
