data_PCOD9392514
_publ_section_title
;
Structure prediction by ZEFSAII (Michael W. Deem and Ramdas Pophale) SiO2 
 PCOD9392514
Probable space group: P C C M
;
_chemical_formula_sum "Si O2"
_cell_formula_units_Z 56
_cell_length_a 20.582087
_cell_length_b 15.810901
_cell_length_c 8.396070
_cell_angle_alpha 90.000000
_cell_angle_beta 90.000000
_cell_angle_gamma 90.000000
_cell_volume 2732.260350
_symmetry_space_group_name_H-M "P C C M"
_symmetry_group_IT_number 49
_symmetry_cell_setting 'orthorhombic'
loop_
_space_group_symop_operation_xyz
x,y,z
-x,-y,z
x,-y,1/2-z
-x,y,1/2-z
-x,-y,-z
x,y,-z
-x,y,1/2+z
x,-y,1/2+z
loop_
_atom_site_type_symbol
_atom_site_label
_atom_site_fract_x
_atom_site_fract_y
_atom_site_fract_z
Si Si1 0.263905 0.873554 0.187109
Si Si2 0.070384 0.271456 0.307855
Si Si3 0.883006 0.089173 0.191430
Si Si4 0.569587 0.726642 0.687014
Si Si5 0.292438 0.692622 0.313536
Si Si6 0.401382 0.089778 0.815232
Si Si7 0.822116 0.408259 0.191194
O O1 0.193123 0.904547 0.237575
O O2 0.266828 0.772455 0.211208
O O3 0.323282 0.908283 0.290510
O O4 0.274690 0.892987 0.000000
O O5 0.071282 0.269796 0.500000
O O6 0.083706 0.175468 0.250149
O O7 0.127004 0.335637 0.257151
O O8 0.000000 0.299646 0.250000
O O9 0.910319 0.000000 0.250000
O O10 0.885079 0.089881 0.000000
O O11 0.500000 0.697316 0.750000
O O12 0.575394 0.712766 0.500000
O O13 0.631436 0.685557 0.773874
O O14 0.574558 0.827688 0.721604
O O15 0.247686 0.614559 0.265452
O O16 0.285116 0.288034 0.000000
O O17 0.424768 0.000000 0.750000
O O18 0.417656 0.099635 0.000000
O O19 0.843642 0.500000 0.250000
O O20 0.817729 0.407047 0.000000
#
# Coordination Sequence:
#
# PCOD9392514 Si02
#       7
#     8   8   8   8   8   8   8
#     4  10  18  33  54  78 113 154 198 253 312 361
#     4  10  23  43  63  87 125 166 206 255 312 369
#     4  10  21  36  55  82 117 160 207 257 307 361
#     4  11  22  38  58  83 116 158 203 252 306 365
#     4  11  21  36  61  92 122 158 202 247 302 365
#     4  11  21  33  48  74 109 150 201 255 311 369
#     4  11  23  43  68  97 129 160 201 253 309 373
#
# _framework density 20.495850999999998
#
# number of rings (size 3 to 8) (size 9 to 14) (size 15 to 20)
#    0.000    1.429    1.429    6.857    0.000    4.857 
#    0.000    4.286    0.000    0.429    0.000    3.000 
#    0.000    0.000    0.000    0.000    0.000    0.000 
#
# Total GULP energy -313101.528420 kJ/mol
# GULP energy per Si atom -5591.098722 kJ/mol
# Density = 2.044920 g / cm^3
# Si number density = 20.495851 Si / 1000 Ang^3
#
#
#
# Elastic Constant Matrix: (Units=GPa)
#
#
# Indices 1 2 3 4 5 6 
#
# 1 105.8634 35.8082 12.6922 0.0000 0.0000 0.0000
# 2 35.8082 90.8572 9.3743 0.0000 0.0000 0.0000
# 3 12.6922 9.3743 52.6871 0.0000 0.0000 0.0000
# 4 0.0000 0.0000 0.0000 32.8266 0.0000 0.0000
# 5 0.0000 0.0000 0.0000 0.0000 26.9828 0.0000
# 6 0.0000 0.0000 0.0000 0.0000 0.0000 -16.7540
#
#
#
# Elastic Compliance Matrix: (Units=1/GPa)
#
#
# Indices 1 2 3 4 5 6 
#
# 1 0.011088 -0.004171 -0.001929 0.000000 0.000000 0.000000
# 2 -0.004171 0.012781 -0.001269 0.000000 0.000000 0.000000
# 3 -0.001929 -0.001269 0.019671 0.000000 0.000000 0.000000
# 4 0.000000 0.000000 0.000000 0.030463 0.000000 0.000000
# 5 0.000000 0.000000 0.000000 0.000000 0.037061 0.000000
# 6 0.000000 0.000000 0.000000 0.000000 0.000000 -0.059687
#
#
# Mechanical properties :
#
#
# Convention : Reuss Voigt Hill
#
# Bulk Modulus (GPa) = 34.72072 40.57302 37.64687
# Shear Modulus (GPa) = 66.03659 21.37993 43.70826
#
# Velocity S-wave (km/s) = 5.68238 3.23326 4.62296
# Velocity P-wave (km/s) = 7.74789 5.81183 6.84862
#
# Compressibility (1/GPa) = 0.02880125
#
# Stress axis : x y z
#
# Youngs Moduli (GPa) = 90.18557 78.24049 50.83751
#
# Poissons Ratio (x) = 0.32634 0.09807
# Poissons Ratio (y) = 0.37617 0.06453
# Poissons Ratio (z) = 0.17397 0.09931
#
# Static dielectric constant tensor:
#      x y z
#    x 1.741310 0.000000 0.000000 
#    y 0.000000 1.746930 0.000000 
#    z 0.000000 0.000000 1.700350 
# 
# From -- ./inp_files/4034.got.cif
#   From: 2010.05.17/outbox.cif.g08.bks.cpg/sg49_3_cif.got.tgz:4034.got - 2010.06.03 21:02:19.
