data_PCOD9392562
_publ_section_title
;
Structure prediction by ZEFSAII (Michael W. Deem and Ramdas Pophale) SiO2 
 PCOD9392562
Probable space group: P C C M
;
_chemical_formula_sum "Si O2"
_cell_formula_units_Z 64
_cell_length_a 18.399465
_cell_length_b 12.306070
_cell_length_c 15.358656
_cell_angle_alpha 90.000000
_cell_angle_beta 90.000000
_cell_angle_gamma 90.000000
_cell_volume 3477.585286
_symmetry_space_group_name_H-M "P C C M"
_symmetry_group_IT_number 49
_symmetry_cell_setting 'orthorhombic'
loop_
_space_group_symop_operation_xyz
x,y,z
-x,-y,z
x,-y,1/2-z
-x,y,1/2-z
-x,-y,-z
x,y,-z
-x,y,1/2+z
x,-y,1/2+z
loop_
_atom_site_type_symbol
_atom_site_label
_atom_site_fract_x
_atom_site_fract_y
_atom_site_fract_z
Si Si1 0.177746 0.749575 0.101121
Si Si2 0.714583 0.894716 0.692034
Si Si3 0.417807 0.988961 0.398136
Si Si4 0.280552 0.450415 0.602070
Si Si5 0.085923 0.632521 0.248845
Si Si6 0.423647 0.452583 0.893661
Si Si7 0.340637 0.764834 0.650509
Si Si8 0.194503 0.657932 0.600523
O O1 0.215657 0.858654 0.136462
O O2 0.244225 0.664547 0.106834
O O3 0.119129 0.693585 0.164456
O O4 0.154812 0.757634 0.000000
O O5 0.688470 0.797694 0.754708
O O6 0.733901 0.000000 0.750000
O O7 0.642351 0.930444 0.640656
O O8 0.422435 0.011610 0.500000
O O9 0.384786 0.868929 0.383745
O O10 0.500000 0.000000 0.361655
O O11 0.284743 0.479327 0.500000
O O12 0.361804 0.461618 0.634204
O O13 0.229293 0.545398 0.637244
O O14 0.094194 0.500000 0.250000
O O15 0.129472 0.680268 0.332513
O O16 0.000000 0.653272 0.250000
O O17 0.500000 0.500000 0.864336
O O18 0.393512 0.338431 0.858053
O O19 0.427321 0.441544 0.000000
O O20 0.264531 0.737314 0.601988
O O21 0.169640 0.646558 0.500000
#
# Coordination Sequence:
#
# PCOD9392562 Si02
#       8
#     8   8   8   8   8   8   8   8
#     4  11  21  38  61  87 120 159 199 244 297 355
#     4  10  22  37  58  84 112 150 203 258 300 351
#     4  10  21  37  56  82 115 153 201 256 311 354
#     4   8  16  29  50  78 108 150 195 231 278 336
#     4  11  23  37  59  94 130 161 193 234 294 361
#     4   9  17  30  49  78 113 150 194 239 282 342
#     4  10  19  34  57  82 112 154 200 240 298 356
#     4  10  18  34  58  84 116 156 201 236 277 351
#
# _framework density 18.403573999999999
#
# number of rings (size 3 to 8) (size 9 to 14) (size 15 to 20)
#    0.000    2.125    2.500    2.250    0.000    3.750 
#    0.000    3.750    0.000    1.125    0.000    0.875 
#    0.000    0.500    0.000    0.000    0.000    0.000 
#
# Total GULP energy -356519.822162 kJ/mol
# GULP energy per Si atom -5570.622221 kJ/mol
# Density = 1.836169 g / cm^3
# Si number density = 18.403574 Si / 1000 Ang^3
#
#
#
# Elastic Constant Matrix: (Units=GPa)
#
#
# Indices 1 2 3 4 5 6 
#
# 1 142.1471 40.1169 65.1403 0.0000 0.0000 0.0000
# 2 40.1169 37.3809 32.4976 0.0000 0.0000 0.0000
# 3 65.1403 32.4976 110.0567 0.0000 0.0000 0.0000
# 4 0.0000 0.0000 0.0000 18.9280 0.0000 0.0000
# 5 0.0000 0.0000 0.0000 0.0000 11.3287 0.0000
# 6 0.0000 0.0000 0.0000 0.0000 0.0000 24.2032
#
#
#
# Elastic Compliance Matrix: (Units=1/GPa)
#
#
# Indices 1 2 3 4 5 6 
#
# 1 0.011377 -0.008550 -0.004209 0.000000 0.000000 0.000000
# 2 -0.008550 0.042417 -0.007464 0.000000 0.000000 0.000000
# 3 -0.004209 -0.007464 0.013781 0.000000 0.000000 0.000000
# 4 0.000000 0.000000 0.000000 0.052832 0.000000 0.000000
# 5 0.000000 0.000000 0.000000 0.000000 0.088271 0.000000
# 6 0.000000 0.000000 0.000000 0.000000 0.000000 0.041317
#
#
# Mechanical properties :
#
#
# Convention : Reuss Voigt Hill
#
# Bulk Modulus (GPa) = 36.86191 62.78825 49.82508
# Shear Modulus (GPa) = 16.69533 21.01397 18.85465
#
# Velocity S-wave (km/s) = 3.01521 3.38278 3.20427
# Velocity P-wave (km/s) = 5.67408 7.03200 6.38922
#
# Compressibility (1/GPa) = 0.02712827
#
# Stress axis : x y z
#
# Youngs Moduli (GPa) = 87.89761 23.57550 72.56151
#
# Poissons Ratio (x) = 0.20158 0.30541
# Poissons Ratio (y) = 0.75156 0.54160
# Poissons Ratio (z) = 0.36996 0.17597
#
# Static dielectric constant tensor:
#      x y z
#    x 1.637960 0.000000 0.000000 
#    y 0.000000 1.663030 0.000000 
#    z 0.000000 0.000000 1.684330 
# 
# From -- ./inp_files/14219.got.cif
#   From: 2010.05.17/outbox.cif.g08.bks.cpg/sg49_8_cif.got.tgz:14219.got - 2010.06.03 21:02:19.
