data_PCOD9392759
_publ_section_title
;
Structure prediction by ZEFSAII (Michael W. Deem and Ramdas Pophale) SiO2 
 PCOD9392759
Probable space group: P C C M
;
_chemical_formula_sum "Si O2"
_cell_formula_units_Z 48
_cell_length_a 24.262069
_cell_length_b 14.081186
_cell_length_c 8.708875
_cell_angle_alpha 90.000000
_cell_angle_beta 90.000000
_cell_angle_gamma 90.000000
_cell_volume 2975.288789
_symmetry_space_group_name_H-M "P C C M"
_symmetry_group_IT_number 49
_symmetry_cell_setting 'orthorhombic'
loop_
_space_group_symop_operation_xyz
x,y,z
-x,-y,z
x,-y,1/2-z
-x,y,1/2-z
-x,-y,-z
x,y,-z
-x,y,1/2+z
x,-y,1/2+z
loop_
_atom_site_type_symbol
_atom_site_label
_atom_site_fract_x
_atom_site_fract_y
_atom_site_fract_z
Si Si1 0.727318 0.395552 0.683126
Si Si2 0.060219 0.395401 0.683812
Si Si3 0.559244 0.894421 0.315093
Si Si4 0.161718 0.717109 0.315617
Si Si5 0.777754 0.895030 0.684241
Si Si6 0.332489 0.218868 0.315530
O O1 0.720087 0.500000 0.750000
O O2 0.725130 0.399442 0.500000
O O3 0.787207 0.352414 0.727171
O O4 0.682883 0.319707 0.743171
O O5 0.073909 0.500000 0.750000
O O6 0.058159 0.399895 0.500000
O O7 0.106518 0.322937 0.740532
O O8 0.000000 0.370661 0.750000
O O9 0.500000 0.863676 0.250000
O O10 0.556859 0.899390 0.500000
O O11 0.609178 0.825567 0.269367
O O12 0.569775 0.000000 0.250000
O O13 0.156901 0.718046 0.500000
O O14 0.179046 0.820428 0.254611
O O15 0.782294 0.895820 0.500000
O O16 0.717186 0.853388 0.725430
O O17 0.784401 0.000000 0.750000
O O18 0.332124 0.228587 0.500000
#
# Coordination Sequence:
#
# PCOD9392759 Si02
#       6
#     8   8   8   8   8   8
#     4  10  20  32  50  73  99 129 161 198 242 289
#     4  11  21  34  52  75 102 133 166 203 245 290
#     4  10  19  31  48  71  98 129 161 199 241 287
#     4  10  20  34  51  74 101 131 165 202 243 290
#     4  10  19  32  50  73 100 131 164 202 244 290
#     4   9  19  33  49  70  98 129 163 200 242 288
#
# _framework density 16.132888000000001
#
# number of rings (size 3 to 8) (size 9 to 14) (size 15 to 20)
#    0.000    2.000    0.000    5.500    0.000    5.333 
#    0.000    0.000    0.000    1.000    0.000    7.000 
#    0.000    0.000    0.000    0.000    0.000    0.000 
#
# Total GULP energy -267985.588254 kJ/mol
# GULP energy per Si atom -5583.033089 kJ/mol
# Density = 1.609617 g / cm^3
# Si number density = 16.132888 Si / 1000 Ang^3
#
#
#
# Elastic Constant Matrix: (Units=GPa)
#
#
# Indices 1 2 3 4 5 6 
#
# 1 117.9016 92.3726 52.2985 0.0000 0.0000 0.0000
# 2 92.3726 151.9044 55.4265 0.0000 0.0000 0.0000
# 3 52.2985 55.4265 76.9188 0.0000 0.0000 0.0000
# 4 0.0000 0.0000 0.0000 29.2889 0.0000 0.0000
# 5 0.0000 0.0000 0.0000 0.0000 3.5100 0.0000
# 6 0.0000 0.0000 0.0000 0.0000 0.0000 24.8294
#
#
#
# Elastic Compliance Matrix: (Units=1/GPa)
#
#
# Indices 1 2 3 4 5 6 
#
# 1 0.017975 -0.008780 -0.005895 0.000000 0.000000 0.000000
# 2 -0.008780 0.013220 -0.003556 0.000000 0.000000 0.000000
# 3 -0.005895 -0.003556 0.019572 0.000000 0.000000 0.000000
# 4 0.000000 0.000000 0.000000 0.034143 0.000000 0.000000
# 5 0.000000 0.000000 0.000000 0.000000 0.284900 0.000000
# 6 0.000000 0.000000 0.000000 0.000000 0.000000 0.040275
#
#
# Mechanical properties :
#
#
# Convention : Reuss Voigt Hill
#
# Bulk Modulus (GPa) = 69.91055 82.99112 76.45083
# Shear Modulus (GPa) = 11.07876 21.30082 16.18979
#
# Velocity S-wave (km/s) = 2.62337 3.63758 3.17129
# Velocity P-wave (km/s) = 7.25289 8.31845 7.80388
#
# Compressibility (1/GPa) = 0.01430399
#
# Stress axis : x y z
#
# Youngs Moduli (GPa) = 55.63199 75.64508 51.09423
#
# Poissons Ratio (x) = 0.66414 0.30121
# Poissons Ratio (y) = 0.48843 0.18171
# Poissons Ratio (z) = 0.32796 0.26902
#
# Static dielectric constant tensor:
#      x y z
#    x 1.532790 0.000000 0.000000 
#    y 0.000000 1.511610 0.000000 
#    z 0.000000 0.000000 1.538180 
# 
# From -- ./inp_files/2904.got.cif
#   From: 2010.05.17/outbox.cif.g08.bks.cpg/sg49_2_cif.got.tgz:2904.got - 2010.06.03 21:02:19.
