data_PCOD9392631
_publ_section_title
;
Structure prediction by ZEFSAII (Michael W. Deem and Ramdas Pophale) SiO2 
 PCOD9392631
Probable space group: P C C M
;
_chemical_formula_sum "Si O2"
_cell_formula_units_Z 64
_cell_length_a 19.433449
_cell_length_b 24.188222
_cell_length_c 8.886661
_cell_angle_alpha 90.000000
_cell_angle_beta 90.000000
_cell_angle_gamma 90.000000
_cell_volume 4177.269012
_symmetry_space_group_name_H-M "P C C M"
_symmetry_group_IT_number 49
_symmetry_cell_setting 'orthorhombic'
loop_
_space_group_symop_operation_xyz
x,y,z
-x,-y,z
x,-y,1/2-z
-x,y,1/2-z
-x,-y,-z
x,y,-z
-x,y,1/2+z
x,-y,1/2+z
loop_
_atom_site_type_symbol
_atom_site_label
_atom_site_fract_x
_atom_site_fract_y
_atom_site_fract_z
Si Si1 0.427849 0.758766 0.678604
Si Si2 0.848148 0.670577 0.319067
Si Si3 0.925321 0.775011 0.820847
Si Si4 0.198461 0.163629 0.320348
Si Si5 0.426893 0.889491 0.680524
Si Si6 0.710841 0.272008 0.179073
Si Si7 0.075479 0.441819 0.680534
Si Si8 0.290318 0.058876 0.680660
O O1 0.500000 0.740733 0.750000
O O2 0.432179 0.754795 0.500000
O O3 0.418549 0.824070 0.717319
O O4 0.361658 0.726494 0.738634
O O5 0.854113 0.679133 0.500000
O O6 0.894720 0.716852 0.239596
O O7 0.768771 0.682985 0.279009
O O8 0.875237 0.609633 0.284042
O O9 0.870944 0.821088 0.766054
O O10 0.000000 0.783893 0.750000
O O11 0.929581 0.773751 0.000000
O O12 0.185210 0.165153 0.500000
O O13 0.252486 0.213093 0.288161
O O14 0.234367 0.106007 0.281509
O O15 0.500000 0.907168 0.750000
O O16 0.427613 0.895590 0.500000
O O17 0.363402 0.922025 0.751714
O O18 0.699216 0.274784 0.000000
O O19 0.099270 0.500000 0.750000
O O20 0.069553 0.446714 0.500000
O O21 0.000000 0.430842 0.750000
O O22 0.295609 0.055785 0.500000
O O23 0.271627 0.000000 0.750000
#
# Coordination Sequence:
#
# PCOD9392631 Si02
#       8
#     8   8   8   8   8   8   8   8
#     4  10  19  29  45  68  94 124 157 191 230 280
#     4   9  19  33  48  70 100 132 164 200 240 281
#     4  11  21  32  51  75  99 124 154 193 236 282
#     4   9  19  35  52  69  94 123 151 186 234 286
#     4  10  20  33  49  69  94 122 157 194 231 278
#     4   9  16  30  49  68  93 123 155 192 237 282
#     4  10  19  31  47  67  96 134 174 207 239 276
#     4  11  22  36  53  71  93 121 153 192 235 281
#
# _framework density 15.321016
#
# number of rings (size 3 to 8) (size 9 to 14) (size 15 to 20)
#    0.000    2.125    1.250    4.125    0.000    6.250 
#    0.000    1.250    0.000    0.375    0.000    2.625 
#    0.000    0.500    0.000    5.750    0.000    1.750 
#
# Total GULP energy -357132.161447 kJ/mol
# GULP energy per Si atom -5580.190023 kJ/mol
# Density = 1.528614 g / cm^3
# Si number density = 15.321016 Si / 1000 Ang^3
#
#
#
# Elastic Constant Matrix: (Units=GPa)
#
#
# Indices 1 2 3 4 5 6 
#
# 1 128.9792 68.0276 58.3461 0.0000 0.0000 0.0000
# 2 68.0276 105.2620 45.8253 0.0000 0.0000 0.0000
# 3 58.3461 45.8253 55.1975 0.0000 0.0000 0.0000
# 4 0.0000 0.0000 0.0000 79.6596 0.0000 0.0000
# 5 0.0000 0.0000 0.0000 0.0000 26.6878 0.0000
# 6 0.0000 0.0000 0.0000 0.0000 0.0000 24.7775
#
#
#
# Elastic Compliance Matrix: (Units=1/GPa)
#
#
# Indices 1 2 3 4 5 6 
#
# 1 0.016235 -0.004731 -0.013233 0.000000 0.000000 0.000000
# 2 -0.004731 0.016256 -0.008495 0.000000 0.000000 0.000000
# 3 -0.013233 -0.008495 0.039157 0.000000 0.000000 0.000000
# 4 0.000000 0.000000 0.000000 0.012553 0.000000 0.000000
# 5 0.000000 0.000000 0.000000 0.000000 0.037470 0.000000
# 6 0.000000 0.000000 0.000000 0.000000 0.000000 0.040359
#
#
# Mechanical properties :
#
#
# Convention : Reuss Voigt Hill
#
# Bulk Modulus (GPa) = 53.39065 70.42632 61.90849
# Shear Modulus (GPa) = 22.60489 34.04096 28.32292
#
# Velocity S-wave (km/s) = 3.84528 4.71876 4.30424
# Velocity P-wave (km/s) = 7.39179 8.70378 8.07448
#
# Compressibility (1/GPa) = 0.01872987
#
# Stress axis : x y z
#
# Youngs Moduli (GPa) = 61.59654 61.51661 25.53828
#
# Poissons Ratio (x) = 0.29104 0.33795
# Poissons Ratio (y) = 0.29142 0.21694
# Poissons Ratio (z) = 0.81511 0.52257
#
# Static dielectric constant tensor:
#      x y z
#    x 1.497330 0.000000 0.000000 
#    y 0.000000 1.500040 0.000000 
#    z 0.000000 0.000000 1.509750 
# 
# From -- ./inp_files/5430.got.cif
#   From: 2010.05.17/outbox.cif.g08.bks.cpg/sg49_3_cif.got.tgz:5430.got - 2010.06.03 21:02:19.
