data_PCOD9392742
_publ_section_title
;
Structure prediction by ZEFSAII (Michael W. Deem and Ramdas Pophale) SiO2 
 PCOD9392742
Probable space group: P C C M
;
_chemical_formula_sum "Si O2"
_cell_formula_units_Z 48
_cell_length_a 18.422128
_cell_length_b 18.516315
_cell_length_c 8.502064
_cell_angle_alpha 90.000000
_cell_angle_beta 90.000000
_cell_angle_gamma 90.000000
_cell_volume 2900.138414
_symmetry_space_group_name_H-M "P C C M"
_symmetry_group_IT_number 49
_symmetry_cell_setting 'orthorhombic'
loop_
_space_group_symop_operation_xyz
x,y,z
-x,-y,z
x,-y,1/2-z
-x,y,1/2-z
-x,-y,-z
x,y,-z
-x,y,1/2+z
x,-y,1/2+z
loop_
_atom_site_type_symbol
_atom_site_label
_atom_site_fract_x
_atom_site_fract_y
_atom_site_fract_z
Si Si1 0.306173 0.196688 0.814363
Si Si2 0.082052 0.577498 0.186776
Si Si3 0.194097 0.689570 0.685315
Si Si4 0.307506 0.421093 0.317996
Si Si5 0.420760 0.305787 0.681786
Si Si6 0.421301 0.917983 0.310093
O O1 0.231674 0.235320 0.753241
O O2 0.368020 0.256101 0.783749
O O3 0.349157 0.125538 0.755046
O O4 0.294312 0.186230 0.000000
O O5 0.112813 0.500000 0.250000
O O6 0.125436 0.649492 0.237580
O O7 0.000000 0.582107 0.250000
O O8 0.081599 0.572551 0.000000
O O9 0.180278 0.698094 0.500000
O O10 0.255940 0.629904 0.716168
O O11 0.307022 0.500000 0.250000
O O12 0.282313 0.419113 0.500000
O O13 0.386783 0.385507 0.313425
O O14 0.500000 0.303392 0.750000
O O15 0.418284 0.281247 0.500000
O O16 0.500000 0.888587 0.250000
O O17 0.423424 0.916159 0.500000
O O18 0.416974 0.000000 0.250000
#
# Coordination Sequence:
#
# PCOD9392742 Si02
#       6
#     8   8   8   8   8   8
#     4   9  19  33  49  67  90 119 153 188 228 275
#     4  11  21  34  51  73  99 128 160 195 234 279
#     4  10  19  33  50  68  91 120 151 188 229 274
#     4  10  20  32  44  60  80 108 145 186 228 272
#     4  10  20  31  44  60  80 107 144 186 230 273
#     4  10  19  31  47  70  96 126 159 195 236 281
#
# _framework density 16.550934000000002
#
# number of rings (size 3 to 8) (size 9 to 14) (size 15 to 20)
#    0.000    2.000    0.000    5.500    0.000    5.667 
#    0.000    1.667    0.000    0.000    0.000    0.000 
#    0.000    0.667    0.000    7.667    0.000    2.333 
#
# Total GULP energy -267305.698609 kJ/mol
# GULP energy per Si atom -5568.868721 kJ/mol
# Density = 1.651326 g / cm^3
# Si number density = 16.550934 Si / 1000 Ang^3
#
#
#
# Elastic Constant Matrix: (Units=GPa)
#
#
# Indices 1 2 3 4 5 6 
#
# 1 71.8899 30.6570 14.6947 0.0000 0.0000 0.0000
# 2 30.6570 72.9112 12.2802 0.0000 0.0000 0.0000
# 3 14.6947 12.2802 48.4862 0.0000 0.0000 0.0000
# 4 0.0000 0.0000 0.0000 11.2727 0.0000 0.0000
# 5 0.0000 0.0000 0.0000 0.0000 20.1192 0.0000
# 6 0.0000 0.0000 0.0000 0.0000 0.0000 20.2979
#
#
#
# Elastic Compliance Matrix: (Units=1/GPa)
#
#
# Indices 1 2 3 4 5 6 
#
# 1 0.017531 -0.006765 -0.003600 0.000000 0.000000 0.000000
# 2 -0.006765 0.016937 -0.002239 0.000000 0.000000 0.000000
# 3 -0.003600 -0.002239 0.022283 0.000000 0.000000 0.000000
# 4 0.000000 0.000000 0.000000 0.088710 0.000000 0.000000
# 5 0.000000 0.000000 0.000000 0.000000 0.049704 0.000000
# 6 0.000000 0.000000 0.000000 0.000000 0.000000 0.049266
#
#
# Mechanical properties :
#
#
# Convention : Reuss Voigt Hill
#
# Bulk Modulus (GPa) = 31.70347 34.28345 32.99346
# Shear Modulus (GPa) = 17.84745 19.38165 18.61455
#
# Velocity S-wave (km/s) = 3.28736 3.42575 3.35727
# Velocity P-wave (km/s) = 5.79704 6.03378 5.91660
#
# Compressibility (1/GPa) = 0.03154229
#
# Stress axis : x y z
#
# Youngs Moduli (GPa) = 57.04248 59.04259 44.87809
#
# Poissons Ratio (x) = 0.39942 0.16155
# Poissons Ratio (y) = 0.38589 0.10050
# Poissons Ratio (z) = 0.20534 0.13222
#
# Static dielectric constant tensor:
#      x y z
#    x 1.738300 0.000000 0.000000 
#    y 0.000000 1.586930 0.000000 
#    z 0.000000 0.000000 1.588700 
# 
# From -- ./inp_files/4964.got.cif
#   From: 2010.05.17/outbox.cif.g08.bks.cpg/sg49_3_cif.got.tgz:4964.got - 2010.06.03 21:02:19.
