data_PCOD9392321
_publ_section_title
;
Structure prediction by ZEFSAII (Michael W. Deem and Ramdas Pophale) SiO2 
 PCOD9392321
Probable space group: P C C M
;
_chemical_formula_sum "Si O2"
_cell_formula_units_Z 56
_cell_length_a 18.885778
_cell_length_b 21.744719
_cell_length_c 8.764151
_cell_angle_alpha 90.000000
_cell_angle_beta 90.000000
_cell_angle_gamma 90.000000
_cell_volume 3599.138271
_symmetry_space_group_name_H-M "P C C M"
_symmetry_group_IT_number 49
_symmetry_cell_setting 'orthorhombic'
loop_
_space_group_symop_operation_xyz
x,y,z
-x,-y,z
x,-y,1/2-z
-x,y,1/2-z
-x,-y,-z
x,y,-z
-x,y,1/2+z
x,-y,1/2+z
loop_
_atom_site_type_symbol
_atom_site_label
_atom_site_fract_x
_atom_site_fract_y
_atom_site_fract_z
Si Si1 0.079106 0.564789 0.315690
Si Si2 0.843062 0.688464 0.182525
Si Si3 0.288634 0.254619 0.674651
Si Si4 0.656328 0.934585 0.181987
Si Si5 0.791045 0.877688 0.324084
Si Si6 0.078106 0.186025 0.183651
Si Si7 0.422308 0.815802 0.815432
O O1 0.106232 0.500000 0.250000
O O2 0.076199 0.562029 0.500000
O O3 0.124860 0.623678 0.266668
O O4 0.000000 0.572651 0.250000
O O5 0.763054 0.700680 0.235045
O O6 0.891278 0.746720 0.232569
O O7 0.844761 0.689036 0.000000
O O8 0.293311 0.275527 0.500000
O O9 0.248735 0.188510 0.675614
O O10 0.366859 0.237705 0.731997
O O11 0.737338 0.921291 0.233565
O O12 0.608983 0.879846 0.251697
O O13 0.634209 0.000000 0.250000
O O14 0.651145 0.934121 0.000000
O O15 0.798287 0.897499 0.500000
O O16 0.866299 0.864079 0.246929
O O17 0.000000 0.177734 0.250000
O O18 0.076927 0.183974 0.000000
O O19 0.500000 0.805816 0.750000
O O20 0.422322 0.818391 0.000000
#
# Coordination Sequence:
#
# PCOD9392321 Si02
#       7
#     8   8   8   8   8   8   8
#     4  10  19  30  42  60  87 123 161 197 232 270
#     4   9  18  29  43  63  88 117 154 191 226 267
#     4   8  16  29  46  66  89 115 146 181 221 264
#     4  11  21  34  51  70  91 119 152 185 218 261
#     4   9  17  31  47  65  88 114 145 184 225 269
#     4  10  18  28  43  65  89 115 146 186 232 275
#     4  10  20  34  50  72  98 124 150 180 219 265
#
# _framework density 15.559279999999999
#
# number of rings (size 3 to 8) (size 9 to 14) (size 15 to 20)
#    0.000    2.429    0.000    4.714    0.000    6.000 
#    0.000    1.429    0.000    0.429    0.000    3.000 
#    0.000    0.571    0.000    6.286    0.000    4.571 
#
# Total GULP energy -312151.368865 kJ/mol
# GULP energy per Si atom -5574.131587 kJ/mol
# Density = 1.552387 g / cm^3
# Si number density = 15.559280 Si / 1000 Ang^3
#
#
#
# Elastic Constant Matrix: (Units=GPa)
#
#
# Indices 1 2 3 4 5 6 
#
# 1 116.6702 20.1501 26.7048 0.0000 0.0000 0.0000
# 2 20.1501 31.9907 9.7504 0.0000 0.0000 0.0000
# 3 26.7048 9.7504 61.8043 0.0000 0.0000 0.0000
# 4 0.0000 0.0000 0.0000 16.0873 0.0000 0.0000
# 5 0.0000 0.0000 0.0000 0.0000 28.0215 0.0000
# 6 0.0000 0.0000 0.0000 0.0000 0.0000 18.3154
#
#
#
# Elastic Compliance Matrix: (Units=1/GPa)
#
#
# Indices 1 2 3 4 5 6 
#
# 1 0.010332 -0.005407 -0.003611 0.000000 0.000000 0.000000
# 2 -0.005407 0.035668 -0.003291 0.000000 0.000000 0.000000
# 3 -0.003611 -0.003291 0.018260 0.000000 0.000000 0.000000
# 4 0.000000 0.000000 0.000000 0.062161 0.000000 0.000000
# 5 0.000000 0.000000 0.000000 0.000000 0.035687 0.000000
# 6 0.000000 0.000000 0.000000 0.000000 0.000000 0.054599
#
#
# Mechanical properties :
#
#
# Convention : Reuss Voigt Hill
#
# Bulk Modulus (GPa) = 25.22626 35.96397 30.59512
# Shear Modulus (GPa) = 19.64351 22.74215 21.19283
#
# Velocity S-wave (km/s) = 3.55701 3.82729 3.69463
# Velocity P-wave (km/s) = 5.75482 6.53416 6.15684
#
# Compressibility (1/GPa) = 0.03964123
#
# Stress axis : x y z
#
# Youngs Moduli (GPa) = 96.79084 28.03656 54.76576
#
# Poissons Ratio (x) = 0.15159 0.19777
# Poissons Ratio (y) = 0.52334 0.18022
# Poissons Ratio (z) = 0.34952 0.09226
#
# Static dielectric constant tensor:
#      x y z
#    x 1.519700 0.000000 0.000000 
#    y 0.000000 1.512590 0.000000 
#    z 0.000000 0.000000 1.525850 
# 
# From -- ./inp_files/5202.got.cif
#   From: 2010.05.17/outbox.cif.g08.bks.cpg/sg49_3_cif.got.tgz:5202.got - 2010.06.03 21:02:19.
