data_PCOD9392895
_publ_section_title
;
Structure prediction by ZEFSAII (Michael W. Deem and Ramdas Pophale) SiO2 
 PCOD9392895
Probable space group: P C C M
;
_chemical_formula_sum "Si O2"
_cell_formula_units_Z 64
_cell_length_a 25.356147
_cell_length_b 15.429732
_cell_length_c 8.715995
_cell_angle_alpha 90.000000
_cell_angle_beta 90.000000
_cell_angle_gamma 90.000000
_cell_volume 3410.033270
_symmetry_space_group_name_H-M "P C C M"
_symmetry_group_IT_number 49
_symmetry_cell_setting 'orthorhombic'
loop_
_space_group_symop_operation_xyz
x,y,z
-x,-y,z
x,-y,1/2-z
-x,y,1/2-z
-x,-y,-z
x,y,-z
-x,y,1/2+z
x,-y,1/2+z
loop_
_atom_site_type_symbol
_atom_site_label
_atom_site_fract_x
_atom_site_fract_y
_atom_site_fract_z
Si Si1 0.558834 0.092808 0.316440
Si Si2 0.642934 0.776059 0.685063
Si Si3 0.163260 0.170890 0.682948
Si Si4 0.798209 0.351284 0.682008
Si Si5 0.915370 0.589049 0.819916
Si Si6 0.945071 0.780965 0.183864
Si Si7 0.731993 0.910898 0.683978
Si Si8 0.313029 0.408932 0.315592
O O1 0.500000 0.104436 0.250000
O O2 0.557330 0.087595 0.500000
O O3 0.595355 0.171889 0.262066
O O4 0.578199 0.000000 0.250000
O O5 0.636985 0.780596 0.500000
O O6 0.695558 0.829919 0.728049
O O7 0.652388 0.675728 0.726562
O O8 0.157130 0.166063 0.500000
O O9 0.188918 0.263012 0.728568
O O10 0.106376 0.167439 0.760980
O O11 0.207777 0.103485 0.735369
O O12 0.791947 0.334288 0.500000
O O13 0.851934 0.405920 0.700030
O O14 0.745632 0.393642 0.748319
O O15 0.935498 0.500000 0.750000
O O16 0.937156 0.680922 0.759259
O O17 0.926505 0.587582 0.000000
O O18 0.000000 0.814077 0.250000
O O19 0.945926 0.779973 0.000000
O O20 0.731816 0.914790 0.500000
O O21 0.710593 0.000000 0.750000
O O22 0.333234 0.500000 0.250000
O O23 0.309700 0.412676 0.500000
#
# Coordination Sequence:
#
# PCOD9392895 Si02
#       8
#     8   8   8   8   8   8   8   8
#     4  11  22  38  62  92 124 162 203 245 294 349
#     4  10  21  39  58  84 123 161 199 245 289 340
#     4  10  19  35  55  77 107 143 178 222 279 336
#     4  10  19  32  50  74 104 142 188 231 276 333
#     4   9  19  31  44  66  95 127 168 216 268 325
#     4  10  21  36  52  73  96 129 176 224 276 338
#     4  10  21  36  56  85 118 152 186 222 282 344
#     4  11  22  36  54  79 115 156 200 246 291 340
#
# _framework density 18.768146000000002
#
# number of rings (size 3 to 8) (size 9 to 14) (size 15 to 20)
#    0.000    1.875    1.250    4.500    0.000    7.750 
#    0.000    1.250    0.000    0.750    0.000    5.250 
#    0.000    0.000    0.000    0.000    0.000    0.000 
#
# Total GULP energy -357286.934207 kJ/mol
# GULP energy per Si atom -5582.608347 kJ/mol
# Density = 1.872543 g / cm^3
# Si number density = 18.768146 Si / 1000 Ang^3
#
#
#
# Elastic Constant Matrix: (Units=GPa)
#
#
# Indices 1 2 3 4 5 6 
#
# 1 106.1869 46.4178 40.4012 0.0000 0.0000 0.0000
# 2 46.4178 93.4216 30.6115 0.0000 0.0000 0.0000
# 3 40.4012 30.6115 53.5877 0.0000 0.0000 0.0000
# 4 0.0000 0.0000 0.0000 17.0071 0.0000 0.0000
# 5 0.0000 0.0000 0.0000 0.0000 32.0185 0.0000
# 6 0.0000 0.0000 0.0000 0.0000 0.0000 -2.7906
#
#
#
# Elastic Compliance Matrix: (Units=1/GPa)
#
#
# Indices 1 2 3 4 5 6 
#
# 1 0.014587 -0.004483 -0.008436 0.000000 0.000000 0.000000
# 2 -0.004483 0.014547 -0.004930 0.000000 0.000000 0.000000
# 3 -0.008436 -0.004930 0.027838 0.000000 0.000000 0.000000
# 4 0.000000 0.000000 0.000000 0.058799 0.000000 0.000000
# 5 0.000000 0.000000 0.000000 0.000000 0.031232 0.000000
# 6 0.000000 0.000000 0.000000 0.000000 0.000000 -0.358349
#
#
# Mechanical properties :
#
#
# Convention : Reuss Voigt Hill
#
# Bulk Modulus (GPa) = 47.00910 54.22860 50.61885
# Shear Modulus (GPa) = -29.66375 18.29805 -5.68285
#
# Velocity S-wave (km/s) = -3.97991 3.12581 -1.74198
# Velocity P-wave (km/s) = 1.99551 6.47953 4.79408
#
# Compressibility (1/GPa) = 0.02127248
#
# Stress axis : x y z
#
# Youngs Moduli (GPa) = 68.55399 68.74201 35.92263
#
# Poissons Ratio (x) = 0.30820 0.30306
# Poissons Ratio (y) = 0.30735 0.17709
# Poissons Ratio (z) = 0.57835 0.33888
#
# Static dielectric constant tensor:
#      x y z
#    x 1.651290 0.000000 0.000000 
#    y 0.000000 1.659100 0.000000 
#    z 0.000000 0.000000 1.633620 
# 
# From -- ./inp_files/6506.got.cif
#   From: 2010.05.17/outbox.cif.g08.bks.cpg/sg49_4_cif.got.tgz:6506.got - 2010.06.03 21:02:19.
