data_PCOD9392345
_publ_section_title
;
Structure prediction by ZEFSAII (Michael W. Deem and Ramdas Pophale) SiO2 
 PCOD9392345
Probable space group: P C C M
;
_chemical_formula_sum "Si O2"
_cell_formula_units_Z 64
_cell_length_a 24.032612
_cell_length_b 19.593738
_cell_length_c 8.817866
_cell_angle_alpha 90.000000
_cell_angle_beta 90.000000
_cell_angle_gamma 90.000000
_cell_volume 4152.233484
_symmetry_space_group_name_H-M "P C C M"
_symmetry_group_IT_number 49
_symmetry_cell_setting 'orthorhombic'
loop_
_space_group_symop_operation_xyz
x,y,z
-x,-y,z
x,-y,1/2-z
-x,y,1/2-z
-x,-y,-z
x,y,-z
-x,y,1/2+z
x,-y,1/2+z
loop_
_atom_site_type_symbol
_atom_site_label
_atom_site_fract_x
_atom_site_fract_y
_atom_site_fract_z
Si Si1 0.338263 0.793952 0.682727
Si Si2 0.385354 0.428380 0.317718
Si Si3 0.439842 0.286184 0.681831
Si Si4 0.160424 0.155737 0.817042
Si Si5 0.272531 0.925648 0.317797
Si Si6 0.744940 0.571848 0.681059
Si Si7 0.226259 0.288999 0.818122
Si Si8 0.939215 0.073886 0.181456
O O1 0.344497 0.792261 0.500000
O O2 0.393339 0.766312 0.760508
O O3 0.318847 0.869919 0.727751
O O4 0.285975 0.744954 0.721308
O O5 0.405471 0.500000 0.250000
O O6 0.387230 0.432403 0.500000
O O7 0.419612 0.362025 0.269008
O O8 0.320353 0.419847 0.272918
O O9 0.500000 0.271541 0.750000
O O10 0.441958 0.285161 0.500000
O O11 0.212506 0.106583 0.776862
O O12 0.180074 0.232410 0.777731
O O13 0.105922 0.128801 0.734581
O O14 0.153303 0.152462 0.000000
O O15 0.273633 0.929634 0.500000
O O16 0.280155 0.000000 0.250000
O O17 0.764176 0.500000 0.750000
O O18 0.747073 0.568848 0.500000
O O19 0.777262 0.637801 0.740774
O O20 0.225188 0.296981 0.000000
O O21 0.000000 0.089259 0.250000
O O22 0.922677 0.000000 0.250000
O O23 0.942235 0.069232 0.000000
#
# Coordination Sequence:
#
# PCOD9392345 Si02
#       8
#     8   8   8   8   8   8   8   8
#     4   9  18  33  50  68  91 119 149 184 228 280
#     4   9  19  32  46  65  89 117 150 187 225 270
#     4  11  22  35  49  68  89 115 151 189 230 276
#     4   9  18  32  48  71 102 131 163 200 236 280
#     4   9  18  31  49  73  98 123 151 185 231 279
#     4  10  18  29  45  67  94 124 159 194 232 284
#     4   9  17  30  49  70  95 126 156 193 240 281
#     4  11  21  33  49  69  97 136 176 210 243 279
#
# _framework density 15.41339
#
# number of rings (size 3 to 8) (size 9 to 14) (size 15 to 20)
#    0.000    2.375    1.250    4.125    0.000    4.250 
#    0.000    3.750    0.000    0.375    0.000    2.625 
#    0.000    0.500    0.000    5.250    0.000    2.250 
#
# Total GULP energy -356983.631486 kJ/mol
# GULP energy per Si atom -5577.869242 kJ/mol
# Density = 1.537831 g / cm^3
# Si number density = 15.413390 Si / 1000 Ang^3
#
#
#
# Elastic Constant Matrix: (Units=GPa)
#
#
# Indices 1 2 3 4 5 6 
#
# 1 82.0890 59.7187 39.3777 0.0000 0.0000 0.0000
# 2 59.7187 138.3930 48.2263 0.0000 0.0000 0.0000
# 3 39.3777 48.2263 48.3101 0.0000 0.0000 0.0000
# 4 0.0000 0.0000 0.0000 29.1409 0.0000 0.0000
# 5 0.0000 0.0000 0.0000 0.0000 7.7668 0.0000
# 6 0.0000 0.0000 0.0000 0.0000 0.0000 23.6810
#
#
#
# Elastic Compliance Matrix: (Units=1/GPa)
#
#
# Indices 1 2 3 4 5 6 
#
# 1 0.022038 -0.004984 -0.012988 0.000000 0.000000 0.000000
# 2 -0.004984 0.012207 -0.008124 0.000000 0.000000 0.000000
# 3 -0.012988 -0.008124 0.039396 0.000000 0.000000 0.000000
# 4 0.000000 0.000000 0.000000 0.034316 0.000000 0.000000
# 5 0.000000 0.000000 0.000000 0.000000 0.128754 0.000000
# 6 0.000000 0.000000 0.000000 0.000000 0.000000 0.042228
#
#
# Mechanical properties :
#
#
# Convention : Reuss Voigt Hill
#
# Bulk Modulus (GPa) = 46.62041 62.60416 54.61228
# Shear Modulus (GPa) = 14.78066 20.21570 17.49818
#
# Velocity S-wave (km/s) = 3.10005 3.62549 3.37301
# Velocity P-wave (km/s) = 6.56705 7.63089 7.11887
#
# Compressibility (1/GPa) = 0.02144983
#
# Stress axis : x y z
#
# Youngs Moduli (GPa) = 45.37673 81.91826 25.38329
#
# Poissons Ratio (x) = 0.40825 0.32968
# Poissons Ratio (y) = 0.22614 0.20621
# Poissons Ratio (z) = 0.58935 0.66550
#
# Static dielectric constant tensor:
#      x y z
#    x 1.494300 0.000000 0.000000 
#    y 0.000000 1.511880 0.000000 
#    z 0.000000 0.000000 1.513120 
# 
# From -- ./inp_files/5401.got.cif
#   From: 2010.05.17/outbox.cif.g08.bks.cpg/sg49_3_cif.got.tgz:5401.got - 2010.06.03 21:02:19.
