data_PCOD9392051
_publ_section_title
;
Structure prediction by ZEFSAII (Michael W. Deem and Ramdas Pophale) SiO2 
 PCOD9392051
Probable space group: P C C M
;
_chemical_formula_sum "Si O2"
_cell_formula_units_Z 64
_cell_length_a 5.282848
_cell_length_b 27.048115
_cell_length_c 28.142987
_cell_angle_alpha 90.000000
_cell_angle_beta 90.000000
_cell_angle_gamma 90.000000
_cell_volume 4021.381813
_symmetry_space_group_name_H-M "P C C M"
_symmetry_group_IT_number 49
_symmetry_cell_setting 'orthorhombic'
loop_
_space_group_symop_operation_xyz
x,y,z
-x,-y,z
x,-y,1/2-z
-x,y,1/2-z
-x,-y,-z
x,y,-z
-x,y,1/2+z
x,-y,1/2+z
loop_
_atom_site_type_symbol
_atom_site_label
_atom_site_fract_x
_atom_site_fract_y
_atom_site_fract_z
Si Si1 0.002703 0.940504 0.362677
Si Si2 0.581938 0.802105 0.056088
Si Si3 0.749819 0.466943 0.881905
Si Si4 0.300924 0.693067 0.443264
Si Si5 0.251616 0.556210 0.771029
Si Si6 0.904309 0.134922 0.944149
Si Si7 0.505503 0.940029 0.304382
Si Si8 0.187010 0.369139 0.443545
O O1 0.953743 0.912828 0.412009
O O2 0.768803 0.926532 0.328797
O O3 0.264649 0.925887 0.336670
O O4 0.000000 0.000000 0.368823
O O5 0.639920 0.747705 0.076529
O O6 0.339093 0.833319 0.073420
O O7 0.840784 0.832705 0.059409
O O8 0.523102 0.794510 0.000000
O O9 0.500000 0.500000 0.891209
O O10 0.738500 0.448263 0.827394
O O11 0.780161 0.420464 0.916312
O O12 0.000000 0.500000 0.886233
O O13 0.254152 0.699398 0.500000
O O14 0.553941 0.661189 0.437425
O O15 0.053448 0.663279 0.425990
O O16 0.251019 0.500000 0.750000
O O17 0.500000 0.580974 0.750000
O O18 0.000000 0.579966 0.750000
O O19 0.864466 0.122644 0.000000
O O20 0.500000 0.922143 0.250000
O O21 0.500000 0.000000 0.302454
O O22 0.151760 0.378347 0.500000
#
# Coordination Sequence:
#
# PCOD9392051 Si02
#       8
#     8   8   8   8   8   8   8   8
#     4  10  19  30  45  67 100 136 162 191 237 291
#     4   9  17  30  50  69  88 120 160 206 248 271
#     4  12  21  31  48  68  95 130 155 183 220 268
#     4   9  17  33  51  66  89 121 156 199 244 272
#     4  10  16  30  47  65  86 116 152 191 230 251
#     4  10  19  30  45  71 101 128 163 197 228 284
#     4   9  17  30  47  65  87 123 163 207 247 273
#     4  10  21  33  46  68  97 126 157 187 221 281
#
# _framework density 15.914929000000001
#
# number of rings (size 3 to 8) (size 9 to 14) (size 15 to 20)
#    0.000    2.125    2.500    2.625    0.000    5.250 
#    0.000    0.000    0.000    4.500    0.000    0.000 
#    0.000   35.000    0.000    0.000    0.000    0.000 
#
# Total GULP energy -356491.533612 kJ/mol
# GULP energy per Si atom -5570.180213 kJ/mol
# Density = 1.587871 g / cm^3
# Si number density = 15.914929 Si / 1000 Ang^3
#
#
#
# Elastic Constant Matrix: (Units=GPa)
#
#
# Indices 1 2 3 4 5 6 
#
# 1 129.1143 37.9092 40.2821 0.0000 0.0000 0.0000
# 2 37.9092 70.0964 48.3815 0.0000 0.0000 0.0000
# 3 40.2821 48.3815 70.3320 0.0000 0.0000 0.0000
# 4 0.0000 0.0000 0.0000 -2.2751 0.0000 0.0000
# 5 0.0000 0.0000 0.0000 0.0000 11.7947 0.0000
# 6 0.0000 0.0000 0.0000 0.0000 0.0000 15.6880
#
#
#
# Elastic Compliance Matrix: (Units=1/GPa)
#
#
# Indices 1 2 3 4 5 6 
#
# 1 0.009688 -0.002684 -0.003703 0.000000 0.000000 0.000000
# 2 -0.002684 0.027907 -0.017660 0.000000 0.000000 0.000000
# 3 -0.003703 -0.017660 0.028487 0.000000 0.000000 0.000000
# 4 0.000000 0.000000 0.000000 -0.439541 0.000000 0.000000
# 5 0.000000 0.000000 0.000000 0.000000 0.084784 0.000000
# 6 0.000000 0.000000 0.000000 0.000000 0.000000 0.063743
#
#
# Mechanical properties :
#
#
# Convention : Reuss Voigt Hill
#
# Bulk Modulus (GPa) = 55.58856 58.07647 56.83251
# Shear Modulus (GPa) = -29.26668 14.57284 -7.34692
#
# Velocity S-wave (km/s) = -4.29294 3.02929 -2.15090
# Velocity P-wave (km/s) = 3.22984 6.98616 5.44235
#
# Compressibility (1/GPa) = 0.01798931
#
# Stress axis : x y z
#
# Youngs Moduli (GPa) = 103.21755 35.83368 35.10361
#
# Poissons Ratio (x) = 0.09618 0.12997
# Poissons Ratio (y) = 0.27704 0.61992
# Poissons Ratio (z) = 0.38217 0.63282
#
# Static dielectric constant tensor:
#      x y z
#    x 1.546260 0.000000 0.000000 
#    y 0.000000 1.519180 0.000000 
#    z 0.000000 0.000000 1.525570 
# 
# From -- ./inp_files/21956.got.cif
#   From: 2010.05.17/outbox.cif.g08.bks.cpg/sg49_11_cif.got.tgz:21956.got - 2010.06.03 21:02:19.
