data_PCOD9392501
_publ_section_title
;
Structure prediction by ZEFSAII (Michael W. Deem and Ramdas Pophale) SiO2 
 PCOD9392501
Probable space group: P C C M
;
_chemical_formula_sum "Si O2"
_cell_formula_units_Z 48
_cell_length_a 7.842054
_cell_length_b 11.615126
_cell_length_c 28.115890
_cell_angle_alpha 90.000000
_cell_angle_beta 90.000000
_cell_angle_gamma 90.000000
_cell_volume 2560.976477
_symmetry_space_group_name_H-M "P C C M"
_symmetry_group_IT_number 49
_symmetry_cell_setting 'orthorhombic'
loop_
_space_group_symop_operation_xyz
x,y,z
-x,-y,z
x,-y,1/2-z
-x,y,1/2-z
-x,-y,-z
x,y,-z
-x,y,1/2+z
x,-y,1/2+z
loop_
_atom_site_type_symbol
_atom_site_label
_atom_site_fract_x
_atom_site_fract_y
_atom_site_fract_z
Si Si1 0.687125 0.017217 0.088521
Si Si2 0.260034 0.228688 0.943028
Si Si3 0.034870 0.367145 0.391157
Si Si4 0.659022 0.263547 0.943664
Si Si5 0.255095 0.005498 0.196781
Si Si6 0.013286 0.204500 0.198107
O O1 0.744407 0.139052 0.068161
O O2 0.669110 0.025659 0.145462
O O3 0.500000 0.000000 0.066377
O O4 0.784149 0.900430 0.075533
O O5 0.119200 0.315753 0.923136
O O6 0.458009 0.258342 0.928658
O O7 0.256592 0.227581 0.000000
O O8 0.031378 0.290583 0.343526
O O9 0.000000 0.500000 0.381208
O O10 0.217931 0.351688 0.416713
O O11 0.662626 0.283578 0.000000
O O12 0.112336 0.905455 0.200070
O O13 0.330991 0.000000 0.250000
O O14 0.191172 0.137219 0.190861
O O15 0.000000 0.260497 0.250000
#
# Coordination Sequence:
#
# PCOD9392501 Si02
#       6
#     8   8   8   8   8   8
#     4  10  18  32  56  85 115 146 178 222 291 353
#     4  10  22  39  58  84 117 148 184 235 285 334
#     4  12  24  38  60  83 107 153 204 231 269 330
#     4  10  22  39  58  84 117 148 184 235 285 334
#     4   9  16  30  55  82 110 142 177 225 290 347
#     4   9  18  34  55  82 113 143 181 230 283 339
#
# _framework density 18.742851000000002
#
# number of rings (size 3 to 8) (size 9 to 14) (size 15 to 20)
#    0.000    2.000    3.333    2.000    0.000    5.333 
#    0.000    3.333    0.000    1.000    0.000    2.333 
#    0.000    0.000    0.000    0.000    0.000    0.000 
#
# Total GULP energy -267216.519010 kJ/mol
# GULP energy per Si atom -5567.010813 kJ/mol
# Density = 1.870019 g / cm^3
# Si number density = 18.742851 Si / 1000 Ang^3
#
#
#
# Elastic Constant Matrix: (Units=GPa)
#
#
# Indices 1 2 3 4 5 6 
#
# 1 50.1292 7.0959 17.5107 0.0000 0.0000 0.0000
# 2 7.0959 66.6388 14.5932 0.0000 0.0000 0.0000
# 3 17.5107 14.5932 102.7695 0.0000 0.0000 0.0000
# 4 0.0000 0.0000 0.0000 9.3109 0.0000 0.0000
# 5 0.0000 0.0000 0.0000 0.0000 58.4937 0.0000
# 6 0.0000 0.0000 0.0000 0.0000 0.0000 40.4659
#
#
#
# Elastic Compliance Matrix: (Units=1/GPa)
#
#
# Indices 1 2 3 4 5 6 
#
# 1 0.021360 -0.001525 -0.003423 0.000000 0.000000 0.000000
# 2 -0.001525 0.015597 -0.001955 0.000000 0.000000 0.000000
# 3 -0.003423 -0.001955 0.010591 0.000000 0.000000 0.000000
# 4 0.000000 0.000000 0.000000 0.107401 0.000000 0.000000
# 5 0.000000 0.000000 0.000000 0.000000 0.017096 0.000000
# 6 0.000000 0.000000 0.000000 0.000000 0.000000 0.024712
#
#
# Mechanical properties :
#
#
# Convention : Reuss Voigt Hill
#
# Bulk Modulus (GPa) = 29.63615 33.10412 31.37014
# Shear Modulus (GPa) = 22.54177 33.67662 28.10920
#
# Velocity S-wave (km/s) = 3.47174 4.24343 3.87683
# Velocity P-wave (km/s) = 5.64951 6.45829 6.06739
#
# Compressibility (1/GPa) = 0.03374258
#
# Stress axis : x y z
#
# Youngs Moduli (GPa) = 46.81650 64.11597 94.41685
#
# Poissons Ratio (x) = 0.09777 0.32318
# Poissons Ratio (y) = 0.07139 0.18457
# Poissons Ratio (z) = 0.16025 0.12534
#
# Static dielectric constant tensor:
#      x y z
#    x 1.750000 0.000000 0.000000 
#    y 0.000000 1.637270 0.000000 
#    z 0.000000 0.000000 1.655170 
# 
# From -- ./inp_files/19747.got.cif
#   From: 2010.05.17/outbox.cif.g08.bks.cpg/sg49_10_cif.got.tgz:19747.got - 2010.06.03 21:02:19.
