data_PCOD9392839
_publ_section_title
;
Structure prediction by ZEFSAII (Michael W. Deem and Ramdas Pophale) SiO2 
 PCOD9392839
Probable space group: P C C M
;
_chemical_formula_sum "Si O2"
_cell_formula_units_Z 64
_cell_length_a 14.540379
_cell_length_b 23.700356
_cell_length_c 8.684929
_cell_angle_alpha 90.000000
_cell_angle_beta 90.000000
_cell_angle_gamma 90.000000
_cell_volume 2992.932131
_symmetry_space_group_name_H-M "P C C M"
_symmetry_group_IT_number 49
_symmetry_cell_setting 'orthorhombic'
loop_
_space_group_symop_operation_xyz
x,y,z
-x,-y,z
x,-y,1/2-z
-x,y,1/2-z
-x,-y,-z
x,y,-z
-x,y,1/2+z
x,-y,1/2+z
loop_
_atom_site_type_symbol
_atom_site_label
_atom_site_fract_x
_atom_site_fract_y
_atom_site_fract_z
Si Si1 0.845909 0.824688 0.814717
Si Si2 0.361510 0.791868 0.314092
Si Si3 0.404966 0.916352 0.315404
Si Si4 0.700991 0.558334 0.683782
Si Si5 0.798816 0.940899 0.683662
Si Si6 0.653893 0.673673 0.176453
Si Si7 0.905833 0.414524 0.820929
Si Si8 0.873156 0.701327 0.176829
O O1 0.742455 0.807171 0.769738
O O2 0.856977 0.885954 0.738915
O O3 0.896677 0.765707 0.777993
O O4 0.850494 0.831471 0.000000
O O5 0.363283 0.786157 0.500000
O O6 0.409726 0.849821 0.275701
O O7 0.390486 0.730587 0.253146
O O8 0.500000 0.940772 0.250000
O O9 0.400776 0.923438 0.500000
O O10 0.306926 0.935838 0.246446
O O11 0.663158 0.500000 0.750000
O O12 0.703204 0.556145 0.500000
O O13 0.648735 0.614959 0.735104
O O14 0.807390 0.564605 0.743229
O O15 0.796284 0.942137 0.500000
O O16 0.835504 0.000000 0.750000
O O17 0.762254 0.691572 0.172192
O O18 0.623990 0.664619 0.000000
O O19 0.905749 0.347199 0.790493
O O20 0.000000 0.436810 0.750000
O O21 0.906631 0.426894 0.000000
O O22 0.904337 0.691444 0.000000
#
# Coordination Sequence:
#
# PCOD9392839 Si02
#       8
#     8   8   8   8   8   8   8   8
#     4   8  14  27  45  64  84 107 135 171 214 259
#     4   7  12  24  43  62  81 105 133 166 208 254
#     4  10  19  32  46  63  87 115 148 181 213 252
#     4  10  20  31  42  59  82 111 144 180 214 250
#     4  11  21  32  45  62  85 116 150 183 216 251
#     4   8  13  25  44  62  79 104 134 167 209 254
#     4  10  20  31  43  60  84 113 148 183 215 250
#     4   8  14  26  45  64  83 107 135 169 215 260
#
# _framework density 21.383713
#
# number of rings (size 3 to 8) (size 9 to 14) (size 15 to 20)
#    0.000    3.000    0.000    4.500    0.000    2.500 
#    0.000    9.375    0.000    0.000    0.000    0.000 
#    0.000    1.000    0.000   11.000    0.000    4.750 
#
# Total GULP energy -356422.206404 kJ/mol
# GULP energy per Si atom -5569.096975 kJ/mol
# Density = 2.133504 g / cm^3
# Si number density = 21.383713 Si / 1000 Ang^3
#
#
#
# Elastic Constant Matrix: (Units=GPa)
#
#
# Indices 1 2 3 4 5 6 
#
# 1 17.5257 -3.8443 -5.2729 0.0000 0.0000 0.0000
# 2 -3.8443 201.5865 34.0947 0.0000 0.0000 0.0000
# 3 -5.2729 34.0947 64.4923 0.0000 0.0000 0.0000
# 4 0.0000 0.0000 0.0000 23.4192 0.0000 0.0000
# 5 0.0000 0.0000 0.0000 0.0000 -34.7393 0.0000
# 6 0.0000 0.0000 0.0000 0.0000 0.0000 -7.7209
#
#
#
# Elastic Compliance Matrix: (Units=1/GPa)
#
#
# Indices 1 2 3 4 5 6 
#
# 1 0.058519 0.000337 0.004606 0.000000 0.000000 0.000000
# 2 0.000337 0.005450 -0.002854 0.000000 0.000000 0.000000
# 3 0.004606 -0.002854 0.017391 0.000000 0.000000 0.000000
# 4 0.000000 0.000000 0.000000 0.042700 0.000000 0.000000
# 5 0.000000 0.000000 0.000000 0.000000 -0.028786 0.000000
# 6 0.000000 0.000000 0.000000 0.000000 0.000000 -0.129518
#
#
# Mechanical properties :
#
#
# Convention : Reuss Voigt Hill
#
# Bulk Modulus (GPa) = 11.69056 37.06214 24.37635
# Shear Modulus (GPa) = -504.49669 13.43358 -245.53156
#
# Velocity S-wave (km/s) = -15.37654 2.50914 -10.72712
# Velocity P-wave (km/s) = 17.60033 5.07582 11.91653
#
# Compressibility (1/GPa) = 0.08553913
#
# Stress axis : x y z
#
# Youngs Moduli (GPa) = 17.08848 183.49657 57.50137
#
# Poissons Ratio (x) = -0.06182 -0.26487
# Poissons Ratio (y) = -0.00576 0.16408
# Poissons Ratio (z) = -0.07872 0.52361
#
# Static dielectric constant tensor:
#      x y z
#    x 1.836000 0.000000 0.000000 
#    y 0.000000 1.841140 0.000000 
#    z 0.000000 0.000000 1.728020 
# 
# From -- ./inp_files/5418.got.cif
#   From: 2010.05.17/outbox.cif.g08.bks.cpg/sg49_3_cif.got.tgz:5418.got - 2010.06.03 21:02:19.
