data_PCOD9392962
_publ_section_title
;
Structure prediction by ZEFSAII (Michael W. Deem and Ramdas Pophale) SiO2 
 PCOD9392962
Probable space group: P C C M
;
_chemical_formula_sum "Si O2"
_cell_formula_units_Z 60
_cell_length_a 16.098366
_cell_length_b 22.133115
_cell_length_c 9.555303
_cell_angle_alpha 90.000000
_cell_angle_beta 90.000000
_cell_angle_gamma 90.000000
_cell_volume 3404.621212
_symmetry_space_group_name_H-M "P C C M"
_symmetry_group_IT_number 49
_symmetry_cell_setting 'orthorhombic'
loop_
_space_group_symop_operation_xyz
x,y,z
-x,-y,z
x,-y,1/2-z
-x,y,1/2-z
-x,-y,-z
x,y,-z
-x,y,1/2+z
x,-y,1/2+z
loop_
_atom_site_type_symbol
_atom_site_label
_atom_site_fract_x
_atom_site_fract_y
_atom_site_fract_z
Si Si1 0.583407 0.144876 0.164643
Si Si2 0.000000 0.646322 0.750000
Si Si3 0.858489 0.558950 0.157805
Si Si4 0.584171 0.288606 0.166194
Si Si5 0.918239 0.121760 0.834639
Si Si6 0.741301 0.937771 0.331216
Si Si7 0.131672 0.739908 0.843277
Si Si8 0.739922 0.667722 0.832384
O O1 0.500000 0.129136 0.250000
O O2 0.599666 0.216439 0.182083
O O3 0.665681 0.107621 0.204550
O O4 0.567663 0.134175 0.000000
O O5 0.061411 0.602332 0.667059
O O6 0.057724 0.691032 0.839336
O O7 0.868154 0.500000 0.250000
O O8 0.782719 0.603120 0.197531
O O9 0.846175 0.538717 0.000000
O O10 0.500000 0.301722 0.250000
O O11 0.657096 0.323744 0.244150
O O12 0.578635 0.301305 0.000000
O O13 0.832020 0.089225 0.794839
O O14 0.902702 0.193479 0.814715
O O15 0.000000 0.102887 0.750000
O O16 0.932026 0.111694 0.000000
O O17 0.739824 0.946020 0.500000
O O18 0.729165 0.000000 0.250000
O O19 0.196536 0.718059 0.727193
O O20 0.169754 0.740400 0.000000
O O21 0.728994 0.673646 0.000000
#
# Coordination Sequence:
#
# PCOD9392962 Si02
#       8
#     8   4   8   8   8   8   8   8
#     4   9  19  36  58  84 114 142 173 215 268 331
#     4  10  19  32  54  80 107 136 178 222 270 322
#     4  10  22  36  51  74 106 144 184 224 262 310
#     4  10  19  34  58  86 114 142 173 213 268 325
#     4  10  21  37  56  78 105 140 182 230 280 329
#     4  10  22  39  56  76 106 143 185 228 270 323
#     4  10  19  33  54  78 107 140 175 219 276 330
#     4  10  21  35  52  78 110 143 182 224 265 315
#
# _framework density 17.623104999999999
#
# number of rings (size 3 to 8) (size 9 to 14) (size 15 to 20)
#    0.000    2.133    0.667    2.200    0.000    9.067 
#    0.000    4.000    0.000    0.400    0.000    2.800 
#    0.000    0.000    0.000    0.000    0.000    0.000 
#
# Total GULP energy -334731.907999 kJ/mol
# GULP energy per Si atom -5578.865133 kJ/mol
# Density = 1.758299 g / cm^3
# Si number density = 17.623105 Si / 1000 Ang^3
#
#
#
# Elastic Constant Matrix: (Units=GPa)
#
#
# Indices 1 2 3 4 5 6 
#
# 1 121.2879 40.0989 44.0476 0.0000 0.0000 0.0000
# 2 40.0989 42.8067 25.8863 0.0000 0.0000 0.0000
# 3 44.0476 25.8863 50.6870 0.0000 0.0000 0.0000
# 4 0.0000 0.0000 0.0000 19.8289 0.0000 0.0000
# 5 0.0000 0.0000 0.0000 0.0000 29.0719 0.0000
# 6 0.0000 0.0000 0.0000 0.0000 0.0000 9.1515
#
#
#
# Elastic Compliance Matrix: (Units=1/GPa)
#
#
# Indices 1 2 3 4 5 6 
#
# 1 0.013786 -0.008203 -0.007791 0.000000 0.000000 0.000000
# 2 -0.008203 0.038680 -0.012626 0.000000 0.000000 0.000000
# 3 -0.007791 -0.012626 0.032948 0.000000 0.000000 0.000000
# 4 0.000000 0.000000 0.000000 0.050432 0.000000 0.000000
# 5 0.000000 0.000000 0.000000 0.000000 0.034398 0.000000
# 6 0.000000 0.000000 0.000000 0.000000 0.000000 0.109272
#
#
# Mechanical properties :
#
#
# Convention : Reuss Voigt Hill
#
# Bulk Modulus (GPa) = 35.49343 48.31634 41.90489
# Shear Modulus (GPa) = 14.44479 18.59370 16.51925
#
# Velocity S-wave (km/s) = 2.86606 3.25172 3.06496
# Velocity P-wave (km/s) = 5.58000 6.44781 6.02954
#
# Compressibility (1/GPa) = 0.02817422
#
# Stress axis : x y z
#
# Youngs Moduli (GPa) = 72.53632 25.85329 30.35108
#
# Poissons Ratio (x) = 0.21206 0.23647
# Poissons Ratio (y) = 0.59499 0.38321
# Poissons Ratio (z) = 0.56515 0.32642
#
# Static dielectric constant tensor:
#      x y z
#    x 1.610770 0.000000 0.000000 
#    y 0.000000 1.585100 0.000000 
#    z 0.000000 0.000000 1.594440 
# 
# From -- ./inp_files/4249.got.cif
#   From: 2010.05.17/outbox.cif.g08.bks.cpg/sg49_3_cif.got.tgz:4249.got - 2010.06.03 21:02:19.
