data_PCOD9392572
_publ_section_title
;
Structure prediction by ZEFSAII (Michael W. Deem and Ramdas Pophale) SiO2 
 PCOD9392572
Probable space group: P C C M
;
_chemical_formula_sum "Si O2"
_cell_formula_units_Z 48
_cell_length_a 8.746085
_cell_length_b 29.031927
_cell_length_c 10.115784
_cell_angle_alpha 90.000000
_cell_angle_beta 90.000000
_cell_angle_gamma 90.000000
_cell_volume 2568.556388
_symmetry_space_group_name_H-M "P C C M"
_symmetry_group_IT_number 49
_symmetry_cell_setting 'orthorhombic'
loop_
_space_group_symop_operation_xyz
x,y,z
-x,-y,z
x,-y,1/2-z
-x,y,1/2-z
-x,-y,-z
x,y,-z
-x,y,1/2+z
x,-y,1/2+z
loop_
_atom_site_type_symbol
_atom_site_label
_atom_site_fract_x
_atom_site_fract_y
_atom_site_fract_z
Si Si1 0.646457 0.866700 0.844578
Si Si2 0.845796 0.958664 0.839045
Si Si3 0.301767 0.286582 0.500000
Si Si4 0.683236 0.554419 0.252449
Si Si5 0.328371 0.705153 0.500000
Si Si6 0.816653 0.395335 0.500000
Si Si7 0.314099 0.768680 0.257979
Si Si8 0.181022 0.609260 0.000000
O O1 0.500000 0.872787 0.750000
O O2 0.747927 0.912288 0.835844
O O3 0.731930 0.820698 0.792743
O O4 0.604216 0.858986 0.000000
O O5 0.000000 0.950958 0.750000
O O6 0.771768 0.000000 0.750000
O O7 0.866344 0.968883 0.000000
O O8 0.486086 0.294887 0.500000
O O9 0.259858 0.255269 0.374994
O O10 0.230081 0.337223 0.500000
O O11 0.717032 0.500000 0.250000
O O12 0.500000 0.559799 0.250000
O O13 0.751062 0.581846 0.375778
O O14 0.757331 0.577301 0.125721
O O15 0.260626 0.654645 0.500000
O O16 0.275305 0.733801 0.374042
O O17 0.998567 0.392315 0.500000
O O18 0.500000 0.770982 0.250000
#
# Coordination Sequence:
#
# PCOD9392572 Si02
#       8
#     8   8   4   8   4   4   8   4
#     4  10  21  36  58  88 122 153 196 250 303 357
#     4  10  21  39  59  84 115 157 205 251 303 368
#     4  10  20  35  57  82 111 154 198 245 281 360
#     4  11  24  43  66  90 119 159 208 251 294 364
#     4  10  18  35  59  78 111 152 198 235 285 352
#     4  12  25  39  62  93 124 163 191 252 315 355
#     4   9  18  33  55  83 109 145 196 242 290 338
#     4  12  25  41  60  93 130 155 201 248 315 369
#
# _framework density 18.687541
#
# number of rings (size 3 to 8) (size 9 to 14) (size 15 to 20)
#    0.000    1.667    0.833    4.500    3.500    6.333 
#    0.000    3.333    0.000    0.000    0.000    0.000 
#    0.000    0.000    0.000    0.000    0.000    0.000 
#
# Total GULP energy -267733.540852 kJ/mol
# GULP energy per Si atom -5577.782101 kJ/mol
# Density = 1.864501 g / cm^3
# Si number density = 18.687541 Si / 1000 Ang^3
#
#
#
# Elastic Constant Matrix: (Units=GPa)
#
#
# Indices 1 2 3 4 5 6 
#
# 1 50.5191 65.5931 50.0111 0.0000 0.0000 0.0000
# 2 65.5931 200.1386 110.0966 0.0000 0.0000 0.0000
# 3 50.0111 110.0966 215.8571 0.0000 0.0000 0.0000
# 4 0.0000 0.0000 0.0000 40.1019 0.0000 0.0000
# 5 0.0000 0.0000 0.0000 0.0000 16.9882 0.0000
# 6 0.0000 0.0000 0.0000 0.0000 0.0000 -16.6596
#
#
#
# Elastic Compliance Matrix: (Units=1/GPa)
#
#
# Indices 1 2 3 4 5 6 
#
# 1 0.036007 -0.010024 -0.003229 0.000000 0.000000 0.000000
# 2 -0.010024 0.009736 -0.002643 0.000000 0.000000 0.000000
# 3 -0.003229 -0.002643 0.006729 0.000000 0.000000 0.000000
# 4 0.000000 0.000000 0.000000 0.024936 0.000000 0.000000
# 5 0.000000 0.000000 0.000000 0.000000 0.058865 0.000000
# 6 0.000000 0.000000 0.000000 0.000000 0.000000 -0.060025
#
#
# Mechanical properties :
#
#
# Convention : Reuss Voigt Hill
#
# Bulk Modulus (GPa) = 48.36099 101.99070 75.17585
# Shear Modulus (GPa) = 43.50322 24.14036 33.82179
#
# Velocity S-wave (km/s) = 4.83009 3.59805 4.25886
# Velocity P-wave (km/s) = 7.55257 8.48272 8.03112
#
# Compressibility (1/GPa) = 0.02067782
#
# Stress axis : x y z
#
# Youngs Moduli (GPa) = 27.77256 102.71220 148.60827
#
# Poissons Ratio (x) = 1.02961 0.47992
# Poissons Ratio (y) = 0.27840 0.39281
# Poissons Ratio (z) = 0.08969 0.27150
#
# Static dielectric constant tensor:
#      x y z
#    x 1.633820 0.000000 0.000000 
#    y 0.000000 1.642890 0.000000 
#    z 0.000000 0.000000 0.548060 
# 
# From -- ./inp_files/2192.got.cif
#   From: 2010.05.17/outbox.cif.g08.bks.cpg/sg49_2_cif.got.tgz:2192.got - 2010.06.03 21:02:19.
