data_PCOD9392610
_publ_section_title
;
Structure prediction by ZEFSAII (Michael W. Deem and Ramdas Pophale) SiO2 
 PCOD9392610
Probable space group: P C C M
;
_chemical_formula_sum "Si O2"
_cell_formula_units_Z 34
_cell_length_a 12.788658
_cell_length_b 9.361243
_cell_length_c 11.266627
_cell_angle_alpha 90.000000
_cell_angle_beta 90.000000
_cell_angle_gamma 90.000000
_cell_volume 1348.815068
_symmetry_space_group_name_H-M "P C C M"
_symmetry_group_IT_number 49
_symmetry_cell_setting 'orthorhombic'
loop_
_space_group_symop_operation_xyz
x,y,z
-x,-y,z
x,-y,1/2-z
-x,y,1/2-z
-x,-y,-z
x,y,-z
-x,y,1/2+z
x,-y,1/2+z
loop_
_atom_site_type_symbol
_atom_site_label
_atom_site_fract_x
_atom_site_fract_y
_atom_site_fract_z
Si Si1 0.317415 0.984306 0.125555
Si Si2 0.210984 0.289176 0.869884
Si Si3 0.861069 0.762670 0.368854
Si Si4 0.546380 0.341612 0.369974
Si Si5 0.000000 0.000000 0.250000
O O1 0.233626 0.116894 0.129003
O O2 0.374445 0.000000 0.250000
O O3 0.253549 0.837063 0.124536
O O4 0.372550 0.998613 0.000000
O O5 0.145536 0.326735 0.753035
O O6 0.328327 0.350320 0.860910
O O7 0.167332 0.326504 0.000000
O O8 0.883149 0.702236 0.500000
O O9 0.937775 0.892740 0.336339
O O10 0.500000 0.500000 0.373249
O O11 0.500000 0.274683 0.250000
O O12 0.521564 0.277559 0.500000
#
# Coordination Sequence:
#
# PCOD9392610 Si02
#       5
#     8   8   8   8   2
#     4   8  13  24  38  56  81 119 160 194 230 274
#     4   9  16  29  46  64  93 130 165 205 257 304
#     4  10  19  28  43  67  97 137 178 212 243 288
#     4   9  18  32  51  74  97 122 157 208 263 315
#     4  12  18  28  44  70 104 138 176 218 246 280
#
# _framework density 25.20731
#
# number of rings (size 3 to 8) (size 9 to 14) (size 15 to 20)
#    0.000    2.824    3.529    0.353    0.000    1.882 
#    0.000    0.000    0.000    6.353    0.000   37.882 
#    0.000    3.765    0.000   33.647    0.000   12.235 
#
# Total GULP energy -189534.531854 kJ/mol
# GULP energy per Si atom -5574.545055 kJ/mol
# Density = 2.514994 g / cm^3
# Si number density = 25.207310 Si / 1000 Ang^3
#
#
#
# Elastic Constant Matrix: (Units=GPa)
#
#
# Indices 1 2 3 4 5 6 
#
# 1 43.5913 8.3238 41.1965 0.0000 0.0000 0.0000
# 2 8.3238 52.8227 -1.9346 0.0000 0.0000 0.0000
# 3 41.1965 -1.9346 384.7739 0.0000 0.0000 0.0000
# 4 0.0000 0.0000 0.0000 -14.4137 0.0000 0.0000
# 5 0.0000 0.0000 0.0000 0.0000 7.0923 0.0000
# 6 0.0000 0.0000 0.0000 0.0000 0.0000 7.5324
#
#
#
# Elastic Compliance Matrix: (Units=1/GPa)
#
#
# Indices 1 2 3 4 5 6 
#
# 1 0.026453 -0.004273 -0.002854 0.000000 0.000000 0.000000
# 2 -0.004273 0.019625 0.000556 0.000000 0.000000 0.000000
# 3 -0.002854 0.000556 0.002907 0.000000 0.000000 0.000000
# 4 0.000000 0.000000 0.000000 -0.069378 0.000000 0.000000
# 5 0.000000 0.000000 0.000000 0.000000 0.140997 0.000000
# 6 0.000000 0.000000 0.000000 0.000000 0.000000 0.132760
#
#
# Mechanical properties :
#
#
# Convention : Reuss Voigt Hill
#
# Bulk Modulus (GPa) = 27.89840 64.03990 45.96915
# Shear Modulus (GPa) = 17.95628 28.94900 23.45264
#
# Velocity S-wave (km/s) = 2.67187 3.39254 3.05354
# Velocity P-wave (km/s) = 4.53984 6.38797 5.54149
#
# Compressibility (1/GPa) = 0.03584435
#
# Stress axis : x y z
#
# Youngs Moduli (GPa) = 37.80249 50.95548 343.96561
#
# Poissons Ratio (x) = 0.21773 0.98159
# Poissons Ratio (y) = 0.16153 -0.19130
# Poissons Ratio (z) = 0.10788 -0.02834
#
# Static dielectric constant tensor:
#      x y z
#    x 1.962700 0.000000 0.000000 
#    y 0.000000 1.961480 0.000000 
#    z 0.000000 0.000000 2.114360 
# 
# From -- ./inp_files/8608.got.cif
#   From: 2010.05.17/outbox.cif.g08.bks.cpg/sg49_5_cif.got.tgz:8608.got - 2010.06.03 21:02:19.
