data_PCOD9392980
_publ_section_title
;
Structure prediction by ZEFSAII (Michael W. Deem and Ramdas Pophale) SiO2 
 PCOD9392980
Probable space group: P C C M
;
_chemical_formula_sum "Si O2"
_cell_formula_units_Z 54
_cell_length_a 13.502554
_cell_length_b 6.827516
_cell_length_c 28.374389
_cell_angle_alpha 90.000000
_cell_angle_beta 90.000000
_cell_angle_gamma 90.000000
_cell_volume 2615.803809
_symmetry_space_group_name_H-M "P C C M"
_symmetry_group_IT_number 49
_symmetry_cell_setting 'orthorhombic'
loop_
_space_group_symop_operation_xyz
x,y,z
-x,-y,z
x,-y,1/2-z
-x,y,1/2-z
-x,-y,-z
x,y,-z
-x,y,1/2+z
x,-y,1/2+z
loop_
_atom_site_type_symbol
_atom_site_label
_atom_site_fract_x
_atom_site_fract_y
_atom_site_fract_z
Si Si1 0.500000 0.500000 0.750000
Si Si2 0.204219 0.215305 0.052859
Si Si3 0.893001 0.941667 0.369873
Si Si4 0.704587 0.237962 0.834600
Si Si5 0.386814 0.041693 0.904235
Si Si6 0.104929 0.388919 0.551783
Si Si7 0.307076 0.000000 0.750000
Si Si8 0.337210 0.680744 0.684046
O O1 0.431590 0.627757 0.715761
O O2 0.189468 0.447651 0.058867
O O3 0.149432 0.117295 0.097557
O O4 0.314780 0.129973 0.056329
O O5 0.163438 0.173777 0.000000
O O6 0.813734 0.858413 0.333009
O O7 0.901038 0.768200 0.407772
O O8 0.000000 0.000000 0.350808
O O9 0.658309 0.160205 0.883185
O O10 0.645161 0.129854 0.792265
O O11 0.707007 0.469843 0.829294
O O12 0.500000 0.000000 0.916465
O O13 0.372535 0.198209 0.861464
O O14 0.119597 0.298564 0.500000
O O15 0.000000 0.500000 0.551304
O O16 0.268244 0.817753 0.717454
#
# Coordination Sequence:
#
# PCOD9392980 Si02
#       8
#     2   8   8   8   8   8   4   8
#     4  12  20  30  60  88 112 146 196 234 304 348
#     4  10  21  37  56  83 115 153 197 240 293 353
#     4  11  21  35  58  85 112 149 187 238 293 355
#     4  10  21  38  55  81 114 149 185 235 296 345
#     4  10  22  36  55  80 117 157 194 240 288 346
#     4  10  19  32  55  84 113 143 181 239 298 344
#     4  10  20  37  55  78 108 146 190 230 284 346
#     4  11  21  35  55  84 116 150 187 246 295 352
#
# _framework density 20.643750000000001
#
# number of rings (size 3 to 8) (size 9 to 14) (size 15 to 20)
#    0.000    1.630    2.963    2.222    2.074    0.889 
#    0.000    0.370    0.000    0.000    0.000    8.815 
#    0.000    0.000    0.000    0.000    0.000    0.000 
#
# Total GULP energy -300764.578908 kJ/mol
# GULP energy per Si atom -5569.714424 kJ/mol
# Density = 2.059676 g / cm^3
# Si number density = 20.643750 Si / 1000 Ang^3
#
#
#
# Elastic Constant Matrix: (Units=GPa)
#
#
# Indices 1 2 3 4 5 6 
#
# 1 107.6648 25.5042 3.1520 0.0000 0.0000 0.0000
# 2 25.5042 123.1743 21.8761 0.0000 0.0000 0.0000
# 3 3.1520 21.8761 49.3521 0.0000 0.0000 0.0000
# 4 0.0000 0.0000 0.0000 33.2968 0.0000 0.0000
# 5 0.0000 0.0000 0.0000 0.0000 22.4129 0.0000
# 6 0.0000 0.0000 0.0000 0.0000 0.0000 26.7239
#
#
#
# Elastic Compliance Matrix: (Units=1/GPa)
#
#
# Indices 1 2 3 4 5 6 
#
# 1 0.009771 -0.002076 0.000296 0.000000 0.000000 0.000000
# 2 -0.002076 0.009253 -0.003969 0.000000 0.000000 0.000000
# 3 0.000296 -0.003969 0.022003 0.000000 0.000000 0.000000
# 4 0.000000 0.000000 0.000000 0.030033 0.000000 0.000000
# 5 0.000000 0.000000 0.000000 0.000000 0.044617 0.000000
# 6 0.000000 0.000000 0.000000 0.000000 0.000000 0.037420
#
#
# Mechanical properties :
#
#
# Convention : Reuss Voigt Hill
#
# Bulk Modulus (GPa) = 33.86405 42.36175 38.11290
# Shear Modulus (GPa) = 28.66344 31.79730 30.23037
#
# Velocity S-wave (km/s) = 3.73027 3.92891 3.83088
# Velocity P-wave (km/s) = 5.91548 6.41457 6.17007
#
# Compressibility (1/GPa) = 0.02952984
#
# Stress axis : x y z
#
# Youngs Moduli (GPa) = 102.34223 108.06949 45.44829
#
# Poissons Ratio (x) = 0.22433 -0.01345
# Poissons Ratio (y) = 0.21244 0.18039
# Poissons Ratio (z) = -0.03030 0.42894
#
# Static dielectric constant tensor:
#      x y z
#    x 1.794750 0.000000 0.000000 
#    y 0.000000 1.763420 0.000000 
#    z 0.000000 0.000000 1.770280 
# 
# From -- ./inp_files/26812.got.cif
#   From: 2010.05.17/outbox.cif.g08.bks.cpg/sg49_14_cif.got.tgz:26812.got - 2010.06.03 21:02:19.
