data_PCOD9392981
_publ_section_title
;
Structure prediction by ZEFSAII (Michael W. Deem and Ramdas Pophale) SiO2 
 PCOD9392981
Probable space group: P C C M
;
_chemical_formula_sum "Si O2"
_cell_formula_units_Z 54
_cell_length_a 16.028471
_cell_length_b 6.854129
_cell_length_c 26.423953
_cell_angle_alpha 90.000000
_cell_angle_beta 90.000000
_cell_angle_gamma 90.000000
_cell_volume 2902.967394
_symmetry_space_group_name_H-M "P C C M"
_symmetry_group_IT_number 49
_symmetry_cell_setting 'orthorhombic'
loop_
_space_group_symop_operation_xyz
x,y,z
-x,-y,z
x,-y,1/2-z
-x,y,1/2-z
-x,-y,-z
x,y,-z
-x,y,1/2+z
x,-y,1/2+z
loop_
_atom_site_type_symbol
_atom_site_label
_atom_site_fract_x
_atom_site_fract_y
_atom_site_fract_z
Si Si1 0.106776 0.166107 0.339374
Si Si2 0.000000 0.500000 0.604797
Si Si3 0.148003 0.245280 0.890793
Si Si4 0.000000 0.000000 0.750000
Si Si5 0.323405 0.223411 0.057050
Si Si6 0.406972 0.507423 0.135834
Si Si7 0.577284 0.852078 0.443502
Si Si8 0.233220 0.525441 0.190262
O O1 0.049339 0.331054 0.364990
O O2 0.194771 0.268764 0.327884
O O3 0.060141 0.118427 0.287171
O O4 0.118061 0.968959 0.372376
O O5 0.924934 0.370598 0.582222
O O6 0.228328 0.245318 0.926425
O O7 0.180677 0.360926 0.840503
O O8 0.382462 0.332161 0.097428
O O9 0.344104 0.995283 0.057262
O O10 0.338543 0.296837 0.000000
O O11 0.500000 0.500000 0.158699
O O12 0.411703 0.694093 0.099281
O O13 0.330141 0.515749 0.174470
O O14 0.567435 0.766024 0.500000
O O15 0.500000 0.000000 0.436141
O O16 0.222509 0.500000 0.250000
#
# Coordination Sequence:
#
# PCOD9392981 Si02
#       8
#     8   4   8   2   8   8   8   8
#     4  11  21  35  55  81 112 140 179 231 283 330
#     4  10  20  35  55  82 108 144 180 220 274 332
#     4  10  20  38  56  80 116 149 180 230 283 330
#     4  12  20  30  60  88 100 142 180 242 284 328
#     4  10  21  36  58  85 113 146 187 229 282 339
#     4  11  21  36  58  82 112 150 187 234 283 329
#     4  10  19  32  55  85 111 139 180 233 286 332
#     4  10  23  37  54  79 112 152 189 229 277 337
#
# _framework density 18.601655000000001
#
# number of rings (size 3 to 8) (size 9 to 14) (size 15 to 20)
#    0.000    1.630    2.963    2.222    2.074    0.889 
#    0.000    0.370    0.000    1.778    0.000    0.000 
#    0.000    0.000    0.000    0.000    0.000    0.000 
#
# Total GULP energy -300963.330719 kJ/mol
# GULP energy per Si atom -5573.395013 kJ/mol
# Density = 1.855932 g / cm^3
# Si number density = 18.601655 Si / 1000 Ang^3
#
#
#
# Elastic Constant Matrix: (Units=GPa)
#
#
# Indices 1 2 3 4 5 6 
#
# 1 112.4701 19.9510 -4.2370 0.0000 0.0000 0.0000
# 2 19.9510 79.8740 -1.1219 0.0000 0.0000 0.0000
# 3 -4.2370 -1.1219 15.1002 0.0000 0.0000 0.0000
# 4 0.0000 0.0000 0.0000 3.4603 0.0000 0.0000
# 5 0.0000 0.0000 0.0000 0.0000 20.6889 0.0000
# 6 0.0000 0.0000 0.0000 0.0000 0.0000 31.5568
#
#
#
# Elastic Compliance Matrix: (Units=1/GPa)
#
#
# Indices 1 2 3 4 5 6 
#
# 1 0.009394 -0.002312 0.002464 0.000000 0.000000 0.000000
# 2 -0.002312 0.013102 0.000325 0.000000 0.000000 0.000000
# 3 0.002464 0.000325 0.066940 0.000000 0.000000 0.000000
# 4 0.000000 0.000000 0.000000 0.288989 0.000000 0.000000
# 5 0.000000 0.000000 0.000000 0.000000 0.048335 0.000000
# 6 0.000000 0.000000 0.000000 0.000000 0.000000 0.031689
#
#
# Mechanical properties :
#
#
# Convention : Reuss Voigt Hill
#
# Bulk Modulus (GPa) = 11.06320 26.29204 18.67762
# Shear Modulus (GPa) = 10.25380 23.99804 17.12592
#
# Velocity S-wave (km/s) = 2.35038 3.59570 3.03754
# Velocity P-wave (km/s) = 3.65048 5.60390 4.72915
#
# Compressibility (1/GPa) = 0.09038977
#
# Stress axis : x y z
#
# Youngs Moduli (GPa) = 106.44880 76.32578 14.93881
#
# Poissons Ratio (x) = 0.17646 -0.03681
# Poissons Ratio (y) = 0.24610 -0.00485
# Poissons Ratio (z) = -0.26231 -0.02479
#
# Static dielectric constant tensor:
#      x y z
#    x 1.709830 0.000000 0.000000 
#    y 0.000000 1.652550 0.000000 
#    z 0.000000 0.000000 1.554170 
# 
# From -- ./inp_files/26813.got.cif
#   From: 2010.05.17/outbox.cif.g08.bks.cpg/sg49_14_cif.got.tgz:26813.got - 2010.06.03 21:02:19.
