data_PCOD9392264
_publ_section_title
;
Structure prediction by ZEFSAII (Michael W. Deem and Ramdas Pophale) SiO2 
 PCOD9392264
Probable space group: P C C M
;
_chemical_formula_sum "Si O2"
_cell_formula_units_Z 64
_cell_length_a 14.860717
_cell_length_b 25.430981
_cell_length_c 8.714657
_cell_angle_alpha 90.000000
_cell_angle_beta 90.000000
_cell_angle_gamma 90.000000
_cell_volume 3293.465933
_symmetry_space_group_name_H-M "P C C M"
_symmetry_group_IT_number 49
_symmetry_cell_setting 'orthorhombic'
loop_
_space_group_symop_operation_xyz
x,y,z
-x,-y,z
x,-y,1/2-z
-x,y,1/2-z
-x,-y,-z
x,y,-z
-x,y,1/2+z
x,-y,1/2+z
loop_
_atom_site_type_symbol
_atom_site_label
_atom_site_fract_x
_atom_site_fract_y
_atom_site_fract_z
Si Si1 0.908294 0.059790 0.183821
Si Si2 0.281835 0.752941 0.182456
Si Si3 0.402146 0.855033 0.816973
Si Si4 0.904923 0.601645 0.184302
Si Si5 0.399851 0.341933 0.184277
Si Si6 0.722371 0.058644 0.682965
Si Si7 0.714106 0.443632 0.685140
Si Si8 0.095261 0.725632 0.316619
O O1 0.814410 0.082391 0.244785
O O2 0.000000 0.084405 0.250000
O O3 0.907163 0.000000 0.250000
O O4 0.910450 0.058531 0.000000
O O5 0.336716 0.805982 0.213383
O O6 0.336294 0.704789 0.256944
O O7 0.181661 0.754496 0.249380
O O8 0.277493 0.745063 0.000000
O O9 0.500000 0.843442 0.750000
O O10 0.360001 0.905654 0.735283
O O11 0.406857 0.863323 0.000000
O O12 0.815548 0.571483 0.236910
O O13 0.895349 0.663482 0.225539
O O14 0.000000 0.582366 0.250000
O O15 0.908714 0.598743 0.000000
O O16 0.500000 0.336920 0.250000
O O17 0.353484 0.397011 0.230778
O O18 0.403125 0.339908 0.000000
O O19 0.731085 0.056044 0.500000
O O20 0.711689 0.000000 0.750000
O O21 0.688057 0.500000 0.750000
O O22 0.715028 0.445440 0.500000
O O23 0.094612 0.729253 0.500000
O O24 0.000000 0.744055 0.250000
#
# Coordination Sequence:
#
# PCOD9392264 Si02
#       8
#     8   8   8   8   8   8   8   8
#     4  10  17  29  51  82 119 158 201 247 293 346
#     4  11  23  40  65  94 123 157 198 244 300 358
#     4  11  25  44  64  91 123 156 200 252 303 359
#     4   9  18  34  54  81 114 152 192 237 289 347
#     4  11  23  41  62  86 116 150 197 250 303 364
#     4  11  22  39  63  91 124 164 206 249 301 358
#     4  10  22  39  56  80 116 154 196 246 300 355
#     4  10  19  35  60  90 125 160 199 244 294 356
#
# _framework density 19.432414999999999
#
# number of rings (size 3 to 8) (size 9 to 14) (size 15 to 20)
#    0.000    1.625    1.250    5.250    0.000    5.750 
#    0.000    4.375    0.000    3.000    0.000    0.000 
#    0.000    0.000    0.000    0.000    0.000    0.000 
#
# Total GULP energy -357670.192128 kJ/mol
# GULP energy per Si atom -5588.596752 kJ/mol
# Density = 1.938819 g / cm^3
# Si number density = 19.432415 Si / 1000 Ang^3
#
#
#
# Elastic Constant Matrix: (Units=GPa)
#
#
# Indices 1 2 3 4 5 6 
#
# 1 152.3485 54.3541 56.8017 0.0000 0.0000 0.0000
# 2 54.3541 63.8527 53.3636 0.0000 0.0000 0.0000
# 3 56.8017 53.3636 94.3269 0.0000 0.0000 0.0000
# 4 0.0000 0.0000 0.0000 -21.2139 0.0000 0.0000
# 5 0.0000 0.0000 0.0000 0.0000 37.4703 0.0000
# 6 0.0000 0.0000 0.0000 0.0000 0.0000 -13.2629
#
#
#
# Elastic Compliance Matrix: (Units=1/GPa)
#
#
# Indices 1 2 3 4 5 6 
#
# 1 0.009664 -0.006379 -0.002211 0.000000 0.000000 0.000000
# 2 -0.006379 0.033916 -0.015346 0.000000 0.000000 0.000000
# 3 -0.002211 -0.015346 0.020615 0.000000 0.000000 0.000000
# 4 0.000000 0.000000 0.000000 -0.047139 0.000000 0.000000
# 5 0.000000 0.000000 0.000000 0.000000 0.026688 0.000000
# 6 0.000000 0.000000 0.000000 0.000000 0.000000 -0.075398
#
#
# Mechanical properties :
#
#
# Convention : Reuss Voigt Hill
#
# Bulk Modulus (GPa) = 61.26279 71.06300 66.16290
# Shear Modulus (GPa) = 230.85926 10.33262 120.59594
#
# Velocity S-wave (km/s) = 10.91142 2.30841 7.88631
# Velocity P-wave (km/s) = 13.79637 6.61466 10.81882
#
# Compressibility (1/GPa) = 0.01632312
#
# Stress axis : x y z
#
# Youngs Moduli (GPa) = 103.47754 29.48436 48.50929
#
# Poissons Ratio (x) = 0.18807 0.10724
# Poissons Ratio (y) = 0.66006 0.74444
# Poissons Ratio (z) = 0.22876 0.45248
#
# Static dielectric constant tensor:
#      x y z
#    x 1.694680 0.000000 0.000000 
#    y 0.000000 1.673090 0.000000 
#    z 0.000000 0.000000 1.649650 
# 
# From -- ./inp_files/4339.got.cif
#   From: 2010.05.17/outbox.cif.g08.bks.cpg/sg49_3_cif.got.tgz:4339.got - 2010.06.03 21:02:19.
