data_PCOD9392100
_publ_section_title
;
Structure prediction by ZEFSAII (Michael W. Deem and Ramdas Pophale) SiO2 
 PCOD9392100
Probable space group: P C C M
;
_chemical_formula_sum "Si O2"
_cell_formula_units_Z 64
_cell_length_a 26.908205
_cell_length_b 18.914567
_cell_length_c 8.759054
_cell_angle_alpha 90.000000
_cell_angle_beta 90.000000
_cell_angle_gamma 90.000000
_cell_volume 4457.982252
_symmetry_space_group_name_H-M "P C C M"
_symmetry_group_IT_number 49
_symmetry_cell_setting 'orthorhombic'
loop_
_space_group_symop_operation_xyz
x,y,z
-x,-y,z
x,-y,1/2-z
-x,y,1/2-z
-x,-y,-z
x,y,-z
-x,y,1/2+z
x,-y,1/2+z
loop_
_atom_site_type_symbol
_atom_site_label
_atom_site_fract_x
_atom_site_fract_y
_atom_site_fract_z
Si Si1 0.751038 0.151316 0.681312
Si Si2 0.353156 0.922867 0.318440
Si Si3 0.551961 0.350030 0.184696
Si Si4 0.846785 0.078997 0.182095
Si Si5 0.294201 0.716321 0.175820
Si Si6 0.345107 0.423161 0.315475
Si Si7 0.949233 0.080057 0.683148
Si Si8 0.402239 0.792441 0.824864
O O1 0.758160 0.143005 0.500000
O O2 0.701697 0.106531 0.726898
O O3 0.798610 0.122971 0.770314
O O4 0.739352 0.232459 0.723489
O O5 0.353784 0.926977 0.500000
O O6 0.393039 0.864562 0.264574
O O7 0.361385 0.000000 0.250000
O O8 0.500000 0.376267 0.250000
O O9 0.599799 0.396193 0.231651
O O10 0.561451 0.268639 0.236121
O O11 0.550899 0.349349 0.000000
O O12 0.897239 0.110373 0.255842
O O13 0.840195 0.000000 0.250000
O O14 0.852199 0.074450 0.000000
O O15 0.305386 0.637002 0.230895
O O16 0.348781 0.752744 0.173204
O O17 0.276426 0.715259 0.000000
O O18 0.335085 0.500000 0.250000
O O19 0.344729 0.424511 0.500000
O O20 0.950624 0.078074 0.500000
O O21 0.000000 0.112726 0.750000
O O22 0.948431 0.000000 0.750000
O O23 0.415483 0.808835 0.000000
#
# Coordination Sequence:
#
# PCOD9392100 Si02
#       8
#     8   8   8   8   8   8   8   8
#     4  10  19  29  41  60  82 105 134 167 204 247
#     4  10  19  28  41  60  80 101 127 159 198 240
#     4   9  18  31  46  64  84 107 131 158 192 232
#     4  11  20  29  40  56  79 108 141 179 220 255
#     4   8  15  29  45  59  78 106 134 161 193 234
#     4   9  18  31  46  65  88 111 136 162 192 227
#     4  10  17  27  40  54  73 100 137 179 220 260
#     4   8  15  29  45  58  76 101 129 158 191 231
#
# _framework density 14.356271
#
# number of rings (size 3 to 8) (size 9 to 14) (size 15 to 20)
#    0.000    2.625    0.000    6.000    0.000    4.250 
#    0.000    3.750    0.000    0.375    0.000    2.625 
#    0.000    0.000    0.000    0.000    0.000    0.625 
#
# Total GULP energy -356522.949932 kJ/mol
# GULP energy per Si atom -5570.671093 kJ/mol
# Density = 1.432360 g / cm^3
# Si number density = 14.356271 Si / 1000 Ang^3
#
#
#
# Elastic Constant Matrix: (Units=GPa)
#
#
# Indices 1 2 3 4 5 6 
#
# 1 34.3524 12.9641 12.6955 0.0000 0.0000 0.0000
# 2 12.9641 87.1146 18.5165 0.0000 0.0000 0.0000
# 3 12.6955 18.5165 53.8504 0.0000 0.0000 0.0000
# 4 0.0000 0.0000 0.0000 21.1600 0.0000 0.0000
# 5 0.0000 0.0000 0.0000 0.0000 18.4993 0.0000
# 6 0.0000 0.0000 0.0000 0.0000 0.0000 8.9461
#
#
#
# Elastic Compliance Matrix: (Units=1/GPa)
#
#
# Indices 1 2 3 4 5 6 
#
# 1 0.032847 -0.003498 -0.006541 0.000000 0.000000 0.000000
# 2 -0.003498 0.012757 -0.003562 0.000000 0.000000 0.000000
# 3 -0.006541 -0.003562 0.021337 0.000000 0.000000 0.000000
# 4 0.000000 0.000000 0.000000 0.047259 0.000000 0.000000
# 5 0.000000 0.000000 0.000000 0.000000 0.054056 0.000000
# 6 0.000000 0.000000 0.000000 0.000000 0.000000 0.111780
#
#
# Mechanical properties :
#
#
# Convention : Reuss Voigt Hill
#
# Bulk Modulus (GPa) = 25.16403 29.29663 27.23033
# Shear Modulus (GPa) = 15.60137 18.46384 17.03261
#
# Velocity S-wave (km/s) = 3.30013 3.59014 3.44819
# Velocity P-wave (km/s) = 5.66458 6.13487 5.90441
#
# Compressibility (1/GPa) = 0.03973926
#
# Stress axis : x y z
#
# Youngs Moduli (GPa) = 30.44374 78.38989 46.86740
#
# Poissons Ratio (x) = 0.27420 0.30657
# Poissons Ratio (y) = 0.10649 0.16693
# Poissons Ratio (z) = 0.19914 0.27921
#
# Static dielectric constant tensor:
#      x y z
#    x 1.490490 0.000000 0.000000 
#    y 0.000000 1.471880 0.000000 
#    z 0.000000 0.000000 1.485020 
# 
# From -- ./inp_files/6788.got.cif
#   From: 2010.05.17/outbox.cif.g08.bks.cpg/sg49_4_cif.got.tgz:6788.got - 2010.06.03 21:02:19.
