data_PCOD9392889
_publ_section_title
;
Structure prediction by ZEFSAII (Michael W. Deem and Ramdas Pophale) SiO2 
 PCOD9392889
Probable space group: P C C M
;
_chemical_formula_sum "Si O2"
_cell_formula_units_Z 64
_cell_length_a 24.120835
_cell_length_b 19.655550
_cell_length_c 8.606966
_cell_angle_alpha 90.000000
_cell_angle_beta 90.000000
_cell_angle_gamma 90.000000
_cell_volume 4080.633832
_symmetry_space_group_name_H-M "P C C M"
_symmetry_group_IT_number 49
_symmetry_cell_setting 'orthorhombic'
loop_
_space_group_symop_operation_xyz
x,y,z
-x,-y,z
x,-y,1/2-z
-x,y,1/2-z
-x,-y,-z
x,y,-z
-x,y,1/2+z
x,-y,1/2+z
loop_
_atom_site_type_symbol
_atom_site_label
_atom_site_fract_x
_atom_site_fract_y
_atom_site_fract_z
Si Si1 0.272186 0.217034 0.688183
Si Si2 0.757846 0.927811 0.313270
Si Si3 0.333589 0.349176 0.312563
Si Si4 0.060875 0.788098 0.685299
Si Si5 0.888586 0.926740 0.313553
Si Si6 0.439820 0.576050 0.314395
Si Si7 0.161035 0.700759 0.186745
Si Si8 0.224782 0.424627 0.185844
O O1 0.274272 0.214928 0.500000
O O2 0.273811 0.139513 0.744041
O O3 0.317706 0.272217 0.737261
O O4 0.212370 0.249171 0.728075
O O5 0.755203 0.929671 0.500000
O O6 0.823136 0.920234 0.272171
O O7 0.738020 0.000000 0.250000
O O8 0.334948 0.352211 0.500000
O O9 0.390807 0.375835 0.244056
O O10 0.282873 0.396116 0.253975
O O11 0.060820 0.786827 0.500000
O O12 0.079352 0.862964 0.743143
O O13 0.105412 0.734256 0.749774
O O14 0.000000 0.773367 0.750000
O O15 0.893184 0.925159 0.500000
O O16 0.907619 0.000000 0.250000
O O17 0.429107 0.500000 0.250000
O O18 0.500000 0.597004 0.250000
O O19 0.441313 0.573546 0.500000
O O20 0.177890 0.628166 0.257227
O O21 0.159032 0.696070 0.000000
O O22 0.215198 0.500000 0.250000
O O23 0.227724 0.425189 0.000000
#
# Coordination Sequence:
#
# PCOD9392889 Si02
#       8
#     8   8   8   8   8   8   8   8
#     4   8  15  29  49  69  95 128 160 195 243 291
#     4   9  16  28  45  68  95 128 160 194 237 289
#     4  10  19  32  50  73 101 136 172 210 250 289
#     4  12  24  37  53  73  95 125 162 201 244 295
#     4  10  19  33  51  71  97 126 161 201 243 291
#     4  11  21  34  50  70  99 136 176 213 247 291
#     4  10  19  36  55  73  97 126 157 199 247 296
#     4  11  21  34  52  78 104 131 163 201 245 294
#
# _framework density 15.683837
#
# number of rings (size 3 to 8) (size 9 to 14) (size 15 to 20)
#    0.000    1.875    1.250    6.000    0.000    0.750 
#    0.000    2.500    0.000    0.375    0.000    2.625 
#    0.000    0.500    0.000    5.750    0.000    1.750 
#
# Total GULP energy -357211.156679 kJ/mol
# GULP energy per Si atom -5581.424323 kJ/mol
# Density = 1.564814 g / cm^3
# Si number density = 15.683837 Si / 1000 Ang^3
#
#
#
# Elastic Constant Matrix: (Units=GPa)
#
#
# Indices 1 2 3 4 5 6 
#
# 1 109.0944 76.7721 43.9892 0.0000 0.0000 0.0000
# 2 76.7721 149.3433 46.1992 0.0000 0.0000 0.0000
# 3 43.9892 46.1992 96.6316 0.0000 0.0000 0.0000
# 4 0.0000 0.0000 0.0000 26.2319 0.0000 0.0000
# 5 0.0000 0.0000 0.0000 0.0000 15.0558 0.0000
# 6 0.0000 0.0000 0.0000 0.0000 0.0000 26.2668
#
#
#
# Elastic Compliance Matrix: (Units=1/GPa)
#
#
# Indices 1 2 3 4 5 6 
#
# 1 0.015467 -0.006775 -0.003802 0.000000 0.000000 0.000000
# 2 -0.006775 0.010826 -0.002092 0.000000 0.000000 0.000000
# 3 -0.003802 -0.002092 0.013079 0.000000 0.000000 0.000000
# 4 0.000000 0.000000 0.000000 0.038122 0.000000 0.000000
# 5 0.000000 0.000000 0.000000 0.000000 0.066420 0.000000
# 6 0.000000 0.000000 0.000000 0.000000 0.000000 0.038071
#
#
# Mechanical properties :
#
#
# Convention : Reuss Voigt Hill
#
# Bulk Modulus (GPa) = 71.24971 76.55448 73.90210
# Shear Modulus (GPa) = 23.58495 26.05148 24.81822
#
# Velocity S-wave (km/s) = 3.88206 4.08001 3.98226
# Velocity P-wave (km/s) = 8.10069 8.43281 8.26842
#
# Compressibility (1/GPa) = 0.01403514
#
# Stress axis : x y z
#
# Youngs Moduli (GPa) = 64.65347 92.37200 76.45654
#
# Poissons Ratio (x) = 0.62582 0.29068
# Poissons Ratio (y) = 0.43802 0.15992
# Poissons Ratio (z) = 0.24581 0.19321
#
# Static dielectric constant tensor:
#      x y z
#    x 1.499900 0.000000 0.000000 
#    y 0.000000 1.532250 0.000000 
#    z 0.000000 0.000000 1.525920 
# 
# From -- ./inp_files/6000.got.cif
#   From: 2010.05.17/outbox.cif.g08.bks.cpg/sg49_3_cif.got.tgz:6000.got - 2010.06.03 21:02:19.
