data_PCOD9392291
_publ_section_title
;
Structure prediction by ZEFSAII (Michael W. Deem and Ramdas Pophale) SiO2 
 PCOD9392291
Probable space group: P C C M
;
_chemical_formula_sum "Si O2"
_cell_formula_units_Z 64
_cell_length_a 27.145417
_cell_length_b 18.899562
_cell_length_c 8.830106
_cell_angle_alpha 90.000000
_cell_angle_beta 90.000000
_cell_angle_gamma 90.000000
_cell_volume 4530.166603
_symmetry_space_group_name_H-M "P C C M"
_symmetry_group_IT_number 49
_symmetry_cell_setting 'orthorhombic'
loop_
_space_group_symop_operation_xyz
x,y,z
-x,-y,z
x,-y,1/2-z
-x,y,1/2-z
-x,-y,-z
x,y,-z
-x,y,1/2+z
x,-y,1/2+z
loop_
_atom_site_type_symbol
_atom_site_label
_atom_site_fract_x
_atom_site_fract_y
_atom_site_fract_z
Si Si1 0.842279 0.078516 0.317748
Si Si2 0.448084 0.349378 0.820492
Si Si3 0.648245 0.423160 0.817330
Si Si4 0.592905 0.784965 0.673548
Si Si5 0.298294 0.286302 0.673163
Si Si6 0.646236 0.077205 0.182284
Si Si7 0.950639 0.079416 0.318478
Si Si8 0.742024 0.847059 0.180477
O O1 0.841035 0.072291 0.500000
O O2 0.896483 0.109112 0.279044
O O3 0.795286 0.124253 0.270465
O O4 0.837828 0.000000 0.250000
O O5 0.500000 0.371657 0.750000
O O6 0.403348 0.393499 0.747411
O O7 0.438777 0.267019 0.776606
O O8 0.447872 0.358116 0.000000
O O9 0.657679 0.500000 0.750000
O O10 0.690328 0.365871 0.775088
O O11 0.645382 0.424473 0.000000
O O12 0.574229 0.783805 0.500000
O O13 0.647406 0.749768 0.670589
O O14 0.604110 0.865093 0.723542
O O15 0.280188 0.286606 0.500000
O O16 0.265786 0.234437 0.773448
O O17 0.698334 0.107491 0.242883
O O18 0.637496 0.000000 0.250000
O O19 0.648299 0.074827 0.000000
O O20 0.955333 0.075776 0.500000
O O21 0.000000 0.113633 0.250000
O O22 0.949157 0.000000 0.250000
O O23 0.737363 0.854807 0.000000
#
# Coordination Sequence:
#
# PCOD9392291 Si02
#       8
#     8   8   8   8   8   8   8   8
#     4   9  18  27  35  51  75 102 133 174 215 248
#     4  11  21  33  50  69  88 110 134 159 191 229
#     4  10  20  34  50  69  91 111 134 161 189 222
#     4   8  16  31  46  61  82 106 132 162 195 232
#     4   8  16  30  45  61  83 108 131 159 192 228
#     4  10  19  29  42  60  82 105 130 164 203 240
#     4   9  15  24  35  47  65  91 128 170 212 251
#     4  10  18  27  40  58  80 106 136 166 200 242
#
# _framework density 14.127516
#
# number of rings (size 3 to 8) (size 9 to 14) (size 15 to 20)
#    0.000    2.625    0.000    4.875    0.000    8.250 
#    0.000    1.250    0.000    0.375    0.000    2.625 
#    0.000    0.000    0.000    0.000    0.000    0.625 
#
# Total GULP energy -356448.206771 kJ/mol
# GULP energy per Si atom -5569.503231 kJ/mol
# Density = 1.409536 g / cm^3
# Si number density = 14.127516 Si / 1000 Ang^3
#
#
#
# Elastic Constant Matrix: (Units=GPa)
#
#
# Indices 1 2 3 4 5 6 
#
# 1 36.5965 16.3179 14.5266 0.0000 0.0000 0.0000
# 2 16.3179 90.6890 21.5213 0.0000 0.0000 0.0000
# 3 14.5266 21.5213 44.9064 0.0000 0.0000 0.0000
# 4 0.0000 0.0000 0.0000 19.7984 0.0000 0.0000
# 5 0.0000 0.0000 0.0000 0.0000 20.3546 0.0000
# 6 0.0000 0.0000 0.0000 0.0000 0.0000 10.1052
#
#
#
# Elastic Compliance Matrix: (Units=1/GPa)
#
#
# Indices 1 2 3 4 5 6 
#
# 1 0.032459 -0.003778 -0.008689 0.000000 0.000000 0.000000
# 2 -0.003778 0.012881 -0.004951 0.000000 0.000000 0.000000
# 3 -0.008689 -0.004951 0.027452 0.000000 0.000000 0.000000
# 4 0.000000 0.000000 0.000000 0.050509 0.000000 0.000000
# 5 0.000000 0.000000 0.000000 0.000000 0.049129 0.000000
# 6 0.000000 0.000000 0.000000 0.000000 0.000000 0.098959
#
#
# Mechanical properties :
#
#
# Convention : Reuss Voigt Hill
#
# Bulk Modulus (GPa) = 26.34698 30.76928 28.55813
# Shear Modulus (GPa) = 15.67996 18.04007 16.86002
#
# Velocity S-wave (km/s) = 3.33511 3.57731 3.45833
# Velocity P-wave (km/s) = 5.78969 6.23617 6.01708
#
# Compressibility (1/GPa) = 0.03795502
#
# Stress axis : x y z
#
# Youngs Moduli (GPa) = 30.80827 77.63073 36.42697
#
# Poissons Ratio (x) = 0.29332 0.31652
# Poissons Ratio (y) = 0.11640 0.18036
# Poissons Ratio (z) = 0.26770 0.38436
#
# Static dielectric constant tensor:
#      x y z
#    x 1.477900 0.000000 0.000000 
#    y 0.000000 1.472560 0.000000 
#    z 0.000000 0.000000 1.474610 
# 
# From -- ./inp_files/6791.got.cif
#   From: 2010.05.17/outbox.cif.g08.bks.cpg/sg49_4_cif.got.tgz:6791.got - 2010.06.03 21:02:19.
