data_PCOD9392207
_publ_section_title
;
Structure prediction by ZEFSAII (Michael W. Deem and Ramdas Pophale) SiO2 
 PCOD9392207
Probable space group: P C C M
;
_chemical_formula_sum "Si O2"
_cell_formula_units_Z 40
_cell_length_a 9.933355
_cell_length_b 26.239985
_cell_length_c 8.646562
_cell_angle_alpha 90.000000
_cell_angle_beta 90.000000
_cell_angle_gamma 90.000000
_cell_volume 2253.735777
_symmetry_space_group_name_H-M "P C C M"
_symmetry_group_IT_number 49
_symmetry_cell_setting 'orthorhombic'
loop_
_space_group_symop_operation_xyz
x,y,z
-x,-y,z
x,-y,1/2-z
-x,y,1/2-z
-x,-y,-z
x,y,-z
-x,y,1/2+z
x,-y,1/2+z
loop_
_atom_site_type_symbol
_atom_site_label
_atom_site_fract_x
_atom_site_fract_y
_atom_site_fract_z
Si Si1 0.850839 0.638372 0.315016
Si Si2 0.850318 0.756780 0.314666
Si Si3 0.346827 0.052351 0.314957
Si Si4 0.651607 0.841164 0.815289
Si Si5 0.650077 0.554658 0.815504
O O1 0.850813 0.632277 0.500000
O O2 0.817657 0.697536 0.279962
O O3 0.746508 0.599608 0.240056
O O4 0.000000 0.628635 0.250000
O O5 0.849651 0.763212 0.500000
O O6 0.744210 0.794703 0.238150
O O7 0.000000 0.766612 0.250000
O O8 0.500000 0.052818 0.250000
O O9 0.349388 0.051351 0.500000
O O10 0.290238 0.105756 0.253322
O O11 0.284267 0.000000 0.250000
O O12 0.500000 0.834635 0.750000
O O13 0.644936 0.844886 0.000000
O O14 0.697275 0.500000 0.750000
O O15 0.500000 0.562848 0.750000
O O16 0.644793 0.552237 0.000000
#
# Coordination Sequence:
#
# PCOD9392207 Si02
#       5
#     8   8   8   8   8
#     4  10  21  38  59  83 110 141 181 224 268 317
#     4  10  21  38  58  80 108 143 180 221 269 322
#     4  10  17  28  46  71 103 137 174 217 267 319
#     4  11  21  34  53  79 109 141 180 225 270 318
#     4  11  22  38  59  83 113 146 181 220 268 320
#
# _framework density 17.748311000000001
#
# number of rings (size 3 to 8) (size 9 to 14) (size 15 to 20)
#    0.000    1.600    0.000    9.000    0.000    3.600 
#    0.000    2.000    0.000    0.600    0.000    4.200 
#    0.000    0.000    0.000    0.000    0.000    0.000 
#
# Total GULP energy -223392.751541 kJ/mol
# GULP energy per Si atom -5584.818789 kJ/mol
# Density = 1.770791 g / cm^3
# Si number density = 17.748311 Si / 1000 Ang^3
#
#
#
# Elastic Constant Matrix: (Units=GPa)
#
#
# Indices 1 2 3 4 5 6 
#
# 1 67.5738 88.4815 55.3491 0.0000 0.0000 0.0000
# 2 88.4815 158.0562 92.7066 0.0000 0.0000 0.0000
# 3 55.3491 92.7066 175.3686 0.0000 0.0000 0.0000
# 4 0.0000 0.0000 0.0000 32.3646 0.0000 0.0000
# 5 0.0000 0.0000 0.0000 0.0000 29.9576 0.0000
# 6 0.0000 0.0000 0.0000 0.0000 0.0000 -306.7735
#
#
#
# Elastic Compliance Matrix: (Units=1/GPa)
#
#
# Indices 1 2 3 4 5 6 
#
# 1 0.055734 -0.030268 -0.001590 0.000000 0.000000 0.000000
# 2 -0.030268 0.025608 -0.003984 0.000000 0.000000 0.000000
# 3 -0.001590 -0.003984 0.008310 0.000000 0.000000 0.000000
# 4 0.000000 0.000000 0.000000 0.030898 0.000000 0.000000
# 5 0.000000 0.000000 0.000000 0.000000 0.033380 0.000000
# 6 0.000000 0.000000 0.000000 0.000000 0.000000 -0.003260
#
#
# Mechanical properties :
#
#
# Convention : Reuss Voigt Hill
#
# Bulk Modulus (GPa) = 55.65393 97.11922 76.38657
# Shear Modulus (GPa) = 21.89679 -37.92616 -8.01469
#
# Velocity S-wave (km/s) = 3.51627 -4.62766 -2.12733
# Velocity P-wave (km/s) = 6.92177 5.12692 6.09083
#
# Compressibility (1/GPa) = 0.01796818
#
# Stress axis : x y z
#
# Youngs Moduli (GPa) = 17.94250 39.05007 120.33214
#
# Poissons Ratio (x) = 1.18196 0.19129
# Poissons Ratio (y) = 0.54308 0.47946
# Poissons Ratio (z) = 0.02852 0.15559
#
# Static dielectric constant tensor:
#      x y z
#    x 1.572490 0.000000 0.000000 
#    y 0.000000 1.631120 0.000000 
#    z 0.000000 0.000000 1.589480 
# 
# From -- ./inp_files/1678.got.cif
#   From: 2010.05.17/outbox.cif.g08.bks.cpg/sg49_1_cif.got.tgz:1678.got - 2010.06.03 21:02:19.
