data_PCOD9392808
_publ_section_title
;
Structure prediction by ZEFSAII (Michael W. Deem and Ramdas Pophale) SiO2 
 PCOD9392808
Probable space group: P C C M
;
_chemical_formula_sum "Si O2"
_cell_formula_units_Z 56
_cell_length_a 17.823050
_cell_length_b 8.570317
_cell_length_c 14.095734
_cell_angle_alpha 90.000000
_cell_angle_beta 90.000000
_cell_angle_gamma 90.000000
_cell_volume 2153.111928
_symmetry_space_group_name_H-M "P C C M"
_symmetry_group_IT_number 49
_symmetry_cell_setting 'orthorhombic'
loop_
_space_group_symop_operation_xyz
x,y,z
-x,-y,z
x,-y,1/2-z
-x,y,1/2-z
-x,-y,-z
x,y,-z
-x,y,1/2+z
x,-y,1/2+z
loop_
_atom_site_type_symbol
_atom_site_label
_atom_site_fract_x
_atom_site_fract_y
_atom_site_fract_z
Si Si1 0.516484 0.323823 0.636087
Si Si2 0.168067 0.400568 0.113900
Si Si3 0.616845 0.860246 0.331840
Si Si4 0.882210 0.268594 0.114257
Si Si5 0.958781 0.839532 0.113026
Si Si6 0.765769 0.009944 0.893184
Si Si7 0.681504 0.713012 0.830970
O O1 0.500000 0.500000 0.603870
O O2 0.500000 0.324645 0.750000
O O3 0.456657 0.189886 0.611375
O O4 0.602664 0.281421 0.613408
O O5 0.145377 0.568526 0.152998
O O6 0.115491 0.253363 0.147582
O O7 0.257332 0.402720 0.131092
O O8 0.155412 0.401369 0.000000
O O9 0.687583 0.898165 0.396016
O O10 0.649441 0.709654 0.274558
O O11 0.602650 0.000000 0.250000
O O12 0.834187 0.115579 0.143892
O O13 0.970770 0.271804 0.128951
O O14 0.870457 0.264041 0.000000
O O15 0.947803 0.866031 0.000000
O O16 0.000000 0.000000 0.146965
O O17 0.735189 0.865462 0.833224
O O18 0.783672 0.954633 0.000000
#
# Coordination Sequence:
#
# PCOD9392808 Si02
#       7
#     8   8   8   8   8   8   8
#     4   9  19  35  56  79 107 143 187 226 277 335
#     4  10  19  31  50  78 114 149 185 231 281 328
#     4   9  20  37  59  82 107 139 185 235 275 329
#     4   9  18  31  49  76 111 150 189 228 270 326
#     4   9  16  28  49  76 107 147 193 231 266 320
#     4  10  20  35  55  79 110 145 182 225 279 332
#     4  10  20  34  55  81 107 139 183 232 279 331
#
# _framework density 26.008865
#
# number of rings (size 3 to 8) (size 9 to 14) (size 15 to 20)
#    0.000    2.571    0.000    1.714    2.000   10.571 
#    0.000    2.143    0.000    3.000    0.000    6.000 
#    0.000    0.000    0.000    0.000    0.000    0.000 
#
# Total GULP energy -311990.821152 kJ/mol
# GULP energy per Si atom -5571.264663 kJ/mol
# Density = 2.594967 g / cm^3
# Si number density = 26.008865 Si / 1000 Ang^3
#
#
#
# Elastic Constant Matrix: (Units=GPa)
#
#
# Indices 1 2 3 4 5 6 
#
# 1 228.6644 48.7396 10.2012 0.0000 0.0000 0.0000
# 2 48.7396 54.5595 -2.7815 0.0000 0.0000 0.0000
# 3 10.2012 -2.7815 71.2118 0.0000 0.0000 0.0000
# 4 0.0000 0.0000 0.0000 5.0409 0.0000 0.0000
# 5 0.0000 0.0000 0.0000 0.0000 27.0816 0.0000
# 6 0.0000 0.0000 0.0000 0.0000 0.0000 528.7367
#
#
#
# Elastic Compliance Matrix: (Units=1/GPa)
#
#
# Indices 1 2 3 4 5 6 
#
# 1 0.005469 -0.004935 -0.000976 0.000000 0.000000 0.000000
# 2 -0.004935 0.022819 0.001598 0.000000 0.000000 0.000000
# 3 -0.000976 0.001598 0.014245 0.000000 0.000000 0.000000
# 4 0.000000 0.000000 0.000000 0.198378 0.000000 0.000000
# 5 0.000000 0.000000 0.000000 0.000000 0.036925 0.000000
# 6 0.000000 0.000000 0.000000 0.000000 0.000000 0.001891
#
#
# Mechanical properties :
#
#
# Convention : Reuss Voigt Hill
#
# Bulk Modulus (GPa) = 29.49305 51.86161 40.67733
# Shear Modulus (GPa) = 16.68584 132.05691 74.37138
#
# Velocity S-wave (km/s) = 2.53562 7.13330 5.35320
# Velocity P-wave (km/s) = 4.46506 9.37169 7.34048
#
# Compressibility (1/GPa) = 0.03390629
#
# Stress axis : x y z
#
# Youngs Moduli (GPa) = 182.85940 43.82358 70.20066
#
# Poissons Ratio (x) = 0.21627 0.06853
# Poissons Ratio (y) = 0.90243 -0.11220
# Poissons Ratio (z) = 0.17850 -0.07004
#
# Static dielectric constant tensor:
#      x y z
#    x 2.090150 0.000000 0.000000 
#    y 0.000000 2.238430 0.000000 
#    z 0.000000 0.000000 2.125600 
# 
# From -- ./inp_files/20873.got.cif
#   From: 2010.05.17/outbox.cif.g08.bks.cpg/sg49_11_cif.got.tgz:20873.got - 2010.06.03 21:02:19.
