data_PCOD9392590
_publ_section_title
;
Structure prediction by ZEFSAII (Michael W. Deem and Ramdas Pophale) SiO2 
 PCOD9392590
Probable space group: P C C M
;
_chemical_formula_sum "Si O2"
_cell_formula_units_Z 48
_cell_length_a 14.167344
_cell_length_b 19.017022
_cell_length_c 9.732271
_cell_angle_alpha 90.000000
_cell_angle_beta 90.000000
_cell_angle_gamma 90.000000
_cell_volume 2622.075193
_symmetry_space_group_name_H-M "P C C M"
_symmetry_group_IT_number 49
_symmetry_cell_setting 'orthorhombic'
loop_
_space_group_symop_operation_xyz
x,y,z
-x,-y,z
x,-y,1/2-z
-x,y,1/2-z
-x,-y,-z
x,y,-z
-x,y,1/2+z
x,-y,1/2+z
loop_
_atom_site_type_symbol
_atom_site_label
_atom_site_fract_x
_atom_site_fract_y
_atom_site_fract_z
Si Si1 0.804611 0.901070 0.500000
Si Si2 0.606490 0.126442 0.500000
Si Si3 0.100518 0.429234 0.328915
Si Si4 0.396572 0.141997 0.500000
Si Si5 0.395352 0.758831 0.261018
Si Si6 0.888020 0.835653 0.770259
Si Si7 0.206474 0.687524 0.339101
Si Si8 0.188526 0.937798 0.500000
O O1 0.691969 0.908596 0.500000
O O2 0.838928 0.856510 0.628818
O O3 0.839991 0.980944 0.500000
O O4 0.497088 0.101790 0.500000
O O5 0.611713 0.179799 0.373493
O O6 0.697588 0.076222 0.500000
O O7 0.135622 0.500000 0.250000
O O8 0.094034 0.433887 0.500000
O O9 0.164302 0.365853 0.272949
O O10 0.000000 0.417596 0.250000
O O11 0.385317 0.195564 0.374981
O O12 0.500000 0.726731 0.250000
O O13 0.314051 0.704475 0.297739
O O14 0.849151 0.761482 0.825241
O O15 0.000000 0.832421 0.750000
O O16 0.856156 0.897268 0.871839
O O17 0.199480 0.664440 0.500000
#
# Coordination Sequence:
#
# PCOD9392590 Si02
#       8
#     4   4   8   4   8   8   8   4
#     4  12  25  37  60  83 115 152 209 267 320 381
#     4  10  18  38  59  78 116 154 195 253 333 390
#     4  11  24  43  68 100 138 175 209 247 301 364
#     4  10  20  34  57  88 112 146 199 269 319 386
#     4  10  19  34  59  87 119 156 201 255 319 379
#     4  12  25  40  58  81 115 157 211 262 311 372
#     4  12  22  40  65  92 127 164 207 262 316 368
#     4  12  23  43  56  79 115 164 201 257 328 391
#
# _framework density 18.30611
#
# number of rings (size 3 to 8) (size 9 to 14) (size 15 to 20)
#    0.000    0.833    5.000    3.500    2.333    2.333 
#    0.000    0.000    0.000    5.500    0.000    2.333 
#    0.000    0.000    0.000    0.000    0.000    0.000 
#
# Total GULP energy -267598.492917 kJ/mol
# GULP energy per Si atom -5574.968602 kJ/mol
# Density = 1.826444 g / cm^3
# Si number density = 18.306110 Si / 1000 Ang^3
#
#
#
# Elastic Constant Matrix: (Units=GPa)
#
#
# Indices 1 2 3 4 5 6 
#
# 1 118.7024 24.7886 17.7611 0.0000 0.0000 0.0000
# 2 24.7886 63.7316 20.4111 0.0000 0.0000 0.0000
# 3 17.7611 20.4111 162.8414 0.0000 0.0000 0.0000
# 4 0.0000 0.0000 0.0000 25.3269 0.0000 0.0000
# 5 0.0000 0.0000 0.0000 0.0000 30.6214 0.0000
# 6 0.0000 0.0000 0.0000 0.0000 0.0000 16.4403
#
#
#
# Elastic Compliance Matrix: (Units=1/GPa)
#
#
# Indices 1 2 3 4 5 6 
#
# 1 0.009221 -0.003401 -0.000579 0.000000 0.000000 0.000000
# 2 -0.003401 0.017601 -0.001835 0.000000 0.000000 0.000000
# 3 -0.000579 -0.001835 0.006434 0.000000 0.000000 0.000000
# 4 0.000000 0.000000 0.000000 0.039484 0.000000 0.000000
# 5 0.000000 0.000000 0.000000 0.000000 0.032657 0.000000
# 6 0.000000 0.000000 0.000000 0.000000 0.000000 0.060826
#
#
# Mechanical properties :
#
#
# Convention : Reuss Voigt Hill
#
# Bulk Modulus (GPa) = 46.24203 52.35520 49.29861
# Shear Modulus (GPa) = 27.01768 33.29869 30.15818
#
# Velocity S-wave (km/s) = 3.84589 4.26959 4.06327
# Velocity P-wave (km/s) = 6.71092 7.27790 7.00015
#
# Compressibility (1/GPa) = 0.02162535
#
# Stress axis : x y z
#
# Youngs Moduli (GPa) = 108.44357 56.81353 155.41987
#
# Poissons Ratio (x) = 0.19323 0.09006
# Poissons Ratio (y) = 0.36883 0.28524
# Poissons Ratio (z) = 0.06284 0.10427
#
# Static dielectric constant tensor:
#      x y z
#    x 1.690670 0.000000 0.000000 
#    y 0.000000 1.604730 0.000000 
#    z 0.000000 0.000000 1.573070 
# 
# From -- ./inp_files/3792.got.cif
#   From: 2010.05.17/outbox.cif.g08.bks.cpg/sg49_2_cif.got.tgz:3792.got - 2010.06.03 21:02:19.
