data_PCOD9392235
_publ_section_title
;
Structure prediction by ZEFSAII (Michael W. Deem and Ramdas Pophale) SiO2 
 PCOD9392235
Probable space group: P C C M
;
_chemical_formula_sum "Si O2"
_cell_formula_units_Z 40
_cell_length_a 9.250162
_cell_length_b 26.641385
_cell_length_c 8.600240
_cell_angle_alpha 90.000000
_cell_angle_beta 90.000000
_cell_angle_gamma 90.000000
_cell_volume 2119.418438
_symmetry_space_group_name_H-M "P C C M"
_symmetry_group_IT_number 49
_symmetry_cell_setting 'orthorhombic'
loop_
_space_group_symop_operation_xyz
x,y,z
-x,-y,z
x,-y,1/2-z
-x,y,1/2-z
-x,-y,-z
x,y,-z
-x,y,1/2+z
x,-y,1/2+z
loop_
_atom_site_type_symbol
_atom_site_label
_atom_site_fract_x
_atom_site_fract_y
_atom_site_fract_z
Si Si1 0.337691 0.247931 0.186114
Si Si2 0.837834 0.847066 0.687136
Si Si3 0.165057 0.551780 0.686024
Si Si4 0.836047 0.343038 0.186179
Si Si5 0.338146 0.946294 0.813931
O O1 0.500000 0.246011 0.250000
O O2 0.253020 0.198563 0.241962
O O3 0.256841 0.296462 0.254628
O O4 0.338163 0.250406 0.000000
O O5 0.837567 0.842762 0.500000
O O6 0.762939 0.899834 0.730330
O O7 0.000000 0.845122 0.750000
O O8 0.231808 0.500000 0.750000
O O9 0.162830 0.551294 0.500000
O O10 0.226096 0.604197 0.749245
O O11 0.000000 0.552106 0.750000
O O12 0.000000 0.337542 0.250000
O O13 0.840929 0.344663 0.000000
O O14 0.500000 0.938070 0.750000
O O15 0.286751 0.000000 0.750000
O O16 0.345462 0.949005 0.000000
#
# Coordination Sequence:
#
# PCOD9392235 Si02
#       5
#     8   8   8   8   8
#     4  12  25  42  62  85 113 149 190 236 286 345
#     4  11  24  41  61  88 118 153 192 238 289 341
#     4  10  17  28  47  76 111 148 188 233 283 337
#     4  11  21  36  57  84 116 151 190 237 287 339
#     4  10  21  37  60  87 118 154 195 236 283 337
#
# _framework density 18.873101999999999
#
# number of rings (size 3 to 8) (size 9 to 14) (size 15 to 20)
#    0.000    1.200    0.000   10.200    0.000    5.200 
#    0.000    2.000    0.000    0.600    0.000    4.200 
#    0.000    0.000    0.000    0.000    0.000    0.000 
#
# Total GULP energy -223628.214078 kJ/mol
# GULP energy per Si atom -5590.705352 kJ/mol
# Density = 1.883015 g / cm^3
# Si number density = 18.873102 Si / 1000 Ang^3
#
#
#
# Elastic Constant Matrix: (Units=GPa)
#
#
# Indices 1 2 3 4 5 6 
#
# 1 103.2860 99.8660 54.1142 0.0000 0.0000 0.0000
# 2 99.8660 220.2886 93.5518 0.0000 0.0000 0.0000
# 3 54.1142 93.5518 174.5887 0.0000 0.0000 0.0000
# 4 0.0000 0.0000 0.0000 32.2846 0.0000 0.0000
# 5 0.0000 0.0000 0.0000 0.0000 8.8063 0.0000
# 6 0.0000 0.0000 0.0000 0.0000 0.0000 -263.4269
#
#
#
# Elastic Compliance Matrix: (Units=1/GPa)
#
#
# Indices 1 2 3 4 5 6 
#
# 1 0.017545 -0.007307 -0.001523 0.000000 0.000000 0.000000
# 2 -0.007307 0.008920 -0.002515 0.000000 0.000000 0.000000
# 3 -0.001523 -0.002515 0.007547 0.000000 0.000000 0.000000
# 4 0.000000 0.000000 0.000000 0.030974 0.000000 0.000000
# 5 0.000000 0.000000 0.000000 0.000000 0.113555 0.000000
# 6 0.000000 0.000000 0.000000 0.000000 0.000000 -0.003796
#
#
# Mechanical properties :
#
#
# Convention : Reuss Voigt Hill
#
# Bulk Modulus (GPa) = 88.31655 110.35857 99.33756
# Shear Modulus (GPa) = 24.84976 -27.75844 -1.45434
#
# Velocity S-wave (km/s) = 3.63254 -3.83925 -0.87878
# Velocity P-wave (km/s) = 8.03059 6.24082 7.19160
#
# Compressibility (1/GPa) = 0.01132291
#
# Stress axis : x y z
#
# Youngs Moduli (GPa) = 56.99697 112.10534 132.49827
#
# Poissons Ratio (x) = 0.81917 0.20174
# Poissons Ratio (y) = 0.41649 0.33322
# Poissons Ratio (z) = 0.08678 0.28194
#
# Static dielectric constant tensor:
#      x y z
#    x 1.636030 0.000000 0.000000 
#    y 0.000000 1.677550 0.000000 
#    z 0.000000 0.000000 1.629130 
# 
# From -- ./inp_files/1708.got.cif
#   From: 2010.05.17/outbox.cif.g08.bks.cpg/sg49_1_cif.got.tgz:1708.got - 2010.06.03 21:02:19.
