data_PCOD9392314
_publ_section_title
;
Structure prediction by ZEFSAII (Michael W. Deem and Ramdas Pophale) SiO2 
 PCOD9392314
Probable space group: P C C M
;
_chemical_formula_sum "Si O2"
_cell_formula_units_Z 56
_cell_length_a 13.853468
_cell_length_b 30.532918
_cell_length_c 8.669021
_cell_angle_alpha 90.000000
_cell_angle_beta 90.000000
_cell_angle_gamma 90.000000
_cell_volume 3666.881473
_symmetry_space_group_name_H-M "P C C M"
_symmetry_group_IT_number 49
_symmetry_cell_setting 'orthorhombic'
loop_
_space_group_symop_operation_xyz
x,y,z
-x,-y,z
x,-y,1/2-z
-x,y,1/2-z
-x,-y,-z
x,y,-z
-x,y,1/2+z
x,-y,1/2+z
loop_
_atom_site_type_symbol
_atom_site_label
_atom_site_fract_x
_atom_site_fract_y
_atom_site_fract_z
Si Si1 0.195166 0.547285 0.685512
Si Si2 0.608782 0.139450 0.185606
Si Si3 0.396124 0.589714 0.315227
Si Si4 0.390248 0.955297 0.814885
Si Si5 0.896296 0.634493 0.684112
Si Si6 0.707770 0.321288 0.314633
Si Si7 0.390836 0.235468 0.314290
O O1 0.168770 0.500000 0.750000
O O2 0.188920 0.548269 0.500000
O O3 0.306040 0.559126 0.730804
O O4 0.130270 0.586051 0.753738
O O5 0.500000 0.139486 0.250000
O O6 0.653054 0.092256 0.230661
O O7 0.649419 0.187061 0.230207
O O8 0.603874 0.139151 0.000000
O O9 0.500000 0.577597 0.250000
O O10 0.401607 0.588729 0.500000
O O11 0.365178 0.639154 0.268823
O O12 0.500000 0.954427 0.750000
O O13 0.344870 0.000000 0.750000
O O14 0.393839 0.958264 0.000000
O O15 0.897213 0.634365 0.500000
O O16 0.811112 0.665523 0.746144
O O17 0.000000 0.647426 0.750000
O O18 0.713217 0.321239 0.500000
O O19 0.669764 0.275302 0.253447
O O20 0.500000 0.238586 0.250000
O O21 0.393704 0.238492 0.500000
#
# Coordination Sequence:
#
# PCOD9392314 Si02
#       7
#     8   8   8   8   8   8   8
#     4  10  21  37  53  74  99 123 151 183 215 253
#     4   8  15  24  33  47  71 101 137 178 220 261
#     4   9  19  32  47  66  92 121 150 180 211 247
#     4   9  14  20  29  42  61  90 129 176 221 260
#     4  11  22  38  58  77  95 117 142 175 216 260
#     4  10  20  34  49  69  93 117 147 183 218 260
#     4  10  18  28  42  62  87 118 151 185 224 266
#
# _framework density 15.271832
#
# number of rings (size 3 to 8) (size 9 to 14) (size 15 to 20)
#    0.000    2.429    0.000    4.714    0.000    6.286 
#    0.000    2.857    0.000    0.000    0.000    0.000 
#    0.000    0.000    0.000    0.000    0.000    0.714 
#
# Total GULP energy -312009.699152 kJ/mol
# GULP energy per Si atom -5571.601771 kJ/mol
# Density = 1.523707 g / cm^3
# Si number density = 15.271832 Si / 1000 Ang^3
#
#
#
# Elastic Constant Matrix: (Units=GPa)
#
#
# Indices 1 2 3 4 5 6 
#
# 1 47.6232 16.8381 16.3790 0.0000 0.0000 0.0000
# 2 16.8381 127.3257 32.3765 0.0000 0.0000 0.0000
# 3 16.3790 32.3765 59.3710 0.0000 0.0000 0.0000
# 4 0.0000 0.0000 0.0000 221.4547 0.0000 0.0000
# 5 0.0000 0.0000 0.0000 0.0000 19.8535 0.0000
# 6 0.0000 0.0000 0.0000 0.0000 0.0000 9.0825
#
#
#
# Elastic Compliance Matrix: (Units=1/GPa)
#
#
# Indices 1 2 3 4 5 6 
#
# 1 0.023510 -0.001695 -0.005562 0.000000 0.000000 0.000000
# 2 -0.001695 0.009240 -0.004571 0.000000 0.000000 0.000000
# 3 -0.005562 -0.004571 0.020871 0.000000 0.000000 0.000000
# 4 0.000000 0.000000 0.000000 0.004516 0.000000 0.000000
# 5 0.000000 0.000000 0.000000 0.000000 0.050369 0.000000
# 6 0.000000 0.000000 0.000000 0.000000 0.000000 0.110102
#
#
# Mechanical properties :
#
#
# Convention : Reuss Voigt Hill
#
# Bulk Modulus (GPa) = 33.37204 40.61190 36.99197
# Shear Modulus (GPa) = 19.82141 61.32654 40.57398
#
# Velocity S-wave (km/s) = 3.60656 6.34380 5.15999
# Velocity P-wave (km/s) = 6.26438 8.96152 7.73147
#
# Compressibility (1/GPa) = 0.02996520
#
# Stress axis : x y z
#
# Youngs Moduli (GPa) = 42.53463 108.21980 47.91445
#
# Poissons Ratio (x) = 0.18342 0.26648
# Poissons Ratio (y) = 0.07209 0.21904
# Poissons Ratio (z) = 0.23656 0.49473
#
# Static dielectric constant tensor:
#      x y z
#    x 1.476880 0.000000 0.000000 
#    y 0.000000 1.559250 0.000000 
#    z 0.000000 0.000000 1.510870 
# 
# From -- ./inp_files/4486.got.cif
#   From: 2010.05.17/outbox.cif.g08.bks.cpg/sg49_3_cif.got.tgz:4486.got - 2010.06.03 21:02:19.
