data_PCOD9392217
_publ_section_title
;
Structure prediction by ZEFSAII (Michael W. Deem and Ramdas Pophale) SiO2 
 PCOD9392217
Probable space group: P C C M
;
_chemical_formula_sum "Si O2"
_cell_formula_units_Z 48
_cell_length_a 5.316363
_cell_length_b 18.321876
_cell_length_c 33.088152
_cell_angle_alpha 90.000000
_cell_angle_beta 90.000000
_cell_angle_gamma 90.000000
_cell_volume 3222.976052
_symmetry_space_group_name_H-M "P C C M"
_symmetry_group_IT_number 49
_symmetry_cell_setting 'orthorhombic'
loop_
_space_group_symop_operation_xyz
x,y,z
-x,-y,z
x,-y,1/2-z
-x,y,1/2-z
-x,-y,-z
x,y,-z
-x,y,1/2+z
x,-y,1/2+z
loop_
_atom_site_type_symbol
_atom_site_label
_atom_site_fract_x
_atom_site_fract_y
_atom_site_fract_z
Si Si1 0.302909 0.082402 0.546894
Si Si2 0.007042 0.915965 0.170504
Si Si3 0.488100 0.838904 0.701430
Si Si4 0.806898 0.917031 0.078787
Si Si5 0.999314 0.415585 0.299279
Si Si6 0.498754 0.669651 0.799173
O O1 0.375475 0.080361 0.500000
O O2 0.529494 0.116204 0.572977
O O3 0.027937 0.117334 0.551950
O O4 0.249260 0.999869 0.563160
O O5 0.784514 0.870633 0.190925
O O6 0.921906 0.916677 0.123486
O O7 0.280823 0.882777 0.180706
O O8 0.000000 0.000000 0.184393
O O9 0.500000 0.843082 0.750000
O O10 0.504968 0.754213 0.688798
O O11 0.249648 0.373204 0.312295
O O12 0.000000 0.500000 0.312008
O O13 0.000000 0.415696 0.250000
O O14 0.749856 0.372525 0.312241
O O15 0.500000 0.669131 0.750000
#
# Coordination Sequence:
#
# PCOD9392217 Si02
#       6
#     8   8   8   8   8   8
#     4  10  17  28  47  67  86 105 122 151 216 282
#     4  12  23  35  50  60  79 106 145 201 245 269
#     4  11  24  37  48  60  76 110 152 191 241 276
#     4  10  18  29  43  64  85 102 127 165 221 272
#     4   9  15  24  43  67  85 101 119 148 202 265
#     4   9  17  30  43  58  83 104 128 167 209 265
#
# _framework density 14.893065999999999
#
# number of rings (size 3 to 8) (size 9 to 14) (size 15 to 20)
#    0.000    1.833    1.667    6.000    2.333    6.667 
#    0.000    0.000    0.000    0.000    0.000    0.000 
#    0.000    0.000    0.000    0.000    0.000    0.000 
#
# Total GULP energy -267300.007571 kJ/mol
# GULP energy per Si atom -5568.750158 kJ/mol
# Density = 1.485917 g / cm^3
# Si number density = 14.893066 Si / 1000 Ang^3
#
#
#
# Elastic Constant Matrix: (Units=GPa)
#
#
# Indices 1 2 3 4 5 6 
#
# 1 114.2347 24.4292 -7.8990 0.0000 0.0000 0.0000
# 2 24.4292 78.9953 -5.6933 0.0000 0.0000 0.0000
# 3 -7.8990 -5.6933 32.7382 0.0000 0.0000 0.0000
# 4 0.0000 0.0000 0.0000 -5.7184 0.0000 0.0000
# 5 0.0000 0.0000 0.0000 0.0000 22.8027 0.0000
# 6 0.0000 0.0000 0.0000 0.0000 0.0000 23.1150
#
#
#
# Elastic Compliance Matrix: (Units=1/GPa)
#
#
# Indices 1 2 3 4 5 6 
#
# 1 0.009477 -0.002801 0.001800 0.000000 0.000000 0.000000
# 2 -0.002801 0.013648 0.001698 0.000000 0.000000 0.000000
# 3 0.001800 0.001698 0.031275 0.000000 0.000000 0.000000
# 4 0.000000 0.000000 0.000000 -0.174874 0.000000 0.000000
# 5 0.000000 0.000000 0.000000 0.000000 0.043854 0.000000
# 6 0.000000 0.000000 0.000000 0.000000 0.000000 0.043262
#
#
# Mechanical properties :
#
#
# Convention : Reuss Voigt Hill
#
# Bulk Modulus (GPa) = 17.92388 27.51578 22.71983
# Shear Modulus (GPa) = -309.55986 22.38193 -143.58896
#
# Velocity S-wave (km/s) = -14.43282 3.88086 -9.82968
# Velocity P-wave (km/s) = 16.29971 6.21265 10.65560
#
# Compressibility (1/GPa) = 0.05579148
#
# Stress axis : x y z
#
# Youngs Moduli (GPa) = 105.51443 73.27302 31.97464
#
# Poissons Ratio (x) = 0.20525 -0.05754
# Poissons Ratio (y) = 0.29556 -0.05428
# Poissons Ratio (z) = -0.18988 -0.12438
#
# Static dielectric constant tensor:
#      x y z
#    x 1.592390 0.000000 0.000000 
#    y 0.000000 1.498100 0.000000 
#    z 0.000000 0.000000 1.517340 
# 
# From -- ./inp_files/25778.got.cif
#   From: 2010.05.17/outbox.cif.g08.bks.cpg/sg49_13_cif.got.tgz:25778.got - 2010.06.03 21:02:19.
