data_PCOD9392384
_publ_section_title
;
Structure prediction by ZEFSAII (Michael W. Deem and Ramdas Pophale) SiO2 
 PCOD9392384
Probable space group: P C C M
;
_chemical_formula_sum "Si O2"
_cell_formula_units_Z 64
_cell_length_a 18.283872
_cell_length_b 23.155381
_cell_length_c 9.070627
_cell_angle_alpha 90.000000
_cell_angle_beta 90.000000
_cell_angle_gamma 90.000000
_cell_volume 3840.231555
_symmetry_space_group_name_H-M "P C C M"
_symmetry_group_IT_number 49
_symmetry_cell_setting 'orthorhombic'
loop_
_space_group_symop_operation_xyz
x,y,z
-x,-y,z
x,-y,1/2-z
-x,y,1/2-z
-x,-y,-z
x,y,-z
-x,y,1/2+z
x,-y,1/2+z
loop_
_atom_site_type_symbol
_atom_site_label
_atom_site_fract_x
_atom_site_fract_y
_atom_site_fract_z
Si Si1 0.578443 0.936340 0.179755
Si Si2 0.891048 0.441098 0.830895
Si Si3 0.793273 0.763193 0.172162
Si Si4 0.433900 0.755950 0.163666
Si Si5 0.714194 0.442288 0.831171
Si Si6 0.692175 0.851080 0.669330
Si Si7 0.660414 0.329300 0.668664
Si Si8 0.923337 0.690600 0.679096
O O1 0.500000 0.916789 0.250000
O O2 0.647284 0.898222 0.235642
O O3 0.588613 0.000000 0.250000
O O4 0.573863 0.937132 0.000000
O O5 0.914700 0.500000 0.750000
O O6 0.802686 0.441078 0.827965
O O7 0.912574 0.377191 0.774797
O O8 0.915935 0.444911 0.000000
O O9 0.761737 0.821024 0.250943
O O10 0.726983 0.716744 0.173208
O O11 0.859237 0.731476 0.257758
O O12 0.811659 0.774042 0.000000
O O13 0.500000 0.784179 0.250000
O O14 0.366513 0.799369 0.157486
O O15 0.407114 0.700234 0.250541
O O16 0.457530 0.741368 0.000000
O O17 0.689913 0.500000 0.750000
O O18 0.685690 0.386155 0.750544
O O19 0.691033 0.442485 0.000000
O O20 0.707980 0.870153 0.500000
O O21 0.643464 0.341536 0.500000
O O22 0.923267 0.692444 0.500000
O O23 0.000000 0.709247 0.750000
#
# Coordination Sequence:
#
# PCOD9392384 Si02
#       8
#     8   8   8   8   8   8   8   8
#     4  11  21  34  52  77 112 152 191 225 259 301
#     4   9  19  32  48  67  92 123 158 200 247 303
#     4  10  20  34  52  74  98 128 167 210 253 302
#     4  10  20  32  48  70  97 127 160 200 244 290
#     4  10  18  30  47  68  90 115 150 192 240 292
#     4  10  20  34  53  76 104 139 175 215 255 294
#     4  10  19  31  49  70  92 119 153 195 243 293
#     4  11  22  36  51  71  98 132 167 208 259 314
#
# _framework density 16.665662999999999
#
# number of rings (size 3 to 8) (size 9 to 14) (size 15 to 20)
#    0.000    1.875    1.250    4.125    0.000    5.250 
#    0.000    1.250    0.000    0.375    0.000    2.625 
#    0.000    0.500    0.000    5.000    0.000    3.000 
#
# Total GULP energy -356821.743717 kJ/mol
# GULP energy per Si atom -5575.339746 kJ/mol
# Density = 1.662773 g / cm^3
# Si number density = 16.665663 Si / 1000 Ang^3
#
#
#
# Elastic Constant Matrix: (Units=GPa)
#
#
# Indices 1 2 3 4 5 6 
#
# 1 60.2306 33.9506 43.2028 0.0000 0.0000 0.0000
# 2 33.9506 85.0895 54.9604 0.0000 0.0000 0.0000
# 3 43.2028 54.9604 148.8424 0.0000 0.0000 0.0000
# 4 0.0000 0.0000 0.0000 21.9338 0.0000 0.0000
# 5 0.0000 0.0000 0.0000 0.0000 19.5947 0.0000
# 6 0.0000 0.0000 0.0000 0.0000 0.0000 12.0017
#
#
#
# Elastic Compliance Matrix: (Units=1/GPa)
#
#
# Indices 1 2 3 4 5 6 
#
# 1 0.023424 -0.006506 -0.004397 0.000000 0.000000 0.000000
# 2 -0.006506 0.017240 -0.004478 0.000000 0.000000 0.000000
# 3 -0.004397 -0.004478 0.009648 0.000000 0.000000 0.000000
# 4 0.000000 0.000000 0.000000 0.045592 0.000000 0.000000
# 5 0.000000 0.000000 0.000000 0.000000 0.051034 0.000000
# 6 0.000000 0.000000 0.000000 0.000000 0.000000 0.083322
#
#
# Mechanical properties :
#
#
# Convention : Reuss Voigt Hill
#
# Bulk Modulus (GPa) = 51.14686 62.04333 56.59509
# Shear Modulus (GPa) = 18.68894 21.50928 20.09911
#
# Velocity S-wave (km/s) = 3.35237 3.59644 3.47655
# Velocity P-wave (km/s) = 6.76322 7.38613 7.08152
#
# Compressibility (1/GPa) = 0.01955154
#
# Stress axis : x y z
#
# Youngs Moduli (GPa) = 42.69144 58.00307 103.64847
#
# Poissons Ratio (x) = 0.37739 0.45569
# Poissons Ratio (y) = 0.27776 0.46409
# Poissons Ratio (z) = 0.18769 0.25971
#
# Static dielectric constant tensor:
#      x y z
#    x 1.546060 0.000000 0.000000 
#    y 0.000000 1.551720 0.000000 
#    z 0.000000 0.000000 1.525210 
# 
# From -- ./inp_files/5337.got.cif
#   From: 2010.05.17/outbox.cif.g08.bks.cpg/sg49_3_cif.got.tgz:5337.got - 2010.06.03 21:02:19.
