data_PCOD9392701
_publ_section_title
;
Structure prediction by ZEFSAII (Michael W. Deem and Ramdas Pophale) SiO2 
 PCOD9392701
Probable space group: P C C M
;
_chemical_formula_sum "Si O2"
_cell_formula_units_Z 64
_cell_length_a 13.122217
_cell_length_b 14.924140
_cell_length_c 15.903302
_cell_angle_alpha 90.000000
_cell_angle_beta 90.000000
_cell_angle_gamma 90.000000
_cell_volume 3114.467734
_symmetry_space_group_name_H-M "P C C M"
_symmetry_group_IT_number 49
_symmetry_cell_setting 'orthorhombic'
loop_
_space_group_symop_operation_xyz
x,y,z
-x,-y,z
x,-y,1/2-z
-x,y,1/2-z
-x,-y,-z
x,y,-z
-x,y,1/2+z
x,-y,1/2+z
loop_
_atom_site_type_symbol
_atom_site_label
_atom_site_fract_x
_atom_site_fract_y
_atom_site_fract_z
Si Si1 0.322553 0.010207 0.101656
Si Si2 0.790943 0.338138 0.338139
Si Si3 0.881589 0.491228 0.098049
Si Si4 0.022446 0.764665 0.344440
Si Si5 0.100911 0.058000 0.903857
Si Si6 0.188975 0.293219 0.358475
Si Si7 0.613066 0.789912 0.101462
Si Si8 0.390095 0.181998 0.399426
O O1 0.201938 0.004567 0.119041
O O2 0.356170 0.109220 0.130515
O O3 0.375305 0.919815 0.134167
O O4 0.336889 0.010534 0.000000
O O5 0.804727 0.443406 0.352353
O O6 0.893918 0.300680 0.383230
O O7 0.799009 0.310692 0.240982
O O8 0.692173 0.286177 0.370988
O O9 0.840304 0.390185 0.105039
O O10 0.000000 0.500000 0.128789
O O11 0.881499 0.516891 0.000000
O O12 0.078586 0.859265 0.343948
O O13 0.000000 0.733466 0.250000
O O14 0.910109 0.766727 0.383034
O O15 0.116424 0.092478 0.000000
O O16 0.000000 0.000000 0.903603
O O17 0.291818 0.243366 0.384598
O O18 0.496704 0.776281 0.130482
O O19 0.616587 0.790931 0.000000
O O20 0.399769 0.172822 0.500000
#
# Coordination Sequence:
#
# PCOD9392701 Si02
#       8
#     8   8   8   8   8   8   8   8
#     4   9  17  32  56  85 115 152 198 245 295 343
#     4  11  22  39  61  87 119 153 196 238 288 351
#     4  11  23  39  64  94 120 150 190 237 291 353
#     4  10  21  35  53  80 115 157 190 230 288 350
#     4  10  19  30  49  79 114 151 194 244 289 339
#     4  11  23  39  59  86 123 159 191 236 295 358
#     4  10  20  37  62  88 117 156 203 251 293 342
#     4  10  21  38  59  86 120 157 201 251 298 343
#
# _framework density 20.549257000000001
#
# number of rings (size 3 to 8) (size 9 to 14) (size 15 to 20)
#    0.000    1.750    2.500    2.250    0.000    5.250 
#    0.000    1.250    0.000    5.250    0.000    0.000 
#    0.000    0.000    0.000    0.000    0.000    0.000 
#
# Total GULP energy -356968.725588 kJ/mol
# GULP energy per Si atom -5577.636337 kJ/mol
# Density = 2.050249 g / cm^3
# Si number density = 20.549257 Si / 1000 Ang^3
#
#
#
# Elastic Constant Matrix: (Units=GPa)
#
#
# Indices 1 2 3 4 5 6 
#
# 1 145.7838 43.0189 16.9772 0.0000 0.0000 0.0000
# 2 43.0189 83.4061 1.3846 0.0000 0.0000 0.0000
# 3 16.9772 1.3846 20.3263 0.0000 0.0000 0.0000
# 4 0.0000 0.0000 0.0000 1.5897 0.0000 0.0000
# 5 0.0000 0.0000 0.0000 0.0000 13.8386 0.0000
# 6 0.0000 0.0000 0.0000 0.0000 0.0000 20.9709
#
#
#
# Elastic Compliance Matrix: (Units=1/GPa)
#
#
# Indices 1 2 3 4 5 6 
#
# 1 0.009044 -0.004544 -0.007244 0.000000 0.000000 0.000000
# 2 -0.004544 0.014287 0.002823 0.000000 0.000000 0.000000
# 3 -0.007244 0.002823 0.055056 0.000000 0.000000 0.000000
# 4 0.000000 0.000000 0.000000 0.629046 0.000000 0.000000
# 5 0.000000 0.000000 0.000000 0.000000 0.072262 0.000000
# 6 0.000000 0.000000 0.000000 0.000000 0.000000 0.047685
#
#
# Mechanical properties :
#
#
# Convention : Reuss Voigt Hill
#
# Bulk Modulus (GPa) = 16.54155 41.36418 28.95287
# Shear Modulus (GPa) = 5.77725 19.82221 12.79973
#
# Velocity S-wave (km/s) = 1.67855 3.10920 2.49846
# Velocity P-wave (km/s) = 3.43859 5.75000 4.73742
#
# Compressibility (1/GPa) = 0.06045382
#
# Stress axis : x y z
#
# Youngs Moduli (GPa) = 110.56898 69.99564 18.16339
#
# Poissons Ratio (x) = 0.31809 0.13158
# Poissons Ratio (y) = 0.50248 -0.05127
# Poissons Ratio (z) = 0.80100 -0.19756
#
# Static dielectric constant tensor:
#      x y z
#    x 1.765990 0.000000 0.000000 
#    y 0.000000 1.764940 0.000000 
#    z 0.000000 0.000000 1.773180 
# 
# From -- ./inp_files/17346.got.cif
#   From: 2010.05.17/outbox.cif.g08.bks.cpg/sg49_9_cif.got.tgz:17346.got - 2010.06.03 21:02:19.
