data_PCOD9392476
_publ_section_title
;
Structure prediction by ZEFSAII (Michael W. Deem and Ramdas Pophale) SiO2 
 PCOD9392476
Probable space group: P C C M
;
_chemical_formula_sum "Si O2"
_cell_formula_units_Z 64
_cell_length_a 20.218446
_cell_length_b 20.425003
_cell_length_c 8.739823
_cell_angle_alpha 90.000000
_cell_angle_beta 90.000000
_cell_angle_gamma 90.000000
_cell_volume 3609.213214
_symmetry_space_group_name_H-M "P C C M"
_symmetry_group_IT_number 49
_symmetry_cell_setting 'orthorhombic'
loop_
_space_group_symop_operation_xyz
x,y,z
-x,-y,z
x,-y,1/2-z
-x,y,1/2-z
-x,-y,-z
x,y,-z
-x,y,1/2+z
x,-y,1/2+z
loop_
_atom_site_type_symbol
_atom_site_label
_atom_site_fract_x
_atom_site_fract_y
_atom_site_fract_z
Si Si1 0.432984 0.880924 0.181850
Si Si2 0.288020 0.069412 0.682520
Si Si3 0.285454 0.432347 0.317254
Si Si4 0.432166 0.395929 0.318674
Si Si5 0.818336 0.166198 0.315995
Si Si6 0.926307 0.070144 0.183541
Si Si7 0.245245 0.702411 0.319359
Si Si8 0.602341 0.259127 0.680158
O O1 0.500000 0.910351 0.250000
O O2 0.365805 0.920209 0.213132
O O3 0.422424 0.809719 0.257140
O O4 0.439718 0.873729 0.000000
O O5 0.277111 0.071936 0.500000
O O6 0.246058 0.125852 0.763022
O O7 0.266955 0.000000 0.750000
O O8 0.258736 0.500000 0.250000
O O9 0.286321 0.435155 0.500000
O O10 0.362104 0.424657 0.261502
O O11 0.247470 0.366965 0.265209
O O12 0.500000 0.423009 0.250000
O O13 0.434401 0.403058 0.500000
O O14 0.427648 0.319634 0.272673
O O15 0.823775 0.163740 0.500000
O O16 0.879353 0.128471 0.239847
O O17 0.806587 0.241875 0.269886
O O18 0.000000 0.079270 0.250000
O O19 0.902362 0.000000 0.250000
O O20 0.927810 0.066696 0.000000
O O21 0.236299 0.690220 0.500000
O O22 0.318412 0.733987 0.300744
O O23 0.587031 0.265771 0.500000
#
# Coordination Sequence:
#
# PCOD9392476 Si02
#       8
#     8   8   8   8   8   8   8   8
#     4  11  23  36  51  69  92 124 165 217 276 334
#     4  11  24  39  55  75 100 133 174 223 274 329
#     4  10  21  35  52  72 100 134 171 216 270 328
#     4  10  20  32  46  67  92 124 162 209 262 325
#     4  11  21  37  60  86 114 146 184 227 271 320
#     4  11  22  38  59  87 123 163 199 233 271 319
#     4   9  19  34  55  79 104 135 173 218 267 317
#     4  10  18  32  51  71  94 124 161 210 266 323
#
# _framework density 17.732396999999999
#
# number of rings (size 3 to 8) (size 9 to 14) (size 15 to 20)
#    0.000    1.625    1.250    4.500    0.000    5.000 
#    0.000    2.500    0.000    0.000    0.000    0.000 
#    0.000    0.500    0.000    5.250    0.000    2.250 
#
# Total GULP energy -357570.685030 kJ/mol
# GULP energy per Si atom -5587.041954 kJ/mol
# Density = 1.769204 g / cm^3
# Si number density = 17.732397 Si / 1000 Ang^3
#
#
#
# Elastic Constant Matrix: (Units=GPa)
#
#
# Indices 1 2 3 4 5 6 
#
# 1 65.4404 39.0395 35.3449 0.0000 0.0000 0.0000
# 2 39.0395 125.5247 41.3852 0.0000 0.0000 0.0000
# 3 35.3449 41.3852 68.1929 0.0000 0.0000 0.0000
# 4 0.0000 0.0000 0.0000 19.0296 0.0000 0.0000
# 5 0.0000 0.0000 0.0000 0.0000 30.3097 0.0000
# 6 0.0000 0.0000 0.0000 0.0000 0.0000 19.0330
#
#
#
# Elastic Compliance Matrix: (Units=1/GPa)
#
#
# Indices 1 2 3 4 5 6 
#
# 1 0.022707 -0.003978 -0.009355 0.000000 0.000000 0.000000
# 2 -0.003978 0.010656 -0.004405 0.000000 0.000000 0.000000
# 3 -0.009355 -0.004405 0.022187 0.000000 0.000000 0.000000
# 4 0.000000 0.000000 0.000000 0.052550 0.000000 0.000000
# 5 0.000000 0.000000 0.000000 0.000000 0.032993 0.000000
# 6 0.000000 0.000000 0.000000 0.000000 0.000000 0.052540
#
#
# Mechanical properties :
#
#
# Convention : Reuss Voigt Hill
#
# Bulk Modulus (GPa) = 49.81755 54.52190 52.16973
# Shear Modulus (GPa) = 21.20443 23.23369 22.21906
#
# Velocity S-wave (km/s) = 3.46179 3.62365 3.54364
# Velocity P-wave (km/s) = 6.64332 6.95137 6.79909
#
# Compressibility (1/GPa) = 0.02007325
#
# Stress axis : x y z
#
# Youngs Moduli (GPa) = 44.03968 93.84303 45.07223
#
# Poissons Ratio (x) = 0.37328 0.42165
# Poissons Ratio (y) = 0.17518 0.19856
# Poissons Ratio (z) = 0.41199 0.41341
#
# Static dielectric constant tensor:
#      x y z
#    x 1.619960 0.000000 0.000000 
#    y 0.000000 1.609990 0.000000 
#    z 0.000000 0.000000 1.590690 
# 
# From -- ./inp_files/5946.got.cif
#   From: 2010.05.17/outbox.cif.g08.bks.cpg/sg49_3_cif.got.tgz:5946.got - 2010.06.03 21:02:19.
