data_PCOD9392983
_publ_section_title
;
Structure prediction by ZEFSAII (Michael W. Deem and Ramdas Pophale) SiO2 
 PCOD9392983
Probable space group: P C C M
;
_chemical_formula_sum "Si O2"
_cell_formula_units_Z 34
_cell_length_a 19.637751
_cell_length_b 7.488503
_cell_length_c 10.520766
_cell_angle_alpha 90.000000
_cell_angle_beta 90.000000
_cell_angle_gamma 90.000000
_cell_volume 1547.156044
_symmetry_space_group_name_H-M "P C C M"
_symmetry_group_IT_number 49
_symmetry_cell_setting 'orthorhombic'
loop_
_space_group_symop_operation_xyz
x,y,z
-x,-y,z
x,-y,1/2-z
-x,y,1/2-z
-x,-y,-z
x,y,-z
-x,y,1/2+z
x,-y,1/2+z
loop_
_atom_site_type_symbol
_atom_site_label
_atom_site_fract_x
_atom_site_fract_y
_atom_site_fract_z
Si Si1 0.604209 0.196624 0.234824
Si Si2 0.164654 0.210847 0.000000
Si Si3 0.310103 0.278951 0.500000
Si Si4 0.921449 0.781811 0.753646
Si Si5 0.846550 0.220490 0.000000
Si Si6 0.500000 0.500000 0.250000
Si Si7 0.325521 0.306519 0.000000
O O1 0.661600 0.186246 0.126306
O O2 0.552212 0.353461 0.191234
O O3 0.637541 0.242975 0.370942
O O4 0.573532 0.000000 0.250000
O O5 0.123211 0.272317 0.124663
O O6 0.244881 0.258049 0.000000
O O7 0.158922 0.995246 0.000000
O O8 0.229672 0.286303 0.500000
O O9 0.333272 0.481905 0.500000
O O10 0.885327 0.721081 0.625580
O O11 0.000000 0.724848 0.750000
O O12 0.922011 0.000000 0.750000
#
# Coordination Sequence:
#
# PCOD9392983 Si02
#       7
#     8   4   4   8   4   2   4
#     4  12  26  46  73 100 137 179 223 273 330 397
#     4  10  19  32  56  85 117 161 216 267 326 391
#     4  12  24  45  66  97 135 175 225 280 332 393
#     4   9  17  30  51  83 120 159 209 271 327 387
#     4  10  19  32  56  85 117 161 216 267 326 391
#     4  12  26  50  72 108 140 174 220 270 332 404
#     4  12  24  45  66  97 135 175 225 280 332 393
#
# _framework density 21.975805999999999
#
# number of rings (size 3 to 8) (size 9 to 14) (size 15 to 20)
#    0.000    1.176    2.353    4.588    0.000    6.588 
#    0.000    2.353    0.000    4.235    0.000    0.000 
#    0.000    0.000    0.000    0.000    0.000    0.000 
#
# Total GULP energy -189945.551112 kJ/mol
# GULP energy per Si atom -5586.633856 kJ/mol
# Density = 2.192579 g / cm^3
# Si number density = 21.975806 Si / 1000 Ang^3
#
#
#
# Elastic Constant Matrix: (Units=GPa)
#
#
# Indices 1 2 3 4 5 6 
#
# 1 170.6996 25.3626 82.4789 0.0000 0.0000 0.0000
# 2 25.3626 123.4594 20.6651 0.0000 0.0000 0.0000
# 3 82.4789 20.6651 193.6967 0.0000 0.0000 0.0000
# 4 0.0000 0.0000 0.0000 316.3914 0.0000 0.0000
# 5 0.0000 0.0000 0.0000 0.0000 -44.8470 0.0000
# 6 0.0000 0.0000 0.0000 0.0000 0.0000 24.9527
#
#
#
# Elastic Compliance Matrix: (Units=1/GPa)
#
#
# Indices 1 2 3 4 5 6 
#
# 1 0.007501 -0.001025 -0.003085 0.000000 0.000000 0.000000
# 2 -0.001025 0.008387 -0.000459 0.000000 0.000000 0.000000
# 3 -0.003085 -0.000459 0.006525 0.000000 0.000000 0.000000
# 4 0.000000 0.000000 0.000000 0.003161 0.000000 0.000000
# 5 0.000000 0.000000 0.000000 0.000000 -0.022298 0.000000
# 6 0.000000 0.000000 0.000000 0.000000 0.000000 0.040076
#
#
# Mechanical properties :
#
#
# Convention : Reuss Voigt Hill
#
# Bulk Modulus (GPa) = 75.31528 82.76322 79.03925
# Shear Modulus (GPa) = 87.85319 83.25602 85.55461
#
# Velocity S-wave (km/s) = 6.32961 6.16178 6.24626
# Velocity P-wave (km/s) = 9.36830 9.40033 9.38433
#
# Compressibility (1/GPa) = 0.01327752
#
# Stress axis : x y z
#
# Youngs Moduli (GPa) = 133.31641 119.23123 153.25346
#
# Poissons Ratio (x) = 0.12217 0.47274
# Poissons Ratio (y) = 0.13660 0.07027
# Poissons Ratio (z) = 0.41124 0.05467
#
# Static dielectric constant tensor:
#      x y z
#    x 1.770770 0.000000 0.000000 
#    y 0.000000 1.849210 0.000000 
#    z 0.000000 0.000000 1.757340 
# 
# From -- ./inp_files/5577.got.cif
#   From: 2010.05.17/outbox.cif.g08.bks.cpg/sg49_3_cif.got.tgz:5577.got - 2010.06.03 21:02:19.
