data_PCOD9392149
_publ_section_title
;
Structure prediction by ZEFSAII (Michael W. Deem and Ramdas Pophale) SiO2 
 PCOD9392149
Probable space group: P C C M
;
_chemical_formula_sum "Si O2"
_cell_formula_units_Z 64
_cell_length_a 29.385773
_cell_length_b 14.339267
_cell_length_c 8.816877
_cell_angle_alpha 90.000000
_cell_angle_beta 90.000000
_cell_angle_gamma 90.000000
_cell_volume 3715.171385
_symmetry_space_group_name_H-M "P C C M"
_symmetry_group_IT_number 49
_symmetry_cell_setting 'orthorhombic'
loop_
_space_group_symop_operation_xyz
x,y,z
-x,-y,z
x,-y,1/2-z
-x,y,1/2-z
-x,-y,-z
x,y,-z
-x,y,1/2+z
x,-y,1/2+z
loop_
_atom_site_type_symbol
_atom_site_label
_atom_site_fract_x
_atom_site_fract_y
_atom_site_fract_z
Si Si1 0.186325 0.717410 0.681104
Si Si2 0.449071 0.090631 0.679567
Si Si3 0.450907 0.721859 0.678034
Si Si4 0.861089 0.103696 0.182358
Si Si5 0.362222 0.600866 0.677973
Si Si6 0.952158 0.782432 0.318814
Si Si7 0.269959 0.394930 0.681190
Si Si8 0.906291 0.396819 0.680634
O O1 0.192093 0.725737 0.500000
O O2 0.173041 0.818073 0.750227
O O3 0.230163 0.670652 0.756485
O O4 0.143897 0.646872 0.708790
O O5 0.500000 0.092783 0.750000
O O6 0.451485 0.083719 0.500000
O O7 0.430702 0.188192 0.736663
O O8 0.425807 0.000000 0.750000
O O9 0.500000 0.697182 0.750000
O O10 0.458431 0.743035 0.500000
O O11 0.411499 0.646798 0.692555
O O12 0.911133 0.146409 0.219394
O O13 0.855543 0.000000 0.250000
O O14 0.856582 0.100444 0.000000
O O15 0.366327 0.500000 0.750000
O O16 0.350915 0.596215 0.500000
O O17 0.318925 0.644099 0.763765
O O18 0.955012 0.776109 0.500000
O O19 0.939539 0.680517 0.252616
O O20 0.000000 0.813353 0.250000
O O21 0.265128 0.500000 0.750000
O O22 0.268376 0.401368 0.500000
O O23 0.910530 0.500000 0.750000
O O24 0.913454 0.401303 0.500000
#
# Coordination Sequence:
#
# PCOD9392149 Si02
#       8
#     8   8   8   8   8   8   8   8
#     4  10  20  35  56  81 108 136 169 212 260 312
#     4  10  17  27  45  68  95 124 158 201 247 295
#     4  10  20  33  50  73 101 135 175 217 260 306
#     4  10  21  37  57  81 108 139 176 219 265 313
#     4  10  21  36  53  74 103 138 176 216 257 304
#     4  10  21  36  53  74 103 138 179 223 264 310
#     4  11  21  34  55  81 109 139 172 210 256 310
#     4  10  20  33  51  75 104 137 172 212 259 311
#
# _framework density 17.226662000000001
#
# number of rings (size 3 to 8) (size 9 to 14) (size 15 to 20)
#    0.000    1.875    0.000    6.750    0.000    6.750 
#    0.000    3.750    0.000    0.750    0.000    1.750 
#    0.000    0.000    0.000    0.000    0.000    0.000 
#
# Total GULP energy -357000.751884 kJ/mol
# GULP energy per Si atom -5578.136748 kJ/mol
# Density = 1.718745 g / cm^3
# Si number density = 17.226662 Si / 1000 Ang^3
#
#
#
# Elastic Constant Matrix: (Units=GPa)
#
#
# Indices 1 2 3 4 5 6 
#
# 1 89.3116 41.6412 59.7797 0.0000 0.0000 0.0000
# 2 41.6412 97.6356 51.5604 0.0000 0.0000 0.0000
# 3 59.7797 51.5604 120.5850 0.0000 0.0000 0.0000
# 4 0.0000 0.0000 0.0000 31.6661 0.0000 0.0000
# 5 0.0000 0.0000 0.0000 0.0000 29.2676 0.0000
# 6 0.0000 0.0000 0.0000 0.0000 0.0000 17.3510
#
#
#
# Elastic Compliance Matrix: (Units=1/GPa)
#
#
# Indices 1 2 3 4 5 6 
#
# 1 0.017776 -0.003782 -0.007196 0.000000 0.000000 0.000000
# 2 -0.003782 0.014034 -0.004126 0.000000 0.000000 0.000000
# 3 -0.007196 -0.004126 0.013624 0.000000 0.000000 0.000000
# 4 0.000000 0.000000 0.000000 0.031580 0.000000 0.000000
# 5 0.000000 0.000000 0.000000 0.000000 0.034167 0.000000
# 6 0.000000 0.000000 0.000000 0.000000 0.000000 0.057633
#
#
# Mechanical properties :
#
#
# Convention : Reuss Voigt Hill
#
# Bulk Modulus (GPa) = 65.66788 68.16609 66.91698
# Shear Modulus (GPa) = 24.49817 25.96034 25.22926
#
# Velocity S-wave (km/s) = 3.77518 3.88620 3.83109
# Velocity P-wave (km/s) = 7.56342 7.73258 7.64847
#
# Compressibility (1/GPa) = 0.01522815
#
# Stress axis : x y z
#
# Youngs Moduli (GPa) = 56.25524 71.25609 73.39838
#
# Poissons Ratio (x) = 0.26946 0.52814
# Poissons Ratio (y) = 0.21273 0.30284
# Poissons Ratio (z) = 0.40479 0.29400
#
# Static dielectric constant tensor:
#      x y z
#    x 1.578100 0.000000 0.000000 
#    y 0.000000 1.610410 0.000000 
#    z 0.000000 0.000000 1.577740 
# 
# From -- ./inp_files/6995.got.cif
#   From: 2010.05.17/outbox.cif.g08.bks.cpg/sg49_4_cif.got.tgz:6995.got - 2010.06.03 21:02:19.
