data_PCOD9392770
_publ_section_title
;
Structure prediction by ZEFSAII (Michael W. Deem and Ramdas Pophale) SiO2 
 PCOD9392770
Probable space group: P C C M
;
_chemical_formula_sum "Si O2"
_cell_formula_units_Z 56
_cell_length_a 24.907200
_cell_length_b 14.164089
_cell_length_c 9.688600
_cell_angle_alpha 90.000000
_cell_angle_beta 90.000000
_cell_angle_gamma 90.000000
_cell_volume 3418.019855
_symmetry_space_group_name_H-M "P C C M"
_symmetry_group_IT_number 49
_symmetry_cell_setting 'orthorhombic'
loop_
_space_group_symop_operation_xyz
x,y,z
-x,-y,z
x,-y,1/2-z
-x,y,1/2-z
-x,-y,-z
x,y,-z
-x,y,1/2+z
x,-y,1/2+z
loop_
_atom_site_type_symbol
_atom_site_label
_atom_site_fract_x
_atom_site_fract_y
_atom_site_fract_z
Si Si1 0.256245 0.274038 0.334845
Si Si2 0.050255 0.724968 0.164866
Si Si3 0.555009 0.390489 0.000000
Si Si4 0.845736 0.406990 0.840426
Si Si5 0.566235 0.618414 0.000000
Si Si6 0.909046 0.094869 0.663983
Si Si7 0.779334 0.905616 0.837257
Si Si8 0.636439 0.613530 0.740273
O O1 0.256870 0.252456 0.500000
O O2 0.205249 0.341494 0.307889
O O3 0.248018 0.181599 0.241655
O O4 0.309572 0.331076 0.293692
O O5 0.100863 0.655395 0.174820
O O6 0.065172 0.819799 0.249443
O O7 0.000000 0.684092 0.250000
O O8 0.039890 0.741258 0.000000
O O9 0.555942 0.505103 0.000000
O O10 0.495380 0.347851 0.000000
O O11 0.591358 0.365215 0.127982
O O12 0.847174 0.500000 0.750000
O O13 0.840922 0.435262 0.000000
O O14 0.604479 0.643070 0.125055
O O15 0.924416 0.091452 0.500000
O O16 0.844243 0.106711 0.667749
O O17 0.922002 0.000000 0.750000
O O18 0.767154 0.000000 0.750000
O O19 0.764790 0.912326 0.000000
O O20 0.647187 0.500000 0.750000
#
# Coordination Sequence:
#
# PCOD9392770 Si02
#       8
#     8   8   4   8   4   8   8   8
#     4  11  21  36  55  79 114 146 181 226 274 325
#     4  11  23  40  59  81 108 140 182 228 272 325
#     4   9  16  32  46  72 105 153 192 228 274 309
#     4  10  23  40  58  79 106 144 183 226 277 323
#     4   9  18  28  50  70 107 149 196 234 262 317
#     4  10  20  36  59  86 112 140 173 216 271 333
#     4  10  21  36  58  84 110 142 177 217 270 331
#     4  10  19  31  48  76 111 151 192 229 270 314
#
# _framework density 16.383754
#
# number of rings (size 3 to 8) (size 9 to 14) (size 15 to 20)
#    0.000    1.857    2.143    2.143    1.000    5.143 
#    0.000    2.857    0.000    0.000    0.000    0.000 
#    0.000    3.429    0.000    0.000    0.000    0.000 
#
# Total GULP energy -312139.592250 kJ/mol
# GULP energy per Si atom -5573.921290 kJ/mol
# Density = 1.634646 g / cm^3
# Si number density = 16.383754 Si / 1000 Ang^3
#
#
#
# Elastic Constant Matrix: (Units=GPa)
#
#
# Indices 1 2 3 4 5 6 
#
# 1 108.7887 42.0521 63.8040 0.0000 0.0000 0.0000
# 2 42.0521 79.6046 65.1757 0.0000 0.0000 0.0000
# 3 63.8040 65.1757 162.8938 0.0000 0.0000 0.0000
# 4 0.0000 0.0000 0.0000 31.8708 0.0000 0.0000
# 5 0.0000 0.0000 0.0000 0.0000 27.3211 0.0000
# 6 0.0000 0.0000 0.0000 0.0000 0.0000 26.6392
#
#
#
# Elastic Compliance Matrix: (Units=1/GPa)
#
#
# Indices 1 2 3 4 5 6 
#
# 1 0.012707 -0.003923 -0.003408 0.000000 0.000000 0.000000
# 2 -0.003923 0.019893 -0.006423 0.000000 0.000000 0.000000
# 3 -0.003408 -0.006423 0.010044 0.000000 0.000000 0.000000
# 4 0.000000 0.000000 0.000000 0.031377 0.000000 0.000000
# 5 0.000000 0.000000 0.000000 0.000000 0.036602 0.000000
# 6 0.000000 0.000000 0.000000 0.000000 0.000000 0.037539
#
#
# Mechanical properties :
#
#
# Convention : Reuss Voigt Hill
#
# Bulk Modulus (GPa) = 66.06297 77.03897 71.55097
# Shear Modulus (GPa) = 27.66816 29.18324 28.42570
#
# Velocity S-wave (km/s) = 4.11391 4.22504 4.16984
# Velocity P-wave (km/s) = 7.93570 8.42169 8.18231
#
# Compressibility (1/GPa) = 0.01513707
#
# Stress axis : x y z
#
# Youngs Moduli (GPa) = 78.69666 50.26893 99.56511
#
# Poissons Ratio (x) = 0.19718 0.33929
# Poissons Ratio (y) = 0.30869 0.63951
# Poissons Ratio (z) = 0.26818 0.32288
#
# Static dielectric constant tensor:
#      x y z
#    x 1.545150 0.000000 0.000000 
#    y 0.000000 1.529710 0.000000 
#    z 0.000000 0.000000 1.525200 
# 
# From -- ./inp_files/5845.got.cif
#   From: 2010.05.17/outbox.cif.g08.bks.cpg/sg49_3_cif.got.tgz:5845.got - 2010.06.03 21:02:19.
