data_PCOD9392637
_publ_section_title
;
Structure prediction by ZEFSAII (Michael W. Deem and Ramdas Pophale) SiO2 
 PCOD9392637
Probable space group: P C C M
;
_chemical_formula_sum "Si O2"
_cell_formula_units_Z 64
_cell_length_a 19.486604
_cell_length_b 24.095355
_cell_length_c 8.731137
_cell_angle_alpha 90.000000
_cell_angle_beta 90.000000
_cell_angle_gamma 90.000000
_cell_volume 4099.588740
_symmetry_space_group_name_H-M "P C C M"
_symmetry_group_IT_number 49
_symmetry_cell_setting 'orthorhombic'
loop_
_space_group_symop_operation_xyz
x,y,z
-x,-y,z
x,-y,1/2-z
-x,y,1/2-z
-x,-y,-z
x,y,-z
-x,y,1/2+z
x,-y,1/2+z
loop_
_atom_site_type_symbol
_atom_site_label
_atom_site_fract_x
_atom_site_fract_y
_atom_site_fract_z
Si Si1 0.847351 0.664289 0.315639
Si Si2 0.572391 0.242668 0.682103
Si Si3 0.075688 0.439544 0.183552
Si Si4 0.198877 0.164929 0.684191
Si Si5 0.712032 0.726809 0.317060
Si Si6 0.075271 0.771611 0.317237
Si Si7 0.573348 0.112640 0.683905
Si Si8 0.289481 0.940150 0.816335
O O1 0.853446 0.662009 0.500000
O O2 0.872959 0.607690 0.241076
O O3 0.768922 0.680797 0.276887
O O4 0.894189 0.714782 0.254159
O O5 0.500000 0.261941 0.750000
O O6 0.568721 0.244023 0.500000
O O7 0.638473 0.275859 0.739111
O O8 0.581360 0.177732 0.729061
O O9 0.094085 0.500000 0.250000
O O10 0.000000 0.426204 0.250000
O O11 0.072485 0.441487 0.000000
O O12 0.188420 0.167130 0.500000
O O13 0.252306 0.214298 0.723193
O O14 0.128338 0.180491 0.766691
O O15 0.233658 0.106813 0.725288
O O16 0.702782 0.726090 0.500000
O O17 0.072851 0.766733 0.500000
O O18 0.000000 0.781258 0.250000
O O19 0.500000 0.093833 0.750000
O O20 0.572821 0.109012 0.500000
O O21 0.637061 0.079000 0.750711
O O22 0.271593 0.000000 0.750000
O O23 0.293772 0.942175 0.000000
#
# Coordination Sequence:
#
# PCOD9392637 Si02
#       8
#     8   8   8   8   8   8   8   8
#     4  10  20  34  50  73 104 136 169 207 247 288
#     4  10  19  29  46  69  96 127 161 197 237 290
#     4  11  21  34  51  72 101 140 180 216 249 289
#     4   9  19  35  52  70  95 124 153 191 240 292
#     4   9  17  31  50  70  96 127 160 198 245 290
#     4  11  21  33  52  76 101 127 158 197 241 290
#     4  10  20  33  49  70  94 124 159 197 237 284
#     4  11  22  36  53  71  94 122 155 196 239 289
#
# _framework density 15.611323000000001
#
# number of rings (size 3 to 8) (size 9 to 14) (size 15 to 20)
#    0.000    1.875    1.250    5.250    0.000    4.750 
#    0.000    1.250    0.000    0.375    0.000    2.625 
#    0.000    0.500    0.000    5.250    0.000    2.250 
#
# Total GULP energy -357300.616506 kJ/mol
# GULP energy per Si atom -5582.822133 kJ/mol
# Density = 1.557579 g / cm^3
# Si number density = 15.611323 Si / 1000 Ang^3
#
#
#
# Elastic Constant Matrix: (Units=GPa)
#
#
# Indices 1 2 3 4 5 6 
#
# 1 132.7629 63.7256 55.2388 0.0000 0.0000 0.0000
# 2 63.7256 94.8667 44.6200 0.0000 0.0000 0.0000
# 3 55.2388 44.6200 78.8795 0.0000 0.0000 0.0000
# 4 0.0000 0.0000 0.0000 32.1778 0.0000 0.0000
# 5 0.0000 0.0000 0.0000 0.0000 27.7534 0.0000
# 6 0.0000 0.0000 0.0000 0.0000 0.0000 24.0616
#
#
#
# Elastic Compliance Matrix: (Units=1/GPa)
#
#
# Indices 1 2 3 4 5 6 
#
# 1 0.012670 -0.005910 -0.005529 0.000000 0.000000 0.000000
# 2 -0.005910 0.017119 -0.005545 0.000000 0.000000 0.000000
# 3 -0.005529 -0.005545 0.019686 0.000000 0.000000 0.000000
# 4 0.000000 0.000000 0.000000 0.031077 0.000000 0.000000
# 5 0.000000 0.000000 0.000000 0.000000 0.036032 0.000000
# 6 0.000000 0.000000 0.000000 0.000000 0.000000 0.041560
#
#
# Mechanical properties :
#
#
# Convention : Reuss Voigt Hill
#
# Bulk Modulus (GPa) = 64.48969 70.40866 67.44918
# Shear Modulus (GPa) = 25.34447 26.32688 25.83568
#
# Velocity S-wave (km/s) = 4.03360 4.11103 4.07250
# Velocity P-wave (km/s) = 7.94308 8.23001 8.08781
#
# Compressibility (1/GPa) = 0.01550635
#
# Stress axis : x y z
#
# Youngs Moduli (GPa) = 78.92920 58.41401 50.79639
#
# Poissons Ratio (x) = 0.34522 0.28087
# Poissons Ratio (y) = 0.46647 0.28167
# Poissons Ratio (z) = 0.43643 0.32391
#
# Static dielectric constant tensor:
#      x y z
#    x 1.510710 0.000000 0.000000 
#    y 0.000000 1.508140 0.000000 
#    z 0.000000 0.000000 1.519400 
# 
# From -- ./inp_files/5285.got.cif
#   From: 2010.05.17/outbox.cif.g08.bks.cpg/sg49_3_cif.got.tgz:5285.got - 2010.06.03 21:02:19.
