data_PCOD9392750
_publ_section_title
;
Structure prediction by ZEFSAII (Michael W. Deem and Ramdas Pophale) SiO2 
 PCOD9392750
Probable space group: P C C M
;
_chemical_formula_sum "Si O2"
_cell_formula_units_Z 48
_cell_length_a 24.398652
_cell_length_b 14.058955
_cell_length_c 8.666205
_cell_angle_alpha 90.000000
_cell_angle_beta 90.000000
_cell_angle_gamma 90.000000
_cell_volume 2972.677744
_symmetry_space_group_name_H-M "P C C M"
_symmetry_group_IT_number 49
_symmetry_cell_setting 'orthorhombic'
loop_
_space_group_symop_operation_xyz
x,y,z
-x,-y,z
x,-y,1/2-z
-x,y,1/2-z
-x,-y,-z
x,y,-z
-x,y,1/2+z
x,-y,1/2+z
loop_
_atom_site_type_symbol
_atom_site_label
_atom_site_fract_x
_atom_site_fract_y
_atom_site_fract_z
Si Si1 0.058253 0.893678 0.185015
Si Si2 0.772216 0.396367 0.184863
Si Si3 0.662421 0.285662 0.185665
Si Si4 0.722553 0.104365 0.315709
Si Si5 0.170842 0.795365 0.813343
Si Si6 0.440082 0.394695 0.184642
O O1 0.110165 0.829259 0.228302
O O2 0.000000 0.859208 0.250000
O O3 0.066868 0.000000 0.250000
O O4 0.055102 0.898760 0.000000
O O5 0.783448 0.500000 0.250000
O O6 0.711828 0.357991 0.229776
O O7 0.814154 0.312694 0.231705
O O8 0.773204 0.401849 0.000000
O O9 0.681360 0.183173 0.247172
O O10 0.606370 0.323131 0.257466
O O11 0.658990 0.283636 0.000000
O O12 0.719875 0.104266 0.500000
O O13 0.783051 0.137634 0.261268
O O14 0.711331 0.000000 0.250000
O O15 0.176706 0.802359 0.000000
O O16 0.427180 0.500000 0.250000
O O17 0.500000 0.369148 0.250000
O O18 0.441801 0.398613 0.000000
#
# Coordination Sequence:
#
# PCOD9392750 Si02
#       6
#     8   8   8   8   8   8
#     4  10  19  31  48  69  95 124 157 196 242 291
#     4   9  18  31  48  70  97 126 158 196 241 286
#     4  10  20  35  52  73 102 133 165 206 249 293
#     4  11  21  33  51  75 101 131 165 202 244 294
#     4   9  19  34  49  69  98 130 161 200 244 289
#     4  11  21  34  52  76 104 136 171 208 251 297
#
# _framework density 16.147057
#
# number of rings (size 3 to 8) (size 9 to 14) (size 15 to 20)
#    0.000    2.000    0.000    7.000    0.000    7.333 
#    0.000    0.000    0.000    1.000    0.000    7.000 
#    0.000    0.000    0.000    0.000    0.000    0.000 
#
# Total GULP energy -267940.229511 kJ/mol
# GULP energy per Si atom -5582.088115 kJ/mol
# Density = 1.611031 g / cm^3
# Si number density = 16.147057 Si / 1000 Ang^3
#
#
#
# Elastic Constant Matrix: (Units=GPa)
#
#
# Indices 1 2 3 4 5 6 
#
# 1 143.1724 88.4095 57.5821 0.0000 0.0000 0.0000
# 2 88.4095 120.6169 46.6890 0.0000 0.0000 0.0000
# 3 57.5821 46.6890 85.8063 0.0000 0.0000 0.0000
# 4 0.0000 0.0000 0.0000 26.2163 0.0000 0.0000
# 5 0.0000 0.0000 0.0000 0.0000 27.6542 0.0000
# 6 0.0000 0.0000 0.0000 0.0000 0.0000 20.1512
#
#
#
# Elastic Compliance Matrix: (Units=1/GPa)
#
#
# Indices 1 2 3 4 5 6 
#
# 1 0.014222 -0.008526 -0.004905 0.000000 0.000000 0.000000
# 2 -0.008526 0.015614 -0.002774 0.000000 0.000000 0.000000
# 3 -0.004905 -0.002774 0.016455 0.000000 0.000000 0.000000
# 4 0.000000 0.000000 0.000000 0.038144 0.000000 0.000000
# 5 0.000000 0.000000 0.000000 0.000000 0.036161 0.000000
# 6 0.000000 0.000000 0.000000 0.000000 0.000000 0.049625
#
#
# Mechanical properties :
#
#
# Convention : Reuss Voigt Hill
#
# Bulk Modulus (GPa) = 72.04121 81.66186 76.85154
# Shear Modulus (GPa) = 24.12449 25.26533 24.69491
#
# Velocity S-wave (km/s) = 3.86949 3.95992 3.91497
# Velocity P-wave (km/s) = 8.04217 8.46118 8.25433
#
# Compressibility (1/GPa) = 0.01388094
#
# Stress axis : x y z
#
# Youngs Moduli (GPa) = 70.31368 64.04570 60.77064
#
# Poissons Ratio (x) = 0.54604 0.29807
# Poissons Ratio (y) = 0.59948 0.16860
# Poissons Ratio (z) = 0.34488 0.17769
#
# Static dielectric constant tensor:
#      x y z
#    x 1.532350 0.000000 0.000000 
#    y 0.000000 1.524420 0.000000 
#    z 0.000000 0.000000 1.543150 
# 
# From -- ./inp_files/4155.got.cif
#   From: 2010.05.17/outbox.cif.g08.bks.cpg/sg49_3_cif.got.tgz:4155.got - 2010.06.03 21:02:19.
