data_PCOD9392851
_publ_section_title
;
Structure prediction by ZEFSAII (Michael W. Deem and Ramdas Pophale) SiO2 
 PCOD9392851
Probable space group: P C C M
;
_chemical_formula_sum "Si O2"
_cell_formula_units_Z 64
_cell_length_a 20.462068
_cell_length_b 20.437091
_cell_length_c 8.584545
_cell_angle_alpha 90.000000
_cell_angle_beta 90.000000
_cell_angle_gamma 90.000000
_cell_volume 3589.929202
_symmetry_space_group_name_H-M "P C C M"
_symmetry_group_IT_number 49
_symmetry_cell_setting 'orthorhombic'
loop_
_space_group_symop_operation_xyz
x,y,z
-x,-y,z
x,-y,1/2-z
-x,y,1/2-z
-x,-y,-z
x,y,-z
-x,y,1/2+z
x,-y,1/2+z
loop_
_atom_site_type_symbol
_atom_site_label
_atom_site_fract_x
_atom_site_fract_y
_atom_site_fract_z
Si Si1 0.246533 0.392957 0.688425
Si Si2 0.896553 0.568268 0.313099
Si Si3 0.205163 0.247899 0.313479
Si Si4 0.068438 0.710587 0.314539
Si Si5 0.389492 0.431481 0.313196
Si Si6 0.432099 0.293494 0.813544
Si Si7 0.672026 0.815028 0.187793
Si Si8 0.428963 0.073174 0.812759
O O1 0.248574 0.394078 0.500000
O O2 0.179933 0.428177 0.735919
O O3 0.237400 0.317511 0.736183
O O4 0.314116 0.423374 0.744027
O O5 0.923881 0.500000 0.250000
O O6 0.901187 0.569811 0.500000
O O7 0.925369 0.635755 0.247692
O O8 0.200371 0.247628 0.500000
O O9 0.132237 0.250405 0.244744
O O10 0.255828 0.193114 0.257349
O O11 0.067867 0.709392 0.500000
O O12 0.000000 0.737294 0.250000
O O13 0.415769 0.500000 0.250000
O O14 0.391232 0.432081 0.500000
O O15 0.423957 0.366321 0.252659
O O16 0.500000 0.265707 0.750000
O O17 0.372198 0.247386 0.764062
O O18 0.433657 0.295554 0.000000
O O19 0.629509 0.878234 0.233889
O O20 0.677018 0.814463 0.000000
O O21 0.500000 0.095030 0.750000
O O22 0.418124 0.000000 0.750000
O O23 0.432242 0.072096 0.000000
#
# Coordination Sequence:
#
# PCOD9392851 Si02
#       8
#     8   8   8   8   8   8   8   8
#     4   8  16  30  48  70  95 122 158 205 260 319
#     4  10  19  32  48  71  97 127 167 211 265 328
#     4  10  19  34  56  81 106 135 173 218 266 318
#     4  11  22  37  54  74 102 137 173 217 271 326
#     4  11  21  35  51  70  93 124 163 213 271 326
#     4  11  23  38  54  74  98 130 170 217 270 322
#     4  10  21  36  56  83 112 143 182 225 268 317
#     4  10  20  35  55  83 120 159 197 231 270 320
#
# _framework density 17.827649999999998
#
# number of rings (size 3 to 8) (size 9 to 14) (size 15 to 20)
#    0.000    1.875    1.250    4.875    0.000    2.000 
#    0.000    3.750    0.000    0.000    0.000    0.000 
#    0.000    0.500    0.000    5.250    0.000    2.875 
#
# Total GULP energy -357371.736152 kJ/mol
# GULP energy per Si atom -5583.933377 kJ/mol
# Density = 1.778707 g / cm^3
# Si number density = 17.827650 Si / 1000 Ang^3
#
#
#
# Elastic Constant Matrix: (Units=GPa)
#
#
# Indices 1 2 3 4 5 6 
#
# 1 141.1374 48.8025 41.4445 0.0000 0.0000 0.0000
# 2 48.8025 76.4766 28.2104 0.0000 0.0000 0.0000
# 3 41.4445 28.2104 71.5958 0.0000 0.0000 0.0000
# 4 0.0000 0.0000 0.0000 17.6925 0.0000 0.0000
# 5 0.0000 0.0000 0.0000 0.0000 27.0832 0.0000
# 6 0.0000 0.0000 0.0000 0.0000 0.0000 50.4644
#
#
#
# Elastic Compliance Matrix: (Units=1/GPa)
#
#
# Indices 1 2 3 4 5 6 
#
# 1 0.009900 -0.004918 -0.003793 0.000000 0.000000 0.000000
# 2 -0.004918 0.017743 -0.004144 0.000000 0.000000 0.000000
# 3 -0.003793 -0.004144 0.017796 0.000000 0.000000 0.000000
# 4 0.000000 0.000000 0.000000 0.056521 0.000000 0.000000
# 5 0.000000 0.000000 0.000000 0.000000 0.036923 0.000000
# 6 0.000000 0.000000 0.000000 0.000000 0.000000 0.019816
#
#
# Mechanical properties :
#
#
# Convention : Reuss Voigt Hill
#
# Bulk Modulus (GPa) = 50.68890 58.45830 54.57360
# Shear Modulus (GPa) = 26.18004 30.43150 28.30577
#
# Velocity S-wave (km/s) = 3.83627 4.13605 3.98898
# Velocity P-wave (km/s) = 6.93665 7.46131 7.20376
#
# Compressibility (1/GPa) = 0.01972818
#
# Stress axis : x y z
#
# Youngs Moduli (GPa) = 101.01366 56.35989 56.19349
#
# Poissons Ratio (x) = 0.27720 0.21312
# Poissons Ratio (y) = 0.49682 0.23287
# Poissons Ratio (z) = 0.38311 0.23356
#
# Static dielectric constant tensor:
#      x y z
#    x 1.644790 0.000000 0.000000 
#    y 0.000000 1.596500 0.000000 
#    z 0.000000 0.000000 1.595140 
# 
# From -- ./inp_files/6088.got.cif
#   From: 2010.05.17/outbox.cif.g08.bks.cpg/sg49_4_cif.got.tgz:6088.got - 2010.06.03 21:02:19.
