data_PCOD9392063
_publ_section_title
;
Structure prediction by ZEFSAII (Michael W. Deem and Ramdas Pophale) SiO2 
 PCOD9392063
Probable space group: P C C M
;
_chemical_formula_sum "Si O2"
_cell_formula_units_Z 48
_cell_length_a 5.226904
_cell_length_b 27.260855
_cell_length_c 16.553922
_cell_angle_alpha 90.000000
_cell_angle_beta 90.000000
_cell_angle_gamma 90.000000
_cell_volume 2358.766228
_symmetry_space_group_name_H-M "P C C M"
_symmetry_group_IT_number 49
_symmetry_cell_setting 'orthorhombic'
loop_
_space_group_symop_operation_xyz
x,y,z
-x,-y,z
x,-y,1/2-z
-x,y,1/2-z
-x,-y,-z
x,y,-z
-x,y,1/2+z
x,-y,1/2+z
loop_
_atom_site_type_symbol
_atom_site_label
_atom_site_fract_x
_atom_site_fract_y
_atom_site_fract_z
Si Si1 0.089701 0.771919 0.906584
Si Si2 0.253670 0.021950 0.657213
Si Si3 0.553275 0.388826 0.594070
Si Si4 0.043077 0.558221 0.844464
Si Si5 0.749779 0.865176 0.695239
Si Si6 0.422857 0.719917 0.342410
O O1 0.184792 0.823046 0.868446
O O2 0.338474 0.737943 0.895869
O O3 0.842001 0.747904 0.862995
O O4 0.022021 0.777658 0.000000
O O5 0.276656 0.080211 0.659996
O O6 0.500000 0.000000 0.615837
O O7 0.252688 0.000000 0.750000
O O8 0.000000 0.000000 0.619549
O O9 0.501133 0.378610 0.500000
O O10 0.319699 0.421296 0.629192
O O11 0.593063 0.337963 0.641405
O O12 0.819977 0.416968 0.603939
O O13 0.000000 0.500000 0.852930
O O14 0.000000 0.570476 0.750000
O O15 0.500000 0.854199 0.750000
O O16 0.000000 0.867781 0.750000
O O17 0.500000 0.729482 0.250000
#
# Coordination Sequence:
#
# PCOD9392063 Si02
#       6
#     8   8   8   8   8   8
#     4  12  26  43  62  91 131 166 203 261 328 380
#     4  10  16  30  51  86 115 148 197 260 302 346
#     4  12  25  42  67  97 130 170 210 261 329 384
#     4  11  24  43  66  96 133 173 219 266 312 369
#     4  12  21  35  61  90 119 157 210 257 308 369
#     4  12  25  46  69  92 123 164 221 265 309 378
#
# _framework density 20.349620000000002
#
# number of rings (size 3 to 8) (size 9 to 14) (size 15 to 20)
#    0.000    0.500    3.333    8.000    0.000    3.333 
#    0.000    0.000    0.000    1.000    0.000    0.000 
#    0.000    0.000    0.000    0.000    0.000    0.000 
#
# Total GULP energy -268322.136701 kJ/mol
# GULP energy per Si atom -5590.044515 kJ/mol
# Density = 2.030330 g / cm^3
# Si number density = 20.349620 Si / 1000 Ang^3
#
#
#
# Elastic Constant Matrix: (Units=GPa)
#
#
# Indices 1 2 3 4 5 6 
#
# 1 155.4834 37.6665 26.2762 0.0000 0.0000 0.0000
# 2 37.6665 120.8668 37.0395 0.0000 0.0000 0.0000
# 3 26.2762 37.0395 73.1023 0.0000 0.0000 0.0000
# 4 0.0000 0.0000 0.0000 -46.2047 0.0000 0.0000
# 5 0.0000 0.0000 0.0000 0.0000 30.7969 0.0000
# 6 0.0000 0.0000 0.0000 0.0000 0.0000 32.0538
#
#
#
# Elastic Compliance Matrix: (Units=1/GPa)
#
#
# Indices 1 2 3 4 5 6 
#
# 1 0.007131 -0.001701 -0.001701 0.000000 0.000000 0.000000
# 2 -0.001701 0.010200 -0.004557 0.000000 0.000000 0.000000
# 3 -0.001701 -0.004557 0.016600 0.000000 0.000000 0.000000
# 4 0.000000 0.000000 0.000000 -0.021643 0.000000 0.000000
# 5 0.000000 0.000000 0.000000 0.000000 0.032471 0.000000
# 6 0.000000 0.000000 0.000000 0.000000 0.000000 0.031198
#
#
# Mechanical properties :
#
#
# Convention : Reuss Voigt Hill
#
# Bulk Modulus (GPa) = 55.51606 61.26854 58.39230
# Shear Modulus (GPa) = 51.08343 19.89389 35.48866
#
# Velocity S-wave (km/s) = 5.01571 3.13006 4.18059
# Velocity P-wave (km/s) = 7.80279 6.57543 7.21526
#
# Compressibility (1/GPa) = 0.01801281
#
# Stress axis : x y z
#
# Youngs Moduli (GPa) = 140.22987 98.03866 60.24143
#
# Poissons Ratio (x) = 0.16676 0.10250
# Poissons Ratio (y) = 0.23852 0.27451
# Poissons Ratio (z) = 0.23859 0.44674
#
# Static dielectric constant tensor:
#      x y z
#    x 1.706620 0.000000 0.000000 
#    y 0.000000 -3.533120 0.000000 
#    z 0.000000 0.000000 1.699440 
# 
# From -- ./inp_files/10722.got.cif
#   From: 2010.05.17/outbox.cif.g08.bks.cpg/sg49_6_cif.got.tgz:10722.got - 2010.06.03 21:02:19.
