data_PCOD9392296
_publ_section_title
;
Structure prediction by ZEFSAII (Michael W. Deem and Ramdas Pophale) SiO2 
 PCOD9392296
Probable space group: P C C M
;
_chemical_formula_sum "Si O2"
_cell_formula_units_Z 64
_cell_length_a 26.992835
_cell_length_b 18.945388
_cell_length_c 8.875326
_cell_angle_alpha 90.000000
_cell_angle_beta 90.000000
_cell_angle_gamma 90.000000
_cell_volume 4538.750587
_symmetry_space_group_name_H-M "P C C M"
_symmetry_group_IT_number 49
_symmetry_cell_setting 'orthorhombic'
loop_
_space_group_symop_operation_xyz
x,y,z
-x,-y,z
x,-y,1/2-z
-x,y,1/2-z
-x,-y,-z
x,y,-z
-x,y,1/2+z
x,-y,1/2+z
loop_
_atom_site_type_symbol
_atom_site_label
_atom_site_fract_x
_atom_site_fract_y
_atom_site_fract_z
Si Si1 0.858578 0.841052 0.321427
Si Si2 0.743378 0.423986 0.821601
Si Si3 0.244308 0.077109 0.679166
Si Si4 0.793928 0.715071 0.678495
Si Si5 0.552652 0.577284 0.818866
Si Si6 0.946858 0.076459 0.679497
Si Si7 0.703522 0.202933 0.322102
Si Si8 0.348821 0.660677 0.318568
O O1 0.868570 0.850346 0.500000
O O2 0.808977 0.886468 0.285046
O O3 0.843703 0.759291 0.294772
O O4 0.904349 0.869355 0.227189
O O5 0.751383 0.500000 0.750000
O O6 0.788051 0.368068 0.795080
O O7 0.693888 0.387253 0.755722
O O8 0.737060 0.431783 0.000000
O O9 0.247409 0.072499 0.500000
O O10 0.287119 0.129326 0.739079
O O11 0.246847 0.000000 0.750000
O O12 0.781510 0.727438 0.500000
O O13 0.752315 0.751620 0.780545
O O14 0.563542 0.500000 0.750000
O O15 0.500000 0.599815 0.750000
O O16 0.597585 0.629565 0.780988
O O17 0.548785 0.571578 0.000000
O O18 0.950851 0.070251 0.500000
O O19 0.000000 0.096134 0.750000
O O20 0.933832 0.000000 0.750000
O O21 0.700561 0.190331 0.500000
O O22 0.660127 0.257342 0.275719
O O23 0.342564 0.656431 0.500000
#
# Coordination Sequence:
#
# PCOD9392296 Si02
#       8
#     8   8   8   8   8   8   8   8
#     4   9  17  30  45  60  80 107 139 171 202 237
#     4  10  18  27  41  61  84 111 141 171 204 242
#     4  10  19  29  42  61  85 112 140 169 201 239
#     4   8  16  29  42  57  80 109 138 168 202 241
#     4  10  19  30  42  58  80 106 138 173 208 242
#     4  11  21  32  45  61  82 108 138 171 205 238
#     4   9  16  27  42  59  80 105 134 169 205 240
#     4   9  18  30  43  59  80 108 140 172 206 245
#
# _framework density 14.100796000000001
#
# number of rings (size 3 to 8) (size 9 to 14) (size 15 to 20)
#    0.000    2.500    0.000    4.875    0.000    6.500 
#    0.000    0.000    0.000    0.000    0.000    0.000 
#    0.000    1.000    0.000   11.500    0.000    3.500 
#
# Total GULP energy -356487.290840 kJ/mol
# GULP energy per Si atom -5570.113919 kJ/mol
# Density = 1.406870 g / cm^3
# Si number density = 14.100796 Si / 1000 Ang^3
#
#
#
# Elastic Constant Matrix: (Units=GPa)
#
#
# Indices 1 2 3 4 5 6 
#
# 1 75.9191 52.4149 40.4969 0.0000 0.0000 0.0000
# 2 52.4149 112.1035 46.1569 0.0000 0.0000 0.0000
# 3 40.4969 46.1569 56.1753 0.0000 0.0000 0.0000
# 4 0.0000 0.0000 0.0000 19.6075 0.0000 0.0000
# 5 0.0000 0.0000 0.0000 0.0000 16.5648 0.0000
# 6 0.0000 0.0000 0.0000 0.0000 0.0000 23.7931
#
#
#
# Elastic Compliance Matrix: (Units=1/GPa)
#
#
# Indices 1 2 3 4 5 6 
#
# 1 0.023931 -0.006175 -0.012178 0.000000 0.000000 0.000000
# 2 -0.006175 0.015074 -0.007934 0.000000 0.000000 0.000000
# 3 -0.012178 -0.007934 0.033100 0.000000 0.000000 0.000000
# 4 0.000000 0.000000 0.000000 0.051001 0.000000 0.000000
# 5 0.000000 0.000000 0.000000 0.000000 0.060369 0.000000
# 6 0.000000 0.000000 0.000000 0.000000 0.000000 0.042029
#
#
# Mechanical properties :
#
#
# Convention : Reuss Voigt Hill
#
# Bulk Modulus (GPa) = 51.20249 58.03725 54.61987
# Shear Modulus (GPa) = 17.56907 19.00168 18.28538
#
# Velocity S-wave (km/s) = 3.53365 3.67490 3.60496
# Velocity P-wave (km/s) = 7.28282 7.69771 7.49314
#
# Compressibility (1/GPa) = 0.01953030
#
# Stress axis : x y z
#
# Youngs Moduli (GPa) = 41.78594 66.33768 30.21122
#
# Poissons Ratio (x) = 0.40964 0.36793
# Poissons Ratio (y) = 0.25803 0.23971
# Poissons Ratio (z) = 0.50889 0.52635
#
# Static dielectric constant tensor:
#      x y z
#    x 1.452130 0.000000 0.000000 
#    y 0.000000 1.478730 0.000000 
#    z 0.000000 0.000000 1.473260 
# 
# From -- ./inp_files/6803.got.cif
#   From: 2010.05.17/outbox.cif.g08.bks.cpg/sg49_4_cif.got.tgz:6803.got - 2010.06.03 21:02:19.
