data_PCOD9392333
_publ_section_title
;
Structure prediction by ZEFSAII (Michael W. Deem and Ramdas Pophale) SiO2 
 PCOD9392333
Probable space group: P C C M
;
_chemical_formula_sum "Si O2"
_cell_formula_units_Z 58
_cell_length_a 10.644673
_cell_length_b 17.342637
_cell_length_c 16.625766
_cell_angle_alpha 90.000000
_cell_angle_beta 90.000000
_cell_angle_gamma 90.000000
_cell_volume 3069.227793
_symmetry_space_group_name_H-M "P C C M"
_symmetry_group_IT_number 49
_symmetry_cell_setting 'orthorhombic'
loop_
_space_group_symop_operation_xyz
x,y,z
-x,-y,z
x,-y,1/2-z
-x,y,1/2-z
-x,-y,-z
x,y,-z
-x,y,1/2+z
x,-y,1/2+z
loop_
_atom_site_type_symbol
_atom_site_label
_atom_site_fract_x
_atom_site_fract_y
_atom_site_fract_z
Si Si1 0.253973 0.285508 0.096086
Si Si2 0.039439 0.744464 0.092156
Si Si3 0.000000 0.000000 0.250000
Si Si4 0.927056 0.405821 0.834377
Si Si5 0.353779 0.977893 0.411305
Si Si6 0.638342 0.161354 0.288775
Si Si7 0.180289 0.454083 0.907517
Si Si8 0.180884 0.888874 0.151461
O O1 0.341321 0.234132 0.152656
O O2 0.257893 0.377361 0.115279
O O3 0.109845 0.257030 0.110530
O O4 0.278377 0.277038 0.000000
O O5 0.106813 0.682270 0.149931
O O6 0.100012 0.827666 0.102404
O O7 0.054959 0.719666 0.000000
O O8 0.913731 0.054333 0.196335
O O9 0.821696 0.470063 0.851395
O O10 0.000000 0.413914 0.750000
O O11 0.036829 0.423317 0.899412
O O12 0.323243 0.945905 0.500000
O O13 0.334716 0.914673 0.342544
O O14 0.500000 0.000000 0.409265
O O15 0.274107 0.055039 0.396760
O O16 0.500000 0.158097 0.250000
O O17 0.737525 0.157790 0.216610
O O18 0.207452 0.474123 0.000000
#
# Coordination Sequence:
#
# PCOD9392333 Si02
#       8
#     8   8   2   8   8   8   8   8
#     4   9  20  37  58  86 121 158 194 232 292 357
#     4  10  22  38  56  85 128 162 190 233 291 363
#     4  12  24  36  60  84 120 158 194 230 296 376
#     4  10  18  28  50  83 120 158 193 230 273 338
#     4  11  23  42  64  83 108 146 201 254 296 346
#     4  12  23  40  61  84 114 148 198 256 302 341
#     4   9  16  30  51  77 115 155 188 226 270 334
#     4  12  24  39  59  85 117 154 196 241 297 359
#
# _framework density 18.897262000000001
#
# number of rings (size 3 to 8) (size 9 to 14) (size 15 to 20)
#    0.000    1.517    2.759    4.966    4.828    0.000 
#    0.000    0.690    0.000    0.000    0.000    1.931 
#    0.000    3.310    0.000    0.000    0.000    0.000 
#
# Total GULP energy -323556.993401 kJ/mol
# GULP energy per Si atom -5578.568852 kJ/mol
# Density = 1.885425 g / cm^3
# Si number density = 18.897262 Si / 1000 Ang^3
#
#
#
# Elastic Constant Matrix: (Units=GPa)
#
#
# Indices 1 2 3 4 5 6 
#
# 1 45.3238 25.1113 22.9088 0.0000 0.0000 0.0000
# 2 25.1113 118.8320 44.8305 0.0000 0.0000 0.0000
# 3 22.9088 44.8305 90.1855 0.0000 0.0000 0.0000
# 4 0.0000 0.0000 0.0000 22.8293 0.0000 0.0000
# 5 0.0000 0.0000 0.0000 0.0000 15.6035 0.0000
# 6 0.0000 0.0000 0.0000 0.0000 0.0000 19.9095
#
#
#
# Elastic Compliance Matrix: (Units=1/GPa)
#
#
# Indices 1 2 3 4 5 6 
#
# 1 0.026628 -0.003785 -0.004883 0.000000 0.000000 0.000000
# 2 -0.003785 0.010896 -0.004455 0.000000 0.000000 0.000000
# 3 -0.004883 -0.004455 0.014543 0.000000 0.000000 0.000000
# 4 0.000000 0.000000 0.000000 0.043803 0.000000 0.000000
# 5 0.000000 0.000000 0.000000 0.000000 0.064088 0.000000
# 6 0.000000 0.000000 0.000000 0.000000 0.000000 0.050227
#
#
# Mechanical properties :
#
#
# Convention : Reuss Voigt Hill
#
# Bulk Modulus (GPa) = 38.72613 48.89362 43.80987
# Shear Modulus (GPa) = 20.40502 22.43452 21.41977
#
# Velocity S-wave (km/s) = 3.28958 3.44929 3.37038
# Velocity P-wave (km/s) = 5.91320 6.46475 6.19512
#
# Compressibility (1/GPa) = 0.02582236
#
# Stress axis : x y z
#
# Youngs Moduli (GPa) = 37.55383 91.77976 68.76202
#
# Poissons Ratio (x) = 0.34739 0.33574
# Poissons Ratio (y) = 0.14214 0.30631
# Poissons Ratio (z) = 0.18336 0.40885
#
# Static dielectric constant tensor:
#      x y z
#    x 1.624740 0.000000 0.000000 
#    y 0.000000 1.714100 0.000000 
#    z 0.000000 0.000000 1.690910 
# 
# From -- ./inp_files/16488.got.cif
#   From: 2010.05.17/outbox.cif.g08.bks.cpg/sg49_9_cif.got.tgz:16488.got - 2010.06.03 21:02:19.
