data_PCOD9392970
_publ_section_title
;
Structure prediction by ZEFSAII (Michael W. Deem and Ramdas Pophale) SiO2 
 PCOD9392970
Probable space group: P C C M
;
_chemical_formula_sum "Si O2"
_cell_formula_units_Z 56
_cell_length_a 20.431314
_cell_length_b 15.706933
_cell_length_c 8.797277
_cell_angle_alpha 90.000000
_cell_angle_beta 90.000000
_cell_angle_gamma 90.000000
_cell_volume 2823.163018
_symmetry_space_group_name_H-M "P C C M"
_symmetry_group_IT_number 49
_symmetry_cell_setting 'orthorhombic'
loop_
_space_group_symop_operation_xyz
x,y,z
-x,-y,z
x,-y,1/2-z
-x,y,1/2-z
-x,-y,-z
x,y,-z
-x,y,1/2+z
x,-y,1/2+z
loop_
_atom_site_type_symbol
_atom_site_label
_atom_site_fract_x
_atom_site_fract_y
_atom_site_fract_z
Si Si1 0.250384 0.867924 0.324695
Si Si2 0.066590 0.269692 0.319525
Si Si3 0.900555 0.912019 0.823452
Si Si4 0.570230 0.733792 0.818217
Si Si5 0.335651 0.590985 0.180661
Si Si6 0.382999 0.911638 0.820674
Si Si7 0.789409 0.309032 0.181183
O O1 0.273096 0.873476 0.500000
O O2 0.178775 0.909348 0.314405
O O3 0.305283 0.906031 0.215575
O O4 0.238608 0.770532 0.275153
O O5 0.060803 0.268308 0.500000
O O6 0.075480 0.172778 0.260597
O O7 0.134183 0.317654 0.278663
O O8 0.000000 0.305312 0.250000
O O9 0.923071 0.000000 0.750000
O O10 0.919358 0.907374 0.000000
O O11 0.500000 0.709777 0.750000
O O12 0.622891 0.666441 0.756417
O O13 0.587329 0.828146 0.758023
O O14 0.569214 0.733509 0.000000
O O15 0.352722 0.500000 0.250000
O O16 0.259022 0.612718 0.207015
O O17 0.347271 0.591723 0.000000
O O18 0.407710 0.000000 0.750000
O O19 0.394553 0.908990 0.000000
O O20 0.786251 0.287840 0.000000
#
# Coordination Sequence:
#
# PCOD9392970 Si02
#       7
#     8   8   8   8   8   8   8
#     4  10  19  32  54  83 115 154 202 253 310 366
#     4  10  20  35  54  79 110 152 198 248 303 368
#     4  10  20  32  47  72 106 147 196 252 305 364
#     4  12  26  46  69  96 130 170 211 259 314 374
#     4  11  23  42  69 102 132 165 205 255 312 377
#     4  12  24  39  60  89 125 168 216 264 312 367
#     4   9  19  36  60  86 120 159 200 248 307 366
#
# _framework density 19.835906000000001
#
# number of rings (size 3 to 8) (size 9 to 14) (size 15 to 20)
#    0.000    1.429    1.429    4.714    0.000    4.857 
#    0.000    4.286    0.000    0.429    0.000    3.000 
#    0.000    0.000    0.000    0.000    0.000    0.000 
#
# Total GULP energy -313070.283332 kJ/mol
# GULP energy per Si atom -5590.540774 kJ/mol
# Density = 1.979076 g / cm^3
# Si number density = 19.835906 Si / 1000 Ang^3
#
#
#
# Elastic Constant Matrix: (Units=GPa)
#
#
# Indices 1 2 3 4 5 6 
#
# 1 109.6212 36.0477 45.8351 0.0000 0.0000 0.0000
# 2 36.0477 96.7847 50.7475 0.0000 0.0000 0.0000
# 3 45.8351 50.7475 122.3813 0.0000 0.0000 0.0000
# 4 0.0000 0.0000 0.0000 21.7112 0.0000 0.0000
# 5 0.0000 0.0000 0.0000 0.0000 34.2202 0.0000
# 6 0.0000 0.0000 0.0000 0.0000 0.0000 -8.5538
#
#
#
# Elastic Compliance Matrix: (Units=1/GPa)
#
#
# Indices 1 2 3 4 5 6 
#
# 1 0.011284 -0.002539 -0.003173 0.000000 0.000000 0.000000
# 2 -0.002539 0.013774 -0.004761 0.000000 0.000000 0.000000
# 3 -0.003173 -0.004761 0.011334 0.000000 0.000000 0.000000
# 4 0.000000 0.000000 0.000000 0.046059 0.000000 0.000000
# 5 0.000000 0.000000 0.000000 0.000000 0.029223 0.000000
# 6 0.000000 0.000000 0.000000 0.000000 0.000000 -0.116907
#
#
# Mechanical properties :
#
#
# Convention : Reuss Voigt Hill
#
# Bulk Modulus (GPa) = 64.74214 66.00530 65.37372
# Shear Modulus (GPa) = 239.67754 22.55265 131.11509
#
# Velocity S-wave (km/s) = 11.00420 3.37554 8.13900
# Velocity P-wave (km/s) = 13.93436 6.96709 11.01605
#
# Compressibility (1/GPa) = 0.01544589
#
# Stress axis : x y z
#
# Youngs Moduli (GPa) = 88.62056 72.60035 88.23134
#
# Poissons Ratio (x) = 0.18432 0.27999
# Poissons Ratio (y) = 0.22499 0.42005
# Poissons Ratio (z) = 0.28123 0.34563
#
# Static dielectric constant tensor:
#      x y z
#    x 1.748380 0.000000 0.000000 
#    y 0.000000 1.665210 0.000000 
#    z 0.000000 0.000000 1.665060 
# 
# From -- ./inp_files/5789.got.cif
#   From: 2010.05.17/outbox.cif.g08.bks.cpg/sg49_3_cif.got.tgz:5789.got - 2010.06.03 21:02:19.
