data_PCOD9392219
_publ_section_title
;
Structure prediction by ZEFSAII (Michael W. Deem and Ramdas Pophale) SiO2 
 PCOD9392219
Probable space group: P C C M
;
_chemical_formula_sum "Si O2"
_cell_formula_units_Z 32
_cell_length_a 5.268274
_cell_length_b 8.459779
_cell_length_c 33.342545
_cell_angle_alpha 90.000000
_cell_angle_beta 90.000000
_cell_angle_gamma 90.000000
_cell_volume 1486.025008
_symmetry_space_group_name_H-M "P C C M"
_symmetry_group_IT_number 49
_symmetry_cell_setting 'orthorhombic'
loop_
_space_group_symop_operation_xyz
x,y,z
-x,-y,z
x,-y,1/2-z
-x,y,1/2-z
-x,-y,-z
x,y,-z
-x,y,1/2+z
x,-y,1/2+z
loop_
_atom_site_type_symbol
_atom_site_label
_atom_site_fract_x
_atom_site_fract_y
_atom_site_fract_z
Si Si1 0.692997 0.317518 0.078186
Si Si2 0.037422 0.812916 0.204395
Si Si3 0.467815 0.318802 0.167812
Si Si4 0.196802 0.323233 0.046392
O O1 0.571456 0.310677 0.122145
O O2 0.473191 0.246379 0.050498
O O3 0.749476 0.499067 0.063751
O O4 0.971738 0.245806 0.072086
O O5 0.820906 0.734266 0.176132
O O6 0.000000 0.755918 0.250000
O O7 0.325922 0.779769 0.192227
O O8 0.000000 0.000000 0.203044
O O9 0.500000 0.500000 0.180368
O O10 0.121457 0.331416 0.000000
#
# Coordination Sequence:
#
# PCOD9392219 Si02
#       4
#     8   8   8   8
#     4  10  18  29  46  80 120 154 182 243 298 349
#     4  11  26  46  64  85 120 164 208 249 300 376
#     4  12  23  38  66  94 125 157 193 263 317 354
#     4  10  17  28  47  74 124 169 188 224 300 365
#
# _framework density 21.533957000000001
#
# number of rings (size 3 to 8) (size 9 to 14) (size 15 to 20)
#    0.000    1.250    2.500    7.500    3.500    5.000 
#    0.000    0.000    0.000    0.000    0.000    0.000 
#    0.000  116.000    0.000    0.000    0.000    0.000 
#
# Total GULP energy -178450.699092 kJ/mol
# GULP energy per Si atom -5576.584347 kJ/mol
# Density = 2.148494 g / cm^3
# Si number density = 21.533957 Si / 1000 Ang^3
#
#
#
# Elastic Constant Matrix: (Units=GPa)
#
#
# Indices 1 2 3 4 5 6 
#
# 1 141.3634 -5.3060 -6.2392 0.0000 0.0000 0.0000
# 2 -5.3060 21.5739 -2.0237 0.0000 0.0000 0.0000
# 3 -6.2392 -2.0237 79.4989 0.0000 0.0000 0.0000
# 4 0.0000 0.0000 0.0000 13.6570 0.0000 0.0000
# 5 0.0000 0.0000 0.0000 0.0000 172.8234 0.0000
# 6 0.0000 0.0000 0.0000 0.0000 0.0000 25.7944
#
#
#
# Elastic Compliance Matrix: (Units=1/GPa)
#
#
# Indices 1 2 3 4 5 6 
#
# 1 0.007169 0.001820 0.000609 0.000000 0.000000 0.000000
# 2 0.001820 0.046926 0.001337 0.000000 0.000000 0.000000
# 3 0.000609 0.001337 0.012661 0.000000 0.000000 0.000000
# 4 0.000000 0.000000 0.000000 0.073222 0.000000 0.000000
# 5 0.000000 0.000000 0.000000 0.000000 0.005786 0.000000
# 6 0.000000 0.000000 0.000000 0.000000 0.000000 0.038768
#
#
# Mechanical properties :
#
#
# Convention : Reuss Voigt Hill
#
# Bulk Modulus (GPa) = 13.46099 23.92205 18.69152
# Shear Modulus (GPa) = 24.78173 59.52197 42.15185
#
# Velocity S-wave (km/s) = 3.39606 5.26317 4.42912
# Velocity P-wave (km/s) = 4.65212 6.93309 5.90381
#
# Compressibility (1/GPa) = 0.07428876
#
# Stress axis : x y z
#
# Youngs Moduli (GPa) = 139.48616 21.31037 78.98500
#
# Poissons Ratio (x) = -0.03879 -0.04810
# Poissons Ratio (y) = -0.25391 -0.10564
# Poissons Ratio (z) = -0.08494 -0.02850
#
# Static dielectric constant tensor:
#      x y z
#    x 1.933950 0.000000 0.000000 
#    y 0.000000 1.954010 0.000000 
#    z 0.000000 0.000000 1.835370 
# 
# From -- ./inp_files/25439.got.cif
#   From: 2010.05.17/outbox.cif.g08.bks.cpg/sg49_13_cif.got.tgz:25439.got - 2010.06.03 21:02:19.
