data_PCOD9392004
_publ_section_title
;
Structure prediction by ZEFSAII (Michael W. Deem and Ramdas Pophale) SiO2 
 PCOD9392004
Probable space group: P C C M
;
_chemical_formula_sum "Si O2"
_cell_formula_units_Z 64
_cell_length_a 32.364385
_cell_length_b 14.718937
_cell_length_c 8.661269
_cell_angle_alpha 90.000000
_cell_angle_beta 90.000000
_cell_angle_gamma 90.000000
_cell_volume 4125.963031
_symmetry_space_group_name_H-M "P C C M"
_symmetry_group_IT_number 49
_symmetry_cell_setting 'orthorhombic'
loop_
_space_group_symop_operation_xyz
x,y,z
-x,-y,z
x,-y,1/2-z
-x,y,1/2-z
-x,-y,-z
x,y,-z
-x,y,1/2+z
x,-y,1/2+z
loop_
_atom_site_type_symbol
_atom_site_label
_atom_site_fract_x
_atom_site_fract_y
_atom_site_fract_z
Si Si1 0.042452 0.896549 0.815764
Si Si2 0.295250 0.212112 0.313893
Si Si3 0.423949 0.596922 0.315417
Si Si4 0.781384 0.897660 0.184453
Si Si5 0.623181 0.101318 0.186274
Si Si6 0.126845 0.897306 0.685007
Si Si7 0.543200 0.782336 0.314633
Si Si8 0.330876 0.595994 0.814182
O O1 0.085684 0.854298 0.758223
O O2 0.000000 0.854984 0.750000
O O3 0.043056 0.000000 0.750000
O O4 0.041130 0.899930 0.000000
O O5 0.293072 0.207265 0.500000
O O6 0.254570 0.166633 0.245815
O O7 0.335732 0.155235 0.264064
O O8 0.303374 0.317020 0.272068
O O9 0.438644 0.500000 0.250000
O O10 0.424363 0.595156 0.500000
O O11 0.449363 0.681773 0.251797
O O12 0.376829 0.608658 0.254975
O O13 0.827473 0.861071 0.224021
O O14 0.776580 0.000000 0.250000
O O15 0.779102 0.904222 0.000000
O O16 0.582162 0.156057 0.233328
O O17 0.623274 0.000000 0.250000
O O18 0.623518 0.098516 0.000000
O O19 0.122117 0.899680 0.500000
O O20 0.128350 0.000000 0.750000
O O21 0.500000 0.818436 0.250000
O O22 0.542124 0.778300 0.500000
O O23 0.315089 0.500000 0.750000
O O24 0.334647 0.592145 0.000000
#
# Coordination Sequence:
#
# PCOD9392004 Si02
#       8
#     8   8   8   8   8   8   8   8
#     4  10  16  22  33  49  70 100 141 188 236 281
#     4  10  20  35  53  73  98 126 153 190 231 271
#     4  11  21  35  57  82 105 131 155 182 222 269
#     4  10  20  31  45  66  92 123 159 199 239 281
#     4  10  22  39  56  74  99 125 155 194 229 268
#     4   9  16  26  37  52  77 108 145 190 236 277
#     4  11  23  41  58  77 103 127 157 192 228 271
#     4  10  19  34  54  78 104 127 153 186 225 268
#
# _framework density 15.51153
#
# number of rings (size 3 to 8) (size 9 to 14) (size 15 to 20)
#    0.000    1.875    1.250    6.000    0.000    5.500 
#    0.000    2.500    0.000    0.000    0.000    0.000 
#    0.000    0.000    0.000    0.000    0.000    0.625 
#
# Total GULP energy -357050.303824 kJ/mol
# GULP energy per Si atom -5578.910997 kJ/mol
# Density = 1.547622 g / cm^3
# Si number density = 15.511530 Si / 1000 Ang^3
#
#
#
# Elastic Constant Matrix: (Units=GPa)
#
#
# Indices 1 2 3 4 5 6 
#
# 1 149.3123 54.3193 46.5635 0.0000 0.0000 0.0000
# 2 54.3193 77.9477 27.6445 0.0000 0.0000 0.0000
# 3 46.5635 27.6445 73.9532 0.0000 0.0000 0.0000
# 4 0.0000 0.0000 0.0000 18.9484 0.0000 0.0000
# 5 0.0000 0.0000 0.0000 0.0000 27.9800 0.0000
# 6 0.0000 0.0000 0.0000 0.0000 0.0000 2.8198
#
#
#
# Elastic Compliance Matrix: (Units=1/GPa)
#
#
# Indices 1 2 3 4 5 6 
#
# 1 0.010016 -0.005468 -0.004262 0.000000 0.000000 0.000000
# 2 -0.005468 0.017775 -0.003202 0.000000 0.000000 0.000000
# 3 -0.004262 -0.003202 0.017403 0.000000 0.000000 0.000000
# 4 0.000000 0.000000 0.000000 0.052775 0.000000 0.000000
# 5 0.000000 0.000000 0.000000 0.000000 0.035740 0.000000
# 6 0.000000 0.000000 0.000000 0.000000 0.000000 0.354631
#
#
# Mechanical properties :
#
#
# Convention : Reuss Voigt Hill
#
# Bulk Modulus (GPa) = 51.73441 62.02974 56.88207
# Shear Modulus (GPa) = 9.60344 21.46205 15.53274
#
# Velocity S-wave (km/s) = 2.49090 3.72374 3.16787
# Velocity P-wave (km/s) = 6.45736 7.65275 7.08032
#
# Compressibility (1/GPa) = 0.01932949
#
# Stress axis : x y z
#
# Youngs Moduli (GPa) = 99.84175 56.25836 57.46278
#
# Poissons Ratio (x) = 0.30763 0.24492
# Poissons Ratio (y) = 0.54594 0.18398
# Poissons Ratio (z) = 0.42555 0.18012
#
# Static dielectric constant tensor:
#      x y z
#    x 1.560770 0.000000 0.000000 
#    y 0.000000 1.491880 0.000000 
#    z 0.000000 0.000000 1.526490 
# 
# From -- ./inp_files/7061.got.cif
#   From: 2010.05.17/outbox.cif.g08.bks.cpg/sg49_4_cif.got.tgz:7061.got - 2010.06.03 21:02:19.
