data_PCOD9392605
_publ_section_title
;
Structure prediction by ZEFSAII (Michael W. Deem and Ramdas Pophale) SiO2 
 PCOD9392605
Probable space group: P C C M
;
_chemical_formula_sum "Si O2"
_cell_formula_units_Z 56
_cell_length_a 21.483198
_cell_length_b 18.880546
_cell_length_c 8.914514
_cell_angle_alpha 90.000000
_cell_angle_beta 90.000000
_cell_angle_gamma 90.000000
_cell_volume 3615.856211
_symmetry_space_group_name_H-M "P C C M"
_symmetry_group_IT_number 49
_symmetry_cell_setting 'orthorhombic'
loop_
_space_group_symop_operation_xyz
x,y,z
-x,-y,z
x,-y,1/2-z
-x,y,1/2-z
-x,-y,-z
x,y,-z
-x,y,1/2+z
x,-y,1/2+z
loop_
_atom_site_type_symbol
_atom_site_label
_atom_site_fract_x
_atom_site_fract_y
_atom_site_fract_z
Si Si1 0.759713 0.214595 0.827320
Si Si2 0.934296 0.577825 0.320232
Si Si3 0.180586 0.656508 0.321835
Si Si4 0.373455 0.295673 0.327814
Si Si5 0.310110 0.576843 0.678217
Si Si6 0.564815 0.845405 0.681383
Si Si7 0.692106 0.923496 0.318768
O O1 0.802992 0.263421 0.725829
O O2 0.692452 0.253671 0.829802
O O3 0.743437 0.135408 0.775102
O O4 0.782113 0.213386 0.000000
O O5 0.922695 0.500000 0.250000
O O6 0.938472 0.572994 0.500000
O O7 0.878002 0.627264 0.268511
O O8 0.000000 0.602023 0.250000
O O9 0.170095 0.651126 0.500000
O O10 0.241830 0.609304 0.283844
O O11 0.388832 0.313660 0.500000
O O12 0.360772 0.366495 0.235815
O O13 0.420957 0.235922 0.270474
O O14 0.317333 0.500000 0.750000
O O15 0.313513 0.571366 0.500000
O O16 0.500000 0.869905 0.750000
O O17 0.562260 0.845407 0.500000
O O18 0.623962 0.893321 0.725940
O O19 0.692685 0.926561 0.500000
O O20 0.702783 0.000000 0.250000
#
# Coordination Sequence:
#
# PCOD9392605 Si02
#       7
#     8   8   8   8   8   8   8
#     4   8  15  29  46  63  85 115 147 181 221 264
#     4  11  21  33  47  64  91 127 163 197 231 265
#     4  10  19  30  45  67  91 117 152 188 222 265
#     4   8  15  29  45  59  80 108 139 176 219 262
#     4  10  19  28  42  64  87 110 139 177 221 265
#     4   9  18  31  46  64  85 113 146 179 214 259
#     4   9  18  31  46  66  93 121 148 178 219 265
#
# _framework density 15.487342
#
# number of rings (size 3 to 8) (size 9 to 14) (size 15 to 20)
#    0.000    2.714    0.000    4.714    0.000    4.857 
#    0.000    4.286    0.000    0.429    0.000    3.000 
#    0.000    0.571    0.000    6.000    0.000    3.286 
#
# Total GULP energy -312042.164698 kJ/mol
# GULP energy per Si atom -5572.181512 kJ/mol
# Density = 1.545209 g / cm^3
# Si number density = 15.487342 Si / 1000 Ang^3
#
#
#
# Elastic Constant Matrix: (Units=GPa)
#
#
# Indices 1 2 3 4 5 6 
#
# 1 26.5610 14.0432 11.2045 0.0000 0.0000 0.0000
# 2 14.0432 107.0522 26.3258 0.0000 0.0000 0.0000
# 3 11.2045 26.3258 41.7801 0.0000 0.0000 0.0000
# 4 0.0000 0.0000 0.0000 27.3717 0.0000 0.0000
# 5 0.0000 0.0000 0.0000 0.0000 7.2386 0.0000
# 6 0.0000 0.0000 0.0000 0.0000 0.0000 16.6773
#
#
#
# Elastic Compliance Matrix: (Units=1/GPa)
#
#
# Indices 1 2 3 4 5 6 
#
# 1 0.043446 -0.003354 -0.009538 0.000000 0.000000 0.000000
# 2 -0.003354 0.011313 -0.006229 0.000000 0.000000 0.000000
# 3 -0.009538 -0.006229 0.030418 0.000000 0.000000 0.000000
# 4 0.000000 0.000000 0.000000 0.036534 0.000000 0.000000
# 5 0.000000 0.000000 0.000000 0.000000 0.138147 0.000000
# 6 0.000000 0.000000 0.000000 0.000000 0.000000 0.059962
#
#
# Mechanical properties :
#
#
# Convention : Reuss Voigt Hill
#
# Bulk Modulus (GPa) = 21.30601 30.94891 26.12746
# Shear Modulus (GPa) = 13.37949 18.51218 15.94583
#
# Velocity S-wave (km/s) = 2.94240 3.46108 3.21223
# Velocity P-wave (km/s) = 5.03295 5.99990 5.53757
#
# Compressibility (1/GPa) = 0.04693512
#
# Stress axis : x y z
#
# Youngs Moduli (GPa) = 23.01711 88.39407 32.87569
#
# Poissons Ratio (x) = 0.29645 0.31357
# Poissons Ratio (y) = 0.07719 0.20478
# Poissons Ratio (z) = 0.21954 0.55060
#
# Static dielectric constant tensor:
#      x y z
#    x 1.508040 0.000000 0.000000 
#    y 0.000000 1.519560 0.000000 
#    z 0.000000 0.000000 1.520040 
# 
# From -- ./inp_files/5185.got.cif
#   From: 2010.05.17/outbox.cif.g08.bks.cpg/sg49_3_cif.got.tgz:5185.got - 2010.06.03 21:02:19.
