data_PCOD9392097
_publ_section_title
;
Structure prediction by ZEFSAII (Michael W. Deem and Ramdas Pophale) SiO2 
 PCOD9392097
Probable space group: P C C M
;
_chemical_formula_sum "Si O2"
_cell_formula_units_Z 48
_cell_length_a 16.218248
_cell_length_b 19.001507
_cell_length_c 8.771573
_cell_angle_alpha 90.000000
_cell_angle_beta 90.000000
_cell_angle_gamma 90.000000
_cell_volume 2703.145764
_symmetry_space_group_name_H-M "P C C M"
_symmetry_group_IT_number 49
_symmetry_cell_setting 'orthorhombic'
loop_
_space_group_symop_operation_xyz
x,y,z
-x,-y,z
x,-y,1/2-z
-x,y,1/2-z
-x,-y,-z
x,y,-z
-x,y,1/2+z
x,-y,1/2+z
loop_
_atom_site_type_symbol
_atom_site_label
_atom_site_fract_x
_atom_site_fract_y
_atom_site_fract_z
Si Si1 0.582729 0.169476 0.317349
Si Si2 0.913934 0.921956 0.681262
Si Si3 0.753747 0.331343 0.682555
Si Si4 0.234401 0.834696 0.317654
Si Si5 0.416454 0.672064 0.818583
Si Si6 0.913820 0.578186 0.182967
O O1 0.500000 0.135018 0.250000
O O2 0.575764 0.175074 0.500000
O O3 0.672797 0.138277 0.281705
O O4 0.585275 0.248145 0.247454
O O5 0.920782 0.926441 0.500000
O O6 0.836811 0.875070 0.730457
O O7 0.000000 0.893821 0.750000
O O8 0.902982 0.000000 0.750000
O O9 0.740909 0.335838 0.500000
O O10 0.766994 0.248707 0.718201
O O11 0.670887 0.358406 0.763907
O O12 0.835115 0.374673 0.723410
O O13 0.222106 0.842108 0.500000
O O14 0.500000 0.639069 0.750000
O O15 0.421732 0.673784 0.000000
O O16 0.903238 0.500000 0.250000
O O17 0.000000 0.606352 0.250000
O O18 0.920042 0.574519 0.000000
#
# Coordination Sequence:
#
# PCOD9392097 Si02
#       6
#     8   8   8   8   8   8
#     4   9  16  27  45  69 101 135 166 202 243 290
#     4  11  22  37  56  75  98 130 167 205 247 299
#     4   9  19  34  51  74 104 134 165 206 252 294
#     4   9  18  33  51  75 105 133 164 205 250 292
#     4  10  17  26  44  69  99 132 166 203 244 293
#     4  10  20  35  54  74  99 132 169 207 248 298
#
# _framework density 17.757089000000001
#
# number of rings (size 3 to 8) (size 9 to 14) (size 15 to 20)
#    0.000    2.333    0.000    7.000    0.000    5.333 
#    0.000    1.667    0.000    1.000    0.000    7.000 
#    0.000    0.000    0.000    0.000    0.000    0.000 
#
# Total GULP energy -267617.371076 kJ/mol
# GULP energy per Si atom -5575.361897 kJ/mol
# Density = 1.771667 g / cm^3
# Si number density = 17.757089 Si / 1000 Ang^3
#
#
#
# Elastic Constant Matrix: (Units=GPa)
#
#
# Indices 1 2 3 4 5 6 
#
# 1 215.1379 53.6788 92.0645 0.0000 0.0000 0.0000
# 2 53.6788 24.8987 27.7223 0.0000 0.0000 0.0000
# 3 92.0645 27.7223 100.1499 0.0000 0.0000 0.0000
# 4 0.0000 0.0000 0.0000 -12.4877 0.0000 0.0000
# 5 0.0000 0.0000 0.0000 0.0000 36.5122 0.0000
# 6 0.0000 0.0000 0.0000 0.0000 0.0000 -24.1808
#
#
#
# Elastic Compliance Matrix: (Units=1/GPa)
#
#
# Indices 1 2 3 4 5 6 
#
# 1 0.011855 -0.019404 -0.005526 0.000000 0.000000 0.000000
# 2 -0.019404 0.089816 -0.007024 0.000000 0.000000 0.000000
# 3 -0.005526 -0.007024 0.017010 0.000000 0.000000 0.000000
# 4 0.000000 0.000000 0.000000 -0.080079 0.000000 0.000000
# 5 0.000000 0.000000 0.000000 0.000000 0.027388 0.000000
# 6 0.000000 0.000000 0.000000 0.000000 0.000000 -0.041355
#
#
# Mechanical properties :
#
#
# Convention : Reuss Voigt Hill
#
# Bulk Modulus (GPa) = 18.25782 76.34641 47.30211
# Shear Modulus (GPa) = 46.81586 11.08346 28.94966
#
# Velocity S-wave (km/s) = 5.14022 2.50105 4.04210
# Velocity P-wave (km/s) = 6.74785 7.17137 6.96283
#
# Compressibility (1/GPa) = 0.05477104
#
# Stress axis : x y z
#
# Youngs Moduli (GPa) = 84.35606 11.13382 58.79031
#
# Poissons Ratio (x) = 0.21604 0.32489
# Poissons Ratio (y) = 1.63684 0.41297
# Poissons Ratio (z) = 0.46618 0.07821
#
# Static dielectric constant tensor:
#      x y z
#    x 1.658270 0.000000 0.000000 
#    y 0.000000 1.582070 0.000000 
#    z 0.000000 0.000000 1.592870 
# 
# From -- ./inp_files/3725.got.cif
#   From: 2010.05.17/outbox.cif.g08.bks.cpg/sg49_2_cif.got.tgz:3725.got - 2010.06.03 21:02:19.
