data_PCOD9392393
_publ_section_title
;
Structure prediction by ZEFSAII (Michael W. Deem and Ramdas Pophale) SiO2 
 PCOD9392393
Probable space group: P C C M
;
_chemical_formula_sum "Si O2"
_cell_formula_units_Z 40
_cell_length_a 13.962621
_cell_length_b 19.292646
_cell_length_c 8.565135
_cell_angle_alpha 90.000000
_cell_angle_beta 90.000000
_cell_angle_gamma 90.000000
_cell_volume 2307.240985
_symmetry_space_group_name_H-M "P C C M"
_symmetry_group_IT_number 49
_symmetry_cell_setting 'orthorhombic'
loop_
_space_group_symop_operation_xyz
x,y,z
-x,-y,z
x,-y,1/2-z
-x,y,1/2-z
-x,-y,-z
x,y,-z
-x,y,1/2+z
x,-y,1/2+z
loop_
_atom_site_type_symbol
_atom_site_label
_atom_site_fract_x
_atom_site_fract_y
_atom_site_fract_z
Si Si1 0.204220 0.924866 0.186114
Si Si2 0.608279 0.426208 0.687994
Si Si3 0.395008 0.142570 0.187683
Si Si4 0.295591 0.715257 0.310609
Si Si5 0.103934 0.789232 0.687354
O O1 0.311089 0.905630 0.245182
O O2 0.135643 0.864642 0.251136
O O3 0.177108 0.000000 0.250000
O O4 0.202247 0.924393 0.000000
O O5 0.645203 0.500000 0.750000
O O6 0.500000 0.418584 0.750000
O O7 0.606249 0.427873 0.500000
O O8 0.668180 0.359449 0.742282
O O9 0.500000 0.125563 0.250000
O O10 0.365593 0.221359 0.234991
O O11 0.393114 0.138422 0.000000
O O12 0.296039 0.714014 0.500000
O O13 0.188928 0.737269 0.261464
O O14 0.102924 0.791104 0.500000
O O15 0.000000 0.770334 0.750000
#
# Coordination Sequence:
#
# PCOD9392393 Si02
#       5
#     8   8   8   8   8
#     4  11  22  37  54  75 101 132 166 207 253 302
#     4  10  18  30  47  73 105 139 170 203 242 288
#     4  10  19  33  51  74 101 134 171 210 251 300
#     4   8  17  32  51  72 101 133 166 207 251 294
#     4  10  20  37  57  79 101 127 163 208 256 305
#
# _framework density 17.336724
#
# number of rings (size 3 to 8) (size 9 to 14) (size 15 to 20)
#    0.000    2.200    0.000    6.000    0.000    0.800 
#    0.000   15.000    0.000    0.600    0.000    4.200 
#    0.000    0.000    0.000    0.000    0.000    0.000 
#
# Total GULP energy -223263.026663 kJ/mol
# GULP energy per Si atom -5581.575667 kJ/mol
# Density = 1.729726 g / cm^3
# Si number density = 17.336724 Si / 1000 Ang^3
#
#
#
# Elastic Constant Matrix: (Units=GPa)
#
#
# Indices 1 2 3 4 5 6 
#
# 1 64.3744 17.1704 15.7193 0.0000 0.0000 0.0000
# 2 17.1704 107.5097 20.0576 0.0000 0.0000 0.0000
# 3 15.7193 20.0576 79.0661 0.0000 0.0000 0.0000
# 4 0.0000 0.0000 0.0000 17.0488 0.0000 0.0000
# 5 0.0000 0.0000 0.0000 0.0000 26.6986 0.0000
# 6 0.0000 0.0000 0.0000 0.0000 0.0000 14.8290
#
#
#
# Elastic Compliance Matrix: (Units=1/GPa)
#
#
# Indices 1 2 3 4 5 6 
#
# 1 0.016792 -0.002161 -0.002790 0.000000 0.000000 0.000000
# 2 -0.002161 0.010042 -0.002118 0.000000 0.000000 0.000000
# 3 -0.002790 -0.002118 0.013740 0.000000 0.000000 0.000000
# 4 0.000000 0.000000 0.000000 0.058655 0.000000 0.000000
# 5 0.000000 0.000000 0.000000 0.000000 0.037455 0.000000
# 6 0.000000 0.000000 0.000000 0.000000 0.000000 0.067435
#
#
# Mechanical properties :
#
#
# Convention : Reuss Voigt Hill
#
# Bulk Modulus (GPa) = 37.82874 39.64942 38.73908
# Shear Modulus (GPa) = 22.01977 24.91549 23.46763
#
# Velocity S-wave (km/s) = 3.56774 3.79509 3.68317
# Velocity P-wave (km/s) = 6.23210 6.49026 6.36249
#
# Compressibility (1/GPa) = 0.02643493
#
# Stress axis : x y z
#
# Youngs Moduli (GPa) = 59.55249 99.58418 72.78239
#
# Poissons Ratio (x) = 0.21523 0.20307
# Poissons Ratio (y) = 0.12871 0.15413
# Poissons Ratio (z) = 0.16616 0.21089
#
# Static dielectric constant tensor:
#      x y z
#    x 1.570940 0.000000 0.000000 
#    y 0.000000 1.590080 0.000000 
#    z 0.000000 0.000000 1.584290 
# 
# From -- ./inp_files/3559.got.cif
#   From: 2010.05.17/outbox.cif.g08.bks.cpg/sg49_2_cif.got.tgz:3559.got - 2010.06.03 21:02:19.
