data_PCOD9392181
_publ_section_title
;
Structure prediction by ZEFSAII (Michael W. Deem and Ramdas Pophale) SiO2 
 PCOD9392181
Probable space group: P C C M
;
_chemical_formula_sum "Si O2"
_cell_formula_units_Z 64
_cell_length_a 31.535880
_cell_length_b 15.619571
_cell_length_c 8.714228
_cell_angle_alpha 90.000000
_cell_angle_beta 90.000000
_cell_angle_gamma 90.000000
_cell_volume 4292.427560
_symmetry_space_group_name_H-M "P C C M"
_symmetry_group_IT_number 49
_symmetry_cell_setting 'orthorhombic'
loop_
_space_group_symop_operation_xyz
x,y,z
-x,-y,z
x,-y,1/2-z
-x,y,1/2-z
-x,-y,-z
x,y,-z
-x,y,1/2+z
x,-y,1/2+z
loop_
_atom_site_type_symbol
_atom_site_label
_atom_site_fract_x
_atom_site_fract_y
_atom_site_fract_z
Si Si1 0.957398 0.096264 0.182906
Si Si2 0.543509 0.097214 0.815689
Si Si3 0.200854 0.589409 0.822825
Si Si4 0.700784 0.775930 0.313847
Si Si5 0.137232 0.903529 0.815530
Si Si6 0.368192 0.096180 0.815888
Si Si7 0.303960 0.587769 0.824398
Si Si8 0.204629 0.770910 0.682806
O O1 0.910489 0.130469 0.220223
O O2 0.000000 0.138468 0.250000
O O3 0.956551 0.000000 0.250000
O O4 0.961455 0.091927 0.000000
O O5 0.500000 0.136724 0.750000
O O6 0.587726 0.133502 0.752448
O O7 0.543880 0.000000 0.750000
O O8 0.542917 0.095503 0.000000
O O9 0.185895 0.500000 0.750000
O O10 0.252433 0.586090 0.820580
O O11 0.189628 0.675781 0.732843
O O12 0.187786 0.596257 0.000000
O O13 0.699820 0.778318 0.500000
O O14 0.670796 0.847364 0.242497
O O15 0.685257 0.681345 0.259969
O O16 0.749258 0.785587 0.259050
O O17 0.172075 0.841649 0.743599
O O18 0.141122 0.000000 0.750000
O O19 0.141589 0.906690 0.000000
O O20 0.363507 0.000000 0.750000
O O21 0.370401 0.092934 0.000000
O O22 0.319227 0.500000 0.750000
O O23 0.317533 0.586654 0.000000
O O24 0.208666 0.774960 0.500000
#
# Coordination Sequence:
#
# PCOD9392181 Si02
#       8
#     8   8   8   8   8   8   8   8
#     4   9  16  26  43  63  84 108 138 176 221 265
#     4  10  17  28  45  65  87 112 142 180 223 266
#     4   9  16  28  45  65  87 112 142 181 224 267
#     4  10  20  34  47  63  88 119 152 188 223 260
#     4  10  20  33  46  63  87 118 152 187 222 261
#     4  11  21  33  47  65  88 118 153 188 223 264
#     4   8  15  26  43  63  84 108 137 174 218 260
#     4  11  21  32  46  65  88 119 154 188 223 263
#
# _framework density 14.909977
#
# number of rings (size 3 to 8) (size 9 to 14) (size 15 to 20)
#    0.000    2.250    0.000    7.125    0.000    5.500 
#    0.000    2.500    0.000    0.000    0.000    0.000 
#    0.000    1.000    0.000   10.500    0.000    6.000 
#
# Total GULP energy -356468.387863 kJ/mol
# GULP energy per Si atom -5569.818560 kJ/mol
# Density = 1.487604 g / cm^3
# Si number density = 14.909977 Si / 1000 Ang^3
#
#
#
# Elastic Constant Matrix: (Units=GPa)
#
#
# Indices 1 2 3 4 5 6 
#
# 1 90.8499 52.3213 43.9097 0.0000 0.0000 0.0000
# 2 52.3213 82.2188 39.8159 0.0000 0.0000 0.0000
# 3 43.9097 39.8159 111.0228 0.0000 0.0000 0.0000
# 4 0.0000 0.0000 0.0000 21.2164 0.0000 0.0000
# 5 0.0000 0.0000 0.0000 0.0000 26.4449 0.0000
# 6 0.0000 0.0000 0.0000 0.0000 0.0000 -1.2520
#
#
#
# Elastic Compliance Matrix: (Units=1/GPa)
#
#
# Indices 1 2 3 4 5 6 
#
# 1 0.018589 -0.010007 -0.003763 0.000000 0.000000 0.000000
# 2 -0.010007 0.020106 -0.003253 0.000000 0.000000 0.000000
# 3 -0.003763 -0.003253 0.011662 0.000000 0.000000 0.000000
# 4 0.000000 0.000000 0.000000 0.047133 0.000000 0.000000
# 5 0.000000 0.000000 0.000000 0.000000 0.037814 0.000000
# 6 0.000000 0.000000 0.000000 0.000000 0.000000 -0.798747
#
#
# Mechanical properties :
#
#
# Convention : Reuss Voigt Hill
#
# Bulk Modulus (GPa) = 61.30798 61.79836 61.55317
# Shear Modulus (GPa) = -8.01335 19.15150 5.56907
#
# Velocity S-wave (km/s) = -2.32081 3.58785 1.93475
# Velocity P-wave (km/s) = 5.83322 7.66167 6.80910
#
# Compressibility (1/GPa) = 0.01631109
#
# Stress axis : x y z
#
# Youngs Moduli (GPa) = 53.79452 49.73613 85.74819
#
# Poissons Ratio (x) = 0.49772 0.32269
# Poissons Ratio (y) = 0.53833 0.27892
# Poissons Ratio (z) = 0.20244 0.16178
#
# Static dielectric constant tensor:
#      x y z
#    x 1.515590 0.000000 0.000000 
#    y 0.000000 1.488330 0.000000 
#    z 0.000000 0.000000 1.502940 
# 
# From -- ./inp_files/7064.got.cif
#   From: 2010.05.17/outbox.cif.g08.bks.cpg/sg49_4_cif.got.tgz:7064.got - 2010.06.03 21:02:19.
