data_PCOD9392270
_publ_section_title
;
Structure prediction by ZEFSAII (Michael W. Deem and Ramdas Pophale) SiO2 
 PCOD9392270
Probable space group: P C C M
;
_chemical_formula_sum "Si O2"
_cell_formula_units_Z 64
_cell_length_a 10.523487
_cell_length_b 19.290420
_cell_length_c 14.378070
_cell_angle_alpha 90.000000
_cell_angle_beta 90.000000
_cell_angle_gamma 90.000000
_cell_volume 2918.783926
_symmetry_space_group_name_H-M "P C C M"
_symmetry_group_IT_number 49
_symmetry_cell_setting 'orthorhombic'
loop_
_space_group_symop_operation_xyz
x,y,z
-x,-y,z
x,-y,1/2-z
-x,y,1/2-z
-x,-y,-z
x,y,-z
-x,y,1/2+z
x,-y,1/2+z
loop_
_atom_site_type_symbol
_atom_site_label
_atom_site_fract_x
_atom_site_fract_y
_atom_site_fract_z
Si Si1 0.890095 0.446904 0.886766
Si Si2 0.863502 0.915514 0.860548
Si Si3 0.151080 0.071386 0.638173
Si Si4 0.295118 0.204281 0.392047
Si Si5 0.478046 0.293728 0.886215
Si Si6 0.785051 0.235456 0.390266
Si Si7 0.054327 0.711016 0.113995
Si Si8 0.400404 0.440925 0.613428
O O1 0.928790 0.368943 0.861713
O O2 0.743865 0.456581 0.855209
O O3 0.000000 0.500000 0.856428
O O4 0.886983 0.451076 0.000000
O O5 0.860150 0.923760 0.749432
O O6 0.781157 0.848111 0.882962
O O7 0.009738 0.904929 0.893531
O O8 0.826143 0.992585 0.893098
O O9 0.261349 0.123920 0.611915
O O10 0.297752 0.224621 0.500000
O O11 0.428136 0.231910 0.355808
O O12 0.173767 0.244399 0.351413
O O13 0.336630 0.276213 0.852163
O O14 0.543973 0.365974 0.858375
O O15 0.470137 0.295536 0.000000
O O16 0.788376 0.251408 0.500000
O O17 0.920503 0.259747 0.351921
O O18 0.054191 0.715248 0.000000
O O19 0.500000 0.500000 0.640636
O O20 0.395885 0.439817 0.500000
#
# Coordination Sequence:
#
# PCOD9392270 Si02
#       8
#     8   8   8   8   8   8   8   8
#     4   9  16  24  36  58  90 125 160 197 233 276
#     4   9  18  33  49  73  99 120 154 196 243 288
#     4   9  18  32  52  71  96 126 150 195 247 283
#     4  10  17  30  49  70  93 127 164 192 231 284
#     4   9  18  30  43  63  97 131 158 195 241 283
#     4  10  19  30  47  70  97 127 158 199 241 281
#     4   9  16  26  41  63  92 122 159 200 233 269
#     4   9  16  25  37  56  88 130 163 186 230 290
#
# _framework density 21.926939999999998
#
# number of rings (size 3 to 8) (size 9 to 14) (size 15 to 20)
#    0.000    2.750    2.500    0.750    1.750    0.500 
#    0.000    2.500    0.000    3.750    0.000    0.000 
#    0.000    6.000    0.000    0.000    0.000    0.000 
#
# Total GULP energy -357245.157447 kJ/mol
# GULP energy per Si atom -5581.955585 kJ/mol
# Density = 2.187703 g / cm^3
# Si number density = 21.926940 Si / 1000 Ang^3
#
#
#
# Elastic Constant Matrix: (Units=GPa)
#
#
# Indices 1 2 3 4 5 6 
#
# 1 160.7354 77.8524 0.6532 0.0000 0.0000 0.0000
# 2 77.8524 120.0915 -22.3286 0.0000 0.0000 0.0000
# 3 0.6532 -22.3286 65.3102 0.0000 0.0000 0.0000
# 4 0.0000 0.0000 0.0000 26.3531 0.0000 0.0000
# 5 0.0000 0.0000 0.0000 0.0000 6.4194 0.0000
# 6 0.0000 0.0000 0.0000 0.0000 0.0000 30.4122
#
#
#
# Elastic Compliance Matrix: (Units=1/GPa)
#
#
# Indices 1 2 3 4 5 6 
#
# 1 0.009388 -0.006518 -0.002322 0.000000 0.000000 0.000000
# 2 -0.006518 0.013417 0.004652 0.000000 0.000000 0.000000
# 3 -0.002322 0.004652 0.016925 0.000000 0.000000 0.000000
# 4 0.000000 0.000000 0.000000 0.037946 0.000000 0.000000
# 5 0.000000 0.000000 0.000000 0.000000 0.155779 0.000000
# 6 0.000000 0.000000 0.000000 0.000000 0.000000 0.032882
#
#
# Mechanical properties :
#
#
# Convention : Reuss Voigt Hill
#
# Bulk Modulus (GPa) = 31.89246 50.94345 41.41796
# Shear Modulus (GPa) = 17.53382 31.96761 24.75071
#
# Velocity S-wave (km/s) = 2.83087 3.82241 3.36338
# Velocity P-wave (km/s) = 5.02609 6.53948 5.83208
#
# Compressibility (1/GPa) = 0.03135537
#
# Stress axis : x y z
#
# Youngs Moduli (GPa) = 106.52344 74.53159 59.08310
#
# Poissons Ratio (x) = 0.48576 0.13720
# Poissons Ratio (y) = 0.69427 -0.27487
# Poissons Ratio (z) = 0.24736 -0.34674
#
# Static dielectric constant tensor:
#      x y z
#    x 1.751840 0.000000 0.000000 
#    y 0.000000 1.781090 0.000000 
#    z 0.000000 0.000000 1.874620 
# 
# From -- ./inp_files/21063.got.cif
#   From: 2010.05.17/outbox.cif.g08.bks.cpg/sg49_11_cif.got.tgz:21063.got - 2010.06.03 21:02:19.
