data_PCOD9392561
_publ_section_title
;
Structure prediction by ZEFSAII (Michael W. Deem and Ramdas Pophale) SiO2 
 PCOD9392561
Probable space group: P C C M
;
_chemical_formula_sum "Si O2"
_cell_formula_units_Z 58
_cell_length_a 12.526504
_cell_length_b 11.137868
_cell_length_c 21.795551
_cell_angle_alpha 90.000000
_cell_angle_beta 90.000000
_cell_angle_gamma 90.000000
_cell_volume 3040.883630
_symmetry_space_group_name_H-M "P C C M"
_symmetry_group_IT_number 49
_symmetry_cell_setting 'orthorhombic'
loop_
_space_group_symop_operation_xyz
x,y,z
-x,-y,z
x,-y,1/2-z
-x,y,1/2-z
-x,-y,-z
x,y,-z
-x,y,1/2+z
x,-y,1/2+z
loop_
_atom_site_type_symbol
_atom_site_label
_atom_site_fract_x
_atom_site_fract_y
_atom_site_fract_z
Si Si1 0.295993 0.156778 0.572863
Si Si2 0.061347 0.128471 0.930772
Si Si3 0.783792 0.632396 0.255632
Si Si4 0.370635 0.650334 0.358779
Si Si5 0.387298 0.618251 0.864171
Si Si6 0.095588 0.811068 0.163487
Si Si7 0.000000 0.000000 0.750000
Si Si8 0.316745 0.108058 0.928543
O O1 0.271631 0.149879 0.500000
O O2 0.365157 0.274484 0.588133
O O3 0.190066 0.172820 0.614098
O O4 0.347619 0.027900 0.591184
O O5 0.187399 0.111209 0.922519
O O6 0.009722 0.209096 0.877627
O O7 0.043665 0.175508 0.000000
O O8 0.000000 0.000000 0.927660
O O9 0.829340 0.500000 0.250000
O O10 0.720378 0.661505 0.193214
O O11 0.691775 0.630682 0.307196
O O12 0.872440 0.716493 0.284819
O O13 0.493617 0.637357 0.338122
O O14 0.362080 0.516519 0.389734
O O15 0.361381 0.773142 0.396661
O O16 0.074764 0.927329 0.204180
O O17 0.344436 0.117105 0.000000
#
# Coordination Sequence:
#
# PCOD9392561 Si02
#       8
#     8   8   8   8   8   8   2   8
#     4  10  20  37  59  84 115 150 191 237 283 339
#     4  10  18  34  58  84 113 153 195 230 281 349
#     4   9  20  37  59  82 107 147 190 238 286 341
#     4  10  20  37  60  80 116 147 185 240 291 349
#     4   9  20  38  59  84 105 151 197 229 286 352
#     4  11  21  34  57  85 116 145 192 230 284 334
#     4  12  24  32  52  88 118 144 184 232 272 344
#     4  10  21  34  55  85 114 146 187 236 287 333
#
# _framework density 19.073402999999999
#
# number of rings (size 3 to 8) (size 9 to 14) (size 15 to 20)
#    0.000    2.069    2.069    0.828    3.862    3.310 
#    0.000    3.103    3.034    1.655    0.000    6.759 
#    0.000    0.000    0.000    0.000    0.000    0.000 
#
# Total GULP energy -322959.521164 kJ/mol
# GULP energy per Si atom -5568.267606 kJ/mol
# Density = 1.902999 g / cm^3
# Si number density = 19.073403 Si / 1000 Ang^3
#
#
#
# Elastic Constant Matrix: (Units=GPa)
#
#
# Indices 1 2 3 4 5 6 
#
# 1 26.9772 22.8888 10.7124 0.0000 0.0000 0.0000
# 2 22.8888 144.9010 50.4781 0.0000 0.0000 0.0000
# 3 10.7124 50.4781 72.6400 0.0000 0.0000 0.0000
# 4 0.0000 0.0000 0.0000 -9.7141 0.0000 0.0000
# 5 0.0000 0.0000 0.0000 0.0000 7.5287 0.0000
# 6 0.0000 0.0000 0.0000 0.0000 0.0000 36.9336
#
#
#
# Elastic Compliance Matrix: (Units=1/GPa)
#
#
# Indices 1 2 3 4 5 6 
#
# 1 0.043056 -0.006055 -0.002142 0.000000 0.000000 0.000000
# 2 -0.006055 0.009957 -0.006026 0.000000 0.000000 0.000000
# 3 -0.002142 -0.006026 0.018270 0.000000 0.000000 0.000000
# 4 0.000000 0.000000 0.000000 -0.102943 0.000000 0.000000
# 5 0.000000 0.000000 0.000000 0.000000 0.132825 0.000000
# 6 0.000000 0.000000 0.000000 0.000000 0.000000 0.027076
#
#
# Mechanical properties :
#
#
# Convention : Reuss Voigt Hill
#
# Bulk Modulus (GPa) = 23.34432 45.85297 34.59865
# Shear Modulus (GPa) = 29.24552 17.64556 23.44554
#
# Velocity S-wave (km/s) = 3.92000 3.04491 3.50984
# Velocity P-wave (km/s) = 5.72314 6.03775 5.88255
#
# Compressibility (1/GPa) = 0.04283697
#
# Stress axis : x y z
#
# Youngs Moduli (GPa) = 23.22537 100.43119 54.73419
#
# Poissons Ratio (x) = 0.60812 0.11724
# Poissons Ratio (y) = 0.14063 0.32984
# Poissons Ratio (z) = 0.04975 0.60523
#
# Static dielectric constant tensor:
#      x y z
#    x 1.673480 0.000000 0.000000 
#    y 0.000000 1.726970 0.000000 
#    z 0.000000 0.000000 1.660420 
# 
# From -- ./inp_files/23207.got.cif
#   From: 2010.05.17/outbox.cif.g08.bks.cpg/sg49_12_cif.got.tgz:23207.got - 2010.06.03 21:02:19.
