data_PCOD9392911
_publ_section_title
;
Structure prediction by ZEFSAII (Michael W. Deem and Ramdas Pophale) SiO2 
 PCOD9392911
Probable space group: P C C M
;
_chemical_formula_sum "Si O2"
_cell_formula_units_Z 56
_cell_length_a 33.871615
_cell_length_b 5.256550
_cell_length_c 14.178002
_cell_angle_alpha 90.000000
_cell_angle_beta 90.000000
_cell_angle_gamma 90.000000
_cell_volume 2524.362601
_symmetry_space_group_name_H-M "P C C M"
_symmetry_group_IT_number 49
_symmetry_cell_setting 'orthorhombic'
loop_
_space_group_symop_operation_xyz
x,y,z
-x,-y,z
x,-y,1/2-z
-x,y,1/2-z
-x,-y,-z
x,y,-z
-x,y,1/2+z
x,-y,1/2+z
loop_
_atom_site_type_symbol
_atom_site_label
_atom_site_fract_x
_atom_site_fract_y
_atom_site_fract_z
Si Si1 0.042859 0.388212 0.884936
Si Si2 0.740264 0.749220 0.684873
Si Si3 0.613138 0.838097 0.116126
Si Si4 0.089021 0.881019 0.112212
Si Si5 0.825491 0.244764 0.186199
Si Si6 0.655243 0.339988 0.888764
Si Si7 0.476123 0.748842 0.614824
O O1 0.070909 0.616553 0.855353
O O2 0.000000 0.500000 0.857217
O O3 0.063248 0.123469 0.852392
O O4 0.041215 0.369217 0.000000
O O5 0.740128 0.500000 0.750000
O O6 0.783216 0.731361 0.633791
O O7 0.700738 0.731998 0.624759
O O8 0.737263 0.000000 0.750000
O O9 0.643540 0.618755 0.147326
O O10 0.569088 0.765751 0.146771
O O11 0.627534 0.114377 0.148505
O O12 0.612958 0.846285 0.000000
O O13 0.135266 0.845710 0.132569
O O14 0.084410 0.892601 0.000000
O O15 0.832182 0.500000 0.250000
O O16 0.818147 0.000000 0.250000
O O17 0.647488 0.351950 0.000000
O O18 0.500000 0.500000 0.644349
O O19 0.474757 0.742905 0.500000
O O20 0.500000 0.000000 0.641526
#
# Coordination Sequence:
#
# PCOD9392911 Si02
#       7
#     8   8   8   8   8   8   8
#     4   9  17  30  50  78 109 137 169 212 256 295
#     4  10  21  37  55  75 101 134 173 212 253 310
#     4   9  17  28  43  68 101 132 163 203 254 304
#     4  10  19  32  54  81 105 135 178 218 249 297
#     4  10  21  37  55  75 104 140 171 210 266 313
#     4  10  19  32  51  74 102 133 164 208 262 305
#     4   9  15  23  37  59  92 132 164 192 237 299
#
# _framework density 22.183820000000001
#
# number of rings (size 3 to 8) (size 9 to 14) (size 15 to 20)
#    0.000    2.429    0.000    3.000    0.000    5.714 
#    0.000    0.000    0.000   16.714    0.000    0.000 
#    0.000   40.000    0.000    0.000    0.000    0.000 
#
# Total GULP energy -312411.256671 kJ/mol
# GULP energy per Si atom -5578.772441 kJ/mol
# Density = 2.213333 g / cm^3
# Si number density = 22.183820 Si / 1000 Ang^3
#
#
#
# Elastic Constant Matrix: (Units=GPa)
#
#
# Indices 1 2 3 4 5 6 
#
# 1 143.3243 46.8130 -3.5232 0.0000 0.0000 0.0000
# 2 46.8130 171.0264 15.1425 0.0000 0.0000 0.0000
# 3 -3.5232 15.1425 46.5352 0.0000 0.0000 0.0000
# 4 0.0000 0.0000 0.0000 7.2687 0.0000 0.0000
# 5 0.0000 0.0000 0.0000 0.0000 41.7794 0.0000
# 6 0.0000 0.0000 0.0000 0.0000 0.0000 41.6230
#
#
#
# Elastic Compliance Matrix: (Units=1/GPa)
#
#
# Indices 1 2 3 4 5 6 
#
# 1 0.007739 -0.002235 0.001313 0.000000 0.000000 0.000000
# 2 -0.002235 0.006666 -0.002338 0.000000 0.000000 0.000000
# 3 0.001313 -0.002338 0.022349 0.000000 0.000000 0.000000
# 4 0.000000 0.000000 0.000000 0.137576 0.000000 0.000000
# 5 0.000000 0.000000 0.000000 0.000000 0.023935 0.000000
# 6 0.000000 0.000000 0.000000 0.000000 0.000000 0.024025
#
#
# Mechanical properties :
#
#
# Convention : Reuss Voigt Hill
#
# Bulk Modulus (GPa) = 33.07429 53.08336 43.07883
# Shear Modulus (GPa) = 20.93024 38.29780 29.61402
#
# Velocity S-wave (km/s) = 3.07496 4.15949 3.65764
# Velocity P-wave (km/s) = 5.24869 6.85924 6.10729
#
# Compressibility (1/GPa) = 0.03023496
#
# Stress axis : x y z
#
# Youngs Moduli (GPa) = 129.20972 150.02087 44.74395
#
# Poissons Ratio (x) = 0.33525 -0.05875
# Poissons Ratio (y) = 0.28874 0.10462
# Poissons Ratio (z) = -0.16967 0.35078
#
# Static dielectric constant tensor:
#      x y z
#    x 1.922870 0.000000 0.000000 
#    y 0.000000 1.776370 0.000000 
#    z 0.000000 0.000000 1.859390 
# 
# From -- ./inp_files/14615.got.cif
#   From: 2010.05.17/outbox.cif.g08.bks.cpg/sg49_8_cif.got.tgz:14615.got - 2010.06.03 21:02:19.
