data_PCOD9392591
_publ_section_title
;
Structure prediction by ZEFSAII (Michael W. Deem and Ramdas Pophale) SiO2 
 PCOD9392591
Probable space group: P C C M
;
_chemical_formula_sum "Si O2"
_cell_formula_units_Z 56
_cell_length_a 15.756450
_cell_length_b 8.446591
_cell_length_c 20.565426
_cell_angle_alpha 90.000000
_cell_angle_beta 90.000000
_cell_angle_gamma 90.000000
_cell_volume 2737.017354
_symmetry_space_group_name_H-M "P C C M"
_symmetry_group_IT_number 49
_symmetry_cell_setting 'orthorhombic'
loop_
_space_group_symop_operation_xyz
x,y,z
-x,-y,z
x,-y,1/2-z
-x,y,1/2-z
-x,-y,-z
x,y,-z
-x,y,1/2+z
x,-y,1/2+z
loop_
_atom_site_type_symbol
_atom_site_label
_atom_site_fract_x
_atom_site_fract_y
_atom_site_fract_z
Si Si1 0.745737 0.062005 0.924417
Si Si2 0.085047 0.430503 0.073386
Si Si3 0.644882 0.106927 0.686103
Si Si4 0.237246 0.607133 0.135407
Si Si5 0.412418 0.441212 0.175228
Si Si6 0.818686 0.191072 0.260164
Si Si7 0.082523 0.107394 0.125144
O O1 0.749671 0.250066 0.915129
O O2 0.672186 0.997171 0.875940
O O3 0.834864 0.992829 0.896352
O O4 0.735330 0.017881 0.000000
O O5 0.169347 0.482244 0.109913
O O6 0.072188 0.243345 0.072542
O O7 0.000000 0.500000 0.104483
O O8 0.091565 0.493748 0.000000
O O9 0.581873 0.250010 0.672841
O O10 0.729747 0.206840 0.703117
O O11 0.625162 0.000000 0.750000
O O12 0.327101 0.521672 0.147304
O O13 0.194633 0.697358 0.198127
O O14 0.500000 0.500000 0.144040
O O15 0.411612 0.500000 0.250000
O O16 0.896991 0.206713 0.308851
O O17 0.821724 0.000000 0.250000
O O18 0.000000 0.000000 0.132957
#
# Coordination Sequence:
#
# PCOD9392591 Si02
#       7
#     8   8   8   8   8   8   8
#     4  11  22  38  65  93 119 171 228 263 329 395
#     4  11  26  43  60  91 127 171 229 275 324 390
#     4  10  18  40  65  91 127 165 212 267 319 386
#     4  12  21  41  67  90 135 171 206 276 340 391
#     4  11  23  38  65 103 132 166 218 272 334 398
#     4  10  19  37  61  91 121 163 212 261 320 399
#     4  11  23  39  60  88 126 170 217 274 325 386
#
# _framework density 20.460227
#
# number of rings (size 3 to 8) (size 9 to 14) (size 15 to 20)
#    0.000    1.143    5.714    3.429    0.000    2.571 
#    0.000    7.143    0.000    4.714    0.000    0.000 
#    0.000    0.000    0.000    0.000    0.000    0.000 
#
# Total GULP energy -312247.066862 kJ/mol
# GULP energy per Si atom -5575.840480 kJ/mol
# Density = 2.041366 g / cm^3
# Si number density = 20.460227 Si / 1000 Ang^3
#
#
#
# Elastic Constant Matrix: (Units=GPa)
#
#
# Indices 1 2 3 4 5 6 
#
# 1 116.2742 55.7078 36.9439 0.0000 0.0000 0.0000
# 2 55.7078 109.2016 19.3516 0.0000 0.0000 0.0000
# 3 36.9439 19.3516 97.0250 0.0000 0.0000 0.0000
# 4 0.0000 0.0000 0.0000 6.6086 0.0000 0.0000
# 5 0.0000 0.0000 0.0000 0.0000 18.5929 0.0000
# 6 0.0000 0.0000 0.0000 0.0000 0.0000 28.0824
#
#
#
# Elastic Compliance Matrix: (Units=1/GPa)
#
#
# Indices 1 2 3 4 5 6 
#
# 1 0.012496 -0.005734 -0.003614 0.000000 0.000000 0.000000
# 2 -0.005734 0.012124 -0.000235 0.000000 0.000000 0.000000
# 3 -0.003614 -0.000235 0.011730 0.000000 0.000000 0.000000
# 4 0.000000 0.000000 0.000000 0.151319 0.000000 0.000000
# 5 0.000000 0.000000 0.000000 0.000000 0.053784 0.000000
# 6 0.000000 0.000000 0.000000 0.000000 0.000000 0.035609
#
#
# Mechanical properties :
#
#
# Convention : Reuss Voigt Hill
#
# Bulk Modulus (GPa) = 58.19634 60.72305 59.45969
# Shear Modulus (GPa) = 16.55868 24.68996 20.62432
#
# Velocity S-wave (km/s) = 2.84793 3.47757 3.17838
# Velocity P-wave (km/s) = 6.27054 6.77257 6.52638
#
# Compressibility (1/GPa) = 0.01718321
#
# Stress axis : x y z
#
# Youngs Moduli (GPa) = 80.02520 82.47963 85.25371
#
# Poissons Ratio (x) = 0.47295 0.30814
# Poissons Ratio (y) = 0.45888 0.02001
# Poissons Ratio (z) = 0.28924 0.01936
#
# Static dielectric constant tensor:
#      x y z
#    x 1.781180 0.000000 0.000000 
#    y 0.000000 1.823460 0.000000 
#    z 0.000000 0.000000 1.785640 
# 
# From -- ./inp_files/20857.got.cif
#   From: 2010.05.17/outbox.cif.g08.bks.cpg/sg49_11_cif.got.tgz:20857.got - 2010.06.03 21:02:19.
