data_PCOD9392660
_publ_section_title
;
Structure prediction by ZEFSAII (Michael W. Deem and Ramdas Pophale) SiO2 
 PCOD9392660
Probable space group: P C C M
;
_chemical_formula_sum "Si O2"
_cell_formula_units_Z 64
_cell_length_a 20.075878
_cell_length_b 19.778773
_cell_length_c 9.000205
_cell_angle_alpha 90.000000
_cell_angle_beta 90.000000
_cell_angle_gamma 90.000000
_cell_volume 3573.767504
_symmetry_space_group_name_H-M "P C C M"
_symmetry_group_IT_number 49
_symmetry_cell_setting 'orthorhombic'
loop_
_space_group_symop_operation_xyz
x,y,z
-x,-y,z
x,-y,1/2-z
-x,y,1/2-z
-x,-y,-z
x,y,-z
-x,y,1/2+z
x,-y,1/2+z
loop_
_atom_site_type_symbol
_atom_site_label
_atom_site_fract_x
_atom_site_fract_y
_atom_site_fract_z
Si Si1 0.339331 0.067580 0.331740
Si Si2 0.073052 0.676682 0.179451
Si Si3 0.178995 0.930306 0.828159
Si Si4 0.172074 0.427118 0.178082
Si Si5 0.285192 0.684386 0.677956
Si Si6 0.565644 0.156553 0.333135
Si Si7 0.432807 0.680837 0.669328
Si Si8 0.828168 0.786046 0.819916
O O1 0.362722 0.067726 0.500000
O O2 0.259554 0.067351 0.330088
O O3 0.369005 0.131562 0.248937
O O4 0.362699 0.000000 0.250000
O O5 0.111003 0.610377 0.240785
O O6 0.116091 0.739008 0.244573
O O7 0.000000 0.679289 0.250000
O O8 0.071504 0.677783 0.000000
O O9 0.163262 0.862184 0.737868
O O10 0.156119 0.000000 0.750000
O O11 0.156430 0.926657 0.000000
O O12 0.182369 0.500000 0.250000
O O13 0.235990 0.378616 0.202184
O O14 0.160859 0.430955 0.000000
O O15 0.294564 0.692788 0.500000
O O16 0.359223 0.670057 0.738906
O O17 0.242802 0.750844 0.724814
O O18 0.500000 0.131495 0.250000
O O19 0.566727 0.130981 0.500000
O O20 0.562961 0.237533 0.336000
O O21 0.500000 0.656662 0.750000
O O22 0.433711 0.654947 0.500000
O O23 0.832640 0.782876 0.000000
#
# Coordination Sequence:
#
# PCOD9392660 Si02
#       8
#     8   8   8   8   8   8   8   8
#     4  10  20  32  45  62  86 116 156 203 255 313
#     4  11  22  38  59  86 118 151 185 220 259 309
#     4  10  20  33  50  74 102 134 172 220 272 323
#     4  10  20  36  57  84 115 149 185 222 264 313
#     4   8  16  31  52  75 103 138 176 217 268 323
#     4  10  19  30  44  61  84 114 152 198 255 318
#     4   9  17  30  47  69  95 126 163 210 263 316
#     4  10  19  34  56  81 108 142 182 226 273 323
#
# _framework density 17.908272
#
# number of rings (size 3 to 8) (size 9 to 14) (size 15 to 20)
#    0.000    2.250    0.000    4.500    0.000    3.500 
#    0.000    6.250    0.000    0.750    0.000    5.250 
#    0.000    0.000    0.000    0.000    0.000    0.000 
#
# Total GULP energy -356770.166357 kJ/mol
# GULP energy per Si atom -5574.533849 kJ/mol
# Density = 1.786751 g / cm^3
# Si number density = 17.908272 Si / 1000 Ang^3
#
#
#
# Elastic Constant Matrix: (Units=GPa)
#
#
# Indices 1 2 3 4 5 6 
#
# 1 99.3507 18.7255 37.2929 0.0000 0.0000 0.0000
# 2 18.7255 86.2470 37.3791 0.0000 0.0000 0.0000
# 3 37.2929 37.3791 121.7085 0.0000 0.0000 0.0000
# 4 0.0000 0.0000 0.0000 24.8725 0.0000 0.0000
# 5 0.0000 0.0000 0.0000 0.0000 23.3006 0.0000
# 6 0.0000 0.0000 0.0000 0.0000 0.0000 12.3537
#
#
#
# Elastic Compliance Matrix: (Units=1/GPa)
#
#
# Indices 1 2 3 4 5 6 
#
# 1 0.011466 -0.001115 -0.003171 0.000000 0.000000 0.000000
# 2 -0.001115 0.013483 -0.003799 0.000000 0.000000 0.000000
# 3 -0.003171 -0.003799 0.010355 0.000000 0.000000 0.000000
# 4 0.000000 0.000000 0.000000 0.040205 0.000000 0.000000
# 5 0.000000 0.000000 0.000000 0.000000 0.042917 0.000000
# 6 0.000000 0.000000 0.000000 0.000000 0.000000 0.080947
#
#
# Mechanical properties :
#
#
# Convention : Reuss Voigt Hill
#
# Bulk Modulus (GPa) = 52.26475 54.90014 53.58244
# Shear Modulus (GPa) = 22.53045 26.36593 24.44819
#
# Velocity S-wave (km/s) = 3.55082 3.84119 3.69886
# Velocity P-wave (km/s) = 6.78669 7.09900 6.94460
#
# Compressibility (1/GPa) = 0.01913335
#
# Stress axis : x y z
#
# Youngs Moduli (GPa) = 87.21640 74.16570 96.57411
#
# Poissons Ratio (x) = 0.08271 0.30621
# Poissons Ratio (y) = 0.09726 0.36691
# Poissons Ratio (z) = 0.27654 0.28178
#
# Static dielectric constant tensor:
#      x y z
#    x 1.631450 0.000000 0.000000 
#    y 0.000000 1.606840 0.000000 
#    z 0.000000 0.000000 1.618530 
# 
# From -- ./inp_files/5991.got.cif
#   From: 2010.05.17/outbox.cif.g08.bks.cpg/sg49_3_cif.got.tgz:5991.got - 2010.06.03 21:02:19.
