data_PCOD9392555
_publ_section_title
;
Structure prediction by ZEFSAII (Michael W. Deem and Ramdas Pophale) SiO2 
 PCOD9392555
Probable space group: P C C M
;
_chemical_formula_sum "Si O2"
_cell_formula_units_Z 60
_cell_length_a 11.609691
_cell_length_b 14.674830
_cell_length_c 20.083751
_cell_angle_alpha 90.000000
_cell_angle_beta 90.000000
_cell_angle_gamma 90.000000
_cell_volume 3421.673514
_symmetry_space_group_name_H-M "P C C M"
_symmetry_group_IT_number 49
_symmetry_cell_setting 'orthorhombic'
loop_
_space_group_symop_operation_xyz
x,y,z
-x,-y,z
x,-y,1/2-z
-x,y,1/2-z
-x,-y,-z
x,y,-z
-x,y,1/2+z
x,-y,1/2+z
loop_
_atom_site_type_symbol
_atom_site_label
_atom_site_fract_x
_atom_site_fract_y
_atom_site_fract_z
Si Si1 0.370966 0.039931 0.681597
Si Si2 0.000000 0.000000 0.606393
Si Si3 0.284388 0.757574 0.812454
Si Si4 0.970411 0.808919 0.672675
Si Si5 0.754455 0.075552 0.425139
Si Si6 0.340463 0.413118 0.075948
Si Si7 0.613519 0.376890 0.922417
Si Si8 0.218355 0.259193 0.156545
O O1 0.355841 0.148143 0.683954
O O2 0.500000 0.000000 0.680233
O O3 0.315943 0.000000 0.750000
O O4 0.309868 0.001573 0.616506
O O5 0.037264 0.087485 0.648376
O O6 0.887028 0.041105 0.571231
O O7 0.154270 0.767707 0.839848
O O8 0.344855 0.686153 0.861809
O O9 0.262085 0.739987 0.733377
O O10 0.000000 0.814059 0.750000
O O11 0.080070 0.751787 0.647086
O O12 0.711306 0.088739 0.500000
O O13 0.739755 0.168036 0.382177
O O14 0.335315 0.521527 0.087263
O O15 0.475135 0.386377 0.081563
O O16 0.266152 0.350116 0.123463
O O17 0.304670 0.395320 0.000000
O O18 0.639910 0.348416 0.000000
#
# Coordination Sequence:
#
# PCOD9392555 Si02
#       8
#     8   4   8   8   8   8   8   8
#     4  11  24  39  54  80 119 157 191 236 281 331
#     4  10  18  34  56  78 111 146 197 248 275 322
#     4  11  21  38  59  84 116 149 193 235 286 338
#     4   9  19  33  55  82 110 150 193 231 287 344
#     4  11  22  36  55  82 111 152 196 234 283 337
#     4   9  19  40  62  85 115 148 186 235 292 345
#     4   9  21  39  62  86 113 149 190 235 287 346
#     4  10  21  35  59  84 113 149 189 241 283 340
#
# _framework density 17.535278000000002
#
# number of rings (size 3 to 8) (size 9 to 14) (size 15 to 20)
#    0.000    2.000    2.667    1.600    1.867    1.867 
#    0.000    3.333    0.000    4.000    0.000    0.000 
#    0.000    0.000    0.000    0.000    0.000    0.000 
#
# Total GULP energy -334126.112769 kJ/mol
# GULP energy per Si atom -5568.768546 kJ/mol
# Density = 1.749537 g / cm^3
# Si number density = 17.535278 Si / 1000 Ang^3
#
#
#
# Elastic Constant Matrix: (Units=GPa)
#
#
# Indices 1 2 3 4 5 6 
#
# 1 49.8302 41.2251 45.4349 0.0000 0.0000 0.0000
# 2 41.2251 106.1227 69.9517 0.0000 0.0000 0.0000
# 3 45.4349 69.9517 87.1048 0.0000 0.0000 0.0000
# 4 0.0000 0.0000 0.0000 0.5355 0.0000 0.0000
# 5 0.0000 0.0000 0.0000 0.0000 10.4509 0.0000
# 6 0.0000 0.0000 0.0000 0.0000 0.0000 30.2171
#
#
#
# Elastic Compliance Matrix: (Units=1/GPa)
#
#
# Indices 1 2 3 4 5 6 
#
# 1 0.038939 -0.003693 -0.017345 0.000000 0.000000 0.000000
# 2 -0.003693 0.020372 -0.014434 0.000000 0.000000 0.000000
# 3 -0.017345 -0.014434 0.032119 0.000000 0.000000 0.000000
# 4 0.000000 0.000000 0.000000 1.867461 0.000000 0.000000
# 5 0.000000 0.000000 0.000000 0.000000 0.095685 0.000000
# 6 0.000000 0.000000 0.000000 0.000000 0.000000 0.033094
#
#
# Mechanical properties :
#
#
# Convention : Reuss Voigt Hill
#
# Bulk Modulus (GPa) = 48.81417 61.80900 55.31159
# Shear Modulus (GPa) = 2.30900 14.00378 8.15639
#
# Velocity S-wave (km/s) = 1.14875 2.82903 2.15905
# Velocity P-wave (km/s) = 5.44588 6.78204 6.15035
#
# Compressibility (1/GPa) = 0.02048585
#
# Stress axis : x y z
#
# Youngs Moduli (GPa) = 25.68147 49.08735 31.13430
#
# Poissons Ratio (x) = 0.18130 0.54002
# Poissons Ratio (y) = 0.09485 0.44938
# Poissons Ratio (z) = 0.44544 0.70851
#
# Static dielectric constant tensor:
#      x y z
#    x 1.655920 0.000000 0.000000 
#    y 0.000000 1.567710 0.000000 
#    z 0.000000 0.000000 1.620190 
# 
# From -- ./inp_files/20583.got.cif
#   From: 2010.05.17/outbox.cif.g08.bks.cpg/sg49_11_cif.got.tgz:20583.got - 2010.06.03 21:02:19.
