data_PCOD9392095
_publ_section_title
;
Structure prediction by ZEFSAII (Michael W. Deem and Ramdas Pophale) SiO2 
 PCOD9392095
Probable space group: P C C M
;
_chemical_formula_sum "Si O2"
_cell_formula_units_Z 32
_cell_length_a 8.188222
_cell_length_b 20.040958
_cell_length_c 9.270881
_cell_angle_alpha 90.000000
_cell_angle_beta 90.000000
_cell_angle_gamma 90.000000
_cell_volume 1521.349840
_symmetry_space_group_name_H-M "P C C M"
_symmetry_group_IT_number 49
_symmetry_cell_setting 'orthorhombic'
loop_
_space_group_symop_operation_xyz
x,y,z
-x,-y,z
x,-y,1/2-z
-x,y,1/2-z
-x,-y,-z
x,y,-z
-x,y,1/2+z
x,-y,1/2+z
loop_
_atom_site_type_symbol
_atom_site_label
_atom_site_fract_x
_atom_site_fract_y
_atom_site_fract_z
Si Si1 0.182840 0.433775 0.176508
Si Si2 0.825277 0.693592 0.331505
Si Si3 0.192886 0.840741 0.771678
Si Si4 0.656317 0.904149 0.000000
Si Si5 0.720848 0.053119 0.000000
O O1 0.258497 0.500000 0.250000
O O2 0.259691 0.365268 0.239280
O O3 0.000000 0.432449 0.250000
O O4 0.176953 0.436432 0.000000
O O5 0.846078 0.674139 0.500000
O O6 0.751765 0.768240 0.328938
O O7 0.000000 0.700368 0.250000
O O8 0.296979 0.858950 0.633500
O O9 0.210527 0.906478 0.866847
O O10 0.000000 0.835017 0.750000
O O11 0.471267 0.928915 0.000000
O O12 0.752816 0.974663 0.000000
#
# Coordination Sequence:
#
# PCOD9392095 Si02
#       5
#     8   8   8   4   4
#     4  10  17  26  43  68 106 150 192 227 281 347
#     4  10  19  31  49  74 111 147 188 238 292 343
#     4  11  23  37  60  88 117 151 194 245 296 348
#     4  11  25  39  65  79 118 153 194 242 295 359
#     4  11  23  45  57  87 112 155 194 240 299 353
#
# _framework density 21.033953
#
# number of rings (size 3 to 8) (size 9 to 14) (size 15 to 20)
#    0.000    1.500    1.250    7.500    7.000    5.000 
#    0.000    0.000    0.000    0.000    0.000    0.000 
#    0.000    6.000    0.000    0.000    0.000    0.000 
#
# Total GULP energy -178178.617425 kJ/mol
# GULP energy per Si atom -5568.081795 kJ/mol
# Density = 2.098608 g / cm^3
# Si number density = 21.033953 Si / 1000 Ang^3
#
#
#
# Elastic Constant Matrix: (Units=GPa)
#
#
# Indices 1 2 3 4 5 6 
#
# 1 17.5358 13.5640 2.2905 0.0000 0.0000 0.0000
# 2 13.5640 169.6960 51.5067 0.0000 0.0000 0.0000
# 3 2.2905 51.5067 178.0167 0.0000 0.0000 0.0000
# 4 0.0000 0.0000 0.0000 4.6960 0.0000 0.0000
# 5 0.0000 0.0000 0.0000 0.0000 9.7313 0.0000
# 6 0.0000 0.0000 0.0000 0.0000 0.0000 22.6610
#
#
#
# Elastic Compliance Matrix: (Units=1/GPa)
#
#
# Indices 1 2 3 4 5 6 
#
# 1 0.060860 -0.005072 0.000685 0.000000 0.000000 0.000000
# 2 -0.005072 0.006883 -0.001926 0.000000 0.000000 0.000000
# 3 0.000685 -0.001926 0.006166 0.000000 0.000000 0.000000
# 4 0.000000 0.000000 0.000000 0.212948 0.000000 0.000000
# 5 0.000000 0.000000 0.000000 0.000000 0.102761 0.000000
# 6 0.000000 0.000000 0.000000 0.000000 0.000000 0.044129
#
#
# Mechanical properties :
#
#
# Convention : Reuss Voigt Hill
#
# Bulk Modulus (GPa) = 16.31821 55.55231 35.93526
# Shear Modulus (GPa) = 10.71117 27.27682 18.99399
#
# Velocity S-wave (km/s) = 2.25907 3.60502 3.00828
# Velocity P-wave (km/s) = 3.81830 6.61788 5.40258
#
# Compressibility (1/GPa) = 0.06128123
#
# Stress axis : x y z
#
# Youngs Moduli (GPa) = 16.43103 145.28569 162.18050
#
# Poissons Ratio (x) = 0.73695 -0.11102
# Poissons Ratio (y) = 0.08334 0.31240
# Poissons Ratio (z) = -0.01125 0.27985
#
# Static dielectric constant tensor:
#      x y z
#    x 1.774620 0.000000 0.000000 
#    y 0.000000 1.862690 0.000000 
#    z 0.000000 0.000000 1.550790 
# 
# From -- ./inp_files/1417.got.cif
#   From: 2010.05.17/outbox.cif.g08.bks.cpg/sg49_1_cif.got.tgz:1417.got - 2010.06.03 21:02:19.
