data_PCOD9392344
_publ_section_title
;
Structure prediction by ZEFSAII (Michael W. Deem and Ramdas Pophale) SiO2 
 PCOD9392344
Probable space group: P C C M
;
_chemical_formula_sum "Si O2"
_cell_formula_units_Z 64
_cell_length_a 19.487393
_cell_length_b 24.198542
_cell_length_c 8.796593
_cell_angle_alpha 90.000000
_cell_angle_beta 90.000000
_cell_angle_gamma 90.000000
_cell_volume 4148.178555
_symmetry_space_group_name_H-M "P C C M"
_symmetry_group_IT_number 49
_symmetry_cell_setting 'orthorhombic'
loop_
_space_group_symop_operation_xyz
x,y,z
-x,-y,z
x,-y,1/2-z
-x,y,1/2-z
-x,-y,-z
x,y,-z
-x,y,1/2+z
x,-y,1/2+z
loop_
_atom_site_type_symbol
_atom_site_label
_atom_site_fract_x
_atom_site_fract_y
_atom_site_fract_z
Si Si1 0.428010 0.758584 0.681191
Si Si2 0.848378 0.670721 0.316851
Si Si3 0.924745 0.775890 0.818364
Si Si4 0.201001 0.161042 0.317950
Si Si5 0.428045 0.887628 0.682672
Si Si6 0.711482 0.271122 0.181081
Si Si7 0.075641 0.441336 0.682187
Si Si8 0.283675 0.059986 0.817061
O O1 0.500000 0.738886 0.750000
O O2 0.431760 0.757430 0.500000
O O3 0.419700 0.823212 0.729572
O O4 0.361226 0.726322 0.737360
O O5 0.854429 0.679020 0.500000
O O6 0.895431 0.716622 0.236858
O O7 0.769485 0.684095 0.276273
O O8 0.874789 0.609694 0.280473
O O9 0.871184 0.820681 0.753416
O O10 0.000000 0.783883 0.750000
O O11 0.926502 0.777740 0.000000
O O12 0.195047 0.156702 0.500000
O O13 0.253090 0.211879 0.284450
O O14 0.232013 0.105854 0.247146
O O15 0.500000 0.908045 0.750000
O O16 0.432284 0.888957 0.500000
O O17 0.360823 0.921338 0.729458
O O18 0.700706 0.273910 0.000000
O O19 0.098675 0.500000 0.750000
O O20 0.070225 0.445693 0.500000
O O21 0.000000 0.430183 0.750000
O O22 0.268914 0.000000 0.750000
O O23 0.280693 0.059395 0.000000
#
# Coordination Sequence:
#
# PCOD9392344 Si02
#       8
#     8   8   8   8   8   8   8   8
#     4  10  18  29  45  67  93 124 158 192 233 284
#     4   9  19  33  48  71 101 132 166 204 243 284
#     4  11  21  33  52  76 101 127 156 195 238 286
#     4  10  20  35  53  72  95 123 154 192 239 289
#     4   9  19  32  47  66  92 121 156 194 232 279
#     4   9  17  30  48  69  94 123 155 194 241 285
#     4  10  19  31  47  67  97 135 175 210 241 280
#     4  11  22  36  51  71  94 122 158 197 237 284
#
# _framework density 15.428459
#
# number of rings (size 3 to 8) (size 9 to 14) (size 15 to 20)
#    0.000    2.125    1.250    4.125    0.000    5.750 
#    0.000    1.250    0.000    0.375    0.000    2.625 
#    0.000    0.500    0.000    5.750    0.000    1.750 
#
# Total GULP energy -357122.870239 kJ/mol
# GULP energy per Si atom -5580.044847 kJ/mol
# Density = 1.539334 g / cm^3
# Si number density = 15.428459 Si / 1000 Ang^3
#
#
#
# Elastic Constant Matrix: (Units=GPa)
#
#
# Indices 1 2 3 4 5 6 
#
# 1 143.3027 72.3503 59.9505 0.0000 0.0000 0.0000
# 2 72.3503 108.8324 45.1081 0.0000 0.0000 0.0000
# 3 59.9505 45.1081 56.7752 0.0000 0.0000 0.0000
# 4 0.0000 0.0000 0.0000 9.4292 0.0000 0.0000
# 5 0.0000 0.0000 0.0000 0.0000 28.2480 0.0000
# 6 0.0000 0.0000 0.0000 0.0000 0.0000 24.0480
#
#
#
# Elastic Compliance Matrix: (Units=1/GPa)
#
#
# Indices 1 2 3 4 5 6 
#
# 1 0.013961 -0.004728 -0.010985 0.000000 0.000000 0.000000
# 2 -0.004728 0.015301 -0.007164 0.000000 0.000000 0.000000
# 3 -0.010985 -0.007164 0.034905 0.000000 0.000000 0.000000
# 4 0.000000 0.000000 0.000000 0.106054 0.000000 0.000000
# 5 0.000000 0.000000 0.000000 0.000000 0.035401 0.000000
# 6 0.000000 0.000000 0.000000 0.000000 0.000000 0.041584
#
#
# Mechanical properties :
#
#
# Convention : Reuss Voigt Hill
#
# Bulk Modulus (GPa) = 54.31301 73.74758 64.03029
# Shear Modulus (GPa) = 16.71695 21.11180 18.91438
#
# Velocity S-wave (km/s) = 3.29525 3.70316 3.50514
# Velocity P-wave (km/s) = 7.05392 8.13560 7.61399
#
# Compressibility (1/GPa) = 0.01841179
#
# Stress axis : x y z
#
# Youngs Moduli (GPa) = 71.62813 65.35575 28.64901
#
# Poissons Ratio (x) = 0.30899 0.31472
# Poissons Ratio (y) = 0.33865 0.20525
# Poissons Ratio (z) = 0.78687 0.46823
#
# Static dielectric constant tensor:
#      x y z
#    x 1.508160 0.000000 0.000000 
#    y 0.000000 1.497610 0.000000 
#    z 0.000000 0.000000 1.514320 
# 
# From -- ./inp_files/5427.got.cif
#   From: 2010.05.17/outbox.cif.g08.bks.cpg/sg49_3_cif.got.tgz:5427.got - 2010.06.03 21:02:19.
