data_PCOD9392151
_publ_section_title
;
Structure prediction by ZEFSAII (Michael W. Deem and Ramdas Pophale) SiO2 
 PCOD9392151
Probable space group: P C C M
;
_chemical_formula_sum "Si O2"
_cell_formula_units_Z 40
_cell_length_a 26.619111
_cell_length_b 9.718914
_cell_length_c 8.628452
_cell_angle_alpha 90.000000
_cell_angle_beta 90.000000
_cell_angle_gamma 90.000000
_cell_volume 2232.256899
_symmetry_space_group_name_H-M "P C C M"
_symmetry_group_IT_number 49
_symmetry_cell_setting 'orthorhombic'
loop_
_space_group_symop_operation_xyz
x,y,z
-x,-y,z
x,-y,1/2-z
-x,y,1/2-z
-x,-y,-z
x,y,-z
-x,y,1/2+z
x,-y,1/2+z
loop_
_atom_site_type_symbol
_atom_site_label
_atom_site_fract_x
_atom_site_fract_y
_atom_site_fract_z
Si Si1 0.656044 0.345479 0.814421
Si Si2 0.858106 0.154661 0.314597
Si Si3 0.750298 0.153192 0.185963
Si Si4 0.054005 0.345666 0.685621
Si Si5 0.551549 0.656608 0.184844
O O1 0.662847 0.500000 0.750000
O O2 0.704072 0.252747 0.776111
O O3 0.604445 0.284798 0.743837
O O4 0.650601 0.352899 0.000000
O O5 0.860277 0.153258 0.500000
O O6 0.802893 0.201876 0.258982
O O7 0.901414 0.250110 0.245867
O O8 0.864209 0.000000 0.250000
O O9 0.740840 0.000000 0.250000
O O10 0.755828 0.146767 0.000000
O O11 0.061221 0.500000 0.750000
O O12 0.052730 0.348608 0.500000
O O13 0.000000 0.297072 0.750000
O O14 0.552328 0.500000 0.250000
O O15 0.500000 0.720553 0.250000
O O16 0.549929 0.653080 0.000000
#
# Coordination Sequence:
#
# PCOD9392151 Si02
#       5
#     8   8   8   8   8
#     4  10  20  33  51  77 106 135 173 217 262 312
#     4  11  22  38  59  83 110 143 183 226 269 317
#     4  10  21  37  56  78 106 141 179 220 266 319
#     4  11  22  39  60  85 115 147 182 220 268 321
#     4  10  17  27  45  69 100 134 169 210 259 309
#
# _framework density 17.919086
#
# number of rings (size 3 to 8) (size 9 to 14) (size 15 to 20)
#    0.000    1.600    0.000   10.200    0.000    4.400 
#    0.000    4.000    0.000    0.600    0.000    4.200 
#    0.000    0.000    0.000    0.000    0.000    0.000 
#
# Total GULP energy -223382.861272 kJ/mol
# GULP energy per Si atom -5584.571532 kJ/mol
# Density = 1.787830 g / cm^3
# Si number density = 17.919086 Si / 1000 Ang^3
#
#
#
# Elastic Constant Matrix: (Units=GPa)
#
#
# Indices 1 2 3 4 5 6 
#
# 1 214.0931 82.1325 101.8964 0.0000 0.0000 0.0000
# 2 82.1325 46.1691 43.2507 0.0000 0.0000 0.0000
# 3 101.8964 43.2507 166.2649 0.0000 0.0000 0.0000
# 4 0.0000 0.0000 0.0000 -1.6774 0.0000 0.0000
# 5 0.0000 0.0000 0.0000 0.0000 38.7860 0.0000
# 6 0.0000 0.0000 0.0000 0.0000 0.0000 -438.8145
#
#
#
# Elastic Compliance Matrix: (Units=1/GPa)
#
#
# Indices 1 2 3 4 5 6 
#
# 1 0.015865 -0.025274 -0.003149 0.000000 0.000000 0.000000
# 2 -0.025274 0.068900 -0.002434 0.000000 0.000000 0.000000
# 3 -0.003149 -0.002434 0.008577 0.000000 0.000000 0.000000
# 4 0.000000 0.000000 0.000000 -0.596163 0.000000 0.000000
# 5 0.000000 0.000000 0.000000 0.000000 0.025782 0.000000
# 6 0.000000 0.000000 0.000000 0.000000 0.000000 -0.002279
#
#
# Mechanical properties :
#
#
# Convention : Reuss Voigt Hill
#
# Bulk Modulus (GPa) = 31.61533 97.89848 64.75690
# Shear Modulus (GPa) = -12.28320 -67.05801 -39.67061
#
# Velocity S-wave (km/s) = -2.62101 -6.12404 -4.71029
# Velocity P-wave (km/s) = 2.91926 2.17877 2.57576
#
# Compressibility (1/GPa) = 0.03163023
#
# Stress axis : x y z
#
# Youngs Moduli (GPa) = 63.03096 14.51369 116.58730
#
# Poissons Ratio (x) = 0.36682 0.36708
# Poissons Ratio (y) = 1.59304 0.28376
# Poissons Ratio (z) = 0.19846 0.03533
#
# Static dielectric constant tensor:
#      x y z
#    x 1.640830 0.000000 0.000000 
#    y 0.000000 1.586230 0.000000 
#    z 0.000000 0.000000 1.601970 
# 
# From -- ./inp_files/6669.got.cif
#   From: 2010.05.17/outbox.cif.g08.bks.cpg/sg49_4_cif.got.tgz:6669.got - 2010.06.03 21:02:19.
