data_PCOD9392639
_publ_section_title
;
Structure prediction by ZEFSAII (Michael W. Deem and Ramdas Pophale) SiO2 
 PCOD9392639
Probable space group: P C C M
;
_chemical_formula_sum "Si O2"
_cell_formula_units_Z 52
_cell_length_a 8.393252
_cell_length_b 11.099265
_cell_length_c 29.074543
_cell_angle_alpha 90.000000
_cell_angle_beta 90.000000
_cell_angle_gamma 90.000000
_cell_volume 2708.553263
_symmetry_space_group_name_H-M "P C C M"
_symmetry_group_IT_number 49
_symmetry_cell_setting 'orthorhombic'
loop_
_space_group_symop_operation_xyz
x,y,z
-x,-y,z
x,-y,1/2-z
-x,y,1/2-z
-x,-y,-z
x,y,-z
-x,y,1/2+z
x,-y,1/2+z
loop_
_atom_site_type_symbol
_atom_site_label
_atom_site_fract_x
_atom_site_fract_y
_atom_site_fract_z
Si Si1 0.310250 0.854573 0.247020
Si Si2 0.687774 0.013788 0.597582
Si Si3 0.692328 0.010124 0.000000
Si Si4 0.778082 0.239043 0.656151
Si Si5 0.098165 0.871522 0.158878
Si Si6 0.185609 0.481736 0.000000
Si Si7 0.392528 0.276014 0.500000
Si Si8 0.606729 0.380170 0.421505
O O1 0.500000 0.832810 0.250000
O O2 0.242137 0.777023 0.289335
O O3 0.209501 0.830354 0.200970
O O4 0.291334 0.000000 0.250000
O O5 0.753599 0.045275 0.547211
O O6 0.784574 0.900667 0.616830
O O7 0.500000 0.000000 0.594073
O O8 0.711444 0.115420 0.635019
O O9 0.708685 0.154333 0.000000
O O10 0.500000 0.000000 0.000000
O O11 0.677853 0.335111 0.626875
O O12 0.966808 0.228676 0.647283
O O13 0.000000 0.000000 0.168599
O O14 0.280794 0.607688 0.000000
O O15 0.247258 0.412326 0.955019
O O16 0.000000 0.500000 0.000000
O O17 0.501535 0.288235 0.453565
O O18 0.500000 0.500000 0.415538
#
# Coordination Sequence:
#
# PCOD9392639 Si02
#       8
#     8   8   4   8   8   4   4   8
#     4  11  20  33  54  79 110 148 190 226 268 345
#     4  10  19  31  47  74 111 150 180 213 264 339
#     4  10  19  29  46  74 110 142 175 214 262 335
#     4  11  21  32  54  79 109 148 181 230 291 326
#     4  10  20  32  48  74 111 150 183 227 272 336
#     4   9  19  36  60  80 105 139 191 252 286 326
#     4   9  18  35  56  74 105 151 183 220 282 333
#     4   9  19  37  57  80 104 141 194 239 282 340
#
# _framework density 19.198443000000001
#
# number of rings (size 3 to 8) (size 9 to 14) (size 15 to 20)
#    0.000    2.000    3.077    4.154    0.000    1.846 
#    0.000    5.769    0.000    0.462    0.000    0.000 
#    0.000    0.000    0.000    0.000    0.000    0.000 
#
# Total GULP energy -289606.992600 kJ/mol
# GULP energy per Si atom -5569.365242 kJ/mol
# Density = 1.915475 g / cm^3
# Si number density = 19.198443 Si / 1000 Ang^3
#
#
#
# Elastic Constant Matrix: (Units=GPa)
#
#
# Indices 1 2 3 4 5 6 
#
# 1 103.4176 2.5986 32.7077 0.0000 0.0000 0.0000
# 2 2.5986 22.1459 -3.8428 0.0000 0.0000 0.0000
# 3 32.7077 -3.8428 105.3014 0.0000 0.0000 0.0000
# 4 0.0000 0.0000 0.0000 15.7558 0.0000 0.0000
# 5 0.0000 0.0000 0.0000 0.0000 25.4466 0.0000
# 6 0.0000 0.0000 0.0000 0.0000 0.0000 12.6550
#
#
#
# Elastic Compliance Matrix: (Units=1/GPa)
#
#
# Indices 1 2 3 4 5 6 
#
# 1 0.010799 -0.001861 -0.003422 0.000000 0.000000 0.000000
# 2 -0.001861 0.045764 0.002248 0.000000 0.000000 0.000000
# 3 -0.003422 0.002248 0.010642 0.000000 0.000000 0.000000
# 4 0.000000 0.000000 0.000000 0.063469 0.000000 0.000000
# 5 0.000000 0.000000 0.000000 0.000000 0.039298 0.000000
# 6 0.000000 0.000000 0.000000 0.000000 0.000000 0.079020
#
#
# Mechanical properties :
#
#
# Convention : Reuss Voigt Hill
#
# Bulk Modulus (GPa) = 16.35753 32.64354 24.50053
# Shear Modulus (GPa) = 18.15291 24.06492 21.10892
#
# Velocity S-wave (km/s) = 3.07830 3.54430 3.31949
# Velocity P-wave (km/s) = 4.60145 5.81288 5.24227
#
# Compressibility (1/GPa) = 0.06113393
#
# Stress axis : x y z
#
# Youngs Moduli (GPa) = 92.60477 21.85145 93.97154
#
# Poissons Ratio (x) = 0.04066 0.32158
# Poissons Ratio (y) = 0.17233 -0.21126
# Poissons Ratio (z) = 0.31690 -0.04912
#
# Static dielectric constant tensor:
#      x y z
#    x 1.703900 0.000000 0.000000 
#    y 0.000000 1.702590 0.000000 
#    z 0.000000 0.000000 1.701780 
# 
# From -- ./inp_files/24554.got.cif
#   From: 2010.05.17/outbox.cif.g08.bks.cpg/sg49_13_cif.got.tgz:24554.got - 2010.06.03 21:02:19.
