data_PCOD9392014
_publ_section_title
;
Structure prediction by ZEFSAII (Michael W. Deem and Ramdas Pophale) SiO2 
 PCOD9392014
Probable space group: P C C M
;
_chemical_formula_sum "Si O2"
_cell_formula_units_Z 58
_cell_length_a 14.782125
_cell_length_b 28.961022
_cell_length_c 8.814080
_cell_angle_alpha 90.000000
_cell_angle_beta 90.000000
_cell_angle_gamma 90.000000
_cell_volume 3773.355661
_symmetry_space_group_name_H-M "P C C M"
_symmetry_group_IT_number 49
_symmetry_cell_setting 'orthorhombic'
loop_
_space_group_symop_operation_xyz
x,y,z
-x,-y,z
x,-y,1/2-z
-x,y,1/2-z
-x,-y,-z
x,y,-z
-x,y,1/2+z
x,-y,1/2+z
loop_
_atom_site_type_symbol
_atom_site_label
_atom_site_fract_x
_atom_site_fract_y
_atom_site_fract_z
Si Si1 0.091560 0.645190 0.319403
Si Si2 0.500000 0.500000 0.250000
Si Si3 0.347334 0.424469 0.322064
Si Si4 0.601289 0.140256 0.818311
Si Si5 0.602422 0.952946 0.817968
Si Si6 0.600788 0.243031 0.818782
Si Si7 0.138032 0.451693 0.677042
Si Si8 0.707358 0.671572 0.818164
O O1 0.086086 0.646369 0.500000
O O2 0.099353 0.592355 0.263824
O O3 0.186817 0.668036 0.272104
O O4 0.000000 0.665573 0.250000
O O5 0.421183 0.459658 0.259342
O O6 0.367118 0.417234 0.500000
O O7 0.247072 0.446367 0.310876
O O8 0.341313 0.375136 0.239673
O O9 0.500000 0.142801 0.750000
O O10 0.644559 0.095169 0.740749
O O11 0.639207 0.191418 0.787013
O O12 0.596764 0.133429 0.000000
O O13 0.500000 0.952134 0.750000
O O14 0.643893 0.000000 0.750000
O O15 0.598803 0.954580 0.000000
O O16 0.500000 0.246201 0.750000
O O17 0.660825 0.283571 0.750649
O O18 0.594215 0.247728 0.000000
O O19 0.110852 0.500000 0.750000
O O20 0.113420 0.449687 0.500000
O O21 0.702810 0.672615 0.000000
#
# Coordination Sequence:
#
# PCOD9392014 Si02
#       8
#     8   2   8   8   8   8   8   8
#     4  10  21  37  56  77  95 116 142 177 221 271
#     4  12  22  36  52  74  92 120 156 186 224 268
#     4  10  22  36  51  69  92 120 149 182 221 263
#     4   9  16  26  39  57  80 110 149 192 232 272
#     4  10  16  22  33  50  75 108 146 191 236 276
#     4  10  20  33  50  69  93 124 159 196 235 272
#     4  10  19  34  52  71  94 119 142 172 210 256
#     4  10  22  38  55  73  96 120 150 188 227 274
#
# _framework density 15.370934
#
# number of rings (size 3 to 8) (size 9 to 14) (size 15 to 20)
#    0.000    2.069    0.690    4.759    0.966    5.241 
#    0.000    1.379    0.000    0.000    0.000    0.000 
#    0.000    0.000    0.000    0.000    0.000    0.690 
#
# Total GULP energy -322914.439368 kJ/mol
# GULP energy per Si atom -5567.490334 kJ/mol
# Density = 1.533595 g / cm^3
# Si number density = 15.370934 Si / 1000 Ang^3
#
#
#
# Elastic Constant Matrix: (Units=GPa)
#
#
# Indices 1 2 3 4 5 6 
#
# 1 72.2335 45.7811 32.3948 0.0000 0.0000 0.0000
# 2 45.7811 147.4833 57.5655 0.0000 0.0000 0.0000
# 3 32.3948 57.5655 87.3956 0.0000 0.0000 0.0000
# 4 0.0000 0.0000 0.0000 19.6546 0.0000 0.0000
# 5 0.0000 0.0000 0.0000 0.0000 9.4660 0.0000
# 6 0.0000 0.0000 0.0000 0.0000 0.0000 17.0159
#
#
#
# Elastic Compliance Matrix: (Units=1/GPa)
#
#
# Indices 1 2 3 4 5 6 
#
# 1 0.018257 -0.004073 -0.004085 0.000000 0.000000 0.000000
# 2 -0.004073 0.010036 -0.005100 0.000000 0.000000 0.000000
# 3 -0.004085 -0.005100 0.016316 0.000000 0.000000 0.000000
# 4 0.000000 0.000000 0.000000 0.050879 0.000000 0.000000
# 5 0.000000 0.000000 0.000000 0.000000 0.105641 0.000000
# 6 0.000000 0.000000 0.000000 0.000000 0.000000 0.058768
#
#
# Mechanical properties :
#
#
# Convention : Reuss Voigt Hill
#
# Bulk Modulus (GPa) = 55.27151 64.28835 59.77993
# Shear Modulus (GPa) = 17.09729 20.65204 18.87467
#
# Velocity S-wave (km/s) = 3.33875 3.66946 3.50801
# Velocity P-wave (km/s) = 7.13439 7.73749 7.44205
#
# Compressibility (1/GPa) = 0.01809250
#
# Stress axis : x y z
#
# Youngs Moduli (GPa) = 54.77260 99.64561 61.29032
#
# Poissons Ratio (x) = 0.40586 0.25034
# Poissons Ratio (y) = 0.22309 0.31261
# Poissons Ratio (z) = 0.22372 0.50824
#
# Static dielectric constant tensor:
#      x y z
#    x 1.517290 0.000000 0.000000 
#    y 0.000000 1.544960 0.000000 
#    z 0.000000 0.000000 1.521680 
# 
# From -- ./inp_files/4475.got.cif
#   From: 2010.05.17/outbox.cif.g08.bks.cpg/sg49_3_cif.got.tgz:4475.got - 2010.06.03 21:02:19.
