data_PCOD9392518
_publ_section_title
;
Structure prediction by ZEFSAII (Michael W. Deem and Ramdas Pophale) SiO2 
 PCOD9392518
Probable space group: P C C M
;
_chemical_formula_sum "Si O2"
_cell_formula_units_Z 56
_cell_length_a 19.522100
_cell_length_b 19.053871
_cell_length_c 8.740329
_cell_angle_alpha 90.000000
_cell_angle_beta 90.000000
_cell_angle_gamma 90.000000
_cell_volume 3251.153945
_symmetry_space_group_name_H-M "P C C M"
_symmetry_group_IT_number 49
_symmetry_cell_setting 'orthorhombic'
loop_
_space_group_symop_operation_xyz
x,y,z
-x,-y,z
x,-y,1/2-z
-x,y,1/2-z
-x,-y,-z
x,y,-z
-x,y,1/2+z
x,-y,1/2+z
loop_
_atom_site_type_symbol
_atom_site_label
_atom_site_fract_x
_atom_site_fract_y
_atom_site_fract_z
Si Si1 0.787597 0.650765 0.316971
Si Si2 0.701133 0.790619 0.316296
Si Si3 0.340844 0.574541 0.683457
Si Si4 0.787590 0.923631 0.315694
Si Si5 0.928188 0.848739 0.684235
Si Si6 0.927558 0.691252 0.182937
Si Si7 0.575136 0.287088 0.682602
O O1 0.792825 0.644265 0.500000
O O2 0.754127 0.727248 0.281818
O O3 0.733216 0.595582 0.251058
O O4 0.862010 0.648420 0.241275
O O5 0.693337 0.791922 0.500000
O O6 0.733914 0.863905 0.265478
O O7 0.629297 0.770154 0.241916
O O8 0.362662 0.500000 0.750000
O O9 0.337058 0.571884 0.500000
O O10 0.392519 0.637338 0.727924
O O11 0.785434 0.926276 0.500000
O O12 0.863426 0.896183 0.272994
O O13 0.773944 0.000000 0.250000
O O14 0.931435 0.843217 0.500000
O O15 0.919110 0.770591 0.752128
O O16 0.000000 0.876231 0.750000
O O17 0.000000 0.665334 0.250000
O O18 0.930265 0.693288 0.000000
O O19 0.500000 0.278102 0.750000
O O20 0.572217 0.284733 0.500000
#
# Coordination Sequence:
#
# PCOD9392518 Si02
#       7
#     8   8   8   8   8   8   8
#     4  10  18  33  55  76 103 138 177 222 268 311
#     4   9  18  35  55  75 104 137 173 217 263 312
#     4  10  21  36  54  82 114 146 181 211 251 305
#     4  10  21  35  51  73 103 139 179 221 270 323
#     4  10  19  33  48  69 100 136 178 221 272 323
#     4  11  20  30  48  74 102 134 176 225 273 319
#     4  10  21  36  57  85 112 140 176 211 253 307
#
# _framework density 17.224654000000001
#
# number of rings (size 3 to 8) (size 9 to 14) (size 15 to 20)
#    0.000    2.000    1.429    3.857    0.000    4.571 
#    0.000    2.857    0.000    0.857    0.000    6.000 
#    0.000    0.000    0.000    0.000    0.000    0.000 
#
# Total GULP energy -312630.005133 kJ/mol
# GULP energy per Si atom -5582.678663 kJ/mol
# Density = 1.718545 g / cm^3
# Si number density = 17.224654 Si / 1000 Ang^3
#
#
#
# Elastic Constant Matrix: (Units=GPa)
#
#
# Indices 1 2 3 4 5 6 
#
# 1 150.4218 48.1542 44.1733 0.0000 0.0000 0.0000
# 2 48.1542 66.4170 19.9752 0.0000 0.0000 0.0000
# 3 44.1733 19.9752 57.5248 0.0000 0.0000 0.0000
# 4 0.0000 0.0000 0.0000 27.0293 0.0000 0.0000
# 5 0.0000 0.0000 0.0000 0.0000 27.5066 0.0000
# 6 0.0000 0.0000 0.0000 0.0000 0.0000 14.4268
#
#
#
# Elastic Compliance Matrix: (Units=1/GPa)
#
#
# Indices 1 2 3 4 5 6 
#
# 1 0.010163 -0.005607 -0.005857 0.000000 0.000000 0.000000
# 2 -0.005607 0.019905 -0.002607 0.000000 0.000000 0.000000
# 3 -0.005857 -0.002607 0.022787 0.000000 0.000000 0.000000
# 4 0.000000 0.000000 0.000000 0.036997 0.000000 0.000000
# 5 0.000000 0.000000 0.000000 0.000000 0.036355 0.000000
# 6 0.000000 0.000000 0.000000 0.000000 0.000000 0.069315
#
#
# Mechanical properties :
#
#
# Convention : Reuss Voigt Hill
#
# Bulk Modulus (GPa) = 40.46317 55.44101 47.95209
# Shear Modulus (GPa) = 21.56090 24.59660 23.07875
#
# Velocity S-wave (km/s) = 3.54184 3.78297 3.66439
# Velocity P-wave (km/s) = 6.34576 7.16506 6.76782
#
# Compressibility (1/GPa) = 0.02471384
#
# Stress axis : x y z
#
# Youngs Moduli (GPa) = 98.39715 50.23758 43.88537
#
# Poissons Ratio (x) = 0.28167 0.25704
# Poissons Ratio (y) = 0.55169 0.11439
# Poissons Ratio (z) = 0.57633 0.13095
#
# Static dielectric constant tensor:
#      x y z
#    x 1.578640 0.000000 0.000000 
#    y 0.000000 1.569920 0.000000 
#    z 0.000000 0.000000 1.574260 
# 
# From -- ./inp_files/5172.got.cif
#   From: 2010.05.17/outbox.cif.g08.bks.cpg/sg49_3_cif.got.tgz:5172.got - 2010.06.03 21:02:19.
