data_PCOD9392025
_publ_section_title
;
Structure prediction by ZEFSAII (Michael W. Deem and Ramdas Pophale) SiO2 
 PCOD9392025
Probable space group: P C C M
;
_chemical_formula_sum "Si O2"
_cell_formula_units_Z 56
_cell_length_a 30.084681
_cell_length_b 5.432677
_cell_length_c 14.481574
_cell_angle_alpha 90.000000
_cell_angle_beta 90.000000
_cell_angle_gamma 90.000000
_cell_volume 2366.873589
_symmetry_space_group_name_H-M "P C C M"
_symmetry_group_IT_number 49
_symmetry_cell_setting 'orthorhombic'
loop_
_space_group_symop_operation_xyz
x,y,z
-x,-y,z
x,-y,1/2-z
-x,y,1/2-z
-x,-y,-z
x,y,-z
-x,y,1/2+z
x,-y,1/2+z
loop_
_atom_site_type_symbol
_atom_site_label
_atom_site_fract_x
_atom_site_fract_y
_atom_site_fract_z
Si Si1 0.096928 0.590918 0.888292
Si Si2 0.481302 0.746074 0.854532
Si Si3 0.799434 0.524756 0.642995
Si Si4 0.624395 0.265125 0.852554
Si Si5 0.339537 0.227522 0.858756
Si Si6 0.950579 0.913117 0.887313
Si Si7 0.239542 0.031741 0.859766
O O1 0.148233 0.569860 0.861648
O O2 0.067800 0.354067 0.856504
O O3 0.079825 0.857902 0.857560
O O4 0.094314 0.589503 0.000000
O O5 0.500000 0.500000 0.899282
O O6 0.500000 0.748728 0.750000
O O7 0.428450 0.715788 0.847833
O O8 0.500000 0.000000 0.895272
O O9 0.785221 0.500000 0.750000
O O10 0.790507 0.253849 0.603195
O O11 0.772572 0.759769 0.603813
O O12 0.647467 0.504735 0.895555
O O13 0.646286 0.247504 0.749789
O O14 0.633255 0.001763 0.897228
O O15 0.289085 0.138911 0.870364
O O16 0.950437 0.902205 0.000000
O O17 0.000000 0.000000 0.860462
O O18 0.231852 0.000000 0.750000
#
# Coordination Sequence:
#
# PCOD9392025 Si02
#       7
#     8   8   8   8   8   8   8
#     4  10  19  33  52  73  98 124 152 186 223 266
#     4  10  16  23  29  40  61  88 121 167 225 265
#     4  10  21  32  47  67  92 123 152 183 229 277
#     4  10  17  22  34  48  65  92 132 175 225 268
#     4  10  16  24  35  50  68  91 129 175 221 266
#     4   9  17  30  52  78  98 119 152 190 223 257
#     4  10  18  29  43  60  83 112 145 184 230 276
#
# _framework density 23.659901999999999
#
# number of rings (size 3 to 8) (size 9 to 14) (size 15 to 20)
#    0.000    2.143    1.429    6.429    4.000    1.714 
#    0.000    0.000    0.000    2.571    0.000    0.000 
#    0.000    0.000    0.000    0.000    0.000    0.000 
#
# Total GULP energy -312632.928117 kJ/mol
# GULP energy per Si atom -5582.730859 kJ/mol
# Density = 2.360605 g / cm^3
# Si number density = 23.659902 Si / 1000 Ang^3
#
#
#
# Elastic Constant Matrix: (Units=GPa)
#
#
# Indices 1 2 3 4 5 6 
#
# 1 138.6949 71.7994 -11.8762 0.0000 0.0000 0.0000
# 2 71.7994 249.8278 10.9442 0.0000 0.0000 0.0000
# 3 -11.8762 10.9442 89.4177 0.0000 0.0000 0.0000
# 4 0.0000 0.0000 0.0000 -16.7253 0.0000 0.0000
# 5 0.0000 0.0000 0.0000 0.0000 121.2865 0.0000
# 6 0.0000 0.0000 0.0000 0.0000 0.0000 54.1151
#
#
#
# Elastic Compliance Matrix: (Units=1/GPa)
#
#
# Indices 1 2 3 4 5 6 
#
# 1 0.008656 -0.002552 0.001462 0.000000 0.000000 0.000000
# 2 -0.002552 0.004777 -0.000924 0.000000 0.000000 0.000000
# 3 0.001462 -0.000924 0.011491 0.000000 0.000000 0.000000
# 4 0.000000 0.000000 0.000000 -0.059790 0.000000 0.000000
# 5 0.000000 0.000000 0.000000 0.000000 0.008245 0.000000
# 6 0.000000 0.000000 0.000000 0.000000 0.000000 0.018479
#
#
# Mechanical properties :
#
#
# Convention : Reuss Voigt Hill
#
# Bulk Modulus (GPa) = 47.85402 68.85279 58.35341
# Shear Modulus (GPa) = 1754.16917 58.87346 906.52132
#
# Velocity S-wave (km/s) = 27.25839 4.99372 19.59537
# Velocity P-wave (km/s) = 31.79564 7.90025 23.16653
#
# Compressibility (1/GPa) = 0.02089689
#
# Stress axis : x y z
#
# Youngs Moduli (GPa) = 115.52294 209.35399 87.02694
#
# Poissons Ratio (x) = 0.53423 -0.12724
# Poissons Ratio (y) = 0.29479 0.08037
# Poissons Ratio (z) = -0.16890 0.19335
#
# Static dielectric constant tensor:
#      x y z
#    x 1.953980 0.000000 0.000000 
#    y 0.000000 1.521290 0.000000 
#    z 0.000000 0.000000 1.878400 
# 
# From -- ./inp_files/21266.got.cif
#   From: 2010.05.17/outbox.cif.g08.bks.cpg/sg49_11_cif.got.tgz:21266.got - 2010.06.03 21:02:19.
