data_PCOD9392358
_publ_section_title
;
Structure prediction by ZEFSAII (Michael W. Deem and Ramdas Pophale) SiO2 
 PCOD9392358
Probable space group: P C C M
;
_chemical_formula_sum "Si O2"
_cell_formula_units_Z 52
_cell_length_a 15.755055
_cell_length_b 20.891252
_cell_length_c 9.427265
_cell_angle_alpha 90.000000
_cell_angle_beta 90.000000
_cell_angle_gamma 90.000000
_cell_volume 3102.916627
_symmetry_space_group_name_H-M "P C C M"
_symmetry_group_IT_number 49
_symmetry_cell_setting 'orthorhombic'
loop_
_space_group_symop_operation_xyz
x,y,z
-x,-y,z
x,-y,1/2-z
-x,y,1/2-z
-x,-y,-z
x,y,-z
-x,y,1/2+z
x,-y,1/2+z
loop_
_atom_site_type_symbol
_atom_site_label
_atom_site_fract_x
_atom_site_fract_y
_atom_site_fract_z
Si Si1 0.088738 0.692698 0.169462
Si Si2 0.773316 0.621346 0.162902
Si Si3 0.087673 0.932071 0.174051
Si Si4 0.659154 0.250525 0.653045
Si Si5 0.209359 0.183512 0.334075
Si Si6 0.500000 0.329146 0.250000
Si Si7 0.623778 0.440122 0.162642
O O1 0.142731 0.637361 0.247970
O O2 0.142750 0.758120 0.187456
O O3 0.000000 0.699169 0.250000
O O4 0.079373 0.681622 0.000000
O O5 0.721677 0.688151 0.152651
O O6 0.709880 0.577973 0.254373
O O7 0.787913 0.599642 0.000000
O O8 0.161411 0.881340 0.207820
O O9 0.000000 0.909944 0.250000
O O10 0.105351 0.000000 0.250000
O O11 0.078481 0.936957 0.000000
O O12 0.660747 0.219174 0.500000
O O13 0.702214 0.201989 0.761385
O O14 0.567370 0.281948 0.677198
O O15 0.225656 0.179682 0.500000
O O16 0.560433 0.379039 0.165668
O O17 0.588719 0.500000 0.250000
O O18 0.639195 0.457605 0.000000
#
# Coordination Sequence:
#
# PCOD9392358 Si02
#       7
#     8   8   8   8   8   4   8
#     4  10  18  29  47  71  97 127 162 201 245 288
#     4   9  18  33  49  68  95 125 160 200 242 288
#     4  10  19  31  47  70 100 135 172 207 244 283
#     4   9  18  31  49  71  95 126 161 198 241 288
#     4   9  19  32  46  68  99 132 165 201 243 291
#     4  10  21  34  52  76 103 128 158 196 240 290
#     4  11  22  35  52  73  99 130 162 196 237 288
#
# _framework density 16.758427000000001
#
# number of rings (size 3 to 8) (size 9 to 14) (size 15 to 20)
#    0.000    2.308    0.000    3.462    0.000    8.615 
#    0.000    0.000    0.000    0.462    0.000    3.769 
#    0.000    3.692    0.000    0.000    0.000    0.000 
#
# Total GULP energy -289477.164736 kJ/mol
# GULP energy per Si atom -5566.868553 kJ/mol
# Density = 1.672028 g / cm^3
# Si number density = 16.758427 Si / 1000 Ang^3
#
#
#
# Elastic Constant Matrix: (Units=GPa)
#
#
# Indices 1 2 3 4 5 6 
#
# 1 71.3728 30.6086 51.4743 0.0000 0.0000 0.0000
# 2 30.6086 59.4387 38.9534 0.0000 0.0000 0.0000
# 3 51.4743 38.9534 120.4661 0.0000 0.0000 0.0000
# 4 0.0000 0.0000 0.0000 15.8694 0.0000 0.0000
# 5 0.0000 0.0000 0.0000 0.0000 -7.0843 0.0000
# 6 0.0000 0.0000 0.0000 0.0000 0.0000 24.0886
#
#
#
# Elastic Compliance Matrix: (Units=1/GPa)
#
#
# Indices 1 2 3 4 5 6 
#
# 1 0.022116 -0.006593 -0.007318 0.000000 0.000000 0.000000
# 2 -0.006593 0.023313 -0.004721 0.000000 0.000000 0.000000
# 3 -0.007318 -0.004721 0.012955 0.000000 0.000000 0.000000
# 4 0.000000 0.000000 0.000000 0.063015 0.000000 0.000000
# 5 0.000000 0.000000 0.000000 0.000000 -0.141157 0.000000
# 6 0.000000 0.000000 0.000000 0.000000 0.000000 0.041513
#
#
# Mechanical properties :
#
#
# Convention : Reuss Voigt Hill
#
# Bulk Modulus (GPa) = 47.35018 54.81671 51.08344
# Shear Modulus (GPa) = 75.68873 15.25748 45.47311
#
# Velocity S-wave (km/s) = 6.72775 3.02062 5.21473
# Velocity P-wave (km/s) = 9.41627 6.70421 8.17351
#
# Compressibility (1/GPa) = 0.02111925
#
# Stress axis : x y z
#
# Youngs Moduli (GPa) = 45.21541 42.89385 77.19133
#
# Poissons Ratio (x) = 0.28280 0.56491
# Poissons Ratio (y) = 0.29811 0.36445
# Poissons Ratio (z) = 0.33090 0.20252
#
# Static dielectric constant tensor:
#      x y z
#    x 1.577850 0.000000 0.000000 
#    y 0.000000 1.592260 0.000000 
#    z 0.000000 0.000000 1.581740 
# 
# From -- ./inp_files/3909.got.cif
#   From: 2010.05.17/outbox.cif.g08.bks.cpg/sg49_2_cif.got.tgz:3909.got - 2010.06.03 21:02:19.
