data_PCOD9392320
_publ_section_title
;
Structure prediction by ZEFSAII (Michael W. Deem and Ramdas Pophale) SiO2 
 PCOD9392320
Probable space group: P C C M
;
_chemical_formula_sum "Si O2"
_cell_formula_units_Z 56
_cell_length_a 21.659927
_cell_length_b 18.617744
_cell_length_c 9.047548
_cell_angle_alpha 90.000000
_cell_angle_beta 90.000000
_cell_angle_gamma 90.000000
_cell_volume 3648.504941
_symmetry_space_group_name_H-M "P C C M"
_symmetry_group_IT_number 49
_symmetry_cell_setting 'orthorhombic'
loop_
_space_group_symop_operation_xyz
x,y,z
-x,-y,z
x,-y,1/2-z
-x,y,1/2-z
-x,-y,-z
x,y,-z
-x,y,1/2+z
x,-y,1/2+z
loop_
_atom_site_type_symbol
_atom_site_label
_atom_site_fract_x
_atom_site_fract_y
_atom_site_fract_z
Si Si1 0.936149 0.421888 0.322156
Si Si2 0.246747 0.795102 0.831077
Si Si3 0.186687 0.333664 0.824214
Si Si4 0.311047 0.077238 0.824050
Si Si5 0.688792 0.422067 0.322830
Si Si6 0.375957 0.293306 0.670420
Si Si7 0.437382 0.837876 0.676215
O O1 0.924900 0.500000 0.250000
O O2 0.942329 0.428715 0.500000
O O3 0.877963 0.371367 0.289652
O O4 0.000000 0.395254 0.250000
O O5 0.198041 0.740773 0.759462
O O6 0.261417 0.866445 0.739436
O O7 0.310944 0.750025 0.830236
O O8 0.231481 0.812314 0.000000
O O9 0.243681 0.387498 0.789513
O O10 0.189741 0.320400 0.000000
O O11 0.378723 0.111206 0.791276
O O12 0.305317 0.000000 0.750000
O O13 0.305221 0.071974 0.000000
O O14 0.684221 0.500000 0.250000
O O15 0.682455 0.426060 0.500000
O O16 0.638924 0.367121 0.254311
O O17 0.394378 0.304776 0.500000
O O18 0.422044 0.240178 0.755062
O O19 0.500000 0.865395 0.750000
O O20 0.443870 0.832561 0.500000
#
# Coordination Sequence:
#
# PCOD9392320 Si02
#       7
#     8   8   8   8   8   8   8
#     4  10  19  30  43  61  89 126 164 200 236 273
#     4   9  17  29  47  68  89 115 148 184 224 268
#     4   9  18  30  44  63  89 120 154 191 229 269
#     4  10  20  33  49  69  96 124 149 179 219 264
#     4  10  18  28  43  64  88 113 144 184 229 273
#     4   9  17  30  46  64  86 112 143 181 223 267
#     4  10  20  33  49  68  89 117 150 183 216 257
#
# _framework density 15.348753
#
# number of rings (size 3 to 8) (size 9 to 14) (size 15 to 20)
#    0.000    2.429    0.000    3.429    0.000    7.143 
#    0.000    1.429    0.000    0.429    0.000    3.000 
#    0.000    0.571    0.000    6.000    0.000    3.286 
#
# Total GULP energy -312267.439836 kJ/mol
# GULP energy per Si atom -5576.204283 kJ/mol
# Density = 1.531382 g / cm^3
# Si number density = 15.348753 Si / 1000 Ang^3
#
#
#
# Elastic Constant Matrix: (Units=GPa)
#
#
# Indices 1 2 3 4 5 6 
#
# 1 40.4074 29.7692 27.0148 0.0000 0.0000 0.0000
# 2 29.7692 119.9196 62.0409 0.0000 0.0000 0.0000
# 3 27.0148 62.0409 75.3243 0.0000 0.0000 0.0000
# 4 0.0000 0.0000 0.0000 30.5752 0.0000 0.0000
# 5 0.0000 0.0000 0.0000 0.0000 17.4995 0.0000
# 6 0.0000 0.0000 0.0000 0.0000 0.0000 13.5939
#
#
#
# Elastic Compliance Matrix: (Units=1/GPa)
#
#
# Indices 1 2 3 4 5 6 
#
# 1 0.033448 -0.003654 -0.008986 0.000000 0.000000 0.000000
# 2 -0.003654 0.014930 -0.010987 0.000000 0.000000 0.000000
# 3 -0.008986 -0.010987 0.025548 0.000000 0.000000 0.000000
# 4 0.000000 0.000000 0.000000 0.032706 0.000000 0.000000
# 5 0.000000 0.000000 0.000000 0.000000 0.057145 0.000000
# 6 0.000000 0.000000 0.000000 0.000000 0.000000 0.073562
#
#
# Mechanical properties :
#
#
# Convention : Reuss Voigt Hill
#
# Bulk Modulus (GPa) = 37.49266 52.58904 45.04085
# Shear Modulus (GPa) = 17.03675 20.12215 18.57945
#
# Velocity S-wave (km/s) = 3.33525 3.62470 3.48298
# Velocity P-wave (km/s) = 6.26993 7.20104 6.75156
#
# Compressibility (1/GPa) = 0.02667189
#
# Stress axis : x y z
#
# Youngs Moduli (GPa) = 29.89729 66.97943 39.14222
#
# Poissons Ratio (x) = 0.24475 0.35174
# Poissons Ratio (y) = 0.10925 0.43004
# Poissons Ratio (z) = 0.26866 0.73587
#
# Static dielectric constant tensor:
#      x y z
#    x 1.500950 0.000000 0.000000 
#    y 0.000000 1.488480 0.000000 
#    z 0.000000 0.000000 1.514350 
# 
# From -- ./inp_files/4076.got.cif
#   From: 2010.05.17/outbox.cif.g08.bks.cpg/sg49_3_cif.got.tgz:4076.got - 2010.06.03 21:02:19.
