data_PCOD9392482
_publ_section_title
;
Structure prediction by ZEFSAII (Michael W. Deem and Ramdas Pophale) SiO2 
 PCOD9392482
Probable space group: P C C M
;
_chemical_formula_sum "Si O2"
_cell_formula_units_Z 56
_cell_length_a 16.948559
_cell_length_b 10.403851
_cell_length_c 14.662360
_cell_angle_alpha 90.000000
_cell_angle_beta 90.000000
_cell_angle_gamma 90.000000
_cell_volume 2585.418081
_symmetry_space_group_name_H-M "P C C M"
_symmetry_group_IT_number 49
_symmetry_cell_setting 'orthorhombic'
loop_
_space_group_symop_operation_xyz
x,y,z
-x,-y,z
x,-y,1/2-z
-x,y,1/2-z
-x,-y,-z
x,y,-z
-x,y,1/2+z
x,-y,1/2+z
loop_
_atom_site_type_symbol
_atom_site_label
_atom_site_fract_x
_atom_site_fract_y
_atom_site_fract_z
Si Si1 0.229848 0.506694 0.139951
Si Si2 0.244616 0.008938 0.359260
Si Si3 0.066418 0.901648 0.891096
Si Si4 0.322420 0.255692 0.137564
Si Si5 0.494077 0.350784 0.138859
Si Si6 0.338369 0.742832 0.859694
Si Si7 0.942911 0.390592 0.105734
O O1 0.226771 0.500000 0.250000
O O2 0.263563 0.369996 0.110455
O O3 0.291525 0.615917 0.111891
O O4 0.144357 0.550117 0.108054
O O5 0.153058 0.037989 0.377843
O O6 0.294944 0.130106 0.392441
O O7 0.251129 0.000000 0.250000
O O8 0.283554 0.877233 0.392965
O O9 0.059742 0.754665 0.854146
O O10 0.055663 0.891676 0.000000
O O11 0.000000 0.000000 0.856176
O O12 0.411604 0.289145 0.108734
O O13 0.330551 0.254802 0.248689
O O14 0.500000 0.500000 0.110487
O O15 0.500000 0.352646 0.250000
O O16 0.571391 0.271889 0.111432
O O17 0.000000 0.500000 0.146298
O O18 0.967654 0.375056 0.000000
#
# Coordination Sequence:
#
# PCOD9392482 Si02
#       7
#     8   8   8   8   8   8   8
#     4  10  18  32  52  78 106 135 171 211 257 305
#     4  10  20  34  50  78 110 135 170 214 260 306
#     4  10  22  40  58  75 100 136 174 212 259 315
#     4   9  18  27  46  76 105 139 170 209 256 300
#     4   9  14  24  43  70 104 140 173 207 254 301
#     4   9  16  29  47  70 108 139 170 212 251 305
#     4  10  22  39  57  78 102 132 174 217 256 306
#
# _framework density 21.659939999999999
#
# number of rings (size 3 to 8) (size 9 to 14) (size 15 to 20)
#    0.000    2.429    2.857    0.000    2.000    1.143 
#    0.000    4.286    0.000    0.000    0.000    6.000 
#    0.000    0.000    0.000    0.000    0.000    0.000 
#
# Total GULP energy -312694.768314 kJ/mol
# GULP energy per Si atom -5583.835148 kJ/mol
# Density = 2.161064 g / cm^3
# Si number density = 21.659940 Si / 1000 Ang^3
#
#
#
# Elastic Constant Matrix: (Units=GPa)
#
#
# Indices 1 2 3 4 5 6 
#
# 1 190.7210 126.6955 -3.9378 0.0000 0.0000 0.0000
# 2 126.6955 232.0096 8.7715 0.0000 0.0000 0.0000
# 3 -3.9378 8.7715 72.8939 0.0000 0.0000 0.0000
# 4 0.0000 0.0000 0.0000 -6.5047 0.0000 0.0000
# 5 0.0000 0.0000 0.0000 0.0000 56.1582 0.0000
# 6 0.0000 0.0000 0.0000 0.0000 0.0000 39.5112
#
#
#
# Elastic Compliance Matrix: (Units=1/GPa)
#
#
# Indices 1 2 3 4 5 6 
#
# 1 0.008300 -0.004570 0.000998 0.000000 0.000000 0.000000
# 2 -0.004570 0.006846 -0.001071 0.000000 0.000000 0.000000
# 3 0.000998 -0.001071 0.013901 0.000000 0.000000 0.000000
# 4 0.000000 0.000000 0.000000 -0.153734 0.000000 0.000000
# 5 0.000000 0.000000 0.000000 0.000000 0.017807 0.000000
# 6 0.000000 0.000000 0.000000 0.000000 0.000000 0.025309
#
#
# Mechanical properties :
#
#
# Convention : Reuss Voigt Hill
#
# Bulk Modulus (GPa) = 50.60115 84.29811 67.44963
# Shear Modulus (GPa) = -76.10552 42.10595 -16.99979
#
# Velocity S-wave (km/s) = -5.93404 4.41381 -2.80456
# Velocity P-wave (km/s) = 4.85160 8.06096 4.55198
#
# Compressibility (1/GPa) = 0.01976240
#
# Stress axis : x y z
#
# Youngs Moduli (GPa) = 120.48554 146.06524 71.93547
#
# Poissons Ratio (x) = 0.66753 -0.07181
# Poissons Ratio (y) = 0.55063 0.07702
# Poissons Ratio (z) = -0.12028 0.15639
#
# Static dielectric constant tensor:
#      x y z
#    x 1.741270 0.000000 0.000000 
#    y 0.000000 1.774850 0.000000 
#    z 0.000000 0.000000 1.836220 
# 
# From -- ./inp_files/21022.got.cif
#   From: 2010.05.17/outbox.cif.g08.bks.cpg/sg49_11_cif.got.tgz:21022.got - 2010.06.03 21:02:19.
