data_PCOD9392461
_publ_section_title
;
Structure prediction by ZEFSAII (Michael W. Deem and Ramdas Pophale) SiO2 
 PCOD9392461
Probable space group: P C C M
;
_chemical_formula_sum "Si O2"
_cell_formula_units_Z 56
_cell_length_a 9.476186
_cell_length_b 13.442150
_cell_length_c 21.852628
_cell_angle_alpha 90.000000
_cell_angle_beta 90.000000
_cell_angle_gamma 90.000000
_cell_volume 2783.594608
_symmetry_space_group_name_H-M "P C C M"
_symmetry_group_IT_number 49
_symmetry_cell_setting 'orthorhombic'
loop_
_space_group_symop_operation_xyz
x,y,z
-x,-y,z
x,-y,1/2-z
-x,y,1/2-z
-x,-y,-z
x,y,-z
-x,y,1/2+z
x,-y,1/2+z
loop_
_atom_site_type_symbol
_atom_site_label
_atom_site_fract_x
_atom_site_fract_y
_atom_site_fract_z
Si Si1 0.169572 0.381752 0.745277
Si Si2 0.111519 0.819448 0.573606
Si Si3 0.152875 0.472730 0.570146
Si Si4 0.698784 0.354432 0.372116
Si Si5 0.365885 0.054776 0.931228
Si Si6 0.826576 0.739023 0.619927
Si Si7 0.457602 0.747366 0.068238
O O1 0.204303 0.500000 0.750000
O O2 0.253110 0.336777 0.802805
O O3 0.196488 0.316323 0.684685
O O4 0.000000 0.376540 0.750000
O O5 0.088576 0.825816 0.500000
O O6 0.197774 0.717632 0.588393
O O7 0.209834 0.914615 0.592366
O O8 0.964653 0.805866 0.609966
O O9 0.158838 0.505974 0.500000
O O10 0.266393 0.533367 0.608211
O O11 0.161621 0.355289 0.574530
O O12 0.000000 0.500000 0.597280
O O13 0.537939 0.329897 0.388241
O O14 0.432994 0.163606 0.937980
O O15 0.500000 0.000000 0.899941
O O16 0.348067 0.009799 0.000000
O O17 0.683719 0.790267 0.597966
O O18 0.433367 0.705964 0.000000
#
# Coordination Sequence:
#
# PCOD9392461 Si02
#       7
#     8   8   8   8   8   8   8
#     4  11  21  37  54  73 105 149 202 251 274 330
#     4  10  18  31  54  82 110 142 189 234 278 345
#     4  11  19  29  49  73 101 144 197 235 280 340
#     4  11  20  35  52  74 103 152 197 235 283 337
#     4   8  16  34  59  83 111 146 176 215 284 366
#     4  12  22  34  51  79 113 150 190 242 292 327
#     4  10  22  37  54  82 118 143 180 240 298 355
#
# _framework density 20.117872999999999
#
# number of rings (size 3 to 8) (size 9 to 14) (size 15 to 20)
#    0.000    1.571    4.286    3.429    0.000    1.143 
#    0.000    2.857    0.000    3.429    0.000    8.000 
#    0.000    0.000    0.000    0.000    0.000    0.000 
#
# Total GULP energy -311819.689258 kJ/mol
# GULP energy per Si atom -5568.208737 kJ/mol
# Density = 2.007208 g / cm^3
# Si number density = 20.117873 Si / 1000 Ang^3
#
#
#
# Elastic Constant Matrix: (Units=GPa)
#
#
# Indices 1 2 3 4 5 6 
#
# 1 114.3578 19.9249 41.1620 0.0000 0.0000 0.0000
# 2 19.9249 22.7024 12.9433 0.0000 0.0000 0.0000
# 3 41.1620 12.9433 105.3500 0.0000 0.0000 0.0000
# 4 0.0000 0.0000 0.0000 -7.2224 0.0000 0.0000
# 5 0.0000 0.0000 0.0000 0.0000 21.5322 0.0000
# 6 0.0000 0.0000 0.0000 0.0000 0.0000 35.1420
#
#
#
# Elastic Compliance Matrix: (Units=1/GPa)
#
#
# Indices 1 2 3 4 5 6 
#
# 1 0.011389 -0.008020 -0.003464 0.000000 0.000000 0.000000
# 2 -0.008020 0.053014 -0.003380 0.000000 0.000000 0.000000
# 3 -0.003464 -0.003380 0.011261 0.000000 0.000000 0.000000
# 4 0.000000 0.000000 0.000000 -0.138458 0.000000 0.000000
# 5 0.000000 0.000000 0.000000 0.000000 0.046442 0.000000
# 6 0.000000 0.000000 0.000000 0.000000 0.000000 0.028456
#
#
# Mechanical properties :
#
#
# Convention : Reuss Voigt Hill
#
# Bulk Modulus (GPa) = 21.76979 43.38562 32.57771
# Shear Modulus (GPa) = 87.49723 21.11570 54.30647
#
# Velocity S-wave (km/s) = 6.60202 3.24327 5.20123
# Velocity P-wave (km/s) = 8.30423 5.96972 7.23180
#
# Compressibility (1/GPa) = 0.04593522
#
# Stress axis : x y z
#
# Youngs Moduli (GPa) = 87.80496 18.86286 88.80199
#
# Poissons Ratio (x) = 0.15129 0.30765
# Poissons Ratio (y) = 0.70423 0.30012
# Poissons Ratio (z) = 0.30420 0.06375
#
# Static dielectric constant tensor:
#      x y z
#    x 1.811720 0.000000 0.000000 
#    y 0.000000 1.754060 0.000000 
#    z 0.000000 0.000000 1.741030 
# 
# From -- ./inp_files/19918.got.cif
#   From: 2010.05.17/outbox.cif.g08.bks.cpg/sg49_10_cif.got.tgz:19918.got - 2010.06.03 21:02:19.
