data_PCOD9392616
_publ_section_title
;
Structure prediction by ZEFSAII (Michael W. Deem and Ramdas Pophale) SiO2 
 PCOD9392616
Probable space group: P C C M
;
_chemical_formula_sum "Si O2"
_cell_formula_units_Z 56
_cell_length_a 30.121425
_cell_length_b 13.901685
_cell_length_c 8.836247
_cell_angle_alpha 90.000000
_cell_angle_beta 90.000000
_cell_angle_gamma 90.000000
_cell_volume 3700.077363
_symmetry_space_group_name_H-M "P C C M"
_symmetry_group_IT_number 49
_symmetry_cell_setting 'orthorhombic'
loop_
_space_group_symop_operation_xyz
x,y,z
-x,-y,z
x,-y,1/2-z
-x,y,1/2-z
-x,-y,-z
x,y,-z
-x,y,1/2+z
x,-y,1/2+z
loop_
_atom_site_type_symbol
_atom_site_label
_atom_site_fract_x
_atom_site_fract_y
_atom_site_fract_z
Si Si1 0.314441 0.101650 0.818861
Si Si2 0.044167 0.892548 0.319446
Si Si3 0.771116 0.201105 0.181478
Si Si4 0.638786 0.298728 0.681400
Si Si5 0.546520 0.606586 0.818064
Si Si6 0.276573 0.398273 0.680316
Si Si7 0.856972 0.107539 0.318657
O O1 0.266860 0.132316 0.750557
O O2 0.347678 0.189355 0.780594
O O3 0.328179 0.000000 0.750000
O O4 0.310959 0.094865 0.000000
O O5 0.039207 0.898680 0.500000
O O6 0.093319 0.852992 0.285516
O O7 0.000000 0.845041 0.250000
O O8 0.045514 0.000000 0.250000
O O9 0.756027 0.309798 0.220174
O O10 0.818241 0.171596 0.248878
O O11 0.771262 0.191112 0.000000
O O12 0.643524 0.309653 0.500000
O O13 0.588992 0.328804 0.721907
O O14 0.675015 0.367204 0.759033
O O15 0.553512 0.500000 0.750000
O O16 0.500000 0.642598 0.750000
O O17 0.543147 0.600094 0.000000
O O18 0.263430 0.500000 0.750000
O O19 0.278264 0.405977 0.500000
O O20 0.852263 0.101041 0.500000
O O21 0.853391 0.000000 0.250000
#
# Coordination Sequence:
#
# PCOD9392616 Si02
#       7
#     8   8   8   8   8   8   8
#     4  10  19  32  48  66  89 117 148 184 220 255
#     4   9  16  25  38  56  79 109 145 180 217 257
#     4  10  20  32  45  64  88 116 149 182 216 258
#     4   9  19  33  49  68  91 118 148 180 215 256
#     4  10  19  31  47  69  93 117 143 174 215 261
#     4  10  20  32  48  68  90 116 146 178 216 260
#     4  10  19  29  42  61  86 118 151 184 220 258
#
# _framework density 15.134819999999999
#
# number of rings (size 3 to 8) (size 9 to 14) (size 15 to 20)
#    0.000    2.286    0.000    4.286    0.000    6.286 
#    0.000    0.000    0.000    0.429    0.000    3.000 
#    0.000    0.571    0.000    6.286    0.000    4.571 
#
# Total GULP energy -312244.806555 kJ/mol
# GULP energy per Si atom -5575.800117 kJ/mol
# Density = 1.510037 g / cm^3
# Si number density = 15.134820 Si / 1000 Ang^3
#
#
#
# Elastic Constant Matrix: (Units=GPa)
#
#
# Indices 1 2 3 4 5 6 
#
# 1 150.1731 51.1247 51.8589 0.0000 0.0000 0.0000
# 2 51.1247 71.3934 32.8474 0.0000 0.0000 0.0000
# 3 51.8589 32.8474 54.5122 0.0000 0.0000 0.0000
# 4 0.0000 0.0000 0.0000 21.8041 0.0000 0.0000
# 5 0.0000 0.0000 0.0000 0.0000 26.4244 0.0000
# 6 0.0000 0.0000 0.0000 0.0000 0.0000 17.0838
#
#
#
# Elastic Compliance Matrix: (Units=1/GPa)
#
#
# Indices 1 2 3 4 5 6 
#
# 1 0.010732 -0.004134 -0.007718 0.000000 0.000000 0.000000
# 2 -0.004134 0.020972 -0.008704 0.000000 0.000000 0.000000
# 3 -0.007718 -0.008704 0.030932 0.000000 0.000000 0.000000
# 4 0.000000 0.000000 0.000000 0.045863 0.000000 0.000000
# 5 0.000000 0.000000 0.000000 0.000000 0.037844 0.000000
# 6 0.000000 0.000000 0.000000 0.000000 0.000000 0.058535
#
#
# Mechanical properties :
#
#
# Convention : Reuss Voigt Hill
#
# Bulk Modulus (GPa) = 46.46292 60.86009 53.66150
# Shear Modulus (GPa) = 19.74994 22.41230 21.08112
#
# Velocity S-wave (km/s) = 3.61631 3.85235 3.73619
# Velocity P-wave (km/s) = 6.94283 7.75156 7.35832
#
# Compressibility (1/GPa) = 0.02152254
#
# Stress axis : x y z
#
# Youngs Moduli (GPa) = 93.18230 47.68277 32.32869
#
# Poissons Ratio (x) = 0.19711 0.24953
# Poissons Ratio (y) = 0.38519 0.28140
# Poissons Ratio (z) = 0.71922 0.41505
#
# Static dielectric constant tensor:
#      x y z
#    x 1.517990 0.000000 0.000000 
#    y 0.000000 1.484630 0.000000 
#    z 0.000000 0.000000 1.505020 
# 
# From -- ./inp_files/7025.got.cif
#   From: 2010.05.17/outbox.cif.g08.bks.cpg/sg49_4_cif.got.tgz:7025.got - 2010.06.03 21:02:19.
