data_PCOD9392985
_publ_section_title
;
Structure prediction by ZEFSAII (Michael W. Deem and Ramdas Pophale) SiO2 
 PCOD9392985
Probable space group: P C C M
;
_chemical_formula_sum "Si O2"
_cell_formula_units_Z 58
_cell_length_a 15.818412
_cell_length_b 11.299592
_cell_length_c 16.222849
_cell_angle_alpha 90.000000
_cell_angle_beta 90.000000
_cell_angle_gamma 90.000000
_cell_volume 2899.698014
_symmetry_space_group_name_H-M "P C C M"
_symmetry_group_IT_number 49
_symmetry_cell_setting 'orthorhombic'
loop_
_space_group_symop_operation_xyz
x,y,z
-x,-y,z
x,-y,1/2-z
-x,y,1/2-z
-x,-y,-z
x,y,-z
-x,y,1/2+z
x,-y,1/2+z
loop_
_atom_site_type_symbol
_atom_site_label
_atom_site_fract_x
_atom_site_fract_y
_atom_site_fract_z
Si Si1 0.763747 0.789244 0.171490
Si Si2 0.065044 0.397298 0.596328
Si Si3 0.233320 0.522728 0.649854
Si Si4 0.415138 0.445595 0.656600
Si Si5 0.500000 0.000000 0.750000
Si Si6 0.632159 0.817927 0.315599
Si Si7 0.782151 0.041897 0.095838
Si Si8 0.083299 0.834882 0.796516
O O1 0.773219 0.661564 0.131020
O O2 0.680889 0.789669 0.229864
O O3 0.845137 0.801006 0.230319
O O4 0.759644 0.906052 0.116084
O O5 0.049877 0.371908 0.500000
O O6 0.158731 0.448709 0.609402
O O7 0.058050 0.279976 0.650332
O O8 0.000000 0.500000 0.623000
O O9 0.227593 0.500000 0.750000
O O10 0.325223 0.482298 0.620221
O O11 0.500000 0.500000 0.618467
O O12 0.413060 0.500000 0.750000
O O13 0.412129 0.303680 0.657832
O O14 0.438567 0.083279 0.697305
O O15 0.706827 0.872274 0.372066
O O16 0.867603 0.073643 0.144970
O O17 0.794722 0.060449 0.000000
O O18 0.000000 0.875220 0.750000
#
# Coordination Sequence:
#
# PCOD9392985 Si02
#       8
#     8   8   8   8   2   8   8   8
#     4  11  21  39  62  91 123 164 220 262 312 382
#     4  11  24  39  61  97 131 163 207 262 327 390
#     4  11  19  36  63  90 124 166 209 260 321 380
#     4  10  19  32  56  96 128 152 201 267 322 365
#     4  12  20  32  64 100 118 164 230 282 304 364
#     4  11  20  36  63  93 128 169 218 272 319 380
#     4  11  25  44  63  89 132 176 213 265 331 390
#     4  11  22  40  67  92 120 163 215 266 312 382
#
# _framework density 20.002082999999999
#
# number of rings (size 3 to 8) (size 9 to 14) (size 15 to 20)
#    0.000    1.103    5.517    4.138    0.000    1.655 
#    0.000    2.414    0.000    1.655    0.000    0.000 
#    0.000    0.552    0.000    0.000    0.000    0.000 
#
# Total GULP energy -324109.108227 kJ/mol
# GULP energy per Si atom -5588.088073 kJ/mol
# Density = 1.995656 g / cm^3
# Si number density = 20.002083 Si / 1000 Ang^3
#
#
#
# Elastic Constant Matrix: (Units=GPa)
#
#
# Indices 1 2 3 4 5 6 
#
# 1 135.3333 46.3608 31.1072 0.0000 0.0000 0.0000
# 2 46.3608 163.7527 33.5047 0.0000 0.0000 0.0000
# 3 31.1072 33.5047 41.3442 0.0000 0.0000 0.0000
# 4 0.0000 0.0000 0.0000 -7.0193 0.0000 0.0000
# 5 0.0000 0.0000 0.0000 0.0000 -8.4122 0.0000
# 6 0.0000 0.0000 0.0000 0.0000 0.0000 12.1532
#
#
#
# Elastic Compliance Matrix: (Units=1/GPa)
#
#
# Indices 1 2 3 4 5 6 
#
# 1 0.009204 -0.001425 -0.005770 0.000000 0.000000 0.000000
# 2 -0.001425 0.007541 -0.005039 0.000000 0.000000 0.000000
# 3 -0.005770 -0.005039 0.032612 0.000000 0.000000 0.000000
# 4 0.000000 0.000000 0.000000 -0.142463 0.000000 0.000000
# 5 0.000000 0.000000 0.000000 0.000000 -0.118875 0.000000
# 6 0.000000 0.000000 0.000000 0.000000 0.000000 0.082283
#
#
# Mechanical properties :
#
#
# Convention : Reuss Voigt Hill
#
# Bulk Modulus (GPa) = 40.17874 62.48617 51.33246
# Shear Modulus (GPa) = -51.58123 14.64150 -18.46986
#
# Velocity S-wave (km/s) = -5.08369 2.70848 -3.04204
# Velocity P-wave (km/s) = 3.78519 6.41006 3.65795
#
# Compressibility (1/GPa) = 0.02488878
#
# Stress axis : x y z
#
# Youngs Moduli (GPa) = 108.65308 132.60375 30.66356
#
# Poissons Ratio (x) = 0.18898 0.17692
# Poissons Ratio (y) = 0.15485 0.15452
# Poissons Ratio (z) = 0.62691 0.66820
#
# Static dielectric constant tensor:
#      x y z
#    x 1.203020 0.000000 0.000000 
#    y 0.000000 1.716360 0.000000 
#    z 0.000000 0.000000 1.707640 
# 
# From -- ./inp_files/17895.got.cif
#   From: 2010.05.17/outbox.cif.g08.bks.cpg/sg49_9_cif.got.tgz:17895.got - 2010.06.03 21:02:19.
