data_PCOD9392434
_publ_section_title
;
Structure prediction by ZEFSAII (Michael W. Deem and Ramdas Pophale) SiO2 
 PCOD9392434
Probable space group: P C C M
;
_chemical_formula_sum "Si O2"
_cell_formula_units_Z 64
_cell_length_a 18.439168
_cell_length_b 22.996070
_cell_length_c 9.095191
_cell_angle_alpha 90.000000
_cell_angle_beta 90.000000
_cell_angle_gamma 90.000000
_cell_volume 3856.619270
_symmetry_space_group_name_H-M "P C C M"
_symmetry_group_IT_number 49
_symmetry_cell_setting 'orthorhombic'
loop_
_space_group_symop_operation_xyz
x,y,z
-x,-y,z
x,-y,1/2-z
-x,y,1/2-z
-x,-y,-z
x,y,-z
-x,y,1/2+z
x,-y,1/2+z
loop_
_atom_site_type_symbol
_atom_site_label
_atom_site_fract_x
_atom_site_fract_y
_atom_site_fract_z
Si Si1 0.392185 0.560083 0.170241
Si Si2 0.077401 0.063893 0.178866
Si Si3 0.839349 0.329662 0.668302
Si Si4 0.424996 0.316012 0.822083
Si Si5 0.934258 0.245458 0.163310
Si Si6 0.783133 0.442106 0.832488
Si Si7 0.189569 0.148469 0.667433
Si Si8 0.710428 0.234243 0.329937
O O1 0.415277 0.500000 0.250000
O O2 0.412254 0.618975 0.257073
O O3 0.304553 0.558953 0.167692
O O4 0.417809 0.562225 0.000000
O O5 0.146078 0.102306 0.232153
O O6 0.000000 0.083963 0.250000
O O7 0.087538 0.000000 0.250000
O O8 0.072051 0.062645 0.000000
O O9 0.856006 0.342257 0.500000
O O10 0.906918 0.301427 0.750190
O O11 0.811224 0.386050 0.749566
O O12 0.775016 0.281841 0.672177
O O13 0.500000 0.295584 0.750000
O O14 0.360501 0.270853 0.781971
O O15 0.428162 0.319299 0.000000
O O16 0.868166 0.200961 0.156940
O O17 0.000000 0.217670 0.250000
O O18 0.957582 0.260233 0.000000
O O19 0.806702 0.500000 0.750000
O O20 0.807744 0.442101 0.000000
O O21 0.202144 0.127041 0.500000
O O22 0.260886 0.179039 0.737022
O O23 0.699996 0.216398 0.500000
#
# Coordination Sequence:
#
# PCOD9392434 Si02
#       8
#     8   8   8   8   8   8   8   8
#     4  10  20  33  50  70  94 124 159 201 248 303
#     4  11  21  34  52  76 111 150 188 221 255 295
#     4  10  18  31  50  69  91 119 152 194 243 290
#     4  11  22  36  52  72  99 131 166 206 256 311
#     4  10  20  32  47  70  97 126 160 199 242 288
#     4  10  19  30  47  69  91 115 149 191 237 290
#     4  10  20  33  52  76 103 136 174 213 251 291
#     4   9  19  34  51  71  97 128 165 207 250 297
#
# _framework density 16.594847000000001
#
# number of rings (size 3 to 8) (size 9 to 14) (size 15 to 20)
#    0.000    1.875    1.250    4.125    0.000    5.250 
#    0.000    1.250    0.000    0.375    0.000    2.625 
#    0.000    0.500    0.000    5.250    0.000    2.875 
#
# Total GULP energy -356857.708371 kJ/mol
# GULP energy per Si atom -5575.901693 kJ/mol
# Density = 1.655708 g / cm^3
# Si number density = 16.594847 Si / 1000 Ang^3
#
#
#
# Elastic Constant Matrix: (Units=GPa)
#
#
# Indices 1 2 3 4 5 6 
#
# 1 63.9319 33.2726 41.4866 0.0000 0.0000 0.0000
# 2 33.2726 74.9276 54.2909 0.0000 0.0000 0.0000
# 3 41.4866 54.2909 148.8471 0.0000 0.0000 0.0000
# 4 0.0000 0.0000 0.0000 19.9985 0.0000 0.0000
# 5 0.0000 0.0000 0.0000 0.0000 20.3840 0.0000
# 6 0.0000 0.0000 0.0000 0.0000 0.0000 14.1480
#
#
#
# Elastic Compliance Matrix: (Units=1/GPa)
#
#
# Indices 1 2 3 4 5 6 
#
# 1 0.021552 -0.007092 -0.003420 0.000000 0.000000 0.000000
# 2 -0.007092 0.020474 -0.005491 0.000000 0.000000 0.000000
# 3 -0.003420 -0.005491 0.009674 0.000000 0.000000 0.000000
# 4 0.000000 0.000000 0.000000 0.050004 0.000000 0.000000
# 5 0.000000 0.000000 0.000000 0.000000 0.049058 0.000000
# 6 0.000000 0.000000 0.000000 0.000000 0.000000 0.070681
#
#
# Mechanical properties :
#
#
# Convention : Reuss Voigt Hill
#
# Bulk Modulus (GPa) = 50.77748 60.64521 55.71134
# Shear Modulus (GPa) = 19.22958 21.48320 20.35639
#
# Velocity S-wave (km/s) = 3.40776 3.60192 3.50618
# Velocity P-wave (km/s) = 6.79327 7.34318 7.07357
#
# Compressibility (1/GPa) = 0.01969377
#
# Stress axis : x y z
#
# Youngs Moduli (GPa) = 46.39908 48.84145 103.36559
#
# Poissons Ratio (x) = 0.34640 0.35352
# Poissons Ratio (y) = 0.32908 0.56759
# Poissons Ratio (z) = 0.15869 0.26819
#
# Static dielectric constant tensor:
#      x y z
#    x 1.550340 0.000000 0.000000 
#    y 0.000000 1.542730 0.000000 
#    z 0.000000 0.000000 1.612590 
# 
# From -- ./inp_files/6086.got.cif
#   From: 2010.05.17/outbox.cif.g08.bks.cpg/sg49_4_cif.got.tgz:6086.got - 2010.06.03 21:02:19.
