data_PCOD9392807
_publ_section_title
;
Structure prediction by ZEFSAII (Michael W. Deem and Ramdas Pophale) SiO2 
 PCOD9392807
Probable space group: P C C M
;
_chemical_formula_sum "Si O2"
_cell_formula_units_Z 40
_cell_length_a 16.761020
_cell_length_b 5.295938
_cell_length_c 25.138867
_cell_angle_alpha 90.000000
_cell_angle_beta 90.000000
_cell_angle_gamma 90.000000
_cell_volume 2231.459642
_symmetry_space_group_name_H-M "P C C M"
_symmetry_group_IT_number 49
_symmetry_cell_setting 'orthorhombic'
loop_
_space_group_symop_operation_xyz
x,y,z
-x,-y,z
x,-y,1/2-z
-x,y,1/2-z
-x,-y,-z
x,y,-z
-x,y,1/2+z
x,-y,1/2+z
loop_
_atom_site_type_symbol
_atom_site_label
_atom_site_fract_x
_atom_site_fract_y
_atom_site_fract_z
Si Si1 0.810331 0.993523 0.436037
Si Si2 0.591779 0.751312 0.226547
Si Si3 0.910044 0.496673 0.936590
Si Si4 0.419716 0.360873 0.437410
Si Si5 0.355727 0.845026 0.392525
O O1 0.788059 0.975736 0.500000
O O2 0.868629 0.232779 0.430056
O O3 0.733315 0.048494 0.399990
O O4 0.854749 0.736643 0.419032
O O5 0.628780 0.500000 0.250000
O O6 0.500000 0.751271 0.250000
O O7 0.606633 0.767901 0.164084
O O8 0.630553 0.000000 0.250000
O O9 0.000000 0.500000 0.914416
O O10 0.917289 0.452501 0.000000
O O11 0.500000 0.500000 0.418658
O O12 0.425464 0.316982 0.500000
O O13 0.356576 0.583697 0.426105
O O14 0.406132 0.088473 0.411994
#
# Coordination Sequence:
#
# PCOD9392807 Si02
#       5
#     8   8   8   8   8
#     4  10  19  31  50  78 112 148 184 221 271 328
#     4  10  23  39  58  79  98 134 191 244 294 340
#     4   9  17  30  49  75 111 152 186 214 252 319
#     4  11  24  37  53  79 110 147 189 227 276 344
#     4  12  23  37  59  78 111 148 188 243 290 333
#
# _framework density 17.925488000000001
#
# number of rings (size 3 to 8) (size 9 to 14) (size 15 to 20)
#    0.000    1.600    0.000    5.400    8.400    5.600 
#    0.000    0.000    0.000    0.000    0.000    0.000 
#    0.000   12.000    0.000    0.000    0.000    0.000 
#
# Total GULP energy -222866.711370 kJ/mol
# GULP energy per Si atom -5571.667784 kJ/mol
# Density = 1.788469 g / cm^3
# Si number density = 17.925488 Si / 1000 Ang^3
#
#
#
# Elastic Constant Matrix: (Units=GPa)
#
#
# Indices 1 2 3 4 5 6 
#
# 1 68.5431 6.3197 26.7185 0.0000 0.0000 0.0000
# 2 6.3197 131.2832 35.1460 0.0000 0.0000 0.0000
# 3 26.7185 35.1460 73.9698 0.0000 0.0000 0.0000
# 4 0.0000 0.0000 0.0000 32.8205 0.0000 0.0000
# 5 0.0000 0.0000 0.0000 0.0000 32.1053 0.0000
# 6 0.0000 0.0000 0.0000 0.0000 0.0000 12.0570
#
#
#
# Elastic Compliance Matrix: (Units=1/GPa)
#
#
# Indices 1 2 3 4 5 6 
#
# 1 0.017083 0.000950 -0.006622 0.000000 0.000000 0.000000
# 2 0.000950 0.008780 -0.004515 0.000000 0.000000 0.000000
# 3 -0.006622 -0.004515 0.018056 0.000000 0.000000 0.000000
# 4 0.000000 0.000000 0.000000 0.030469 0.000000 0.000000
# 5 0.000000 0.000000 0.000000 0.000000 0.031147 0.000000
# 6 0.000000 0.000000 0.000000 0.000000 0.000000 0.082940
#
#
# Mechanical properties :
#
#
# Convention : Reuss Voigt Hill
#
# Bulk Modulus (GPa) = 42.47018 45.57385 44.02202
# Shear Modulus (GPa) = 23.07364 29.10402 26.08883
#
# Velocity S-wave (km/s) = 3.59165 4.03378 3.81911
# Velocity P-wave (km/s) = 6.39875 6.86836 6.63771
#
# Compressibility (1/GPa) = 0.02354593
#
# Stress axis : x y z
#
# Youngs Moduli (GPa) = 58.53743 113.89374 55.38224
#
# Poissons Ratio (x) = -0.10825 0.36675
# Poissons Ratio (y) = -0.05564 0.25006
# Poissons Ratio (z) = 0.38765 0.51424
#
# Static dielectric constant tensor:
#      x y z
#    x 1.661160 0.000000 0.000000 
#    y 0.000000 1.683160 0.000000 
#    z 0.000000 0.000000 1.649860 
# 
# From -- ./inp_files/21713.got.cif
#   From: 2010.05.17/outbox.cif.g08.bks.cpg/sg49_11_cif.got.tgz:21713.got - 2010.06.03 21:02:19.
