data_PCOD9392951
_publ_section_title
;
Structure prediction by ZEFSAII (Michael W. Deem and Ramdas Pophale) SiO2 
 PCOD9392951
Probable space group: P C C M
;
_chemical_formula_sum "Si O2"
_cell_formula_units_Z 64
_cell_length_a 16.306328
_cell_length_b 21.765259
_cell_length_c 9.694712
_cell_angle_alpha 90.000000
_cell_angle_beta 90.000000
_cell_angle_gamma 90.000000
_cell_volume 3440.764315
_symmetry_space_group_name_H-M "P C C M"
_symmetry_group_IT_number 49
_symmetry_cell_setting 'orthorhombic'
loop_
_space_group_symop_operation_xyz
x,y,z
-x,-y,z
x,-y,1/2-z
-x,y,1/2-z
-x,-y,-z
x,y,-z
-x,y,1/2+z
x,-y,1/2+z
loop_
_atom_site_type_symbol
_atom_site_label
_atom_site_fract_x
_atom_site_fract_y
_atom_site_fract_z
Si Si1 0.740839 0.557061 0.163466
Si Si2 0.574919 0.760171 0.656318
Si Si3 0.074104 0.409457 0.840705
Si Si4 0.421557 0.091689 0.341611
Si Si5 0.699134 0.303978 0.345157
Si Si6 0.920346 0.849905 0.665879
Si Si7 0.110989 0.267063 0.153303
Si Si8 0.766845 0.060483 0.834231
O O1 0.707889 0.500000 0.250000
O O2 0.836043 0.568352 0.204025
O O3 0.698130 0.623078 0.182973
O O4 0.738925 0.543984 0.000000
O O5 0.500000 0.739226 0.750000
O O6 0.566452 0.739562 0.500000
O O7 0.577076 0.834085 0.657650
O O8 0.654270 0.733417 0.728219
O O9 0.074155 0.335038 0.833137
O O10 0.000000 0.432457 0.750000
O O11 0.063544 0.426512 0.000000
O O12 0.500000 0.071896 0.250000
O O13 0.432202 0.070408 0.500000
O O14 0.328649 0.074929 0.295786
O O15 0.665098 0.293048 0.500000
O O16 0.792369 0.281047 0.347439
O O17 0.932564 0.850504 0.500000
O O18 0.909344 0.781281 0.727883
O O19 0.835557 0.887258 0.694183
O O20 0.000000 0.875088 0.750000
O O21 0.088473 0.242497 0.000000
O O22 0.790659 0.000000 0.750000
O O23 0.767390 0.050766 0.000000
#
# Coordination Sequence:
#
# PCOD9392951 Si02
#       8
#     8   8   8   8   8   8   8   8
#     4   9  19  34  49  67  94 129 170 212 252 297
#     4  10  19  32  53  81 111 139 168 203 249 307
#     4   9  18  31  46  68  98 129 162 204 252 302
#     4   9  19  36  57  84 115 143 172 210 258 314
#     4   9  18  33  52  75 105 137 169 211 260 308
#     4  11  23  38  56  79 107 139 179 228 276 321
#     4   9  18  33  53  77 104 134 169 210 261 318
#     4  10  23  41  58  78 107 142 181 223 264 311
#
# _framework density 18.600518999999998
#
# number of rings (size 3 to 8) (size 9 to 14) (size 15 to 20)
#    0.000    2.500    0.000    3.375    0.000    6.750 
#    0.000    6.250    0.000    0.375    0.000    2.625 
#    0.000    0.000    0.000    0.000    0.000    0.000 
#
# Total GULP energy -356811.238446 kJ/mol
# GULP energy per Si atom -5575.175601 kJ/mol
# Density = 1.855818 g / cm^3
# Si number density = 18.600519 Si / 1000 Ang^3
#
#
#
# Elastic Constant Matrix: (Units=GPa)
#
#
# Indices 1 2 3 4 5 6 
#
# 1 74.0731 20.9472 37.6203 0.0000 0.0000 0.0000
# 2 20.9472 55.9092 36.9961 0.0000 0.0000 0.0000
# 3 37.6203 36.9961 81.6355 0.0000 0.0000 0.0000
# 4 0.0000 0.0000 0.0000 55.7940 0.0000 0.0000
# 5 0.0000 0.0000 0.0000 0.0000 28.8861 0.0000
# 6 0.0000 0.0000 0.0000 0.0000 0.0000 -22.9069
#
#
#
# Elastic Compliance Matrix: (Units=1/GPa)
#
#
# Indices 1 2 3 4 5 6 
#
# 1 0.017747 -0.001767 -0.007377 0.000000 0.000000 0.000000
# 2 -0.001767 0.025723 -0.010843 0.000000 0.000000 0.000000
# 3 -0.007377 -0.010843 0.020563 0.000000 0.000000 0.000000
# 4 0.000000 0.000000 0.000000 0.017923 0.000000 0.000000
# 5 0.000000 0.000000 0.000000 0.000000 0.034619 0.000000
# 6 0.000000 0.000000 0.000000 0.000000 0.000000 -0.043655
#
#
# Mechanical properties :
#
#
# Convention : Reuss Voigt Hill
#
# Bulk Modulus (GPa) = 41.56646 44.74945 43.15796
# Shear Modulus (GPa) = 41.35139 20.09157 30.72148
#
# Velocity S-wave (km/s) = 4.72012 3.29015 4.06845
# Velocity P-wave (km/s) = 7.21814 6.20837 6.73221
#
# Compressibility (1/GPa) = 0.02405786
#
# Stress axis : x y z
#
# Youngs Moduli (GPa) = 56.34819 38.87521 48.63055
#
# Poissons Ratio (x) = 0.06871 0.35876
# Poissons Ratio (y) = 0.09959 0.52730
# Poissons Ratio (z) = 0.41570 0.42152
#
# Static dielectric constant tensor:
#      x y z
#    x 1.677900 0.000000 0.000000 
#    y 0.000000 1.635060 0.000000 
#    z 0.000000 0.000000 1.640690 
# 
# From -- ./inp_files/4292.got.cif
#   From: 2010.05.17/outbox.cif.g08.bks.cpg/sg49_3_cif.got.tgz:4292.got - 2010.06.03 21:02:19.
