data_PCOD9392650
_publ_section_title
;
Structure prediction by ZEFSAII (Michael W. Deem and Ramdas Pophale) SiO2 
 PCOD9392650
Probable space group: P C C M
;
_chemical_formula_sum "Si O2"
_cell_formula_units_Z 64
_cell_length_a 27.424310
_cell_length_b 5.063924
_cell_length_c 27.818509
_cell_angle_alpha 90.000000
_cell_angle_beta 90.000000
_cell_angle_gamma 90.000000
_cell_volume 3863.284911
_symmetry_space_group_name_H-M "P C C M"
_symmetry_group_IT_number 49
_symmetry_cell_setting 'orthorhombic'
loop_
_space_group_symop_operation_xyz
x,y,z
-x,-y,z
x,-y,1/2-z
-x,y,1/2-z
-x,-y,-z
x,y,-z
-x,y,1/2+z
x,-y,1/2+z
loop_
_atom_site_type_symbol
_atom_site_label
_atom_site_fract_x
_atom_site_fract_y
_atom_site_fract_z
Si Si1 0.605283 0.939842 0.864756
Si Si2 0.466338 0.256432 0.054156
Si Si3 0.798810 0.107382 0.443851
Si Si4 0.717389 0.915632 0.864190
Si Si5 0.398608 0.578538 0.800721
Si Si6 0.863979 0.412034 0.056050
Si Si7 0.714075 0.606135 0.699737
Si Si8 0.032297 0.762809 0.055774
O O1 0.576301 0.832764 0.910542
O O2 0.661795 0.995688 0.877432
O O3 0.604911 0.695648 0.828376
O O4 0.582614 0.192712 0.836649
O O5 0.500000 0.500000 0.071507
O O6 0.500000 0.000000 0.050898
O O7 0.449189 0.326440 0.000000
O O8 0.786953 0.167149 0.500000
O O9 0.751772 0.096471 0.410284
O O10 0.836561 0.329819 0.424996
O O11 0.826420 0.828865 0.442662
O O12 0.716002 0.632611 0.838159
O O13 0.735227 0.134257 0.825548
O O14 0.422987 0.500000 0.750000
O O15 0.343044 0.673467 0.789565
O O16 0.915273 0.313673 0.077474
O O17 0.875007 0.479312 0.000000
O O18 0.735189 0.500000 0.750000
O O19 0.000000 0.500000 0.055252
O O20 0.042483 0.845254 0.000000
O O21 0.000000 0.000000 0.077199
#
# Coordination Sequence:
#
# PCOD9392650 Si02
#       8
#     8   8   8   8   8   8   8   8
#     4  10  19  32  52  74  95 120 153 194 230 271
#     4  10  21  37  55  73  94 123 158 196 241 284
#     4  10  19  30  42  59  90 128 160 188 221 272
#     4  10  19  30  47  71  93 120 158 190 226 274
#     4   9  17  30  50  75  99 121 145 179 228 280
#     4   9  17  28  40  55  81 120 158 191 232 273
#     4   9  17  30  47  68  93 117 148 192 233 272
#     4   9  15  23  37  56  75 100 147 205 240 260
#
# _framework density 16.566213000000001
#
# number of rings (size 3 to 8) (size 9 to 14) (size 15 to 20)
#    0.000    2.500    0.000    3.000    0.000    6.500 
#    0.000    0.000    0.000   14.625    0.000    0.000 
#    0.000    0.000    0.000    0.000    0.000  131.250 
#
# Total GULP energy -356322.280704 kJ/mol
# GULP energy per Si atom -5567.535636 kJ/mol
# Density = 1.652851 g / cm^3
# Si number density = 16.566213 Si / 1000 Ang^3
#
#
#
# Elastic Constant Matrix: (Units=GPa)
#
#
# Indices 1 2 3 4 5 6 
#
# 1 44.6711 -1.2374 30.2596 0.0000 0.0000 0.0000
# 2 -1.2374 71.4230 -1.6611 0.0000 0.0000 0.0000
# 3 30.2596 -1.6611 54.0269 0.0000 0.0000 0.0000
# 4 0.0000 0.0000 0.0000 20.8316 0.0000 0.0000
# 5 0.0000 0.0000 0.0000 0.0000 -6.3309 0.0000
# 6 0.0000 0.0000 0.0000 0.0000 0.0000 18.8270
#
#
#
# Elastic Compliance Matrix: (Units=1/GPa)
#
#
# Indices 1 2 3 4 5 6 
#
# 1 0.036073 0.000155 -0.020199 0.000000 0.000000 0.000000
# 2 0.000155 0.014012 0.000344 0.000000 0.000000 0.000000
# 3 -0.020199 0.000344 0.029833 0.000000 0.000000 0.000000
# 4 0.000000 0.000000 0.000000 0.048004 0.000000 0.000000
# 5 0.000000 0.000000 0.000000 0.000000 -0.157956 0.000000
# 6 0.000000 0.000000 0.000000 0.000000 0.000000 0.053115
#
#
# Mechanical properties :
#
#
# Convention : Reuss Voigt Hill
#
# Bulk Modulus (GPa) = 24.68060 24.98258 24.83159
# Shear Modulus (GPa) = 65.80120 16.18286 40.99203
#
# Velocity S-wave (km/s) = 6.30923 3.12887 4.97977
# Velocity P-wave (km/s) = 8.24655 5.30719 6.93440
#
# Compressibility (1/GPa) = 0.04051766
#
# Stress axis : x y z
#
# Youngs Moduli (GPa) = 27.72186 71.36850 33.52002
#
# Poissons Ratio (x) = -0.01108 0.67707
# Poissons Ratio (y) = -0.00430 -0.01153
# Poissons Ratio (z) = 0.55995 -0.02454
#
# Static dielectric constant tensor:
#      x y z
#    x 1.582680 0.000000 0.000000 
#    y 0.000000 1.582750 0.000000 
#    z 0.000000 0.000000 1.576180 
# 
# From -- ./inp_files/23432.got.cif
#   From: 2010.05.17/outbox.cif.g08.bks.cpg/sg49_12_cif.got.tgz:23432.got - 2010.06.03 21:02:19.
