data_PCOD9392862
_publ_section_title
;
Structure prediction by ZEFSAII (Michael W. Deem and Ramdas Pophale) SiO2 
 PCOD9392862
Probable space group: P C C M
;
_chemical_formula_sum "Si O2"
_cell_formula_units_Z 64
_cell_length_a 15.237922
_cell_length_b 28.628685
_cell_length_c 8.765317
_cell_angle_alpha 90.000000
_cell_angle_beta 90.000000
_cell_angle_gamma 90.000000
_cell_volume 3823.796517
_symmetry_space_group_name_H-M "P C C M"
_symmetry_group_IT_number 49
_symmetry_cell_setting 'orthorhombic'
loop_
_space_group_symop_operation_xyz
x,y,z
-x,-y,z
x,-y,1/2-z
-x,y,1/2-z
-x,-y,-z
x,y,-z
-x,y,1/2+z
x,-y,1/2+z
loop_
_atom_site_type_symbol
_atom_site_label
_atom_site_fract_x
_atom_site_fract_y
_atom_site_fract_z
Si Si1 0.280742 0.548540 0.816676
Si Si2 0.901699 0.046670 0.818153
Si Si3 0.405956 0.263945 0.816890
Si Si4 0.908227 0.419627 0.182408
Si Si5 0.906313 0.309727 0.182953
Si Si6 0.404862 0.627143 0.316747
Si Si7 0.218082 0.767288 0.316619
Si Si8 0.901448 0.151184 0.817149
O O1 0.315823 0.500000 0.750000
O O2 0.179414 0.554504 0.766317
O O3 0.334009 0.592602 0.754256
O O4 0.284203 0.548096 0.000000
O O5 0.867298 0.098541 0.782300
O O6 0.000000 0.047667 0.750000
O O7 0.858091 0.000000 0.750000
O O8 0.906413 0.041803 0.000000
O O9 0.500000 0.249720 0.750000
O O10 0.389764 0.318453 0.775115
O O11 0.320258 0.234906 0.769318
O O12 0.412060 0.262097 0.000000
O O13 0.897653 0.364582 0.221525
O O14 0.000000 0.436532 0.250000
O O15 0.913575 0.422691 0.000000
O O16 0.830011 0.279147 0.255961
O O17 0.000000 0.293637 0.250000
O O18 0.906172 0.304721 0.000000
O O19 0.500000 0.614456 0.250000
O O20 0.404627 0.623419 0.500000
O O21 0.214103 0.767902 0.500000
O O22 0.163558 0.810482 0.250374
O O23 0.000000 0.156431 0.750000
O O24 0.907250 0.156071 0.000000
#
# Coordination Sequence:
#
# PCOD9392862 Si02
#       8
#     8   8   8   8   8   8   8   8
#     4  11  23  38  54  76 101 126 156 191 232 280
#     4   9  16  26  42  62  87 122 167 210 249 287
#     4   9  20  36  55  77  99 124 157 194 236 283
#     4   9  20  36  54  73  95 124 160 197 233 274
#     4  10  19  32  49  70  95 126 160 195 233 277
#     4  10  20  37  59  81 102 125 152 188 232 282
#     4  11  21  32  47  70  99 130 161 197 239 285
#     4  10  20  32  45  66  97 135 173 209 246 288
#
# _framework density 16.737293000000001
#
# number of rings (size 3 to 8) (size 9 to 14) (size 15 to 20)
#    0.000    2.125    0.000    3.750    0.000    5.000 
#    0.000    2.500    0.000    0.000    0.000    0.000 
#    0.000    0.500    0.000    5.500    0.000    4.000 
#
# Total GULP energy -357145.431256 kJ/mol
# GULP energy per Si atom -5580.397363 kJ/mol
# Density = 1.669920 g / cm^3
# Si number density = 16.737293 Si / 1000 Ang^3
#
#
#
# Elastic Constant Matrix: (Units=GPa)
#
#
# Indices 1 2 3 4 5 6 
#
# 1 106.0289 49.3059 30.1067 0.0000 0.0000 0.0000
# 2 49.3059 70.1511 30.4307 0.0000 0.0000 0.0000
# 3 30.1067 30.4307 49.3234 0.0000 0.0000 0.0000
# 4 0.0000 0.0000 0.0000 14.3711 0.0000 0.0000
# 5 0.0000 0.0000 0.0000 0.0000 25.7285 0.0000
# 6 0.0000 0.0000 0.0000 0.0000 0.0000 12.1521
#
#
#
# Elastic Compliance Matrix: (Units=1/GPa)
#
#
# Indices 1 2 3 4 5 6 
#
# 1 0.014436 -0.008635 -0.003484 0.000000 0.000000 0.000000
# 2 -0.008635 0.024629 -0.009924 0.000000 0.000000 0.000000
# 3 -0.003484 -0.009924 0.028524 0.000000 0.000000 0.000000
# 4 0.000000 0.000000 0.000000 0.069584 0.000000 0.000000
# 5 0.000000 0.000000 0.000000 0.000000 0.038867 0.000000
# 6 0.000000 0.000000 0.000000 0.000000 0.000000 0.082290
#
#
# Mechanical properties :
#
#
# Convention : Reuss Voigt Hill
#
# Bulk Modulus (GPa) = 42.54972 49.46555 46.00764
# Shear Modulus (GPa) = 16.11588 18.16103 17.13846
#
# Velocity S-wave (km/s) = 3.10639 3.29760 3.20342
# Velocity P-wave (km/s) = 6.19221 6.64208 6.42108
#
# Compressibility (1/GPa) = 0.02350192
#
# Stress axis : x y z
#
# Youngs Moduli (GPa) = 69.26987 40.60205 35.05802
#
# Poissons Ratio (x) = 0.35060 0.12215
# Poissons Ratio (y) = 0.59816 0.34793
# Poissons Ratio (z) = 0.24136 0.40295
#
# Static dielectric constant tensor:
#      x y z
#    x 1.553800 0.000000 0.000000 
#    y 0.000000 1.585780 0.000000 
#    z 0.000000 0.000000 1.563220 
# 
# From -- ./inp_files/4504.got.cif
#   From: 2010.05.17/outbox.cif.g08.bks.cpg/sg49_3_cif.got.tgz:4504.got - 2010.06.03 21:02:19.
