data_PCOD9392415
_publ_section_title
;
Structure prediction by ZEFSAII (Michael W. Deem and Ramdas Pophale) SiO2 
 PCOD9392415
Probable space group: P C C M
;
_chemical_formula_sum "Si O2"
_cell_formula_units_Z 40
_cell_length_a 8.895784
_cell_length_b 21.489129
_cell_length_c 10.653012
_cell_angle_alpha 90.000000
_cell_angle_beta 90.000000
_cell_angle_gamma 90.000000
_cell_volume 2036.458004
_symmetry_space_group_name_H-M "P C C M"
_symmetry_group_IT_number 49
_symmetry_cell_setting 'orthorhombic'
loop_
_space_group_symop_operation_xyz
x,y,z
-x,-y,z
x,-y,1/2-z
-x,y,1/2-z
-x,-y,-z
x,y,-z
-x,y,1/2+z
x,-y,1/2+z
loop_
_atom_site_type_symbol
_atom_site_label
_atom_site_fract_x
_atom_site_fract_y
_atom_site_fract_z
Si Si1 0.747260 0.774066 0.642722
Si Si2 0.500000 0.137537 0.250000
Si Si3 0.247918 0.051461 0.858737
Si Si4 0.000000 0.138953 0.750000
Si Si5 0.183811 0.573356 0.500000
Si Si6 0.817746 0.430271 0.000000
Si Si7 0.817127 0.645532 0.251329
O O1 0.751341 0.751489 0.500000
O O2 0.605994 0.818111 0.668194
O O3 0.752132 0.714565 0.733357
O O4 0.891494 0.816951 0.670029
O O5 0.393980 0.093978 0.165548
O O6 0.103878 0.095357 0.836153
O O7 0.245715 0.000000 0.750000
O O8 0.248169 0.025695 0.000000
O O9 0.234300 0.501736 0.500000
O O10 0.228941 0.610406 0.375247
O O11 0.000861 0.570331 0.500000
O O12 0.773115 0.394752 0.873212
O O13 0.000000 0.650957 0.250000
#
# Coordination Sequence:
#
# PCOD9392415 Si02
#       7
#     8   4   8   4   4   4   8
#     4  11  21  39  60  85 122 160 203 250 296 356
#     4  10  25  42  60  88 117 162 206 248 294 346
#     4  11  24  43  66  93 122 155 197 245 298 358
#     4  10  23  38  62  94 123 156 192 244 302 358
#     4   9  18  28  46  79 123 153 190 242 297 354
#     4   9  16  30  48  77 117 159 194 236 295 356
#     4  10  18  30  52  83 115 156 195 242 299 352
#
# _framework density 19.641946999999998
#
# number of rings (size 3 to 8) (size 9 to 14) (size 15 to 20)
#    0.000    1.800    2.000    2.400    0.000    8.800 
#    9.000    0.000    0.000    0.000    0.000    4.200 
#    0.000    0.000    0.000    0.000    0.000    0.000 
#
# Total GULP energy -223468.456222 kJ/mol
# GULP energy per Si atom -5586.711406 kJ/mol
# Density = 1.959724 g / cm^3
# Si number density = 19.641947 Si / 1000 Ang^3
#
#
#
# Elastic Constant Matrix: (Units=GPa)
#
#
# Indices 1 2 3 4 5 6 
#
# 1 62.2379 32.5073 22.1613 0.0000 0.0000 0.0000
# 2 32.5073 150.9150 73.4448 0.0000 0.0000 0.0000
# 3 22.1613 73.4448 158.1030 0.0000 0.0000 0.0000
# 4 0.0000 0.0000 0.0000 35.6674 0.0000 0.0000
# 5 0.0000 0.0000 0.0000 0.0000 -1.1576 0.0000
# 6 0.0000 0.0000 0.0000 0.0000 0.0000 2.7471
#
#
#
# Elastic Compliance Matrix: (Units=1/GPa)
#
#
# Indices 1 2 3 4 5 6 
#
# 1 0.018213 -0.003464 -0.000944 0.000000 0.000000 0.000000
# 2 -0.003464 0.009221 -0.003798 0.000000 0.000000 0.000000
# 3 -0.000944 -0.003798 0.008222 0.000000 0.000000 0.000000
# 4 0.000000 0.000000 0.000000 0.028037 0.000000 0.000000
# 5 0.000000 0.000000 0.000000 0.000000 -0.863887 0.000000
# 6 0.000000 0.000000 0.000000 0.000000 0.000000 0.364019
#
#
# Mechanical properties :
#
#
# Convention : Reuss Voigt Hill
#
# Bulk Modulus (GPa) = 51.96423 69.72029 60.84226
# Shear Modulus (GPa) = -12.09627 23.66088 5.78231
#
# Velocity S-wave (km/s) = -2.48430 3.47451 1.71763
# Velocity P-wave (km/s) = 4.27600 7.18812 5.91410
#
# Compressibility (1/GPa) = 0.01924401
#
# Stress axis : x y z
#
# Youngs Moduli (GPa) = 54.90713 108.45307 121.63219
#
# Poissons Ratio (x) = 0.37565 0.11480
# Poissons Ratio (y) = 0.19018 0.46193
# Poissons Ratio (z) = 0.05182 0.41188
#
# Static dielectric constant tensor:
#      x y z
#    x 1.676900 0.000000 0.000000 
#    y 0.000000 1.664210 0.000000 
#    z 0.000000 0.000000 1.672170 
# 
# From -- ./inp_files/8219.got.cif
#   From: 2010.05.17/outbox.cif.g08.bks.cpg/sg49_5_cif.got.tgz:8219.got - 2010.06.03 21:02:19.
