data_PCOD9392515
_publ_section_title
;
Structure prediction by ZEFSAII (Michael W. Deem and Ramdas Pophale) SiO2 
 PCOD9392515
Probable space group: P C C M
;
_chemical_formula_sum "Si O2"
_cell_formula_units_Z 48
_cell_length_a 14.826929
_cell_length_b 21.209596
_cell_length_c 8.529235
_cell_angle_alpha 90.000000
_cell_angle_beta 90.000000
_cell_angle_gamma 90.000000
_cell_volume 2682.215602
_symmetry_space_group_name_H-M "P C C M"
_symmetry_group_IT_number 49
_symmetry_cell_setting 'orthorhombic'
loop_
_space_group_symop_operation_xyz
x,y,z
-x,-y,z
x,-y,1/2-z
-x,y,1/2-z
-x,-y,-z
x,y,-z
-x,y,1/2+z
x,-y,1/2+z
loop_
_atom_site_type_symbol
_atom_site_label
_atom_site_fract_x
_atom_site_fract_y
_atom_site_fract_z
Si Si1 0.399108 0.430808 0.188615
Si Si2 0.714397 0.689214 0.809099
Si Si3 0.903403 0.885111 0.313118
Si Si4 0.601538 0.811854 0.189506
Si Si5 0.716711 0.933426 0.187845
Si Si6 0.096010 0.741931 0.688572
O O1 0.373555 0.500000 0.250000
O O2 0.500000 0.417180 0.250000
O O3 0.331539 0.375777 0.241674
O O4 0.401672 0.432110 0.000000
O O5 0.654776 0.749192 0.758237
O O6 0.817554 0.701270 0.761526
O O7 0.713582 0.689178 0.000000
O O8 0.904738 0.885574 0.500000
O O9 0.817803 0.922872 0.250358
O O10 0.892964 0.813057 0.252724
O O11 0.000000 0.908288 0.250000
O O12 0.500000 0.811947 0.250000
O O13 0.655912 0.874223 0.239809
O O14 0.600514 0.811427 0.000000
O O15 0.681437 0.000000 0.250000
O O16 0.718952 0.933961 0.000000
O O17 0.094002 0.745556 0.500000
O O18 0.000000 0.717893 0.750000
#
# Coordination Sequence:
#
# PCOD9392515 Si02
#       6
#     8   8   8   8   8   8
#     4  10  19  33  53  79 112 148 182 219 266 316
#     4   9  18  34  56  79 109 145 177 218 270 316
#     4  11  21  35  56  82 109 140 177 218 271 326
#     4  10  21  38  57  78 105 138 177 224 270 318
#     4  11  23  40  58  77 107 141 179 224 274 324
#     4  10  18  33  54  80 111 141 177 219 270 319
#
# _framework density 17.895652999999999
#
# number of rings (size 3 to 8) (size 9 to 14) (size 15 to 20)
#    0.000    1.833    1.667    5.000    0.000    2.000 
#    0.000    7.500    0.000    0.500    0.000    3.500 
#    0.000    0.000    0.000    0.000    0.000    0.000 
#
# Total GULP energy -268073.356806 kJ/mol
# GULP energy per Si atom -5584.861600 kJ/mol
# Density = 1.785492 g / cm^3
# Si number density = 17.895653 Si / 1000 Ang^3
#
#
#
# Elastic Constant Matrix: (Units=GPa)
#
#
# Indices 1 2 3 4 5 6 
#
# 1 139.7298 83.6666 25.8524 0.0000 0.0000 0.0000
# 2 83.6666 127.3134 25.8231 0.0000 0.0000 0.0000
# 3 25.8524 25.8231 59.4803 0.0000 0.0000 0.0000
# 4 0.0000 0.0000 0.0000 29.6158 0.0000 0.0000
# 5 0.0000 0.0000 0.0000 0.0000 15.6649 0.0000
# 6 0.0000 0.0000 0.0000 0.0000 0.0000 4.6442
#
#
#
# Elastic Compliance Matrix: (Units=1/GPa)
#
#
# Indices 1 2 3 4 5 6 
#
# 1 0.012006 -0.007491 -0.001966 0.000000 0.000000 0.000000
# 2 -0.007491 0.013287 -0.002513 0.000000 0.000000 0.000000
# 3 -0.001966 -0.002513 0.018758 0.000000 0.000000 0.000000
# 4 0.000000 0.000000 0.000000 0.033766 0.000000 0.000000
# 5 0.000000 0.000000 0.000000 0.000000 0.063837 0.000000
# 6 0.000000 0.000000 0.000000 0.000000 0.000000 0.215322
#
#
# Mechanical properties :
#
#
# Convention : Reuss Voigt Hill
#
# Bulk Modulus (GPa) = 49.72351 66.35641 58.03996
# Shear Modulus (GPa) = 12.89928 22.73042 17.81485
#
# Velocity S-wave (km/s) = 2.68769 3.56780 3.15855
# Velocity P-wave (km/s) = 6.12186 7.35747 6.76792
#
# Compressibility (1/GPa) = 0.02011121
#
# Stress axis : x y z
#
# Youngs Moduli (GPa) = 83.29216 75.26013 53.31163
#
# Poissons Ratio (x) = 0.56379 0.10481
# Poissons Ratio (y) = 0.62396 0.13395
# Poissons Ratio (z) = 0.16375 0.18910
#
# Static dielectric constant tensor:
#      x y z
#    x 1.603480 0.000000 0.000000 
#    y 0.000000 1.608640 0.000000 
#    z 0.000000 0.000000 1.609510 
# 
# From -- ./inp_files/3833.got.cif
#   From: 2010.05.17/outbox.cif.g08.bks.cpg/sg49_2_cif.got.tgz:3833.got - 2010.06.03 21:02:19.
