data_PCOD9392542
_publ_section_title
;
Structure prediction by ZEFSAII (Michael W. Deem and Ramdas Pophale) SiO2 
 PCOD9392542
Probable space group: P C C M
;
_chemical_formula_sum "Si O2"
_cell_formula_units_Z 48
_cell_length_a 8.614395
_cell_length_b 16.404640
_cell_length_c 15.951394
_cell_angle_alpha 90.000000
_cell_angle_beta 90.000000
_cell_angle_gamma 90.000000
_cell_volume 2254.187973
_symmetry_space_group_name_H-M "P C C M"
_symmetry_group_IT_number 49
_symmetry_cell_setting 'orthorhombic'
loop_
_space_group_symop_operation_xyz
x,y,z
-x,-y,z
x,-y,1/2-z
-x,y,1/2-z
-x,-y,-z
x,y,-z
-x,y,1/2+z
x,-y,1/2+z
loop_
_atom_site_type_symbol
_atom_site_label
_atom_site_fract_x
_atom_site_fract_y
_atom_site_fract_z
Si Si1 0.639748 0.562890 0.000000
Si Si2 0.640335 0.748540 0.000000
Si Si3 0.185071 0.513615 0.153654
Si Si4 0.835803 0.236912 0.330745
Si Si5 0.812397 0.990016 0.500000
Si Si6 0.187223 0.297933 0.346971
Si Si7 0.687793 0.808190 0.500000
Si Si8 0.167120 0.045891 0.826260
O O1 0.500000 0.500000 0.000000
O O2 0.581503 0.655224 0.000000
O O3 0.738588 0.544135 0.084025
O O4 0.740653 0.757512 0.083897
O O5 0.497372 0.809942 0.000000
O O6 0.237116 0.500000 0.250000
O O7 0.216286 0.607975 0.132481
O O8 0.000000 0.500000 0.151944
O O9 0.760818 0.277657 0.248247
O O10 0.856512 0.141082 0.311152
O O11 0.002525 0.279043 0.345312
O O12 0.768620 0.895694 0.500000
O O13 0.753927 0.031753 0.584567
O O14 0.000000 0.000000 0.500000
O O15 0.260174 0.240413 0.417013
O O16 0.250165 0.000000 0.750000
O O17 0.000000 0.000000 0.832135
#
# Coordination Sequence:
#
# PCOD9392542 Si02
#       8
#     4   4   8   8   4   8   4   8
#     4  12  25  43  62  87 122 168 213 254 311 386
#     4  12  26  43  60  90 129 166 205 260 321 382
#     4  11  22  39  62  91 122 158 204 265 323 372
#     4  11  22  39  65  95 125 161 207 265 318 368
#     4  10  19  35  59  86 115 152 199 250 294 357
#     4  11  21  39  64  92 119 160 213 261 311 377
#     4  12  25  41  62  89 125 168 208 256 317 383
#     4  10  18  33  58  90 118 149 193 246 299 356
#
# _framework density 21.293700000000001
#
# number of rings (size 3 to 8) (size 9 to 14) (size 15 to 20)
#    0.000    1.000    0.000   11.750    0.000    1.000 
#    0.000    5.000    0.000    1.000    0.000    0.000 
#    0.000    0.000    0.000    0.000    0.000    0.000 
#
# Total GULP energy -268427.416848 kJ/mol
# GULP energy per Si atom -5592.237851 kJ/mol
# Density = 2.124523 g / cm^3
# Si number density = 21.293700 Si / 1000 Ang^3
#
#
#
# Elastic Constant Matrix: (Units=GPa)
#
#
# Indices 1 2 3 4 5 6 
#
# 1 49.6608 -2.0898 30.2160 0.0000 0.0000 0.0000
# 2 -2.0898 110.9434 -12.1508 0.0000 0.0000 0.0000
# 3 30.2160 -12.1508 154.6965 0.0000 0.0000 0.0000
# 4 0.0000 0.0000 0.0000 39.6286 0.0000 0.0000
# 5 0.0000 0.0000 0.0000 0.0000 -555.9519 0.0000
# 6 0.0000 0.0000 0.0000 0.0000 0.0000 20.4509
#
#
#
# Elastic Compliance Matrix: (Units=1/GPa)
#
#
# Indices 1 2 3 4 5 6 
#
# 1 0.022853 -0.000059 -0.004468 0.000000 0.000000 0.000000
# 2 -0.000059 0.009092 0.000726 0.000000 0.000000 0.000000
# 3 -0.004468 0.000726 0.007394 0.000000 0.000000 0.000000
# 4 0.000000 0.000000 0.000000 0.025234 0.000000 0.000000
# 5 0.000000 0.000000 0.000000 0.000000 -0.001799 0.000000
# 6 0.000000 0.000000 0.000000 0.000000 0.000000 0.048898
#
#
# Mechanical properties :
#
#
# Convention : Reuss Voigt Hill
#
# Bulk Modulus (GPa) = 31.51032 38.58352 35.04692
# Shear Modulus (GPa) = 38.50481 -79.21946 -20.35732
#
# Velocity S-wave (km/s) = 4.25699 -6.10606 -3.09532
# Velocity P-wave (km/s) = 6.24442 5.61720 1.92870
#
# Compressibility (1/GPa) = 0.03173564
#
# Stress axis : x y z
#
# Youngs Moduli (GPa) = 43.75820 109.98719 135.24401
#
# Poissons Ratio (x) = 0.00648 0.60432
# Poissons Ratio (y) = 0.00258 -0.09814
# Poissons Ratio (z) = 0.19553 -0.07981
#
# Static dielectric constant tensor:
#      x y z
#    x 1.721010 0.000000 0.000000 
#    y 0.000000 1.790370 0.000000 
#    z 0.000000 0.000000 1.733070 
# 
# From -- ./inp_files/16387.got.cif
#   From: 2010.05.17/outbox.cif.g08.bks.cpg/sg49_9_cif.got.tgz:16387.got - 2010.06.03 21:02:19.
