data_PCOD9392175
_publ_section_title
;
Structure prediction by ZEFSAII (Michael W. Deem and Ramdas Pophale) SiO2 
 PCOD9392175
Probable space group: P C C M
;
_chemical_formula_sum "Si O2"
_cell_formula_units_Z 40
_cell_length_a 26.486400
_cell_length_b 9.285127
_cell_length_c 8.638142
_cell_angle_alpha 90.000000
_cell_angle_beta 90.000000
_cell_angle_gamma 90.000000
_cell_volume 2124.374701
_symmetry_space_group_name_H-M "P C C M"
_symmetry_group_IT_number 49
_symmetry_cell_setting 'orthorhombic'
loop_
_space_group_symop_operation_xyz
x,y,z
-x,-y,z
x,-y,1/2-z
-x,y,1/2-z
-x,-y,-z
x,y,-z
-x,y,1/2+z
x,-y,1/2+z
loop_
_atom_site_type_symbol
_atom_site_label
_atom_site_fract_x
_atom_site_fract_y
_atom_site_fract_z
Si Si1 0.555160 0.160385 0.314400
Si Si2 0.351764 0.339441 0.685075
Si Si3 0.742436 0.161008 0.314377
Si Si4 0.948267 0.663887 0.315435
Si Si5 0.156472 0.338283 0.185023
O O1 0.500000 0.201419 0.250000
O O2 0.554120 0.156344 0.500000
O O3 0.598075 0.266766 0.254324
O O4 0.565975 0.000000 0.250000
O O5 0.346264 0.500000 0.750000
O O6 0.354680 0.341727 0.500000
O O7 0.303949 0.246148 0.739157
O O8 0.735942 0.159120 0.500000
O O9 0.794665 0.243312 0.278972
O O10 0.743912 0.000000 0.250000
O O11 0.947365 0.500000 0.250000
O O12 0.950075 0.659914 0.500000
O O13 0.895057 0.725340 0.257089
O O14 0.000000 0.730882 0.250000
O O15 0.163797 0.500000 0.250000
O O16 0.150354 0.347658 0.000000
#
# Coordination Sequence:
#
# PCOD9392175 Si02
#       5
#     8   8   8   8   8
#     4  11  22  40  64  92 124 160 200 240 286 339
#     4  12  25  42  63  89 120 154 194 241 291 343
#     4  11  24  41  61  85 114 151 192 237 287 344
#     4  10  17  27  46  73 107 143 181 225 276 330
#     4  10  20  34  54  81 112 145 185 231 282 335
#
# _framework density 18.829070000000002
#
# number of rings (size 3 to 8) (size 9 to 14) (size 15 to 20)
#    0.000    1.200    0.000   10.200    0.000    5.200 
#    0.000    2.000    0.000    0.600    0.000    4.200 
#    0.000    0.000    0.000    0.000    0.000    0.000 
#
# Total GULP energy -223643.403979 kJ/mol
# GULP energy per Si atom -5591.085099 kJ/mol
# Density = 1.878621 g / cm^3
# Si number density = 18.829070 Si / 1000 Ang^3
#
#
#
# Elastic Constant Matrix: (Units=GPa)
#
#
# Indices 1 2 3 4 5 6 
#
# 1 160.0189 97.8329 96.1241 0.0000 0.0000 0.0000
# 2 97.8329 107.0957 65.1821 0.0000 0.0000 0.0000
# 3 96.1241 65.1821 175.7479 0.0000 0.0000 0.0000
# 4 0.0000 0.0000 0.0000 21.7329 0.0000 0.0000
# 5 0.0000 0.0000 0.0000 0.0000 41.7101 0.0000
# 6 0.0000 0.0000 0.0000 0.0000 0.0000 137.2996
#
#
#
# Elastic Compliance Matrix: (Units=1/GPa)
#
#
# Indices 1 2 3 4 5 6 
#
# 1 0.016443 -0.012331 -0.004420 0.000000 0.000000 0.000000
# 2 -0.012331 0.021307 -0.001158 0.000000 0.000000 0.000000
# 3 -0.004420 -0.001158 0.008537 0.000000 0.000000 0.000000
# 4 0.000000 0.000000 0.000000 0.046013 0.000000 0.000000
# 5 0.000000 0.000000 0.000000 0.000000 0.023975 0.000000
# 6 0.000000 0.000000 0.000000 0.000000 0.000000 0.007283
#
#
# Mechanical properties :
#
#
# Convention : Reuss Voigt Hill
#
# Bulk Modulus (GPa) = 95.52189 106.79341 101.15765
# Shear Modulus (GPa) = 30.69992 52.39674 41.54833
#
# Velocity S-wave (km/s) = 4.04227 5.28091 4.70255
# Velocity P-wave (km/s) = 8.52219 9.69662 9.12831
#
# Compressibility (1/GPa) = 0.01046880
#
# Stress axis : x y z
#
# Youngs Moduli (GPa) = 60.81438 46.93372 117.13576
#
# Poissons Ratio (x) = 0.57874 0.51778
# Poissons Ratio (y) = 0.74990 0.13564
# Poissons Ratio (z) = 0.26882 0.05435
#
# Static dielectric constant tensor:
#      x y z
#    x 1.671640 0.000000 0.000000 
#    y 0.000000 1.622470 0.000000 
#    z 0.000000 0.000000 1.627690 
# 
# From -- ./inp_files/1700.got.cif
#   From: 2010.05.17/outbox.cif.g08.bks.cpg/sg49_1_cif.got.tgz:1700.got - 2010.06.03 21:02:19.
