data_PCOD9392818
_publ_section_title
;
Structure prediction by ZEFSAII (Michael W. Deem and Ramdas Pophale) SiO2 
 PCOD9392818
Probable space group: P C C M
;
_chemical_formula_sum "Si O2"
_cell_formula_units_Z 64
_cell_length_a 25.269591
_cell_length_b 15.905902
_cell_length_c 8.616163
_cell_angle_alpha 90.000000
_cell_angle_beta 90.000000
_cell_angle_gamma 90.000000
_cell_volume 3463.142973
_symmetry_space_group_name_H-M "P C C M"
_symmetry_group_IT_number 49
_symmetry_cell_setting 'orthorhombic'
loop_
_space_group_symop_operation_xyz
x,y,z
-x,-y,z
x,-y,1/2-z
-x,y,1/2-z
-x,-y,-z
x,y,-z
-x,y,1/2+z
x,-y,1/2+z
loop_
_atom_site_type_symbol
_atom_site_label
_atom_site_fract_x
_atom_site_fract_y
_atom_site_fract_z
Si Si1 0.901160 0.086485 0.184039
Si Si2 0.237477 0.692974 0.186967
Si Si3 0.330731 0.911683 0.685696
Si Si4 0.859963 0.590114 0.313998
Si Si5 0.057530 0.733047 0.812041
Si Si6 0.559297 0.590991 0.312987
Si Si7 0.356761 0.268536 0.686583
Si Si8 0.211064 0.128418 0.815932
O O1 0.927292 0.172944 0.242606
O O2 0.839285 0.091418 0.229307
O O3 0.923901 0.000000 0.250000
O O4 0.905756 0.084808 0.000000
O O5 0.200335 0.614889 0.228160
O O6 0.299477 0.690969 0.225737
O O7 0.213697 0.773414 0.273598
O O8 0.233076 0.706579 0.000000
O O9 0.332338 0.912542 0.500000
O O10 0.357670 0.825599 0.744557
O O11 0.268717 0.905119 0.734833
O O12 0.352191 0.000000 0.750000
O O13 0.875197 0.500000 0.250000
O O14 0.862760 0.587342 0.500000
O O15 0.898869 0.664880 0.261892
O O16 0.000000 0.710268 0.750000
O O17 0.057344 0.734145 0.000000
O O18 0.577607 0.500000 0.250000
O O19 0.500000 0.603862 0.250000
O O20 0.558250 0.587577 0.500000
O O21 0.597361 0.667446 0.263936
O O22 0.359169 0.260626 0.500000
O O23 0.205366 0.115309 0.000000
#
# Coordination Sequence:
#
# PCOD9392818 Si02
#       8
#     8   8   8   8   8   8   8   8
#     4  11  22  37  56  80 108 139 175 217 266 323
#     4   9  17  34  55  76 111 147 176 218 269 320
#     4  10  20  32  49  77 113 150 187 227 270 319
#     4  10  21  38  58  82 108 139 175 215 269 324
#     4  10  23  42  60  78 104 137 175 220 272 322
#     4  10  20  35  56  83 112 148 191 234 282 329
#     4   9  19  34  55  81 110 149 189 226 274 327
#     4  10  19  31  51  80 109 142 182 218 261 316
#
# _framework density 18.480324
#
# number of rings (size 3 to 8) (size 9 to 14) (size 15 to 20)
#    0.000    2.125    1.250    2.250    0.000    6.500 
#    0.000    2.500    0.000    0.375    0.000    2.625 
#    0.000    0.000    0.000    0.000    0.000    0.000 
#
# Total GULP energy -357123.773331 kJ/mol
# GULP energy per Si atom -5580.058958 kJ/mol
# Density = 1.843826 g / cm^3
# Si number density = 18.480324 Si / 1000 Ang^3
#
#
#
# Elastic Constant Matrix: (Units=GPa)
#
#
# Indices 1 2 3 4 5 6 
#
# 1 75.1633 65.9489 19.1112 0.0000 0.0000 0.0000
# 2 65.9489 152.0776 27.3796 0.0000 0.0000 0.0000
# 3 19.1112 27.3796 18.5320 0.0000 0.0000 0.0000
# 4 0.0000 0.0000 0.0000 29.4318 0.0000 0.0000
# 5 0.0000 0.0000 0.0000 0.0000 19.9774 0.0000
# 6 0.0000 0.0000 0.0000 0.0000 0.0000 2.9999
#
#
#
# Elastic Compliance Matrix: (Units=1/GPa)
#
#
# Indices 1 2 3 4 5 6 
#
# 1 0.023412 -0.007910 -0.012457 0.000000 0.000000 0.000000
# 2 -0.007910 0.011631 -0.009027 0.000000 0.000000 0.000000
# 3 -0.012457 -0.009027 0.080143 0.000000 0.000000 0.000000
# 4 0.000000 0.000000 0.000000 0.033977 0.000000 0.000000
# 5 0.000000 0.000000 0.000000 0.000000 0.050057 0.000000
# 6 0.000000 0.000000 0.000000 0.000000 0.000000 0.333342
#
#
# Mechanical properties :
#
#
# Convention : Reuss Voigt Hill
#
# Bulk Modulus (GPa) = 17.73098 52.29469 35.01283
# Shear Modulus (GPa) = 8.19472 19.37070 13.78271
#
# Velocity S-wave (km/s) = 2.10806 3.24107 2.73391
# Velocity P-wave (km/s) = 3.94215 6.50884 5.38078
#
# Compressibility (1/GPa) = 0.05639847
#
# Stress axis : x y z
#
# Youngs Moduli (GPa) = 42.71304 85.97819 12.47763
#
# Poissons Ratio (x) = 0.68008 0.15544
# Poissons Ratio (y) = 0.33786 0.11263
# Poissons Ratio (z) = 0.53210 0.77609
#
# Static dielectric constant tensor:
#      x y z
#    x 1.629430 0.000000 0.000000 
#    y 0.000000 1.654740 0.000000 
#    z 0.000000 0.000000 1.627500 
# 
# From -- ./inp_files/6557.got.cif
#   From: 2010.05.17/outbox.cif.g08.bks.cpg/sg49_4_cif.got.tgz:6557.got - 2010.06.03 21:02:19.
