data_PCOD9392801
_publ_section_title
;
Structure prediction by ZEFSAII (Michael W. Deem and Ramdas Pophale) SiO2 
 PCOD9392801
Probable space group: P C C M
;
_chemical_formula_sum "Si O2"
_cell_formula_units_Z 64
_cell_length_a 15.626142
_cell_length_b 25.817335
_cell_length_c 7.991631
_cell_angle_alpha 90.000000
_cell_angle_beta 90.000000
_cell_angle_gamma 90.000000
_cell_volume 3224.026475
_symmetry_space_group_name_H-M "P C C M"
_symmetry_group_IT_number 49
_symmetry_cell_setting 'orthorhombic'
loop_
_space_group_symop_operation_xyz
x,y,z
-x,-y,z
x,-y,1/2-z
-x,y,1/2-z
-x,-y,-z
x,y,-z
-x,y,1/2+z
x,-y,1/2+z
loop_
_atom_site_type_symbol
_atom_site_label
_atom_site_fract_x
_atom_site_fract_y
_atom_site_fract_z
Si Si1 0.363846 0.699622 0.201358
Si Si2 0.221949 0.444044 0.298394
Si Si3 0.590599 0.412678 0.201368
Si Si4 0.168873 0.666029 0.201259
Si Si5 0.225818 0.853099 0.200302
Si Si6 0.904270 0.059806 0.697404
Si Si7 0.907516 0.231793 0.201906
Si Si8 0.406279 0.185507 0.298051
O O1 0.406584 0.646890 0.266115
O O2 0.262981 0.690558 0.228616
O O3 0.395083 0.755016 0.265544
O O4 0.375993 0.700429 0.000000
O O5 0.187485 0.500000 0.250000
O O6 0.223490 0.441110 0.500000
O O7 0.321105 0.438707 0.239334
O O8 0.172157 0.392926 0.235453
O O9 0.500000 0.436503 0.250000
O O10 0.594867 0.411442 0.000000
O O11 0.104563 0.709485 0.266641
O O12 0.157220 0.662558 0.000000
O O13 0.172058 0.904656 0.235154
O O14 0.167673 0.805511 0.264550
O O15 0.323422 0.846917 0.261199
O O16 0.229990 0.847628 0.000000
O O17 0.901207 0.062623 0.500000
O O18 0.000000 0.077094 0.750000
O O19 0.894955 0.000000 0.750000
O O20 0.000000 0.211234 0.250000
O O21 0.901689 0.232978 0.000000
O O22 0.500000 0.165962 0.250000
O O23 0.403277 0.187260 0.500000
#
# Coordination Sequence:
#
# PCOD9392801 Si02
#       8
#     8   8   8   8   8   8   8   8
#     4   8  13  26  46  66  90 127 171 208 249 305
#     4   9  18  31  47  64  83 115 160 205 250 305
#     4   9  17  27  41  61  86 116 154 200 250 305
#     4   8  14  29  50  68  91 128 167 200 247 314
#     4  10  20  35  55  81 115 153 187 222 268 321
#     4  11  22  38  61  88 119 153 190 230 271 320
#     4  10  19  32  53  79 107 138 171 208 258 321
#     4  10  19  31  50  75 106 145 187 227 267 315
#
# _framework density 19.850954000000002
#
# number of rings (size 3 to 8) (size 9 to 14) (size 15 to 20)
#    0.000    2.625    1.250    3.750    0.000    2.750 
#    0.000    1.875    0.000    2.250    0.000    5.250 
#    0.000    0.000    0.000    0.000    0.000    0.000 
#
# Total GULP energy -356813.760624 kJ/mol
# GULP energy per Si atom -5575.215010 kJ/mol
# Density = 1.980577 g / cm^3
# Si number density = 19.850954 Si / 1000 Ang^3
#
#
#
# Elastic Constant Matrix: (Units=GPa)
#
#
# Indices 1 2 3 4 5 6 
#
# 1 109.9598 64.1506 9.4234 0.0000 0.0000 0.0000
# 2 64.1506 107.0190 4.0513 0.0000 0.0000 0.0000
# 3 9.4234 4.0513 17.7074 0.0000 0.0000 0.0000
# 4 0.0000 0.0000 0.0000 11.5964 0.0000 0.0000
# 5 0.0000 0.0000 0.0000 0.0000 12.0489 0.0000
# 6 0.0000 0.0000 0.0000 0.0000 0.0000 5.7724
#
#
#
# Elastic Compliance Matrix: (Units=1/GPa)
#
#
# Indices 1 2 3 4 5 6 
#
# 1 0.014552 -0.008503 -0.005799 0.000000 0.000000 0.000000
# 2 -0.008503 0.014395 0.001232 0.000000 0.000000 0.000000
# 3 -0.005799 0.001232 0.059278 0.000000 0.000000 0.000000
# 4 0.000000 0.000000 0.000000 0.086234 0.000000 0.000000
# 5 0.000000 0.000000 0.000000 0.000000 0.082995 0.000000
# 6 0.000000 0.000000 0.000000 0.000000 0.000000 0.173237
#
#
# Mechanical properties :
#
#
# Convention : Reuss Voigt Hill
#
# Bulk Modulus (GPa) = 16.10719 43.32630 29.71674
# Shear Modulus (GPa) = 10.47064 16.35428 13.41246
#
# Velocity S-wave (km/s) = 2.29915 2.87340 2.60216
# Velocity P-wave (km/s) = 3.89612 5.73426 4.90212
#
# Compressibility (1/GPa) = 0.06208409
#
# Stress axis : x y z
#
# Youngs Moduli (GPa) = 68.71865 69.46982 16.86973
#
# Poissons Ratio (x) = 0.59073 0.09782
# Poissons Ratio (y) = 0.58435 -0.02078
# Poissons Ratio (z) = 0.39848 -0.08558
#
# Static dielectric constant tensor:
#      x y z
#    x 1.674120 0.000000 0.000000 
#    y 0.000000 1.708440 0.000000 
#    z 0.000000 0.000000 1.747650 
# 
# From -- ./inp_files/4362.got.cif
#   From: 2010.05.17/outbox.cif.g08.bks.cpg/sg49_3_cif.got.tgz:4362.got - 2010.06.03 21:02:19.
