data_PCOD9392919
_publ_section_title
;
Structure prediction by ZEFSAII (Michael W. Deem and Ramdas Pophale) SiO2 
 PCOD9392919
Probable space group: P C C M
;
_chemical_formula_sum "Si O2"
_cell_formula_units_Z 64
_cell_length_a 17.973871
_cell_length_b 21.085378
_cell_length_c 8.927811
_cell_angle_alpha 90.000000
_cell_angle_beta 90.000000
_cell_angle_gamma 90.000000
_cell_volume 3383.514167
_symmetry_space_group_name_H-M "P C C M"
_symmetry_group_IT_number 49
_symmetry_cell_setting 'orthorhombic'
loop_
_space_group_symop_operation_xyz
x,y,z
-x,-y,z
x,-y,1/2-z
-x,y,1/2-z
-x,-y,-z
x,y,-z
-x,y,1/2+z
x,-y,1/2+z
loop_
_atom_site_type_symbol
_atom_site_label
_atom_site_fract_x
_atom_site_fract_y
_atom_site_fract_z
Si Si1 0.135076 0.434532 0.680173
Si Si2 0.424537 0.666323 0.679316
Si Si3 0.794118 0.201881 0.182352
Si Si4 0.700863 0.565852 0.819302
Si Si5 0.381274 0.934552 0.173120
Si Si6 0.369755 0.802933 0.320144
Si Si7 0.076617 0.298155 0.679562
Si Si8 0.800296 0.063563 0.828325
O O1 0.105562 0.500000 0.750000
O O2 0.139032 0.439925 0.500000
O O3 0.217925 0.425494 0.746981
O O4 0.089949 0.371565 0.720667
O O5 0.500000 0.640894 0.750000
O O6 0.430437 0.664965 0.500000
O O7 0.353628 0.623549 0.719773
O O8 0.413094 0.739443 0.725334
O O9 0.713695 0.207758 0.257574
O O10 0.851921 0.256440 0.224214
O O11 0.824163 0.132392 0.229407
O O12 0.784826 0.201478 0.000000
O O13 0.671375 0.500000 0.750000
O O14 0.707094 0.561117 0.000000
O O15 0.401129 0.868796 0.254313
O O16 0.290385 0.935705 0.178064
O O17 0.406520 0.000000 0.250000
O O18 0.404029 0.933068 0.000000
O O19 0.367673 0.807532 0.500000
O O20 0.071690 0.294484 0.500000
O O21 0.000000 0.274980 0.750000
O O22 0.826453 0.000000 0.750000
O O23 0.822300 0.059587 0.000000
#
# Coordination Sequence:
#
# PCOD9392919 Si02
#       8
#     8   8   8   8   8   8   8   8
#     4  10  20  35  56  81 105 133 167 207 253 305
#     4  10  23  38  53  75 105 139 175 213 256 306
#     4   9  18  33  51  73 100 133 170 210 255 306
#     4  10  20  36  57  82 107 134 170 212 256 306
#     4   9  16  27  45  72 103 135 168 209 258 307
#     4  10  19  32  51  77 104 133 171 215 259 307
#     4  10  22  37  53  74 102 135 173 212 255 304
#     4   8  14  24  41  66  96 124 156 198 244 291
#
# _framework density 18.915244000000001
#
# number of rings (size 3 to 8) (size 9 to 14) (size 15 to 20)
#    0.000    2.500    0.000    3.750    0.000    7.000 
#    0.000    2.500    0.000    0.750    0.000    5.250 
#    0.000    0.000    0.000    0.000    0.000    0.000 
#
# Total GULP energy -357024.191361 kJ/mol
# GULP energy per Si atom -5578.502990 kJ/mol
# Density = 1.887219 g / cm^3
# Si number density = 18.915244 Si / 1000 Ang^3
#
#
#
# Elastic Constant Matrix: (Units=GPa)
#
#
# Indices 1 2 3 4 5 6 
#
# 1 43.0612 22.8458 12.5508 0.0000 0.0000 0.0000
# 2 22.8458 100.6733 29.6246 0.0000 0.0000 0.0000
# 3 12.5508 29.6246 41.4191 0.0000 0.0000 0.0000
# 4 0.0000 0.0000 0.0000 18.8995 0.0000 0.0000
# 5 0.0000 0.0000 0.0000 0.0000 16.0399 0.0000
# 6 0.0000 0.0000 0.0000 0.0000 0.0000 -11.1787
#
#
#
# Elastic Compliance Matrix: (Units=1/GPa)
#
#
# Indices 1 2 3 4 5 6 
#
# 1 0.027146 -0.004737 -0.004838 0.000000 0.000000 0.000000
# 2 -0.004737 0.013408 -0.008154 0.000000 0.000000 0.000000
# 3 -0.004838 -0.008154 0.031442 0.000000 0.000000 0.000000
# 4 0.000000 0.000000 0.000000 0.052911 0.000000 0.000000
# 5 0.000000 0.000000 0.000000 0.000000 0.062344 0.000000
# 6 0.000000 0.000000 0.000000 0.000000 0.000000 -0.089456
#
#
# Mechanical properties :
#
#
# Convention : Reuss Voigt Hill
#
# Bulk Modulus (GPa) = 27.36919 35.02177 31.19548
# Shear Modulus (GPa) = 34.38043 12.76098 23.57071
#
# Velocity S-wave (km/s) = 4.26796 2.60020 3.53388
# Velocity P-wave (km/s) = 6.22801 5.25072 5.76013
#
# Compressibility (1/GPa) = 0.03653744
#
# Stress axis : x y z
#
# Youngs Moduli (GPa) = 36.83810 74.58495 31.80490
#
# Poissons Ratio (x) = 0.35328 0.15387
# Poissons Ratio (y) = 0.17449 0.25935
# Poissons Ratio (z) = 0.17822 0.60819
#
# Static dielectric constant tensor:
#      x y z
#    x 1.619330 0.000000 0.000000 
#    y 0.000000 1.686130 0.000000 
#    z 0.000000 0.000000 1.641020 
# 
# From -- ./inp_files/5296.got.cif
#   From: 2010.05.17/outbox.cif.g08.bks.cpg/sg49_3_cif.got.tgz:5296.got - 2010.06.03 21:02:19.
