data_PCOD9392736
_publ_section_title
;
Structure prediction by ZEFSAII (Michael W. Deem and Ramdas Pophale) SiO2 
 PCOD9392736
Probable space group: P C C M
;
_chemical_formula_sum "Si O2"
_cell_formula_units_Z 56
_cell_length_a 13.988654
_cell_length_b 30.708264
_cell_length_c 8.690986
_cell_angle_alpha 90.000000
_cell_angle_beta 90.000000
_cell_angle_gamma 90.000000
_cell_volume 3733.363217
_symmetry_space_group_name_H-M "P C C M"
_symmetry_group_IT_number 49
_symmetry_cell_setting 'orthorhombic'
loop_
_space_group_symop_operation_xyz
x,y,z
-x,-y,z
x,-y,1/2-z
-x,y,1/2-z
-x,-y,-z
x,y,-z
-x,y,1/2+z
x,-y,1/2+z
loop_
_atom_site_type_symbol
_atom_site_label
_atom_site_fract_x
_atom_site_fract_y
_atom_site_fract_z
Si Si1 0.209904 0.546269 0.684185
Si Si2 0.607715 0.138635 0.814649
Si Si3 0.395041 0.590450 0.184234
Si Si4 0.391431 0.044373 0.315291
Si Si5 0.895777 0.634426 0.816110
Si Si6 0.712720 0.320904 0.185362
Si Si7 0.392419 0.233779 0.313800
O O1 0.178826 0.500000 0.750000
O O2 0.213317 0.544617 0.500000
O O3 0.314826 0.558479 0.747828
O O4 0.140922 0.586124 0.731137
O O5 0.500000 0.138753 0.750000
O O6 0.651474 0.091669 0.770143
O O7 0.647824 0.185937 0.768427
O O8 0.603197 0.138318 0.000000
O O9 0.500000 0.582524 0.250000
O O10 0.358990 0.639345 0.225551
O O11 0.396073 0.586720 0.000000
O O12 0.500000 0.045294 0.250000
O O13 0.395166 0.041323 0.500000
O O14 0.346436 0.000000 0.250000
O O15 0.814922 0.667221 0.755562
O O16 0.000000 0.643155 0.750000
O O17 0.898288 0.635854 0.000000
O O18 0.670099 0.274831 0.237340
O O19 0.720988 0.320468 0.000000
O O20 0.500000 0.237745 0.250000
O O21 0.397477 0.235157 0.500000
#
# Coordination Sequence:
#
# PCOD9392736 Si02
#       7
#     8   8   8   8   8   8   8
#     4  10  21  36  52  71  92 114 139 168 200 237
#     4   8  14  22  31  45  67  95 129 167 206 243
#     4  10  19  31  47  67  91 118 145 173 202 237
#     4   9  14  19  27  39  57  85 123 167 208 243
#     4  10  21  36  54  72  90 110 134 165 201 241
#     4   9  18  31  47  66  88 112 139 170 205 244
#     4   9  16  26  40  59  83 111 140 172 208 246
#
# _framework density 14.999879
#
# number of rings (size 3 to 8) (size 9 to 14) (size 15 to 20)
#    0.000    2.714    0.000    2.571    0.000    4.000 
#    0.000    2.857    0.000    0.000    0.000    0.000 
#    0.000    0.000    0.000    0.000    0.000    0.714 
#
# Total GULP energy -311837.468303 kJ/mol
# GULP energy per Si atom -5568.526220 kJ/mol
# Density = 1.496574 g / cm^3
# Si number density = 14.999879 Si / 1000 Ang^3
#
#
#
# Elastic Constant Matrix: (Units=GPa)
#
#
# Indices 1 2 3 4 5 6 
#
# 1 55.6817 25.2180 10.8864 0.0000 0.0000 0.0000
# 2 25.2180 132.8114 21.0052 0.0000 0.0000 0.0000
# 3 10.8864 21.0052 21.0149 0.0000 0.0000 0.0000
# 4 0.0000 0.0000 0.0000 25.3157 0.0000 0.0000
# 5 0.0000 0.0000 0.0000 0.0000 14.3938 0.0000
# 6 0.0000 0.0000 0.0000 0.0000 0.0000 12.8243
#
#
#
# Elastic Compliance Matrix: (Units=1/GPa)
#
#
# Indices 1 2 3 4 5 6 
#
# 1 0.020745 -0.002660 -0.008088 0.000000 0.000000 0.000000
# 2 -0.002660 0.009284 -0.007902 0.000000 0.000000 0.000000
# 3 -0.008088 -0.007902 0.059674 0.000000 0.000000 0.000000
# 4 0.000000 0.000000 0.000000 0.039501 0.000000 0.000000
# 5 0.000000 0.000000 0.000000 0.000000 0.069474 0.000000
# 6 0.000000 0.000000 0.000000 0.000000 0.000000 0.077977
#
#
# Mechanical properties :
#
#
# Convention : Reuss Voigt Hill
#
# Bulk Modulus (GPa) = 19.08287 35.96970 27.52628
# Shear Modulus (GPa) = 15.08644 20.66665 17.87654
#
# Velocity S-wave (km/s) = 3.17483 3.71588 3.45596
# Velocity P-wave (km/s) = 5.11752 6.51479 5.85796
#
# Compressibility (1/GPa) = 0.05240301
#
# Stress axis : x y z
#
# Youngs Moduli (GPa) = 48.20403 107.70859 16.75782
#
# Poissons Ratio (x) = 0.28649 0.13554
# Poissons Ratio (y) = 0.12822 0.13242
# Poissons Ratio (z) = 0.38988 0.85113
#
# Static dielectric constant tensor:
#      x y z
#    x 1.449080 0.000000 0.000000 
#    y 0.000000 1.561800 0.000000 
#    z 0.000000 0.000000 1.502370 
# 
# From -- ./inp_files/4488.got.cif
#   From: 2010.05.17/outbox.cif.g08.bks.cpg/sg49_3_cif.got.tgz:4488.got - 2010.06.03 21:02:19.
