data_PCOD9392990
_publ_section_title
;
Structure prediction by ZEFSAII (Michael W. Deem and Ramdas Pophale) SiO2 
 PCOD9392990
Probable space group: P C C M
;
_chemical_formula_sum "Si O2"
_cell_formula_units_Z 48
_cell_length_a 9.277773
_cell_length_b 7.999369
_cell_length_c 29.234247
_cell_angle_alpha 90.000000
_cell_angle_beta 90.000000
_cell_angle_gamma 90.000000
_cell_volume 2169.658515
_symmetry_space_group_name_H-M "P C C M"
_symmetry_group_IT_number 49
_symmetry_cell_setting 'orthorhombic'
loop_
_space_group_symop_operation_xyz
x,y,z
-x,-y,z
x,-y,1/2-z
-x,y,1/2-z
-x,-y,-z
x,y,-z
-x,y,1/2+z
x,-y,1/2+z
loop_
_atom_site_type_symbol
_atom_site_label
_atom_site_fract_x
_atom_site_fract_y
_atom_site_fract_z
Si Si1 0.455570 0.185649 0.394275
Si Si2 0.208952 0.723481 0.049068
Si Si3 0.038005 0.300771 0.892111
Si Si4 0.424343 0.317498 0.705000
Si Si5 0.701034 0.665279 0.052016
Si Si6 0.927764 0.313833 0.204587
O O1 0.291211 0.203862 0.408150
O O2 0.469580 0.226663 0.341352
O O3 0.542036 0.307659 0.428378
O O4 0.500000 0.000000 0.405055
O O5 0.247733 0.526816 0.048501
O O6 0.044541 0.752299 0.061822
O O7 0.249399 0.794935 0.000000
O O8 0.201611 0.265880 0.905984
O O9 0.000000 0.500000 0.889695
O O10 0.981832 0.234490 0.843431
O O11 0.500000 0.500000 0.701307
O O12 0.500000 0.241208 0.750000
O O13 0.247991 0.325464 0.707799
O O14 0.712522 0.733343 0.000000
O O15 0.000000 0.500000 0.203621
O O16 0.000000 0.234559 0.250000
#
# Coordination Sequence:
#
# PCOD9392990 Si02
#       6
#     8   8   8   8   8   8
#     4  12  26  40  57  85 125 165 202 242 295 359
#     4  10  19  37  62  89 118 152 201 254 299 353
#     4   9  18  32  58  90 121 148 190 252 308 357
#     4  11  23  39  67  96 119 155 199 246 299 355
#     4  10  21  37  62  91 118 155 202 253 305 353
#     4  10  19  32  58  97 124 144 182 248 311 354
#
# _framework density 22.123296
#
# number of rings (size 3 to 8) (size 9 to 14) (size 15 to 20)
#    0.000    1.667    1.667    4.500    7.000    5.000 
#    0.000    0.833    0.000    2.000    0.000    0.000 
#    0.000    0.000    0.000    0.000    0.000    0.000 
#
# Total GULP energy -267429.320748 kJ/mol
# GULP energy per Si atom -5571.444182 kJ/mol
# Density = 2.207294 g / cm^3
# Si number density = 22.123296 Si / 1000 Ang^3
#
#
#
# Elastic Constant Matrix: (Units=GPa)
#
#
# Indices 1 2 3 4 5 6 
#
# 1 98.0587 -7.0336 29.5421 0.0000 0.0000 0.0000
# 2 -7.0336 17.5972 6.2974 0.0000 0.0000 0.0000
# 3 29.5421 6.2974 174.8000 0.0000 0.0000 0.0000
# 4 0.0000 0.0000 0.0000 -6.1916 0.0000 0.0000
# 5 0.0000 0.0000 0.0000 0.0000 12.4569 0.0000
# 6 0.0000 0.0000 0.0000 0.0000 0.0000 -7.7743
#
#
#
# Elastic Compliance Matrix: (Units=1/GPa)
#
#
# Indices 1 2 3 4 5 6 
#
# 1 0.011199 0.005221 -0.002081 0.000000 0.000000 0.000000
# 2 0.005221 0.060003 -0.003044 0.000000 0.000000 0.000000
# 3 -0.002081 -0.003044 0.006182 0.000000 0.000000 0.000000
# 4 0.000000 0.000000 0.000000 -0.161510 0.000000 0.000000
# 5 0.000000 0.000000 0.000000 0.000000 0.080277 0.000000
# 6 0.000000 0.000000 0.000000 0.000000 0.000000 -0.128629
#
#
# Mechanical properties :
#
#
# Convention : Reuss Voigt Hill
#
# Bulk Modulus (GPa) = 12.89040 38.67420 25.78230
# Shear Modulus (GPa) = -46.81204 17.14153 -14.83525
#
# Velocity S-wave (km/s) = -4.60495 2.78658 -2.59235
# Velocity P-wave (km/s) = 4.73654 5.27944 1.64889
#
# Compressibility (1/GPa) = 0.07757712
#
# Stress axis : x y z
#
# Youngs Moduli (GPa) = 89.29083 16.66572 161.75569
#
# Poissons Ratio (x) = -0.08701 0.33659
# Poissons Ratio (y) = -0.46619 0.49240
# Poissons Ratio (z) = 0.18580 0.05073
#
# Static dielectric constant tensor:
#      x y z
#    x 1.871980 0.000000 0.000000 
#    y 0.000000 1.844130 0.000000 
#    z 0.000000 0.000000 1.823560 
# 
# From -- ./inp_files/26260.got.cif
#   From: 2010.05.17/outbox.cif.g08.bks.cpg/sg49_14_cif.got.tgz:26260.got - 2010.06.03 21:02:19.
