data_PCOD9392740
_publ_section_title
;
Structure prediction by ZEFSAII (Michael W. Deem and Ramdas Pophale) SiO2 
 PCOD9392740
Probable space group: P C C M
;
_chemical_formula_sum "Si O2"
_cell_formula_units_Z 58
_cell_length_a 15.037157
_cell_length_b 25.718563
_cell_length_c 9.166152
_cell_angle_alpha 90.000000
_cell_angle_beta 90.000000
_cell_angle_gamma 90.000000
_cell_volume 3544.863266
_symmetry_space_group_name_H-M "P C C M"
_symmetry_group_IT_number 49
_symmetry_cell_setting 'orthorhombic'
loop_
_space_group_symop_operation_xyz
x,y,z
-x,-y,z
x,-y,1/2-z
-x,y,1/2-z
-x,-y,-z
x,y,-z
-x,y,1/2+z
x,-y,1/2+z
loop_
_atom_site_type_symbol
_atom_site_label
_atom_site_fract_x
_atom_site_fract_y
_atom_site_fract_z
Si Si1 0.661988 0.552312 0.323419
Si Si2 0.091728 0.300147 0.676672
Si Si3 0.000000 0.500000 0.750000
Si Si4 0.414156 0.661505 0.828414
Si Si5 0.596683 0.950433 0.826516
Si Si6 0.856439 0.415457 0.831718
Si Si7 0.597111 0.832362 0.173444
Si Si8 0.275258 0.249484 0.673226
O O1 0.628901 0.500000 0.250000
O O2 0.661009 0.547435 0.500000
O O3 0.606407 0.602979 0.280753
O O4 0.763675 0.562970 0.270499
O O5 0.083194 0.301040 0.500000
O O6 0.113066 0.359591 0.729004
O O7 0.173798 0.262286 0.713537
O O8 0.000000 0.283940 0.750000
O O9 0.067546 0.540521 0.826513
O O10 0.500000 0.683839 0.750000
O O11 0.328289 0.696653 0.804155
O O12 0.431576 0.660856 0.000000
O O13 0.500000 0.948045 0.750000
O O14 0.630951 0.891856 0.804812
O O15 0.642889 0.000000 0.750000
O O16 0.588871 0.959484 0.000000
O O17 0.835648 0.404111 0.000000
O O18 0.500000 0.826290 0.250000
O O19 0.669716 0.793519 0.239631
O O20 0.585441 0.824130 0.000000
O O21 0.278784 0.237488 0.500000
#
# Coordination Sequence:
#
# PCOD9392740 Si02
#       8
#     8   8   2   8   8   8   8   8
#     4  10  20  36  52  67  90 118 146 185 235 289
#     4  10  20  36  54  73  97 126 158 196 244 300
#     4  12  18  28  52  74  94 112 150 188 240 296
#     4  10  21  36  53  70  92 121 156 197 242 289
#     4   9  16  26  42  66  99 139 177 214 250 289
#     4  10  19  31  47  69  95 118 142 180 236 295
#     4  10  20  32  48  74 107 140 178 218 255 292
#     4  10  20  35  54  72  97 132 167 205 252 296
#
# _framework density 16.361704
#
# number of rings (size 3 to 8) (size 9 to 14) (size 15 to 20)
#    0.000    2.069    2.759    1.862    0.000    4.690 
#    0.000    2.069    0.000    0.000    0.000    0.000 
#    0.000    0.552    0.000    6.069    0.000    4.414 
#
# Total GULP energy -323151.046452 kJ/mol
# GULP energy per Si atom -5571.569766 kJ/mol
# Density = 1.632446 g / cm^3
# Si number density = 16.361704 Si / 1000 Ang^3
#
#
#
# Elastic Constant Matrix: (Units=GPa)
#
#
# Indices 1 2 3 4 5 6 
#
# 1 83.8369 35.9375 32.9899 0.0000 0.0000 0.0000
# 2 35.9375 105.0242 48.5488 0.0000 0.0000 0.0000
# 3 32.9899 48.5488 45.7064 0.0000 0.0000 0.0000
# 4 0.0000 0.0000 0.0000 23.8125 0.0000 0.0000
# 5 0.0000 0.0000 0.0000 0.0000 15.4327 0.0000
# 6 0.0000 0.0000 0.0000 0.0000 0.0000 33.4200
#
#
#
# Elastic Compliance Matrix: (Units=1/GPa)
#
#
# Indices 1 2 3 4 5 6 
#
# 1 0.016664 -0.000279 -0.011731 0.000000 0.000000 0.000000
# 2 -0.000279 0.018712 -0.019674 0.000000 0.000000 0.000000
# 3 -0.011731 -0.019674 0.051243 0.000000 0.000000 0.000000
# 4 0.000000 0.000000 0.000000 0.041995 0.000000 0.000000
# 5 0.000000 0.000000 0.000000 0.000000 0.064797 0.000000
# 6 0.000000 0.000000 0.000000 0.000000 0.000000 0.029922
#
#
# Mechanical properties :
#
#
# Convention : Reuss Voigt Hill
#
# Bulk Modulus (GPa) = 43.00945 52.16889 47.58917
# Shear Modulus (GPa) = 16.98078 22.33912 19.65995
#
# Velocity S-wave (km/s) = 3.22504 3.69905 3.47015
# Velocity P-wave (km/s) = 6.34126 7.08505 6.72345
#
# Compressibility (1/GPa) = 0.02325070
#
# Stress axis : x y z
#
# Youngs Moduli (GPa) = 60.01056 53.44282 19.51488
#
# Poissons Ratio (x) = 0.01493 0.22893
# Poissons Ratio (y) = 0.01676 0.38393
# Poissons Ratio (z) = 0.70397 1.05141
#
# Static dielectric constant tensor:
#      x y z
#    x 1.543970 0.000000 0.000000 
#    y 0.000000 1.582400 0.000000 
#    z 0.000000 0.000000 1.556640 
# 
# From -- ./inp_files/4262.got.cif
#   From: 2010.05.17/outbox.cif.g08.bks.cpg/sg49_3_cif.got.tgz:4262.got - 2010.06.03 21:02:19.
