data_PCOD9392872
_publ_section_title
;
Structure prediction by ZEFSAII (Michael W. Deem and Ramdas Pophale) SiO2 
 PCOD9392872
Probable space group: P C C M
;
_chemical_formula_sum "Si O2"
_cell_formula_units_Z 48
_cell_length_a 10.004916
_cell_length_b 32.418594
_cell_length_c 8.588635
_cell_angle_alpha 90.000000
_cell_angle_beta 90.000000
_cell_angle_gamma 90.000000
_cell_volume 2785.683480
_symmetry_space_group_name_H-M "P C C M"
_symmetry_group_IT_number 49
_symmetry_cell_setting 'orthorhombic'
loop_
_space_group_symop_operation_xyz
x,y,z
-x,-y,z
x,-y,1/2-z
-x,y,1/2-z
-x,-y,-z
x,y,-z
-x,y,1/2+z
x,-y,1/2+z
loop_
_atom_site_type_symbol
_atom_site_label
_atom_site_fract_x
_atom_site_fract_y
_atom_site_fract_z
Si Si1 0.347254 0.457648 0.686733
Si Si2 0.852452 0.884434 0.187684
Si Si3 0.350395 0.044496 0.187313
Si Si4 0.148418 0.209672 0.186788
Si Si5 0.651424 0.721966 0.687126
Si Si6 0.348465 0.368580 0.687588
O O1 0.284659 0.500000 0.750000
O O2 0.500000 0.457036 0.750000
O O3 0.351215 0.459971 0.500000
O O4 0.287585 0.412974 0.734756
O O5 0.746178 0.918564 0.238809
O O6 0.818140 0.837490 0.235455
O O7 0.000000 0.893799 0.250000
O O8 0.856336 0.885087 0.000000
O O9 0.500000 0.051046 0.250000
O O10 0.304230 0.000000 0.250000
O O11 0.354012 0.043162 0.000000
O O12 0.254718 0.242167 0.249739
O O13 0.000000 0.218704 0.250000
O O14 0.146348 0.211231 0.000000
O O15 0.500000 0.725978 0.750000
O O16 0.647442 0.723646 0.500000
O O17 0.705837 0.676278 0.735128
O O18 0.500000 0.368695 0.750000
O O19 0.352221 0.368860 0.500000
#
# Coordination Sequence:
#
# PCOD9392872 Si02
#       6
#     8   8   8   8   8   8
#     4   9  14  20  30  47  72 106 144 182 222 271
#     4   9  20  36  54  75 100 128 162 199 240 286
#     4  10  20  35  53  76 103 133 165 199 237 281
#     4  10  20  36  54  74  99 129 163 202 245 292
#     4  10  19  32  49  71  97 128 163 202 244 290
#     4   8  15  25  37  54  81 114 149 187 231 277
#
# _framework density 17.230961000000001
#
# number of rings (size 3 to 8) (size 9 to 14) (size 15 to 20)
#    0.000    2.667    0.000    3.000    0.000    4.333 
#    0.000    3.333    0.000    0.000    0.000    0.000 
#    0.000    0.667    0.000    7.667    0.000    4.500 
#
# Total GULP energy -267287.677446 kJ/mol
# GULP energy per Si atom -5568.493280 kJ/mol
# Density = 1.719174 g / cm^3
# Si number density = 17.230961 Si / 1000 Ang^3
#
#
#
# Elastic Constant Matrix: (Units=GPa)
#
#
# Indices 1 2 3 4 5 6 
#
# 1 55.4906 90.5895 21.6143 0.0000 0.0000 0.0000
# 2 90.5895 197.3879 42.7164 0.0000 0.0000 0.0000
# 3 21.6143 42.7164 40.7421 0.0000 0.0000 0.0000
# 4 0.0000 0.0000 0.0000 28.4565 0.0000 0.0000
# 5 0.0000 0.0000 0.0000 0.0000 20.4549 0.0000
# 6 0.0000 0.0000 0.0000 0.0000 0.0000 -10.9052
#
#
#
# Elastic Compliance Matrix: (Units=1/GPa)
#
#
# Indices 1 2 3 4 5 6 
#
# 1 0.072532 -0.032286 -0.004628 0.000000 0.000000 0.000000
# 2 -0.032286 0.020925 -0.004810 0.000000 0.000000 0.000000
# 3 -0.004628 -0.004810 0.032043 0.000000 0.000000 0.000000
# 4 0.000000 0.000000 0.000000 0.035141 0.000000 0.000000
# 5 0.000000 0.000000 0.000000 0.000000 0.048888 0.000000
# 6 0.000000 0.000000 0.000000 0.000000 0.000000 -0.091700
#
#
# Mechanical properties :
#
#
# Convention : Reuss Voigt Hill
#
# Bulk Modulus (GPa) = 23.78127 67.05124 45.41625
# Shear Modulus (GPa) = 23.22389 16.84794 20.03592
#
# Velocity S-wave (km/s) = 3.67522 3.13033 3.41366
# Velocity P-wave (km/s) = 5.64279 7.21547 6.47704
#
# Compressibility (1/GPa) = 0.04204989
#
# Stress axis : x y z
#
# Youngs Moduli (GPa) = 13.78711 47.79074 31.20761
#
# Poissons Ratio (x) = 1.54297 0.14444
# Poissons Ratio (y) = 0.44513 0.15012
# Poissons Ratio (z) = 0.06381 0.22989
#
# Static dielectric constant tensor:
#      x y z
#    x 1.529600 0.000000 0.000000 
#    y 0.000000 1.652430 0.000000 
#    z 0.000000 0.000000 1.582260 
# 
# From -- ./inp_files/2048.got.cif
#   From: 2010.05.17/outbox.cif.g08.bks.cpg/sg49_2_cif.got.tgz:2048.got - 2010.06.03 21:02:19.
