data_PCOD9392989
_publ_section_title
;
Structure prediction by ZEFSAII (Michael W. Deem and Ramdas Pophale) SiO2 
 PCOD9392989
Probable space group: P C C M
;
_chemical_formula_sum "Si O2"
_cell_formula_units_Z 64
_cell_length_a 11.964059
_cell_length_b 17.751504
_cell_length_c 16.002813
_cell_angle_alpha 90.000000
_cell_angle_beta 90.000000
_cell_angle_gamma 90.000000
_cell_volume 3398.678084
_symmetry_space_group_name_H-M "P C C M"
_symmetry_group_IT_number 49
_symmetry_cell_setting 'orthorhombic'
loop_
_space_group_symop_operation_xyz
x,y,z
-x,-y,z
x,-y,1/2-z
-x,y,1/2-z
-x,-y,-z
x,y,-z
-x,y,1/2+z
x,-y,1/2+z
loop_
_atom_site_type_symbol
_atom_site_label
_atom_site_fract_x
_atom_site_fract_y
_atom_site_fract_z
Si Si1 0.129819 0.299789 0.904305
Si Si2 0.708359 0.197902 0.679263
Si Si3 0.134491 0.411511 0.244812
Si Si4 0.730478 0.295465 0.845716
Si Si5 0.819223 0.926784 0.713755
Si Si6 0.388645 0.047465 0.403725
Si Si7 0.077955 0.196268 0.594989
Si Si8 0.477089 0.783159 0.094630
O O1 0.225588 0.237050 0.895717
O O2 0.158621 0.368785 0.842883
O O3 0.019953 0.252864 0.875989
O O4 0.113714 0.323797 0.000000
O O5 0.726853 0.250317 0.759152
O O6 0.762105 0.120555 0.710876
O O7 0.579387 0.201201 0.656085
O O8 0.158848 0.500000 0.250000
O O9 0.206123 0.371492 0.318540
O O10 0.000000 0.402523 0.250000
O O11 0.811163 0.247542 0.905082
O O12 0.605197 0.285379 0.880410
O O13 0.717925 0.957767 0.655662
O O14 0.896562 0.871498 0.658561
O O15 0.877235 0.000000 0.750000
O O16 0.364767 0.024290 0.500000
O O17 0.412480 0.137086 0.403990
O O18 0.500000 0.000000 0.378058
O O19 0.053646 0.170883 0.500000
O O20 0.516832 0.771142 0.000000
#
# Coordination Sequence:
#
# PCOD9392989 Si02
#       8
#     8   8   8   8   8   8   8   8
#     4  10  21  39  62  85 115 157 191 234 289 347
#     4  10  21  34  55  79 111 150 203 245 283 341
#     4  10  20  37  61  95 128 151 179 236 293 351
#     4  10  19  32  58  83 112 152 192 229 288 345
#     4  11  22  34  53  80 111 152 196 252 308 363
#     4  10  20  32  49  74 110 149 187 248 314 357
#     4  10  19  36  58  81 110 145 195 244 291 350
#     4  11  20  33  52  80 113 150 197 248 290 341
#
# _framework density 18.830850999999999
#
# number of rings (size 3 to 8) (size 9 to 14) (size 15 to 20)
#    0.000    1.750    3.750    2.250    0.000    1.250 
#    0.000    5.625    0.000    7.500    0.000    4.375 
#    0.000    0.000    0.000    0.000    0.000    0.000 
#
# Total GULP energy -356663.655411 kJ/mol
# GULP energy per Si atom -5572.869616 kJ/mol
# Density = 1.878799 g / cm^3
# Si number density = 18.830851 Si / 1000 Ang^3
#
#
#
# Elastic Constant Matrix: (Units=GPa)
#
#
# Indices 1 2 3 4 5 6 
#
# 1 66.5409 34.9480 19.7507 0.0000 0.0000 0.0000
# 2 34.9480 119.6057 53.3790 0.0000 0.0000 0.0000
# 3 19.7507 53.3790 64.4674 0.0000 0.0000 0.0000
# 4 0.0000 0.0000 0.0000 14.8899 0.0000 0.0000
# 5 0.0000 0.0000 0.0000 0.0000 18.8883 0.0000
# 6 0.0000 0.0000 0.0000 0.0000 0.0000 19.0966
#
#
#
# Elastic Compliance Matrix: (Units=1/GPa)
#
#
# Indices 1 2 3 4 5 6 
#
# 1 0.017888 -0.004411 -0.001828 0.000000 0.000000 0.000000
# 2 -0.004411 0.014349 -0.010530 0.000000 0.000000 0.000000
# 3 -0.001828 -0.010530 0.024790 0.000000 0.000000 0.000000
# 4 0.000000 0.000000 0.000000 0.067160 0.000000 0.000000
# 5 0.000000 0.000000 0.000000 0.000000 0.052943 0.000000
# 6 0.000000 0.000000 0.000000 0.000000 0.000000 0.052365
#
#
# Mechanical properties :
#
#
# Convention : Reuss Voigt Hill
#
# Bulk Modulus (GPa) = 42.57143 51.86326 47.21735
# Shear Modulus (GPa) = 18.45963 20.07737 19.26850
#
# Velocity S-wave (km/s) = 3.13435 3.26881 3.20228
# Velocity P-wave (km/s) = 5.97957 6.46902 6.22910
#
# Compressibility (1/GPa) = 0.02348993
#
# Stress axis : x y z
#
# Youngs Moduli (GPa) = 55.90486 69.69199 40.33847
#
# Poissons Ratio (x) = 0.30740 0.07374
# Poissons Ratio (y) = 0.24658 0.42475
# Poissons Ratio (z) = 0.10219 0.73382
#
# Static dielectric constant tensor:
#      x y z
#    x 1.727050 0.000000 0.000000 
#    y 0.000000 1.646450 0.000000 
#    z 0.000000 0.000000 1.686930 
# 
# From -- ./inp_files/13097.got.cif
#   From: 2010.05.17/outbox.cif.g08.bks.cpg/sg49_7_cif.got.tgz:13097.got - 2010.06.03 21:02:19.
