data_PCOD9392080
_publ_section_title
;
Structure prediction by ZEFSAII (Michael W. Deem and Ramdas Pophale) SiO2 
 PCOD9392080
Probable space group: P C C M
;
_chemical_formula_sum "Si O2"
_cell_formula_units_Z 64
_cell_length_a 27.122390
_cell_length_b 18.739654
_cell_length_c 8.876946
_cell_angle_alpha 90.000000
_cell_angle_beta 90.000000
_cell_angle_gamma 90.000000
_cell_volume 4511.833895
_symmetry_space_group_name_H-M "P C C M"
_symmetry_group_IT_number 49
_symmetry_cell_setting 'orthorhombic'
loop_
_space_group_symop_operation_xyz
x,y,z
-x,-y,z
x,-y,1/2-z
-x,y,1/2-z
-x,-y,-z
x,y,-z
-x,y,1/2+z
x,-y,1/2+z
loop_
_atom_site_type_symbol
_atom_site_label
_atom_site_fract_x
_atom_site_fract_y
_atom_site_fract_z
Si Si1 0.550958 0.342625 0.819998
Si Si2 0.050025 0.919546 0.681425
Si Si3 0.402042 0.208799 0.173564
Si Si4 0.348097 0.422667 0.679702
Si Si5 0.251378 0.161507 0.320107
Si Si6 0.702459 0.706756 0.172252
Si Si7 0.648582 0.078093 0.180706
Si Si8 0.150885 0.079138 0.681400
O O1 0.500000 0.369123 0.750000
O O2 0.561859 0.263133 0.758015
O O3 0.597856 0.391446 0.776783
O O4 0.547875 0.340851 0.000000
O O5 0.048369 0.921859 0.500000
O O6 0.101512 0.888903 0.742930
O O7 0.000000 0.886498 0.750000
O O8 0.050989 0.000000 0.750000
O O9 0.349401 0.249957 0.174904
O O10 0.391217 0.134212 0.255215
O O11 0.416860 0.198653 0.000000
O O12 0.340865 0.500000 0.750000
O O13 0.346513 0.426594 0.500000
O O14 0.308353 0.365184 0.737161
O O15 0.254608 0.171094 0.500000
O O16 0.259260 0.237827 0.243201
O O17 0.297284 0.109959 0.277536
O O18 0.199525 0.124772 0.284946
O O19 0.714615 0.690398 0.000000
O O20 0.642747 0.000000 0.250000
O O21 0.645641 0.075306 0.000000
O O22 0.144607 0.073946 0.500000
O O23 0.157981 0.000000 0.750000
#
# Coordination Sequence:
#
# PCOD9392080 Si02
#       8
#     8   8   8   8   8   8   8   8
#     4  10  20  33  49  68  88 111 135 163 196 234
#     4  10  17  26  38  51  69  97 135 178 221 263
#     4   9  17  30  46  63  82 106 135 166 198 238
#     4  10  20  33  49  68  91 114 138 165 195 230
#     4   9  18  29  41  58  83 111 138 170 209 250
#     4   9  17  29  46  64  83 108 138 167 198 238
#     4  10  18  28  42  61  83 107 135 168 206 246
#     4  10  18  27  38  55  79 107 140 180 222 259
#
# _framework density 14.18492
#
# number of rings (size 3 to 8) (size 9 to 14) (size 15 to 20)
#    0.000    2.375    0.000    4.875    0.000    6.250 
#    0.000    1.250    0.000    0.375    0.000    2.625 
#    0.000    0.000    0.000    0.000    0.000    0.625 
#
# Total GULP energy -356729.983272 kJ/mol
# GULP energy per Si atom -5573.905989 kJ/mol
# Density = 1.415263 g / cm^3
# Si number density = 14.184920 Si / 1000 Ang^3
#
#
#
# Elastic Constant Matrix: (Units=GPa)
#
#
# Indices 1 2 3 4 5 6 
#
# 1 47.4875 25.3924 25.3508 0.0000 0.0000 0.0000
# 2 25.3924 95.8109 40.8040 0.0000 0.0000 0.0000
# 3 25.3508 40.8040 67.5116 0.0000 0.0000 0.0000
# 4 0.0000 0.0000 0.0000 23.9776 0.0000 0.0000
# 5 0.0000 0.0000 0.0000 0.0000 49.4010 0.0000
# 6 0.0000 0.0000 0.0000 0.0000 0.0000 8.9834
#
#
#
# Elastic Compliance Matrix: (Units=1/GPa)
#
#
# Indices 1 2 3 4 5 6 
#
# 1 0.027365 -0.003873 -0.007935 0.000000 0.000000 0.000000
# 2 -0.003873 0.014603 -0.007372 0.000000 0.000000 0.000000
# 3 -0.007935 -0.007372 0.022247 0.000000 0.000000 0.000000
# 4 0.000000 0.000000 0.000000 0.041706 0.000000 0.000000
# 5 0.000000 0.000000 0.000000 0.000000 0.020243 0.000000
# 6 0.000000 0.000000 0.000000 0.000000 0.000000 0.111317
#
#
# Mechanical properties :
#
#
# Convention : Reuss Voigt Hill
#
# Bulk Modulus (GPa) = 38.67545 43.76716 41.22130
# Shear Modulus (GPa) = 17.57726 24.42325 21.00026
#
# Velocity S-wave (km/s) = 3.52398 4.15393 3.85185
# Velocity P-wave (km/s) = 6.62437 7.34361 6.99324
#
# Compressibility (1/GPa) = 0.02585620
#
# Stress axis : x y z
#
# Youngs Moduli (GPa) = 36.54288 68.47800 44.94944
#
# Poissons Ratio (x) = 0.26523 0.35666
# Poissons Ratio (y) = 0.14154 0.33136
# Poissons Ratio (z) = 0.28996 0.50480
#
# Static dielectric constant tensor:
#      x y z
#    x 1.485010 0.000000 0.000000 
#    y 0.000000 1.443810 0.000000 
#    z 0.000000 0.000000 1.476110 
# 
# From -- ./inp_files/6790.got.cif
#   From: 2010.05.17/outbox.cif.g08.bks.cpg/sg49_4_cif.got.tgz:6790.got - 2010.06.03 21:02:19.
