data_PCOD9392375
_publ_section_title
;
Structure prediction by ZEFSAII (Michael W. Deem and Ramdas Pophale) SiO2 
 PCOD9392375
Probable space group: P C C M
;
_chemical_formula_sum "Si O2"
_cell_formula_units_Z 64
_cell_length_a 23.693794
_cell_length_b 18.749415
_cell_length_c 8.730931
_cell_angle_alpha 90.000000
_cell_angle_beta 90.000000
_cell_angle_gamma 90.000000
_cell_volume 3878.670492
_symmetry_space_group_name_H-M "P C C M"
_symmetry_group_IT_number 49
_symmetry_cell_setting 'orthorhombic'
loop_
_space_group_symop_operation_xyz
x,y,z
-x,-y,z
x,-y,1/2-z
-x,y,1/2-z
-x,-y,-z
x,y,-z
-x,y,1/2+z
x,-y,1/2+z
loop_
_atom_site_type_symbol
_atom_site_label
_atom_site_fract_x
_atom_site_fract_y
_atom_site_fract_z
Si Si1 0.439646 0.118511 0.322218
Si Si2 0.318306 0.076899 0.817134
Si Si3 0.936555 0.577321 0.686750
Si Si4 0.558965 0.291250 0.177485
Si Si5 0.247160 0.793902 0.816402
Si Si6 0.752573 0.429633 0.825934
Si Si7 0.674039 0.326073 0.677957
Si Si8 0.152268 0.307831 0.324357
O O1 0.500000 0.095903 0.250000
O O2 0.437595 0.096195 0.500000
O O3 0.382434 0.093526 0.239394
O O4 0.438394 0.204818 0.316171
O O5 0.273391 0.135241 0.756837
O O6 0.303138 0.000000 0.750000
O O7 0.318161 0.076889 0.000000
O O8 0.915964 0.500000 0.750000
O O9 0.935315 0.574730 0.500000
O O10 0.900347 0.646655 0.739807
O O11 0.000000 0.584584 0.750000
O O12 0.500000 0.313219 0.250000
O O13 0.609465 0.321715 0.276893
O O14 0.564227 0.311780 0.000000
O O15 0.293372 0.733513 0.776786
O O16 0.186596 0.761059 0.760379
O O17 0.243852 0.801810 0.000000
O O18 0.776475 0.500000 0.750000
O O19 0.701372 0.400699 0.724837
O O20 0.799529 0.368471 0.827559
O O21 0.734818 0.442276 0.000000
O O22 0.683129 0.310703 0.500000
O O23 0.137228 0.289237 0.500000
#
# Coordination Sequence:
#
# PCOD9392375 Si02
#       8
#     8   8   8   8   8   8   8   8
#     4  10  20  34  52  72  97 126 159 200 244 296
#     4  12  24  37  53  73  99 131 164 201 248 304
#     4  10  18  30  46  71 105 145 182 214 247 286
#     4  10  19  31  49  70  93 118 150 193 238 285
#     4  10  19  35  53  72  96 125 162 206 249 292
#     4  10  19  32  48  69  95 124 159 201 245 289
#     4  11  20  31  49  71  94 122 154 192 239 291
#     4   8  17  31  50  71  98 133 169 207 247 286
#
# _framework density 16.500499000000001
#
# number of rings (size 3 to 8) (size 9 to 14) (size 15 to 20)
#    0.000    1.875    1.250    5.625    0.000    1.250 
#    0.000    8.125    0.000    0.375    0.000    2.625 
#    0.000    0.500    0.000    5.750    0.000    1.750 
#
# Total GULP energy -356715.110851 kJ/mol
# GULP energy per Si atom -5573.673607 kJ/mol
# Density = 1.646294 g / cm^3
# Si number density = 16.500499 Si / 1000 Ang^3
#
#
#
# Elastic Constant Matrix: (Units=GPa)
#
#
# Indices 1 2 3 4 5 6 
#
# 1 91.8374 42.8602 23.7639 0.0000 0.0000 0.0000
# 2 42.8602 61.3730 32.3682 0.0000 0.0000 0.0000
# 3 23.7639 32.3682 86.4719 0.0000 0.0000 0.0000
# 4 0.0000 0.0000 0.0000 12.3626 0.0000 0.0000
# 5 0.0000 0.0000 0.0000 0.0000 13.6358 0.0000
# 6 0.0000 0.0000 0.0000 0.0000 0.0000 77.8123
#
#
#
# Elastic Compliance Matrix: (Units=1/GPa)
#
#
# Indices 1 2 3 4 5 6 
#
# 1 0.016159 -0.011142 -0.000270 0.000000 0.000000 0.000000
# 2 -0.011142 0.027985 -0.007413 0.000000 0.000000 0.000000
# 3 -0.000270 -0.007413 0.014414 0.000000 0.000000 0.000000
# 4 0.000000 0.000000 0.000000 0.080889 0.000000 0.000000
# 5 0.000000 0.000000 0.000000 0.000000 0.073336 0.000000
# 6 0.000000 0.000000 0.000000 0.000000 0.000000 0.012851
#
#
# Mechanical properties :
#
#
# Convention : Reuss Voigt Hill
#
# Bulk Modulus (GPa) = 47.83231 48.62965 48.23098
# Shear Modulus (GPa) = 18.50116 30.14147 24.32132
#
# Velocity S-wave (km/s) = 3.35214 4.27863 3.84340
# Velocity P-wave (km/s) = 6.63580 7.34469 6.99922
#
# Compressibility (1/GPa) = 0.02090637
#
# Stress axis : x y z
#
# Youngs Moduli (GPa) = 61.88633 35.73383 69.37917
#
# Poissons Ratio (x) = 0.39815 0.01873
# Poissons Ratio (y) = 0.68954 0.51432
# Poissons Ratio (z) = 0.01671 0.26490
#
# Static dielectric constant tensor:
#      x y z
#    x 1.547170 0.000000 0.000000 
#    y 0.000000 1.523790 0.000000 
#    z 0.000000 0.000000 3.957040 
# 
# From -- ./inp_files/6630.got.cif
#   From: 2010.05.17/outbox.cif.g08.bks.cpg/sg49_4_cif.got.tgz:6630.got - 2010.06.03 21:02:19.
