data_PCOD9392703
_publ_section_title
;
Structure prediction by ZEFSAII (Michael W. Deem and Ramdas Pophale) SiO2 
 PCOD9392703
Probable space group: P C C M
;
_chemical_formula_sum "Si O2"
_cell_formula_units_Z 52
_cell_length_a 14.806905
_cell_length_b 20.048152
_cell_length_c 9.506492
_cell_angle_alpha 90.000000
_cell_angle_beta 90.000000
_cell_angle_gamma 90.000000
_cell_volume 2822.012437
_symmetry_space_group_name_H-M "P C C M"
_symmetry_group_IT_number 49
_symmetry_cell_setting 'orthorhombic'
loop_
_space_group_symop_operation_xyz
x,y,z
-x,-y,z
x,-y,1/2-z
-x,y,1/2-z
-x,-y,-z
x,y,-z
-x,y,1/2+z
x,-y,1/2+z
loop_
_atom_site_type_symbol
_atom_site_label
_atom_site_fract_x
_atom_site_fract_y
_atom_site_fract_z
Si Si1 0.000000 0.356397 0.250000
Si Si2 0.123723 0.245387 0.352284
Si Si3 0.087174 0.091875 0.337180
Si Si4 0.819649 0.567949 0.834844
Si Si5 0.727440 0.935514 0.169297
Si Si6 0.725397 0.700382 0.831749
Si Si7 0.408300 0.811612 0.667552
O O1 0.050552 0.304087 0.350767
O O2 0.079836 0.401213 0.186479
O O3 0.176407 0.250048 0.500000
O O4 0.082620 0.172366 0.345912
O O5 0.189619 0.257402 0.223104
O O6 0.091142 0.067388 0.500000
O O7 0.176872 0.075806 0.247815
O O8 0.000000 0.069993 0.250000
O O9 0.811482 0.500000 0.750000
O O10 0.748501 0.624972 0.785810
O O11 0.806371 0.555843 0.000000
O O12 0.664059 0.870953 0.190330
O O13 0.687527 0.000000 0.250000
O O14 0.737603 0.945619 0.000000
O O15 0.637315 0.741299 0.786892
O O16 0.726029 0.699867 0.000000
O O17 0.500000 0.824170 0.750000
O O18 0.425260 0.808713 0.500000
#
# Coordination Sequence:
#
# PCOD9392703 Si02
#       7
#     4   8   8   8   8   8   8
#     4  10  19  32  48  76 113 154 196 238 291 338
#     4  10  19  30  50  79 107 143 191 240 284 331
#     4  11  22  36  57  85 117 156 202 248 292 343
#     4  10  21  34  52  75 111 155 195 239 287 344
#     4  11  24  43  64  88 121 159 194 239 293 352
#     4   9  19  37  57  79 110 148 186 230 288 344
#     4  10  22  40  65  93 120 149 188 238 297 356
#
# _framework density 18.426566999999999
#
# number of rings (size 3 to 8) (size 9 to 14) (size 15 to 20)
#    0.000    1.846    2.308    1.615    0.000    7.385 
#    0.000    3.077    0.000    0.462    0.000    3.231 
#    0.000    0.000    0.000    0.000    0.000    0.000 
#
# Total GULP energy -289909.514148 kJ/mol
# GULP energy per Si atom -5575.182964 kJ/mol
# Density = 1.838463 g / cm^3
# Si number density = 18.426567 Si / 1000 Ang^3
#
#
#
# Elastic Constant Matrix: (Units=GPa)
#
#
# Indices 1 2 3 4 5 6 
#
# 1 102.5157 45.0530 48.1963 0.0000 0.0000 0.0000
# 2 45.0530 128.8875 49.4941 0.0000 0.0000 0.0000
# 3 48.1963 49.4941 74.5010 0.0000 0.0000 0.0000
# 4 0.0000 0.0000 0.0000 38.5547 0.0000 0.0000
# 5 0.0000 0.0000 0.0000 0.0000 24.9109 0.0000
# 6 0.0000 0.0000 0.0000 0.0000 0.0000 260.9766
#
#
#
# Elastic Compliance Matrix: (Units=1/GPa)
#
#
# Indices 1 2 3 4 5 6 
#
# 1 0.014375 -0.001952 -0.008003 0.000000 0.000000 0.000000
# 2 -0.001952 0.010681 -0.005833 0.000000 0.000000 0.000000
# 3 -0.008003 -0.005833 0.022475 0.000000 0.000000 0.000000
# 4 0.000000 0.000000 0.000000 0.025937 0.000000 0.000000
# 5 0.000000 0.000000 0.000000 0.000000 0.040143 0.000000
# 6 0.000000 0.000000 0.000000 0.000000 0.000000 0.003832
#
#
# Mechanical properties :
#
#
# Convention : Reuss Voigt Hill
#
# Bulk Modulus (GPa) = 62.67447 65.71009 64.19228
# Shear Modulus (GPa) = 32.39680 75.76584 54.08132
#
# Velocity S-wave (km/s) = 4.19759 6.41927 5.42341
# Velocity P-wave (km/s) = 7.58814 9.52263 8.60989
#
# Compressibility (1/GPa) = 0.01595546
#
# Stress axis : x y z
#
# Youngs Moduli (GPa) = 69.56692 93.62502 44.49379
#
# Poissons Ratio (x) = 0.18271 0.35607
# Poissons Ratio (y) = 0.13576 0.25954
# Poissons Ratio (z) = 0.55673 0.54614
#
# Static dielectric constant tensor:
#      x y z
#    x 1.616230 0.000000 0.000000 
#    y 0.000000 1.662830 0.000000 
#    z 0.000000 0.000000 1.637750 
# 
# From -- ./inp_files/3969.got.cif
#   From: 2010.05.17/outbox.cif.g08.bks.cpg/sg49_2_cif.got.tgz:3969.got - 2010.06.03 21:02:19.
