data_PCOD9392258
_publ_section_title
;
Structure prediction by ZEFSAII (Michael W. Deem and Ramdas Pophale) SiO2 
 PCOD9392258
Probable space group: P C C M
;
_chemical_formula_sum "Si O2"
_cell_formula_units_Z 58
_cell_length_a 26.718930
_cell_length_b 11.650738
_cell_length_c 8.960680
_cell_angle_alpha 90.000000
_cell_angle_beta 90.000000
_cell_angle_gamma 90.000000
_cell_volume 2789.417148
_symmetry_space_group_name_H-M "P C C M"
_symmetry_group_IT_number 49
_symmetry_cell_setting 'orthorhombic'
loop_
_space_group_symop_operation_xyz
x,y,z
-x,-y,z
x,-y,1/2-z
-x,y,1/2-z
-x,-y,-z
x,y,-z
-x,y,1/2+z
x,-y,1/2+z
loop_
_atom_site_type_symbol
_atom_site_label
_atom_site_fract_x
_atom_site_fract_y
_atom_site_fract_z
Si Si1 0.949803 0.371853 0.681134
Si Si2 0.418781 0.169265 0.837015
Si Si3 0.569570 0.608816 0.660863
Si Si4 0.794664 0.881514 0.675450
Si Si5 0.500000 0.000000 0.750000
Si Si6 0.692990 0.845426 0.825838
Si Si7 0.310005 0.388938 0.330544
Si Si8 0.843522 0.368690 0.181894
O O1 0.950695 0.500000 0.750000
O O2 0.950837 0.373000 0.500000
O O3 0.896982 0.330981 0.746995
O O4 0.000000 0.314921 0.750000
O O5 0.438244 0.269280 0.733608
O O6 0.364390 0.123493 0.786995
O O7 0.461560 0.075939 0.842429
O O8 0.408758 0.220179 0.000000
O O9 0.552523 0.500000 0.750000
O O10 0.546223 0.608830 0.500000
O O11 0.630130 0.597440 0.651168
O O12 0.803229 0.891316 0.500000
O O13 0.735931 0.888055 0.716293
O O14 0.810758 0.748177 0.715677
O O15 0.816558 0.000000 0.750000
O O16 0.694994 0.710622 0.789955
O O17 0.703025 0.871289 0.000000
O O18 0.288222 0.500000 0.250000
O O19 0.290113 0.368022 0.500000
O O20 0.832532 0.500000 0.250000
O O21 0.845708 0.381503 0.000000
#
# Coordination Sequence:
#
# PCOD9392258 Si02
#       8
#     8   8   8   8   2   8   8   8
#     4  10  17  28  51  85 127 173 222 275 332 386
#     4  10  23  42  63  90 120 152 189 234 290 354
#     4   9  17  32  58  88 117 148 179 218 266 327
#     4  11  25  43  63  89 123 166 215 266 324 388
#     4  12  26  44  66  90 118 148 188 236 296 352
#     4  10  21  38  60  86 115 152 197 245 297 364
#     4   9  16  28  49  80 115 149 183 226 279 338
#     4  10  21  38  61  92 130 171 220 274 329 386
#
# _framework density 20.792876
#
# number of rings (size 3 to 8) (size 9 to 14) (size 15 to 20)
#    0.000    2.069    0.000    4.759    0.966    7.724 
#    0.000    1.724    0.000    2.069    0.000    2.897 
#    0.000    0.000    0.000    0.000    0.000    0.000 
#
# Total GULP energy -322884.121400 kJ/mol
# GULP energy per Si atom -5566.967610 kJ/mol
# Density = 2.074555 g / cm^3
# Si number density = 20.792876 Si / 1000 Ang^3
#
#
#
# Elastic Constant Matrix: (Units=GPa)
#
#
# Indices 1 2 3 4 5 6 
#
# 1 114.8636 27.5395 31.6600 0.0000 0.0000 0.0000
# 2 27.5395 125.0783 57.8603 0.0000 0.0000 0.0000
# 3 31.6600 57.8603 110.7863 0.0000 0.0000 0.0000
# 4 0.0000 0.0000 0.0000 25.1640 0.0000 0.0000
# 5 0.0000 0.0000 0.0000 0.0000 42.3972 0.0000
# 6 0.0000 0.0000 0.0000 0.0000 0.0000 -80.5101
#
#
#
# Elastic Compliance Matrix: (Units=1/GPa)
#
#
# Indices 1 2 3 4 5 6 
#
# 1 0.009566 -0.001110 -0.002154 0.000000 0.000000 0.000000
# 2 -0.001110 0.010671 -0.005256 0.000000 0.000000 0.000000
# 3 -0.002154 -0.005256 0.012387 0.000000 0.000000 0.000000
# 4 0.000000 0.000000 0.000000 0.039739 0.000000 0.000000
# 5 0.000000 0.000000 0.000000 0.000000 0.023586 0.000000
# 6 0.000000 0.000000 0.000000 0.000000 0.000000 -0.012421
#
#
# Mechanical properties :
#
#
# Convention : Reuss Voigt Hill
#
# Bulk Modulus (GPa) = 64.16798 64.98307 64.57553
# Shear Modulus (GPa) = 47.27588 12.98812 30.13200
#
# Velocity S-wave (km/s) = 4.77346 2.50200 3.81090
# Velocity P-wave (km/s) = 7.82999 6.29818 7.10549
#
# Compressibility (1/GPa) = 0.01558410
#
# Stress axis : x y z
#
# Youngs Moduli (GPa) = 104.53934 93.71524 80.73022
#
# Poissons Ratio (x) = 0.10400 0.17390
# Poissons Ratio (y) = 0.11601 0.42430
# Poissons Ratio (z) = 0.22519 0.49255
#
# Static dielectric constant tensor:
#      x y z
#    x 1.835160 0.000000 0.000000 
#    y 0.000000 2.050690 0.000000 
#    z 0.000000 0.000000 1.762170 
# 
# From -- ./inp_files/6749.got.cif
#   From: 2010.05.17/outbox.cif.g08.bks.cpg/sg49_4_cif.got.tgz:6749.got - 2010.06.03 21:02:19.
