data_PCOD9392033
_publ_section_title
;
Structure prediction by ZEFSAII (Michael W. Deem and Ramdas Pophale) SiO2 
 PCOD9392033
Probable space group: P C C M
;
_chemical_formula_sum "Si O2"
_cell_formula_units_Z 48
_cell_length_a 32.245421
_cell_length_b 9.963178
_cell_length_c 8.559417
_cell_angle_alpha 90.000000
_cell_angle_beta 90.000000
_cell_angle_gamma 90.000000
_cell_volume 2749.857101
_symmetry_space_group_name_H-M "P C C M"
_symmetry_group_IT_number 49
_symmetry_cell_setting 'orthorhombic'
loop_
_space_group_symop_operation_xyz
x,y,z
-x,-y,z
x,-y,1/2-z
-x,y,1/2-z
-x,-y,-z
x,y,-z
-x,y,1/2+z
x,-y,1/2+z
loop_
_atom_site_type_symbol
_atom_site_label
_atom_site_fract_x
_atom_site_fract_y
_atom_site_fract_z
Si Si1 0.788977 0.350853 0.688486
Si Si2 0.628796 0.153308 0.186565
Si Si3 0.457025 0.846265 0.313497
Si Si4 0.882986 0.648990 0.188601
Si Si5 0.044738 0.150595 0.812141
Si Si6 0.284028 0.848110 0.311970
O O1 0.779976 0.500000 0.750000
O O2 0.788523 0.354580 0.500000
O O3 0.835986 0.314929 0.738482
O O4 0.754474 0.244005 0.738050
O O5 0.586122 0.215075 0.252097
O O6 0.672435 0.209605 0.247268
O O7 0.629424 0.000000 0.250000
O O8 0.627639 0.151445 0.000000
O O9 0.500000 0.785226 0.250000
O O10 0.457382 0.849486 0.500000
O O11 0.456817 0.000000 0.250000
O O12 0.891788 0.500000 0.250000
O O13 0.917908 0.753518 0.240112
O O14 0.883455 0.646181 0.000000
O O15 0.000000 0.197631 0.750000
O O16 0.051012 0.000000 0.750000
O O17 0.043525 0.147420 0.000000
O O18 0.286228 0.852580 0.500000
O O19 0.278990 0.000000 0.250000
#
# Coordination Sequence:
#
# PCOD9392033 Si02
#       6
#     8   8   8   8   8   8
#     4   9  19  35  53  72  97 126 160 199 242 287
#     4  10  17  26  39  57  83 116 152 191 234 281
#     4  10  16  23  34  51  77 111 150 189 231 281
#     4   9  19  35  53  74  98 127 161 200 241 287
#     4  10  20  34  52  74 102 132 165 200 240 285
#     4  10  19  31  47  69  95 124 157 196 238 286
#
# _framework density 17.455451
#
# number of rings (size 3 to 8) (size 9 to 14) (size 15 to 20)
#    0.000    2.333    0.000    7.000    0.000    3.667 
#    0.000    1.667    0.000    0.000    0.000    0.000 
#    0.000    0.667    0.000    7.000    0.000    6.667 
#
# Total GULP energy -267571.560330 kJ/mol
# GULP energy per Si atom -5574.407507 kJ/mol
# Density = 1.741572 g / cm^3
# Si number density = 17.455451 Si / 1000 Ang^3
#
#
#
# Elastic Constant Matrix: (Units=GPa)
#
#
# Indices 1 2 3 4 5 6 
#
# 1 201.2478 85.2780 52.1508 0.0000 0.0000 0.0000
# 2 85.2780 48.9809 21.5526 0.0000 0.0000 0.0000
# 3 52.1508 21.5526 88.0784 0.0000 0.0000 0.0000
# 4 0.0000 0.0000 0.0000 19.1353 0.0000 0.0000
# 5 0.0000 0.0000 0.0000 0.0000 45.8019 0.0000
# 6 0.0000 0.0000 0.0000 0.0000 0.0000 -11.5353
#
#
#
# Elastic Compliance Matrix: (Units=1/GPa)
#
#
# Indices 1 2 3 4 5 6 
#
# 1 0.019979 -0.033148 -0.003718 0.000000 0.000000 0.000000
# 2 -0.033148 0.077878 0.000570 0.000000 0.000000 0.000000
# 3 -0.003718 0.000570 0.013415 0.000000 0.000000 0.000000
# 4 0.000000 0.000000 0.000000 0.052259 0.000000 0.000000
# 5 0.000000 0.000000 0.000000 0.000000 0.021833 0.000000
# 6 0.000000 0.000000 0.000000 0.000000 0.000000 -0.086691
#
#
# Mechanical properties :
#
#
# Convention : Reuss Voigt Hill
#
# Bulk Modulus (GPa) = 25.85304 72.91887 49.38595
# Shear Modulus (GPa) = 27.15046 22.63545 24.89295
#
# Velocity S-wave (km/s) = 3.94815 3.60496 3.78045
# Velocity P-wave (km/s) = 5.96883 7.69367 6.88547
#
# Compressibility (1/GPa) = 0.03868017
#
# Stress axis : x y z
#
# Youngs Moduli (GPa) = 50.05274 12.84066 74.54102
#
# Poissons Ratio (x) = 0.42564 0.27715
# Poissons Ratio (y) = 1.65916 -0.04252
# Poissons Ratio (z) = 0.18610 -0.00732
#
# Static dielectric constant tensor:
#      x y z
#    x 1.656330 0.000000 0.000000 
#    y 0.000000 1.557510 0.000000 
#    z 0.000000 0.000000 1.590250 
# 
# From -- ./inp_files/6700.got.cif
#   From: 2010.05.17/outbox.cif.g08.bks.cpg/sg49_4_cif.got.tgz:6700.got - 2010.06.03 21:02:19.
