data_PCOD9392825
_publ_section_title
;
Structure prediction by ZEFSAII (Michael W. Deem and Ramdas Pophale) SiO2 
 PCOD9392825
Probable space group: P C C M
;
_chemical_formula_sum "Si O2"
_cell_formula_units_Z 56
_cell_length_a 20.680155
_cell_length_b 15.841505
_cell_length_c 8.819652
_cell_angle_alpha 90.000000
_cell_angle_beta 90.000000
_cell_angle_gamma 90.000000
_cell_volume 2889.360143
_symmetry_space_group_name_H-M "P C C M"
_symmetry_group_IT_number 49
_symmetry_cell_setting 'orthorhombic'
loop_
_space_group_symop_operation_xyz
x,y,z
-x,-y,z
x,-y,1/2-z
-x,y,1/2-z
-x,-y,-z
x,y,-z
-x,y,1/2+z
x,-y,1/2+z
loop_
_atom_site_type_symbol
_atom_site_label
_atom_site_fract_x
_atom_site_fract_y
_atom_site_fract_z
Si Si1 0.708995 0.312519 0.683002
Si Si2 0.263622 0.132787 0.321314
Si Si3 0.831794 0.589041 0.181425
Si Si4 0.115141 0.088305 0.679733
Si Si5 0.566126 0.726783 0.818138
Si Si6 0.931280 0.264143 0.317816
Si Si7 0.396234 0.914425 0.679707
O O1 0.712608 0.297734 0.500000
O O2 0.735338 0.229813 0.767643
O O3 0.757608 0.387757 0.721091
O O4 0.633195 0.319911 0.722163
O O5 0.278975 0.126141 0.500000
O O6 0.192647 0.095791 0.295718
O O7 0.320717 0.091026 0.225008
O O8 0.851501 0.500000 0.250000
O O9 0.877095 0.667392 0.228422
O O10 0.835883 0.583494 0.000000
O O11 0.102875 0.089962 0.500000
O O12 0.085117 0.171167 0.755814
O O13 0.092316 0.000000 0.750000
O O14 0.500000 0.692380 0.750000
O O15 0.574940 0.824766 0.766511
O O16 0.561391 0.727235 0.000000
O O17 0.933531 0.261233 0.500000
O O18 0.000000 0.290336 0.250000
O O19 0.402735 0.917990 0.500000
O O20 0.423475 0.000000 0.750000
#
# Coordination Sequence:
#
# PCOD9392825 Si02
#       7
#     8   8   8   8   8   8   8
#     4   9  18  36  58  82 114 152 190 234 290 345
#     4  10  19  31  52  81 110 146 191 242 293 344
#     4  10  22  40  66  95 123 155 192 239 295 353
#     4  11  23  37  57  86 119 158 204 250 295 348
#     4   9  19  33  51  74 105 145 189 236 287 348
#     4  11  24  43  65  89 122 162 198 243 296 348
#     4  10  20  32  46  68 102 144 189 242 294 346
#
# _framework density 19.381454000000002
#
# number of rings (size 3 to 8) (size 9 to 14) (size 15 to 20)
#    0.000    2.000    1.429    3.000    0.000    8.286 
#    0.000    4.286    0.000    0.429    0.000    3.000 
#    0.000    0.000    0.000    0.000    0.000    0.000 
#
# Total GULP energy -312657.748810 kJ/mol
# GULP energy per Si atom -5583.174086 kJ/mol
# Density = 1.933734 g / cm^3
# Si number density = 19.381454 Si / 1000 Ang^3
#
#
#
# Elastic Constant Matrix: (Units=GPa)
#
#
# Indices 1 2 3 4 5 6 
#
# 1 109.7447 44.1968 35.6694 0.0000 0.0000 0.0000
# 2 44.1968 99.0252 23.1520 0.0000 0.0000 0.0000
# 3 35.6694 23.1520 28.6171 0.0000 0.0000 0.0000
# 4 0.0000 0.0000 0.0000 17.2237 0.0000 0.0000
# 5 0.0000 0.0000 0.0000 0.0000 54.0630 0.0000
# 6 0.0000 0.0000 0.0000 0.0000 0.0000 -5.5621
#
#
#
# Elastic Compliance Matrix: (Units=1/GPa)
#
#
# Indices 1 2 3 4 5 6 
#
# 1 0.016037 -0.003064 -0.017511 0.000000 0.000000 0.000000
# 2 -0.003064 0.013039 -0.006730 0.000000 0.000000 0.000000
# 3 -0.017511 -0.006730 0.062215 0.000000 0.000000 0.000000
# 4 0.000000 0.000000 0.000000 0.058060 0.000000 0.000000
# 5 0.000000 0.000000 0.000000 0.000000 0.018497 0.000000
# 6 0.000000 0.000000 0.000000 0.000000 0.000000 -0.179789
#
#
# Mechanical properties :
#
#
# Convention : Reuss Voigt Hill
#
# Bulk Modulus (GPa) = 27.26132 49.26926 38.26529
# Shear Modulus (GPa) = 91.07992 22.10286 56.59139
#
# Velocity S-wave (km/s) = 6.86261 3.38066 5.40945
# Velocity P-wave (km/s) = 8.76870 6.38079 7.66826
#
# Compressibility (1/GPa) = 0.03668201
#
# Stress axis : x y z
#
# Youngs Moduli (GPa) = 62.35475 76.69058 16.07322
#
# Poissons Ratio (x) = 0.23496 0.28145
# Poissons Ratio (y) = 0.19104 0.10818
# Poissons Ratio (z) = 1.09188 0.51616
#
# Static dielectric constant tensor:
#      x y z
#    x 1.700820 0.000000 0.000000 
#    y 0.000000 1.670870 0.000000 
#    z 0.000000 0.000000 1.649870 
# 
# From -- ./inp_files/4099.got.cif
#   From: 2010.05.17/outbox.cif.g08.bks.cpg/sg49_3_cif.got.tgz:4099.got - 2010.06.03 21:02:19.
