data_PCOD9392337
_publ_section_title
;
Structure prediction by ZEFSAII (Michael W. Deem and Ramdas Pophale) SiO2 
 PCOD9392337
Probable space group: P C C M
;
_chemical_formula_sum "Si O2"
_cell_formula_units_Z 64
_cell_length_a 21.872936
_cell_length_b 18.998368
_cell_length_c 8.880996
_cell_angle_alpha 90.000000
_cell_angle_beta 90.000000
_cell_angle_gamma 90.000000
_cell_volume 3690.498664
_symmetry_space_group_name_H-M "P C C M"
_symmetry_group_IT_number 49
_symmetry_cell_setting 'orthorhombic'
loop_
_space_group_symop_operation_xyz
x,y,z
-x,-y,z
x,-y,1/2-z
-x,y,1/2-z
-x,-y,-z
x,y,-z
-x,y,1/2+z
x,-y,1/2+z
loop_
_atom_site_type_symbol
_atom_site_label
_atom_site_fract_x
_atom_site_fract_y
_atom_site_fract_z
Si Si1 0.187635 0.428539 0.320711
Si Si2 0.236226 0.276135 0.317992
Si Si3 0.236249 0.935333 0.170296
Si Si4 0.432646 0.924598 0.319461
Si Si5 0.339128 0.181089 0.326205
Si Si6 0.064054 0.625664 0.321605
Si Si7 0.096520 0.073837 0.318565
Si Si8 0.889052 0.217287 0.678835
O O1 0.212637 0.500000 0.250000
O O2 0.184192 0.434880 0.500000
O O3 0.225252 0.357947 0.283602
O O4 0.120322 0.414324 0.254434
O O5 0.231807 0.266240 0.500000
O O6 0.304351 0.251281 0.271851
O O7 0.179016 0.233772 0.245488
O O8 0.280183 0.870009 0.173438
O O9 0.168359 0.924415 0.231660
O O10 0.267699 0.000000 0.250000
O O11 0.226045 0.957067 0.000000
O O12 0.500000 0.913064 0.250000
O O13 0.435058 0.930459 0.500000
O O14 0.389572 0.859942 0.269280
O O15 0.411925 0.000000 0.250000
O O16 0.360328 0.188759 0.500000
O O17 0.064615 0.613459 0.500000
O O18 0.075345 0.709369 0.295775
O O19 0.000000 0.604843 0.250000
O O20 0.090598 0.072650 0.500000
O O21 0.077746 0.150218 0.255341
O O22 0.072148 0.000000 0.250000
O O23 0.884243 0.204775 0.500000
#
# Coordination Sequence:
#
# PCOD9392337 Si02
#       8
#     8   8   8   8   8   8   8   8
#     4  10  20  35  56  79 107 139 166 197 240 293
#     4   9  18  33  51  72  99 132 165 197 243 298
#     4   9  17  26  38  58  87 119 152 190 233 280
#     4  11  22  36  51  69  95 135 181 223 264 301
#     4  10  18  31  48  69  96 126 165 210 249 292
#     4  10  21  36  54  77 101 128 166 206 245 293
#     4  10  18  29  43  63  90 122 157 194 240 293
#     4  10  19  31  48  70  97 125 157 202 251 298
#
# _framework density 17.341829000000001
#
# number of rings (size 3 to 8) (size 9 to 14) (size 15 to 20)
#    0.000    2.125    1.250    3.375    0.000    4.750 
#    0.000    1.250    0.000    0.375    0.000    2.625 
#    0.000    0.500    0.000    5.750    0.000    1.750 
#
# Total GULP energy -356772.502599 kJ/mol
# GULP energy per Si atom -5574.570353 kJ/mol
# Density = 1.730236 g / cm^3
# Si number density = 17.341829 Si / 1000 Ang^3
#
#
#
# Elastic Constant Matrix: (Units=GPa)
#
#
# Indices 1 2 3 4 5 6 
#
# 1 73.2707 24.0490 28.1905 0.0000 0.0000 0.0000
# 2 24.0490 113.9629 45.5790 0.0000 0.0000 0.0000
# 3 28.1905 45.5790 64.3650 0.0000 0.0000 0.0000
# 4 0.0000 0.0000 0.0000 26.9262 0.0000 0.0000
# 5 0.0000 0.0000 0.0000 0.0000 21.1936 0.0000
# 6 0.0000 0.0000 0.0000 0.0000 0.0000 6.4983
#
#
#
# Elastic Compliance Matrix: (Units=1/GPa)
#
#
# Indices 1 2 3 4 5 6 
#
# 1 0.016469 -0.000824 -0.006630 0.000000 0.000000 0.000000
# 2 -0.000824 0.012283 -0.008337 0.000000 0.000000 0.000000
# 3 -0.006630 -0.008337 0.024344 0.000000 0.000000 0.000000
# 4 0.000000 0.000000 0.000000 0.037139 0.000000 0.000000
# 5 0.000000 0.000000 0.000000 0.000000 0.047184 0.000000
# 6 0.000000 0.000000 0.000000 0.000000 0.000000 0.153887
#
#
# Mechanical properties :
#
#
# Convention : Reuss Voigt Hill
#
# Bulk Modulus (GPa) = 46.48019 49.69285 48.08652
# Shear Modulus (GPa) = 15.14880 21.17562 18.16221
#
# Velocity S-wave (km/s) = 2.95878 3.49817 3.23972
# Velocity P-wave (km/s) = 6.20750 6.71069 6.46399
#
# Compressibility (1/GPa) = 0.02151454
#
# Stress axis : x y z
#
# Youngs Moduli (GPa) = 60.71940 81.41277 41.07796
#
# Poissons Ratio (x) = 0.06707 0.27234
# Poissons Ratio (y) = 0.05002 0.34248
# Poissons Ratio (z) = 0.40255 0.67876
#
# Static dielectric constant tensor:
#      x y z
#    x 1.598880 0.000000 0.000000 
#    y 0.000000 1.655260 0.000000 
#    z 0.000000 0.000000 1.589070 
# 
# From -- ./inp_files/6648.got.cif
#   From: 2010.05.17/outbox.cif.g08.bks.cpg/sg49_4_cif.got.tgz:6648.got - 2010.06.03 21:02:19.
