data_PCOD9392155
_publ_section_title
;
Structure prediction by ZEFSAII (Michael W. Deem and Ramdas Pophale) SiO2 
 PCOD9392155
Probable space group: P C C M
;
_chemical_formula_sum "Si O2"
_cell_formula_units_Z 58
_cell_length_a 14.838923
_cell_length_b 25.368648
_cell_length_c 8.711862
_cell_angle_alpha 90.000000
_cell_angle_beta 90.000000
_cell_angle_gamma 90.000000
_cell_volume 3279.523076
_symmetry_space_group_name_H-M "P C C M"
_symmetry_group_IT_number 49
_symmetry_cell_setting 'orthorhombic'
loop_
_space_group_symop_operation_xyz
x,y,z
-x,-y,z
x,-y,1/2-z
-x,y,1/2-z
-x,-y,-z
x,y,-z
-x,y,1/2+z
x,-y,1/2+z
loop_
_atom_site_type_symbol
_atom_site_label
_atom_site_fract_x
_atom_site_fract_y
_atom_site_fract_z
Si Si1 0.359758 0.580098 0.164879
Si Si2 0.406215 0.676711 0.325116
Si Si3 0.603007 0.166217 0.814397
Si Si4 0.398166 0.946230 0.315504
Si Si5 0.744633 0.258038 0.180160
Si Si6 0.500000 0.500000 0.750000
Si Si7 0.849937 0.443211 0.178822
Si Si8 0.902136 0.671883 0.816514
O O1 0.392808 0.614543 0.308148
O O2 0.431509 0.534679 0.155298
O O3 0.258845 0.559745 0.185665
O O4 0.363376 0.609345 0.000000
O O5 0.500000 0.692494 0.250000
O O6 0.399190 0.694514 0.500000
O O7 0.327141 0.697249 0.219202
O O8 0.500000 0.176952 0.750000
O O9 0.634709 0.109563 0.749449
O O10 0.683123 0.207268 0.772299
O O11 0.595022 0.165259 0.000000
O O12 0.500000 0.946918 0.250000
O O13 0.398791 0.946900 0.500000
O O14 0.354656 0.000000 0.250000
O O15 0.833005 0.282114 0.261760
O O16 0.763800 0.252683 0.000000
O O17 0.878377 0.500000 0.250000
O O18 0.879729 0.387815 0.256642
O O19 0.877769 0.441799 0.000000
O O20 0.000000 0.684747 0.750000
O O21 0.901265 0.670277 0.000000
#
# Coordination Sequence:
#
# PCOD9392155 Si02
#       8
#     8   8   8   8   8   2   8   8
#     4  11  23  36  53  76 106 137 172 212 255 312
#     4  12  24  36  54  77 106 142 182 220 265 321
#     4  10  20  33  52  80 116 157 201 243 283 330
#     4  10  17  27  45  70 108 155 204 249 288 328
#     4  11  23  40  60  83 113 146 184 231 282 336
#     4  12  22  36  56  78 108 140 182 212 264 312
#     4  11  23  41  63  87 114 139 172 216 271 333
#     4  12  26  45  68  90 112 140 178 226 288 351
#
# _framework density 17.685497999999999
#
# number of rings (size 3 to 8) (size 9 to 14) (size 15 to 20)
#    0.000    0.966    2.759    6.828    0.000    4.690 
#    0.000    1.379    0.000    0.000    0.000    0.000 
#    0.000    0.552    0.000    5.793    0.000    2.483 
#
# Total GULP energy -323208.561650 kJ/mol
# GULP energy per Si atom -5572.561408 kJ/mol
# Density = 1.764524 g / cm^3
# Si number density = 17.685498 Si / 1000 Ang^3
#
#
#
# Elastic Constant Matrix: (Units=GPa)
#
#
# Indices 1 2 3 4 5 6 
#
# 1 97.4555 55.6794 35.0538 0.0000 0.0000 0.0000
# 2 55.6794 120.0838 57.6636 0.0000 0.0000 0.0000
# 3 35.0538 57.6636 112.8635 0.0000 0.0000 0.0000
# 4 0.0000 0.0000 0.0000 22.8371 0.0000 0.0000
# 5 0.0000 0.0000 0.0000 0.0000 41.7188 0.0000
# 6 0.0000 0.0000 0.0000 0.0000 0.0000 4.9636
#
#
#
# Elastic Compliance Matrix: (Units=1/GPa)
#
#
# Indices 1 2 3 4 5 6 
#
# 1 0.014119 -0.005885 -0.001379 0.000000 0.000000 0.000000
# 2 -0.005885 0.013487 -0.005063 0.000000 0.000000 0.000000
# 3 -0.001379 -0.005063 0.011875 0.000000 0.000000 0.000000
# 4 0.000000 0.000000 0.000000 0.043788 0.000000 0.000000
# 5 0.000000 0.000000 0.000000 0.000000 0.023970 0.000000
# 6 0.000000 0.000000 0.000000 0.000000 0.000000 0.201466
#
#
# Mechanical properties :
#
#
# Convention : Reuss Voigt Hill
#
# Bulk Modulus (GPa) = 67.43630 69.68850 68.56240
# Shear Modulus (GPa) = 14.77969 26.03763 20.40866
#
# Velocity S-wave (km/s) = 2.89398 3.84117 3.40071
# Velocity P-wave (km/s) = 7.02712 7.69172 7.36692
#
# Compressibility (1/GPa) = 0.01482881
#
# Stress axis : x y z
#
# Youngs Moduli (GPa) = 70.82643 74.14354 84.20817
#
# Poissons Ratio (x) = 0.43630 0.11610
# Poissons Ratio (y) = 0.41678 0.42636
# Poissons Ratio (z) = 0.09765 0.37541
#
# Static dielectric constant tensor:
#      x y z
#    x 1.574140 0.000000 0.000000 
#    y 0.000000 1.731730 0.000000 
#    z 0.000000 0.000000 1.738360 
# 
# From -- ./inp_files/4458.got.cif
#   From: 2010.05.17/outbox.cif.g08.bks.cpg/sg49_3_cif.got.tgz:4458.got - 2010.06.03 21:02:19.
