data_PCOD9392615
_publ_section_title
;
Structure prediction by ZEFSAII (Michael W. Deem and Ramdas Pophale) SiO2 
 PCOD9392615
Probable space group: P C C M
;
_chemical_formula_sum "Si O2"
_cell_formula_units_Z 56
_cell_length_a 23.614492
_cell_length_b 17.548346
_cell_length_c 9.066586
_cell_angle_alpha 90.000000
_cell_angle_beta 90.000000
_cell_angle_gamma 90.000000
_cell_volume 3757.150410
_symmetry_space_group_name_H-M "P C C M"
_symmetry_group_IT_number 49
_symmetry_cell_setting 'orthorhombic'
loop_
_space_group_symop_operation_xyz
x,y,z
-x,-y,z
x,-y,1/2-z
-x,y,1/2-z
-x,-y,-z
x,y,-z
-x,y,1/2+z
x,-y,1/2+z
loop_
_atom_site_type_symbol
_atom_site_label
_atom_site_fract_x
_atom_site_fract_y
_atom_site_fract_z
Si Si1 0.316436 0.915544 0.675879
Si Si2 0.940369 0.583919 0.678909
Si Si3 0.133881 0.069280 0.336169
Si Si4 0.146664 0.304371 0.169475
Si Si5 0.946018 0.170385 0.665126
Si Si6 0.770648 0.198087 0.831603
Si Si7 0.445705 0.916827 0.325262
O O1 0.305816 0.923439 0.500000
O O2 0.276526 0.851286 0.746833
O O3 0.381711 0.888311 0.696387
O O4 0.309709 0.000000 0.750000
O O5 0.933579 0.500000 0.750000
O O6 0.944511 0.581808 0.500000
O O7 0.887185 0.634067 0.733009
O O8 0.000000 0.612772 0.750000
O O9 0.119438 0.044705 0.500000
O O10 0.079346 0.098242 0.249477
O O11 0.177143 0.138889 0.342477
O O12 0.161736 0.000000 0.250000
O O13 0.102663 0.233841 0.161353
O O14 0.203421 0.270417 0.244415
O O15 0.156230 0.330083 0.000000
O O16 0.962211 0.150328 0.500000
O O17 0.000000 0.200965 0.750000
O O18 0.753642 0.217088 0.000000
O O19 0.500000 0.877005 0.250000
O O20 0.455611 0.923280 0.500000
O O21 0.443461 0.000000 0.250000
#
# Coordination Sequence:
#
# PCOD9392615 Si02
#       7
#     8   8   8   8   8   8   8
#     4  10  19  29  42  61  84 112 147 188 228 266
#     4  11  21  34  52  74  97 118 142 171 207 252
#     4  10  20  32  44  57  74  95 125 164 205 246
#     4  10  20  34  50  67  88 112 136 167 206 249
#     4  10  20  32  46  61  77  98 125 157 197 243
#     4  10  20  32  46  63  82 108 140 174 212 255
#     4   9  16  25  38  56  79 107 140 179 224 267
#
# _framework density 14.904913000000001
#
# number of rings (size 3 to 8) (size 9 to 14) (size 15 to 20)
#    0.000    2.000    0.000    5.571    0.000    7.714 
#    0.000    1.429    0.000    0.000    0.000    0.000 
#    0.000    0.000    0.000    0.000    0.000    0.714 
#
# Total GULP energy -311992.685395 kJ/mol
# GULP energy per Si atom -5571.297953 kJ/mol
# Density = 1.487099 g / cm^3
# Si number density = 14.904913 Si / 1000 Ang^3
#
#
#
# Elastic Constant Matrix: (Units=GPa)
#
#
# Indices 1 2 3 4 5 6 
#
# 1 87.9777 23.5048 57.1077 0.0000 0.0000 0.0000
# 2 23.5048 41.3211 32.8850 0.0000 0.0000 0.0000
# 3 57.1077 32.8850 147.3201 0.0000 0.0000 0.0000
# 4 0.0000 0.0000 0.0000 13.9032 0.0000 0.0000
# 5 0.0000 0.0000 0.0000 0.0000 18.3645 0.0000
# 6 0.0000 0.0000 0.0000 0.0000 0.0000 10.1573
#
#
#
# Elastic Compliance Matrix: (Units=1/GPa)
#
#
# Indices 1 2 3 4 5 6 
#
# 1 0.016017 -0.005070 -0.005077 0.000000 0.000000 0.000000
# 2 -0.005070 0.031034 -0.004962 0.000000 0.000000 0.000000
# 3 -0.005077 -0.004962 0.009864 0.000000 0.000000 0.000000
# 4 0.000000 0.000000 0.000000 0.071926 0.000000 0.000000
# 5 0.000000 0.000000 0.000000 0.000000 0.054453 0.000000
# 6 0.000000 0.000000 0.000000 0.000000 0.000000 0.098451
#
#
# Mechanical properties :
#
#
# Convention : Reuss Voigt Hill
#
# Bulk Modulus (GPa) = 37.45933 55.95708 46.70820
# Shear Modulus (GPa) = 15.58310 19.35978 17.47144
#
# Velocity S-wave (km/s) = 3.23693 3.60792 3.42745
# Velocity P-wave (km/s) = 6.25756 7.41487 6.86066
#
# Compressibility (1/GPa) = 0.02669562
#
# Stress axis : x y z
#
# Youngs Moduli (GPa) = 62.43484 32.22293 101.38291
#
# Poissons Ratio (x) = 0.16338 0.51472
# Poissons Ratio (y) = 0.31657 0.50305
# Poissons Ratio (z) = 0.31698 0.15989
#
# Static dielectric constant tensor:
#      x y z
#    x 1.525100 0.000000 0.000000 
#    y 0.000000 1.488900 0.000000 
#    z 0.000000 0.000000 1.527820 
# 
# From -- ./inp_files/5364.got.cif
#   From: 2010.05.17/outbox.cif.g08.bks.cpg/sg49_3_cif.got.tgz:5364.got - 2010.06.03 21:02:19.
