data_PCOD9392196
_publ_section_title
;
Structure prediction by ZEFSAII (Michael W. Deem and Ramdas Pophale) SiO2 
 PCOD9392196
Probable space group: P C C M
;
_chemical_formula_sum "Si O2"
_cell_formula_units_Z 58
_cell_length_a 27.532834
_cell_length_b 13.406204
_cell_length_c 8.454701
_cell_angle_alpha 90.000000
_cell_angle_beta 90.000000
_cell_angle_gamma 90.000000
_cell_volume 3120.721359
_symmetry_space_group_name_H-M "P C C M"
_symmetry_group_IT_number 49
_symmetry_cell_setting 'orthorhombic'
loop_
_space_group_symop_operation_xyz
x,y,z
-x,-y,z
x,-y,1/2-z
-x,y,1/2-z
-x,-y,-z
x,y,-z
-x,y,1/2+z
x,-y,1/2+z
loop_
_atom_site_type_symbol
_atom_site_label
_atom_site_fract_x
_atom_site_fract_y
_atom_site_fract_z
Si Si1 0.576320 0.390872 0.186866
Si Si2 0.153942 0.885799 0.688399
Si Si3 0.247778 0.222791 0.316537
Si Si4 0.500000 0.000000 0.750000
Si Si5 0.949500 0.885755 0.688469
Si Si6 0.563980 0.179248 0.684687
Si Si7 0.685915 0.603989 0.813161
Si Si8 0.331012 0.896702 0.683449
O O1 0.560597 0.500000 0.250000
O O2 0.552967 0.292636 0.266174
O O3 0.634347 0.384917 0.223736
O O4 0.568522 0.386202 0.000000
O O5 0.154146 0.889929 0.500000
O O6 0.196972 0.815705 0.749710
O O7 0.101657 0.846083 0.747703
O O8 0.160471 0.000000 0.750000
O O9 0.243369 0.248888 0.500000
O O10 0.275102 0.310896 0.223867
O O11 0.286185 0.133850 0.291255
O O12 0.540096 0.089316 0.786997
O O13 0.949464 0.886105 0.500000
O O14 0.000000 0.839583 0.750000
O O15 0.949657 0.000000 0.750000
O O16 0.550652 0.158959 0.500000
O O17 0.622294 0.173435 0.694156
O O18 0.706628 0.500000 0.750000
O O19 0.675572 0.601020 0.000000
O O20 0.315857 0.900842 0.500000
O O21 0.349462 0.000000 0.750000
#
# Coordination Sequence:
#
# PCOD9392196 Si02
#       8
#     8   8   8   2   8   8   8   8
#     4  11  22  39  66  94 122 152 188 233 282 339
#     4  11  21  34  49  71 105 146 189 236 285 335
#     4  12  23  36  53  78 110 147 187 228 278 335
#     4  12  26  48  70  94 122 156 196 240 292 336
#     4  10  17  28  45  67  95 135 185 236 285 335
#     4  11  24  42  65  91 121 152 190 234 283 339
#     4  11  21  36  57  84 114 145 182 225 274 330
#     4  11  22  37  56  80 112 148 188 229 272 332
#
# _framework density 18.585446999999998
#
# number of rings (size 3 to 8) (size 9 to 14) (size 15 to 20)
#    0.000    0.966    2.069    9.310    0.000    1.655 
#    0.000    0.345    0.000    1.655    0.000    0.000 
#    0.000    0.552    0.000    5.517    0.000    3.310 
#
# Total GULP energy -323496.812053 kJ/mol
# GULP energy per Si atom -5577.531242 kJ/mol
# Density = 1.854315 g / cm^3
# Si number density = 18.585447 Si / 1000 Ang^3
#
#
#
# Elastic Constant Matrix: (Units=GPa)
#
#
# Indices 1 2 3 4 5 6 
#
# 1 117.7395 12.4219 14.1607 0.0000 0.0000 0.0000
# 2 12.4219 91.2242 -0.4922 0.0000 0.0000 0.0000
# 3 14.1607 -0.4922 91.4623 0.0000 0.0000 0.0000
# 4 0.0000 0.0000 0.0000 4.2074 0.0000 0.0000
# 5 0.0000 0.0000 0.0000 0.0000 54.8202 0.0000
# 6 0.0000 0.0000 0.0000 0.0000 0.0000 -173.7240
#
#
#
# Elastic Compliance Matrix: (Units=1/GPa)
#
#
# Indices 1 2 3 4 5 6 
#
# 1 0.008785 -0.001204 -0.001367 0.000000 0.000000 0.000000
# 2 -0.001204 0.011127 0.000246 0.000000 0.000000 0.000000
# 3 -0.001367 0.000246 0.011146 0.000000 0.000000 0.000000
# 4 0.000000 0.000000 0.000000 0.237678 0.000000 0.000000
# 5 0.000000 0.000000 0.000000 0.000000 0.018241 0.000000
# 6 0.000000 0.000000 0.000000 0.000000 0.000000 -0.005756
#
#
# Mechanical properties :
#
#
# Convention : Reuss Voigt Hill
#
# Bulk Modulus (GPa) = 37.86385 39.17855 38.52120
# Shear Modulus (GPa) = 16.96797 -4.65025 6.15886
#
# Velocity S-wave (km/s) = 3.02482 -1.58352 1.82236
# Velocity P-wave (km/s) = 5.71108 4.21695 5.01991
#
# Compressibility (1/GPa) = 0.02641042
#
# Stress axis : x y z
#
# Youngs Moduli (GPa) = 113.83474 89.86972 89.71526
#
# Poissons Ratio (x) = 0.10816 0.12260
# Poissons Ratio (y) = 0.13701 -0.02209
# Poissons Ratio (z) = 0.15556 -0.02213
#
# Static dielectric constant tensor:
#      x y z
#    x 1.655930 0.000000 0.000000 
#    y 0.000000 1.754880 0.000000 
#    z 0.000000 0.000000 1.656490 
# 
# From -- ./inp_files/6979.got.cif
#   From: 2010.05.17/outbox.cif.g08.bks.cpg/sg49_4_cif.got.tgz:6979.got - 2010.06.03 21:02:19.
