data_PCOD9392032
_publ_section_title
;
Structure prediction by ZEFSAII (Michael W. Deem and Ramdas Pophale) SiO2 
 PCOD9392032
Probable space group: P C C M
;
_chemical_formula_sum "Si O2"
_cell_formula_units_Z 64
_cell_length_a 32.279106
_cell_length_b 14.815357
_cell_length_c 8.584703
_cell_angle_alpha 90.000000
_cell_angle_beta 90.000000
_cell_angle_gamma 90.000000
_cell_volume 4105.432289
_symmetry_space_group_name_H-M "P C C M"
_symmetry_group_IT_number 49
_symmetry_cell_setting 'orthorhombic'
loop_
_space_group_symop_operation_xyz
x,y,z
-x,-y,z
x,-y,1/2-z
-x,y,1/2-z
-x,-y,-z
x,y,-z
-x,y,1/2+z
x,-y,1/2+z
loop_
_atom_site_type_symbol
_atom_site_label
_atom_site_fract_x
_atom_site_fract_y
_atom_site_fract_z
Si Si1 0.922492 0.096095 0.187617
Si Si2 0.875418 0.600970 0.687866
Si Si3 0.793152 0.711849 0.311147
Si Si4 0.715494 0.397878 0.685677
Si Si5 0.174200 0.096259 0.687491
Si Si6 0.457110 0.603191 0.313938
Si Si7 0.044109 0.287488 0.311850
Si Si8 0.371516 0.602796 0.813973
O O1 0.874144 0.106906 0.235655
O O2 0.947205 0.184385 0.240161
O O3 0.937668 0.000000 0.250000
O O4 0.923372 0.093898 0.000000
O O5 0.873271 0.500000 0.750000
O O6 0.876045 0.599159 0.500000
O O7 0.834771 0.657490 0.733254
O O8 0.917258 0.651397 0.739861
O O9 0.789602 0.708512 0.500000
O O10 0.753705 0.663627 0.237398
O O11 0.800142 0.815851 0.263665
O O12 0.721670 0.500000 0.750000
O O13 0.712255 0.403198 0.500000
O O14 0.672294 0.359945 0.754820
O O15 0.174375 0.094114 0.500000
O O16 0.189056 0.000000 0.750000
O O17 0.456862 0.500000 0.250000
O O18 0.500000 0.644199 0.250000
O O19 0.457567 0.600861 0.500000
O O20 0.413991 0.644449 0.252720
O O21 0.043629 0.287967 0.500000
O O22 0.000000 0.319099 0.250000
O O23 0.370790 0.500000 0.750000
O O24 0.373066 0.601452 0.000000
#
# Coordination Sequence:
#
# PCOD9392032 Si02
#       8
#     8   8   8   8   8   8   8   8
#     4   9  17  32  52  73  96 121 144 172 211 256
#     4  10  21  37  54  70  91 117 148 184 222 261
#     4  10  19  34  53  71  93 120 147 182 225 267
#     4  11  21  32  45  65  91 120 154 193 233 276
#     4   9  17  31  52  74  96 120 144 175 216 261
#     4  10  16  23  34  51  74 104 145 193 240 283
#     4  10  21  37  53  70  94 121 147 177 216 261
#     4  10  17  27  40  55  78 111 149 191 237 281
#
# _framework density 15.589100999999999
#
# number of rings (size 3 to 8) (size 9 to 14) (size 15 to 20)
#    0.000    2.125    1.250    5.625    0.000    3.500 
#    0.000    2.500    0.000    0.000    0.000    0.000 
#    0.000    0.000    0.000    0.000    0.000    0.625 
#
# Total GULP energy -356919.575610 kJ/mol
# GULP energy per Si atom -5576.868369 kJ/mol
# Density = 1.555362 g / cm^3
# Si number density = 15.589101 Si / 1000 Ang^3
#
#
#
# Elastic Constant Matrix: (Units=GPa)
#
#
# Indices 1 2 3 4 5 6 
#
# 1 143.5252 51.2264 43.8777 0.0000 0.0000 0.0000
# 2 51.2264 80.1478 22.6729 0.0000 0.0000 0.0000
# 3 43.8777 22.6729 72.0485 0.0000 0.0000 0.0000
# 4 0.0000 0.0000 0.0000 19.0372 0.0000 0.0000
# 5 0.0000 0.0000 0.0000 0.0000 29.4152 0.0000
# 6 0.0000 0.0000 0.0000 0.0000 0.0000 3.1187
#
#
#
# Elastic Compliance Matrix: (Units=1/GPa)
#
#
# Indices 1 2 3 4 5 6 
#
# 1 0.010243 -0.005250 -0.004586 0.000000 0.000000 0.000000
# 2 -0.005250 0.016387 -0.001960 0.000000 0.000000 0.000000
# 3 -0.004586 -0.001960 0.017289 0.000000 0.000000 0.000000
# 4 0.000000 0.000000 0.000000 0.052529 0.000000 0.000000
# 5 0.000000 0.000000 0.000000 0.000000 0.033996 0.000000
# 6 0.000000 0.000000 0.000000 0.000000 0.000000 0.320643
#
#
# Mechanical properties :
#
#
# Convention : Reuss Voigt Hill
#
# Bulk Modulus (GPa) = 49.19281 59.03064 54.11173
# Shear Modulus (GPa) = 10.38522 22.17720 16.28121
#
# Velocity S-wave (km/s) = 2.58386 3.77584 3.23522
# Velocity P-wave (km/s) = 6.36602 7.54706 6.98156
#
# Compressibility (1/GPa) = 0.02032817
#
# Stress axis : x y z
#
# Youngs Moduli (GPa) = 97.62682 61.02568 57.83963
#
# Poissons Ratio (x) = 0.32035 0.26526
# Poissons Ratio (y) = 0.51249 0.11335
# Poissons Ratio (z) = 0.44773 0.11959
#
# Static dielectric constant tensor:
#      x y z
#    x 1.557630 0.000000 0.000000 
#    y 0.000000 1.500780 0.000000 
#    z 0.000000 0.000000 1.528460 
# 
# From -- ./inp_files/7074.got.cif
#   From: 2010.05.17/outbox.cif.g08.bks.cpg/sg49_4_cif.got.tgz:7074.got - 2010.06.03 21:02:19.
