data_PCOD9392056
_publ_section_title
;
Structure prediction by ZEFSAII (Michael W. Deem and Ramdas Pophale) SiO2 
 PCOD9392056
Probable space group: P C C M
;
_chemical_formula_sum "Si O2"
_cell_formula_units_Z 48
_cell_length_a 15.716596
_cell_length_b 5.579295
_cell_length_c 22.597377
_cell_angle_alpha 90.000000
_cell_angle_beta 90.000000
_cell_angle_gamma 90.000000
_cell_volume 1981.508071
_symmetry_space_group_name_H-M "P C C M"
_symmetry_group_IT_number 49
_symmetry_cell_setting 'orthorhombic'
loop_
_space_group_symop_operation_xyz
x,y,z
-x,-y,z
x,-y,1/2-z
-x,y,1/2-z
-x,-y,-z
x,y,-z
-x,y,1/2+z
x,-y,1/2+z
loop_
_atom_site_type_symbol
_atom_site_label
_atom_site_fract_x
_atom_site_fract_y
_atom_site_fract_z
Si Si1 0.014537 0.750742 0.894404
Si Si2 0.176455 0.430903 0.500000
Si Si3 0.790582 0.367509 0.868548
Si Si4 0.904998 0.751810 0.776541
Si Si5 0.727969 0.131305 0.623261
Si Si6 0.449070 0.252501 0.069213
Si Si7 0.169850 0.070085 0.000000
O O1 0.110491 0.719117 0.868401
O O2 0.000000 0.500000 0.924697
O O3 0.938603 0.764348 0.844720
O O4 0.000000 0.000000 0.925496
O O5 0.228917 0.414821 0.560995
O O6 0.126674 0.675956 0.500000
O O7 0.126018 0.184857 0.500000
O O8 0.771626 0.637954 0.844538
O O9 0.737331 0.134647 0.848251
O O10 0.869026 0.500000 0.750000
O O11 0.000000 0.750843 0.750000
O O12 0.866145 0.000000 0.750000
O O13 0.632715 0.213727 0.610060
O O14 0.773868 0.084846 0.559728
O O15 0.500000 0.500000 0.083292
O O16 0.500000 0.000000 0.073188
O O17 0.422896 0.277006 0.000000
#
# Coordination Sequence:
#
# PCOD9392056 Si02
#       7
#     8   4   8   8   8   8   4
#     4  12  21  33  49  70  96 112 158 211 232 269
#     4   8  16  30  42  56  76 106 162 182 224 278
#     4  10  21  31  48  65  83 127 162 197 237 276
#     4  10  16  30  49  71  88 118 141 175 228 308
#     4  10  17  32  44  62  90 119 157 183 238 287
#     4  10  19  28  44  71  93 111 147 203 248 272
#     4   8  14  24  44  56  72 110 142 188 210 266
#
# _framework density 24.223973000000001
#
# number of rings (size 3 to 8) (size 9 to 14) (size 15 to 20)
#    0.000    2.000    4.167    2.000    0.000    0.000 
#    0.000    0.833    0.000    0.000    0.000    0.000 
#    0.000    0.000    0.000    0.000    0.000   58.333 
#
# Total GULP energy -267463.374562 kJ/mol
# GULP energy per Si atom -5572.153637 kJ/mol
# Density = 2.416884 g / cm^3
# Si number density = 24.223973 Si / 1000 Ang^3
#
#
#
# Elastic Constant Matrix: (Units=GPa)
#
#
# Indices 1 2 3 4 5 6 
#
# 1 86.4265 35.9065 -14.5116 0.0000 0.0000 0.0000
# 2 35.9065 313.4966 -7.0160 0.0000 0.0000 0.0000
# 3 -14.5116 -7.0160 31.2576 0.0000 0.0000 0.0000
# 4 0.0000 0.0000 0.0000 1.7376 0.0000 0.0000
# 5 0.0000 0.0000 0.0000 0.0000 -16.7214 0.0000
# 6 0.0000 0.0000 0.0000 0.0000 0.0000 33.0199
#
#
#
# Elastic Compliance Matrix: (Units=1/GPa)
#
#
# Indices 1 2 3 4 5 6 
#
# 1 0.013111 -0.001372 0.005779 0.000000 0.000000 0.000000
# 2 -0.001372 0.003350 0.000115 0.000000 0.000000 0.000000
# 3 0.005779 0.000115 0.034701 0.000000 0.000000 0.000000
# 4 0.000000 0.000000 0.000000 0.575501 0.000000 0.000000
# 5 0.000000 0.000000 0.000000 0.000000 -0.059804 0.000000
# 6 0.000000 0.000000 0.000000 0.000000 0.000000 0.030285
#
#
# Mechanical properties :
#
#
# Convention : Reuss Voigt Hill
#
# Bulk Modulus (GPa) = 16.61026 51.10430 33.85728
# Shear Modulus (GPa) = 8.22139 31.39400 19.80770
#
# Velocity S-wave (km/s) = 1.84425 3.60389 2.86263
# Velocity P-wave (km/s) = 3.37741 6.20159 4.99333
#
# Compressibility (1/GPa) = 0.06020375
#
# Stress axis : x y z
#
# Youngs Moduli (GPa) = 76.27195 298.54522 28.81778
#
# Poissons Ratio (x) = 0.40971 -0.16653
# Poissons Ratio (y) = 0.10467 -0.00331
# Poissons Ratio (z) = -0.44076 -0.03425
#
# Static dielectric constant tensor:
#      x y z
#    x 2.202720 0.000000 0.000000 
#    y 0.000000 2.079710 0.000000 
#    z 0.000000 0.000000 2.157550 
# 
# From -- ./inp_files/25050.got.cif
#   From: 2010.05.17/outbox.cif.g08.bks.cpg/sg49_13_cif.got.tgz:25050.got - 2010.06.03 21:02:19.
