data_PCOD9392583
_publ_section_title
;
Structure prediction by ZEFSAII (Michael W. Deem and Ramdas Pophale) SiO2 
 PCOD9392583
Probable space group: P C C M
;
_chemical_formula_sum "Si O2"
_cell_formula_units_Z 64
_cell_length_a 8.760850
_cell_length_b 11.625019
_cell_length_c 28.207301
_cell_angle_alpha 90.000000
_cell_angle_beta 90.000000
_cell_angle_gamma 90.000000
_cell_volume 2872.773916
_symmetry_space_group_name_H-M "P C C M"
_symmetry_group_IT_number 49
_symmetry_cell_setting 'orthorhombic'
loop_
_space_group_symop_operation_xyz
x,y,z
-x,-y,z
x,-y,1/2-z
-x,y,1/2-z
-x,-y,-z
x,y,-z
-x,y,1/2+z
x,-y,1/2+z
loop_
_atom_site_type_symbol
_atom_site_label
_atom_site_fract_x
_atom_site_fract_y
_atom_site_fract_z
Si Si1 0.701817 0.121539 0.849208
Si Si2 0.704002 0.757259 0.087120
Si Si3 0.178271 0.480451 0.898210
Si Si4 0.652903 0.130565 0.680368
Si Si5 0.415917 0.625086 0.054250
Si Si6 0.839498 0.799280 0.260622
Si Si7 0.315844 0.987818 0.946533
Si Si8 0.832679 0.440605 0.292991
O O1 0.523310 0.137834 0.835624
O O2 0.803358 0.205687 0.816584
O O3 0.730498 0.102299 0.905300
O O4 0.726769 0.992369 0.830389
O O5 0.791264 0.639802 0.074105
O O6 0.729349 0.783589 0.142537
O O7 0.529141 0.718316 0.076739
O O8 0.738642 0.879797 0.062524
O O9 0.263105 0.592161 0.918415
O O10 0.237257 0.459187 0.844496
O O11 0.000000 0.500000 0.898170
O O12 0.690033 0.149650 0.734999
O O13 0.500000 0.500000 0.054917
O O14 0.388260 0.657406 0.000000
O O15 0.855981 0.684555 0.228949
O O16 0.000000 0.861485 0.250000
O O17 0.500000 0.000000 0.942470
O O18 0.276640 0.952665 0.000000
O O19 0.741790 0.500000 0.250000
O O20 0.000000 0.500000 0.296944
#
# Coordination Sequence:
#
# PCOD9392583 Si02
#       8
#     8   8   8   8   8   8   8   8
#     4  10  21  39  61  94 130 160 208 269 319 382
#     4  10  18  36  62  90 126 166 217 265 326 391
#     4  10  21  37  61  88 127 172 215 269 326 396
#     4  10  20  39  58  90 126 164 202 265 323 377
#     4   9  19  35  58  90 121 157 212 275 321 374
#     4  12  23  37  64  91 123 173 216 257 317 390
#     4  10  19  37  66  97 127 169 217 269 336 396
#     4  10  20  39  56  79 119 166 211 249 303 376
#
# _framework density 22.278119
#
# number of rings (size 3 to 8) (size 9 to 14) (size 15 to 20)
#    0.000    1.875    5.000    1.125    0.000    3.750 
#    0.000    0.000    0.000    0.000    0.000   10.500 
#    0.000    0.500    0.000    0.000    0.000    0.000 
#
# Total GULP energy -356401.296450 kJ/mol
# GULP energy per Si atom -5568.770257 kJ/mol
# Density = 2.222741 g / cm^3
# Si number density = 22.278119 Si / 1000 Ang^3
#
#
#
# Elastic Constant Matrix: (Units=GPa)
#
#
# Indices 1 2 3 4 5 6 
#
# 1 47.4820 15.8010 34.5834 0.0000 0.0000 0.0000
# 2 15.8010 68.2050 31.0209 0.0000 0.0000 0.0000
# 3 34.5834 31.0209 165.4324 0.0000 0.0000 0.0000
# 4 0.0000 0.0000 0.0000 20.0585 0.0000 0.0000
# 5 0.0000 0.0000 0.0000 0.0000 6.5854 0.0000
# 6 0.0000 0.0000 0.0000 0.0000 0.0000 11.2229
#
#
#
# Elastic Compliance Matrix: (Units=1/GPa)
#
#
# Indices 1 2 3 4 5 6 
#
# 1 0.025733 -0.003843 -0.004659 0.000000 0.000000 0.000000
# 2 -0.003843 0.016602 -0.002310 0.000000 0.000000 0.000000
# 3 -0.004659 -0.002310 0.007452 0.000000 0.000000 0.000000
# 4 0.000000 0.000000 0.000000 0.049854 0.000000 0.000000
# 5 0.000000 0.000000 0.000000 0.000000 0.151852 0.000000
# 6 0.000000 0.000000 0.000000 0.000000 0.000000 0.089104
#
#
# Mechanical properties :
#
#
# Convention : Reuss Voigt Hill
#
# Bulk Modulus (GPa) = 35.50593 49.32556 42.41575
# Shear Modulus (GPa) = 13.45506 20.88761 17.17133
#
# Velocity S-wave (km/s) = 2.46022 3.06532 2.77929
# Velocity P-wave (km/s) = 4.90331 5.89213 5.42031
#
# Compressibility (1/GPa) = 0.02816431
#
# Stress axis : x y z
#
# Youngs Moduli (GPa) = 38.86128 60.23197 134.19523
#
# Poissons Ratio (x) = 0.23144 0.62519
# Poissons Ratio (y) = 0.14933 0.30998
# Poissons Ratio (z) = 0.18105 0.13913
#
# Static dielectric constant tensor:
#      x y z
#    x 1.851970 0.000000 0.000000 
#    y 0.000000 2.069440 0.000000 
#    z 0.000000 0.000000 1.895550 
# 
# From -- ./inp_files/26458.got.cif
#   From: 2010.05.17/outbox.cif.g08.bks.cpg/sg49_14_cif.got.tgz:26458.got - 2010.06.03 21:02:19.
