data_PCOD9392847
_publ_section_title
;
Structure prediction by ZEFSAII (Michael W. Deem and Ramdas Pophale) SiO2 
 PCOD9392847
Probable space group: P C C M
;
_chemical_formula_sum "Si O2"
_cell_formula_units_Z 64
_cell_length_a 27.768318
_cell_length_b 18.981897
_cell_length_c 8.620219
_cell_angle_alpha 90.000000
_cell_angle_beta 90.000000
_cell_angle_gamma 90.000000
_cell_volume 4543.677369
_symmetry_space_group_name_H-M "P C C M"
_symmetry_group_IT_number 49
_symmetry_cell_setting 'orthorhombic'
loop_
_space_group_symop_operation_xyz
x,y,z
-x,-y,z
x,-y,1/2-z
-x,y,1/2-z
-x,-y,-z
x,y,-z
-x,y,1/2+z
x,-y,1/2+z
loop_
_atom_site_type_symbol
_atom_site_label
_atom_site_fract_x
_atom_site_fract_y
_atom_site_fract_z
Si Si1 0.252062 0.844178 0.310604
Si Si2 0.644391 0.578253 0.812518
Si Si3 0.600134 0.792815 0.821742
Si Si4 0.154868 0.079363 0.812938
Si Si5 0.552106 0.340023 0.184335
Si Si6 0.701410 0.292806 0.321957
Si Si7 0.346635 0.078036 0.685225
Si Si8 0.049119 0.920018 0.685640
O O1 0.255174 0.844225 0.500000
O O2 0.200531 0.874743 0.263350
O O3 0.261654 0.764093 0.254100
O O4 0.295413 0.892750 0.248628
O O5 0.650431 0.500000 0.750000
O O6 0.593777 0.610954 0.756144
O O7 0.686229 0.631961 0.754183
O O8 0.644614 0.579160 0.000000
O O9 0.564451 0.740383 0.733451
O O10 0.651049 0.750536 0.824172
O O11 0.612929 0.866884 0.743574
O O12 0.584841 0.802058 0.000000
O O13 0.101888 0.108651 0.769008
O O14 0.159716 0.000000 0.750000
O O15 0.155813 0.075575 0.000000
O O16 0.500000 0.359272 0.250000
O O17 0.553037 0.346343 0.000000
O O18 0.716328 0.305479 0.500000
O O19 0.345327 0.077265 0.500000
O O20 0.354660 0.000000 0.750000
O O21 0.045896 0.922144 0.500000
O O22 0.000000 0.886380 0.750000
O O23 0.049910 0.000000 0.750000
#
# Coordination Sequence:
#
# PCOD9392847 Si02
#       8
#     8   8   8   8   8   8   8   8
#     4   9  16  28  42  57  78 105 133 167 206 246
#     4  10  19  32  48  68  90 113 138 166 195 229
#     4   9  17  32  49  65  84 108 136 167 199 237
#     4   9  17  25  35  51  73  99 132 171 213 250
#     4  11  21  34  51  71  91 113 137 163 195 235
#     4   7  13  26  44  60  78 103 130 156 190 232
#     4  11  20  29  42  62  84 108 136 169 206 246
#     4   9  15  23  33  46  63  90 127 168 208 249
#
# _framework density 14.085508000000001
#
# number of rings (size 3 to 8) (size 9 to 14) (size 15 to 20)
#    0.000    2.625    0.000    5.625    0.000    2.250 
#    0.000    1.875    0.000    0.375    0.000    2.625 
#    0.000    0.000    0.000    0.000    0.000    0.625 
#
# Total GULP energy -356324.432460 kJ/mol
# GULP energy per Si atom -5567.569257 kJ/mol
# Density = 1.405345 g / cm^3
# Si number density = 14.085508 Si / 1000 Ang^3
#
#
#
# Elastic Constant Matrix: (Units=GPa)
#
#
# Indices 1 2 3 4 5 6 
#
# 1 55.3528 37.3359 11.7208 0.0000 0.0000 0.0000
# 2 37.3359 105.8760 24.2182 0.0000 0.0000 0.0000
# 3 11.7208 24.2182 56.9939 0.0000 0.0000 0.0000
# 4 0.0000 0.0000 0.0000 17.5360 0.0000 0.0000
# 5 0.0000 0.0000 0.0000 0.0000 58.7881 0.0000
# 6 0.0000 0.0000 0.0000 0.0000 0.0000 10.1433
#
#
#
# Elastic Compliance Matrix: (Units=1/GPa)
#
#
# Indices 1 2 3 4 5 6 
#
# 1 0.023815 -0.008061 -0.001472 0.000000 0.000000 0.000000
# 2 -0.008061 0.013191 -0.003947 0.000000 0.000000 0.000000
# 3 -0.001472 -0.003947 0.019526 0.000000 0.000000 0.000000
# 4 0.000000 0.000000 0.000000 0.057025 0.000000 0.000000
# 5 0.000000 0.000000 0.000000 0.000000 0.017010 0.000000
# 6 0.000000 0.000000 0.000000 0.000000 0.000000 0.098587
#
#
# Mechanical properties :
#
#
# Convention : Reuss Voigt Hill
#
# Bulk Modulus (GPa) = 33.81792 40.53027 37.17409
# Shear Modulus (GPa) = 18.79894 26.95667 22.87780
#
# Velocity S-wave (km/s) = 3.65722 4.37943 4.03452
# Velocity P-wave (km/s) = 6.47262 7.37628 6.93918
#
# Compressibility (1/GPa) = 0.02957012
#
# Stress axis : x y z
#
# Youngs Moduli (GPa) = 41.99014 75.81124 51.21443
#
# Poissons Ratio (x) = 0.61114 0.07539
# Poissons Ratio (y) = 0.33850 0.20215
# Poissons Ratio (z) = 0.06181 0.29924
#
# Static dielectric constant tensor:
#      x y z
#    x 1.482020 0.000000 0.000000 
#    y 0.000000 1.465290 0.000000 
#    z 0.000000 0.000000 1.477680 
# 
# From -- ./inp_files/4517.got.cif
#   From: 2010.05.17/outbox.cif.g08.bks.cpg/sg49_3_cif.got.tgz:4517.got - 2010.06.03 21:02:19.
