data_PCOD9392331
_publ_section_title
;
Structure prediction by ZEFSAII (Michael W. Deem and Ramdas Pophale) SiO2 
 PCOD9392331
Probable space group: P C C M
;
_chemical_formula_sum "Si O2"
_cell_formula_units_Z 56
_cell_length_a 19.679383
_cell_length_b 19.011607
_cell_length_c 8.711454
_cell_angle_alpha 90.000000
_cell_angle_beta 90.000000
_cell_angle_gamma 90.000000
_cell_volume 3259.274613
_symmetry_space_group_name_H-M "P C C M"
_symmetry_group_IT_number 49
_symmetry_cell_setting 'orthorhombic'
loop_
_space_group_symop_operation_xyz
x,y,z
-x,-y,z
x,-y,1/2-z
-x,y,1/2-z
-x,-y,-z
x,y,-z
-x,y,1/2+z
x,-y,1/2+z
loop_
_atom_site_type_symbol
_atom_site_label
_atom_site_fract_x
_atom_site_fract_y
_atom_site_fract_z
Si Si1 0.281216 0.656763 0.185263
Si Si2 0.203432 0.209480 0.815674
Si Si3 0.709613 0.077023 0.684764
Si Si4 0.429120 0.312510 0.683951
Si Si5 0.925573 0.717679 0.684187
Si Si6 0.428733 0.154366 0.815280
Si Si7 0.849995 0.424906 0.815900
O O1 0.253865 0.729193 0.257407
O O2 0.359992 0.646653 0.226031
O O3 0.226745 0.597465 0.231222
O O4 0.277094 0.663713 0.000000
O O5 0.234421 0.134663 0.767813
O O6 0.130202 0.227871 0.746717
O O7 0.200594 0.212140 0.000000
O O8 0.710239 0.073835 0.500000
O O9 0.635811 0.107716 0.730496
O O10 0.721045 0.000000 0.750000
O O11 0.500000 0.340893 0.750000
O O12 0.434057 0.308736 0.500000
O O13 0.421107 0.233262 0.749134
O O14 0.926249 0.720213 0.500000
O O15 0.898149 0.640008 0.731245
O O16 0.000000 0.729920 0.750000
O O17 0.500000 0.126376 0.750000
O O18 0.431633 0.158512 0.000000
O O19 0.869468 0.500000 0.750000
O O20 0.851746 0.428663 0.000000
#
# Coordination Sequence:
#
# PCOD9392331 Si02
#       7
#     8   8   8   8   8   8   8
#     4   9  18  32  50  72  99 134 172 212 256 305
#     4  10  19  34  54  77 103 131 169 214 252 298
#     4  10  22  35  50  72 101 135 174 215 258 308
#     4  10  18  28  46  70  96 128 167 215 265 307
#     4  10  21  37  57  83 110 138 169 202 243 295
#     4  10  19  32  46  68  98 131 171 214 260 310
#     4   9  19  34  51  76 108 138 171 203 242 295
#
# _framework density 17.181736999999998
#
# number of rings (size 3 to 8) (size 9 to 14) (size 15 to 20)
#    0.000    2.286    1.429    3.429    0.000    6.286 
#    0.000    2.857    0.000    0.857    0.000    6.000 
#    0.000    0.000    0.000    0.000    0.000    0.000 
#
# Total GULP energy -312355.128085 kJ/mol
# GULP energy per Si atom -5577.770144 kJ/mol
# Density = 1.714263 g / cm^3
# Si number density = 17.181737 Si / 1000 Ang^3
#
#
#
# Elastic Constant Matrix: (Units=GPa)
#
#
# Indices 1 2 3 4 5 6 
#
# 1 148.3004 35.9217 32.5983 0.0000 0.0000 0.0000
# 2 35.9217 53.1739 11.6671 0.0000 0.0000 0.0000
# 3 32.5983 11.6671 30.8234 0.0000 0.0000 0.0000
# 4 0.0000 0.0000 0.0000 22.3247 0.0000 0.0000
# 5 0.0000 0.0000 0.0000 0.0000 26.1839 0.0000
# 6 0.0000 0.0000 0.0000 0.0000 0.0000 14.2124
#
#
#
# Elastic Compliance Matrix: (Units=1/GPa)
#
#
# Indices 1 2 3 4 5 6 
#
# 1 0.009764 -0.004723 -0.008539 0.000000 0.000000 0.000000
# 2 -0.004723 0.022794 -0.003633 0.000000 0.000000 0.000000
# 3 -0.008539 -0.003633 0.042848 0.000000 0.000000 0.000000
# 4 0.000000 0.000000 0.000000 0.044793 0.000000 0.000000
# 5 0.000000 0.000000 0.000000 0.000000 0.038191 0.000000
# 6 0.000000 0.000000 0.000000 0.000000 0.000000 0.070361
#
#
# Mechanical properties :
#
#
# Convention : Reuss Voigt Hill
#
# Bulk Modulus (GPa) = 24.02855 43.63021 33.82938
# Shear Modulus (GPa) = 18.08886 22.68489 20.38688
#
# Velocity S-wave (km/s) = 3.24820 3.63752 3.44836
# Velocity P-wave (km/s) = 5.29934 6.56434 5.96547
#
# Compressibility (1/GPa) = 0.04161717
#
# Stress axis : x y z
#
# Youngs Moduli (GPa) = 102.41872 43.87170 23.33813
#
# Poissons Ratio (x) = 0.20718 0.19927
# Poissons Ratio (y) = 0.48367 0.08480
# Poissons Ratio (z) = 0.87450 0.15940
#
# Static dielectric constant tensor:
#      x y z
#    x 1.603430 0.000000 0.000000 
#    y 0.000000 1.551930 0.000000 
#    z 0.000000 0.000000 1.581920 
# 
# From -- ./inp_files/5170.got.cif
#   From: 2010.05.17/outbox.cif.g08.bks.cpg/sg49_3_cif.got.tgz:5170.got - 2010.06.03 21:02:19.
