data_PCOD9392600
_publ_section_title
;
Structure prediction by ZEFSAII (Michael W. Deem and Ramdas Pophale) SiO2 
 PCOD9392600
Probable space group: P C C M
;
_chemical_formula_sum "Si O2"
_cell_formula_units_Z 64
_cell_length_a 18.635883
_cell_length_b 27.101381
_cell_length_c 9.012352
_cell_angle_alpha 90.000000
_cell_angle_beta 90.000000
_cell_angle_gamma 90.000000
_cell_volume 4551.761968
_symmetry_space_group_name_H-M "P C C M"
_symmetry_group_IT_number 49
_symmetry_cell_setting 'orthorhombic'
loop_
_space_group_symop_operation_xyz
x,y,z
-x,-y,z
x,-y,1/2-z
-x,y,1/2-z
-x,-y,-z
x,y,-z
-x,y,1/2+z
x,-y,1/2+z
loop_
_atom_site_type_symbol
_atom_site_label
_atom_site_fract_x
_atom_site_fract_y
_atom_site_fract_z
Si Si1 0.578991 0.341529 0.177302
Si Si2 0.207220 0.202587 0.670554
Si Si3 0.922409 0.151651 0.677234
Si Si4 0.160969 0.050047 0.823486
Si Si5 0.337522 0.748092 0.676750
Si Si6 0.422080 0.149550 0.823024
Si Si7 0.579212 0.451813 0.823045
Si Si8 0.292917 0.098327 0.670441
O O1 0.500000 0.338102 0.250000
O O2 0.627709 0.299197 0.246541
O O3 0.609083 0.396941 0.204831
O O4 0.572210 0.335268 0.000000
O O5 0.195666 0.217362 0.500000
O O6 0.133440 0.190631 0.753763
O O7 0.259714 0.239615 0.756009
O O8 0.250534 0.150622 0.669152
O O9 0.925934 0.157236 0.500000
O O10 0.889382 0.097202 0.708745
O O11 0.000000 0.156099 0.750000
O O12 0.239278 0.062045 0.755843
O O13 0.133207 0.000000 0.750000
O O14 0.166070 0.044680 0.000000
O O15 0.333416 0.741784 0.500000
O O16 0.387816 0.796150 0.705558
O O17 0.500000 0.146525 0.750000
O O18 0.367172 0.110061 0.752689
O O19 0.426205 0.143150 0.000000
O O20 0.615150 0.500000 0.750000
O O21 0.500000 0.449708 0.750000
O O22 0.573378 0.458705 0.000000
O O23 0.303859 0.082985 0.500000
#
# Coordination Sequence:
#
# PCOD9392600 Si02
#       8
#     8   8   8   8   8   8   8   8
#     4  10  19  28  38  55  79 107 141 182 225 263
#     4   9  17  30  47  64  84 110 138 167 200 241
#     4  10  20  33  49  69  92 115 140 168 197 232
#     4  10  20  33  49  68  89 112 137 165 197 235
#     4  10  19  29  42  60  83 110 139 172 210 252
#     4  10  19  29  42  61  83 106 134 168 206 246
#     4   9  16  25  37  51  69  97 135 178 221 263
#     4   9  17  30  47  64  82 106 135 165 199 240
#
# _framework density 14.060489
#
# number of rings (size 3 to 8) (size 9 to 14) (size 15 to 20)
#    0.000    2.375    0.000    3.750    0.000    8.750 
#    0.000    1.250    0.000    0.375    0.000    2.625 
#    0.000    0.000    0.000    0.000    0.000    0.625 
#
# Total GULP energy -356760.134130 kJ/mol
# GULP energy per Si atom -5574.377096 kJ/mol
# Density = 1.402849 g / cm^3
# Si number density = 14.060489 Si / 1000 Ang^3
#
#
#
# Elastic Constant Matrix: (Units=GPa)
#
#
# Indices 1 2 3 4 5 6 
#
# 1 104.5131 34.1017 53.7345 0.0000 0.0000 0.0000
# 2 34.1017 54.1606 32.1071 0.0000 0.0000 0.0000
# 3 53.7345 32.1071 77.6073 0.0000 0.0000 0.0000
# 4 0.0000 0.0000 0.0000 22.7777 0.0000 0.0000
# 5 0.0000 0.0000 0.0000 0.0000 23.5305 0.0000
# 6 0.0000 0.0000 0.0000 0.0000 0.0000 7.9779
#
#
#
# Elastic Compliance Matrix: (Units=1/GPa)
#
#
# Indices 1 2 3 4 5 6 
#
# 1 0.015659 -0.004548 -0.008961 0.000000 0.000000 0.000000
# 2 -0.004548 0.025784 -0.007518 0.000000 0.000000 0.000000
# 3 -0.008961 -0.007518 0.022200 0.000000 0.000000 0.000000
# 4 0.000000 0.000000 0.000000 0.043903 0.000000 0.000000
# 5 0.000000 0.000000 0.000000 0.000000 0.042498 0.000000
# 6 0.000000 0.000000 0.000000 0.000000 0.000000 0.125346
#
#
# Mechanical properties :
#
#
# Convention : Reuss Voigt Hill
#
# Bulk Modulus (GPa) = 46.31850 52.90751 49.61300
# Shear Modulus (GPa) = 15.40168 18.61309 17.00739
#
# Velocity S-wave (km/s) = 3.31325 3.64234 3.48168
# Velocity P-wave (km/s) = 6.90295 7.44305 7.17808
#
# Compressibility (1/GPa) = 0.02158965
#
# Stress axis : x y z
#
# Youngs Moduli (GPa) = 63.86039 38.78384 45.04446
#
# Poissons Ratio (x) = 0.17637 0.40364
# Poissons Ratio (y) = 0.29041 0.33867
# Poissons Ratio (z) = 0.57224 0.29159
#
# Static dielectric constant tensor:
#      x y z
#    x 1.435290 0.000000 0.000000 
#    y 0.000000 1.472690 0.000000 
#    z 0.000000 0.000000 1.468150 
# 
# From -- ./inp_files/5403.got.cif
#   From: 2010.05.17/outbox.cif.g08.bks.cpg/sg49_3_cif.got.tgz:5403.got - 2010.06.03 21:02:19.
