data_PCOD9392733
_publ_section_title
;
Structure prediction by ZEFSAII (Michael W. Deem and Ramdas Pophale) SiO2 
 PCOD9392733
Probable space group: P C C M
;
_chemical_formula_sum "Si O2"
_cell_formula_units_Z 64
_cell_length_a 15.168280
_cell_length_b 28.998071
_cell_length_c 8.679442
_cell_angle_alpha 90.000000
_cell_angle_beta 90.000000
_cell_angle_gamma 90.000000
_cell_volume 3817.660031
_symmetry_space_group_name_H-M "P C C M"
_symmetry_group_IT_number 49
_symmetry_cell_setting 'orthorhombic'
loop_
_space_group_symop_operation_xyz
x,y,z
-x,-y,z
x,-y,1/2-z
-x,y,1/2-z
-x,-y,-z
x,y,-z
-x,y,1/2+z
x,-y,1/2+z
loop_
_atom_site_type_symbol
_atom_site_label
_atom_site_fract_x
_atom_site_fract_y
_atom_site_fract_z
Si Si1 0.224881 0.952215 0.684581
Si Si2 0.400509 0.546618 0.815828
Si Si3 0.405861 0.188342 0.685167
Si Si4 0.594389 0.919036 0.315284
Si Si5 0.903957 0.235352 0.315454
Si Si6 0.904182 0.870851 0.814294
Si Si7 0.274102 0.732223 0.186364
Si Si8 0.400952 0.351016 0.314311
O O1 0.225485 0.953686 0.500000
O O2 0.323626 0.946042 0.746538
O O3 0.168075 0.907949 0.736206
O O4 0.187718 0.000000 0.750000
O O5 0.357430 0.500000 0.750000
O O6 0.500000 0.547256 0.750000
O O7 0.366360 0.597564 0.773534
O O8 0.403523 0.542943 0.000000
O O9 0.500000 0.204326 0.750000
O O10 0.410108 0.189866 0.500000
O O11 0.393770 0.135004 0.730837
O O12 0.327792 0.221928 0.735640
O O13 0.500000 0.934213 0.250000
O O14 0.594127 0.922060 0.500000
O O15 0.906732 0.236727 0.500000
O O16 0.886042 0.181972 0.265880
O O17 0.823542 0.265671 0.253840
O O18 0.000000 0.247951 0.250000
O O19 0.000000 0.883465 0.750000
O O20 0.907004 0.871374 0.000000
O O21 0.333562 0.688695 0.234975
O O22 0.268780 0.732092 0.000000
O O23 0.500000 0.344617 0.250000
O O24 0.407887 0.349073 0.500000
#
# Coordination Sequence:
#
# PCOD9392733 Si02
#       8
#     8   8   8   8   8   8   8   8
#     4  11  23  38  54  75  99 123 151 186 226 272
#     4   9  15  24  38  57  82 119 164 207 244 279
#     4   9  18  30  47  70  96 125 157 189 225 268
#     4  10  20  35  53  73  95 123 157 193 228 267
#     4  10  20  35  54  75  95 121 155 191 229 274
#     4   9  20  37  57  78 100 123 150 184 225 272
#     4  10  19  31  46  68  98 129 157 192 235 279
#     4   9  18  29  42  63  95 131 167 203 241 281
#
# _framework density 16.764195000000001
#
# number of rings (size 3 to 8) (size 9 to 14) (size 15 to 20)
#    0.000    2.375    0.000    3.000    0.000    4.000 
#    0.000    2.500    0.000    0.000    0.000    0.000 
#    0.000    0.500    0.000    5.750    0.000    1.750 
#
# Total GULP energy -357001.361855 kJ/mol
# GULP energy per Si atom -5578.146279 kJ/mol
# Density = 1.672604 g / cm^3
# Si number density = 16.764195 Si / 1000 Ang^3
#
#
#
# Elastic Constant Matrix: (Units=GPa)
#
#
# Indices 1 2 3 4 5 6 
#
# 1 98.8287 55.3125 20.4035 0.0000 0.0000 0.0000
# 2 55.3125 77.5371 22.9341 0.0000 0.0000 0.0000
# 3 20.4035 22.9341 25.1742 0.0000 0.0000 0.0000
# 4 0.0000 0.0000 0.0000 22.3285 0.0000 0.0000
# 5 0.0000 0.0000 0.0000 0.0000 25.4458 0.0000
# 6 0.0000 0.0000 0.0000 0.0000 0.0000 14.0982
#
#
#
# Elastic Compliance Matrix: (Units=1/GPa)
#
#
# Indices 1 2 3 4 5 6 
#
# 1 0.017099 -0.011086 -0.003759 0.000000 0.000000 0.000000
# 2 -0.011086 0.024842 -0.013646 0.000000 0.000000 0.000000
# 3 -0.003759 -0.013646 0.055202 0.000000 0.000000 0.000000
# 4 0.000000 0.000000 0.000000 0.044786 0.000000 0.000000
# 5 0.000000 0.000000 0.000000 0.000000 0.039299 0.000000
# 6 0.000000 0.000000 0.000000 0.000000 0.000000 0.070931
#
#
# Mechanical properties :
#
#
# Convention : Reuss Voigt Hill
#
# Bulk Modulus (GPa) = 24.90031 44.31558 34.60794
# Shear Modulus (GPa) = 15.50249 19.23381 17.36815
#
# Velocity S-wave (km/s) = 3.04425 3.39088 3.22223
# Velocity P-wave (km/s) = 5.21940 6.46705 5.87643
#
# Compressibility (1/GPa) = 0.04016014
#
# Stress axis : x y z
#
# Youngs Moduli (GPa) = 58.48160 40.25458 18.11536
#
# Poissons Ratio (x) = 0.44627 0.06810
# Poissons Ratio (y) = 0.64834 0.24720
# Poissons Ratio (z) = 0.21985 0.54931
#
# Static dielectric constant tensor:
#      x y z
#    x 1.535460 0.000000 0.000000 
#    y 0.000000 1.610050 0.000000 
#    z 0.000000 0.000000 1.568870 
# 
# From -- ./inp_files/4544.got.cif
#   From: 2010.05.17/outbox.cif.g08.bks.cpg/sg49_3_cif.got.tgz:4544.got - 2010.06.03 21:02:19.
