data_PCOD9392006
_publ_section_title
;
Structure prediction by ZEFSAII (Michael W. Deem and Ramdas Pophale) SiO2 
 PCOD9392006
Probable space group: P C C M
;
_chemical_formula_sum "Si O2"
_cell_formula_units_Z 48
_cell_length_a 21.234501
_cell_length_b 21.255808
_cell_length_c 8.620185
_cell_angle_alpha 90.000000
_cell_angle_beta 90.000000
_cell_angle_gamma 90.000000
_cell_volume 3890.776326
_symmetry_space_group_name_H-M "P C C M"
_symmetry_group_IT_number 49
_symmetry_cell_setting 'orthorhombic'
loop_
_space_group_symop_operation_xyz
x,y,z
-x,-y,z
x,-y,1/2-z
-x,y,1/2-z
-x,-y,-z
x,y,-z
-x,y,1/2+z
x,-y,1/2+z
loop_
_atom_site_type_symbol
_atom_site_label
_atom_site_fract_x
_atom_site_fract_y
_atom_site_fract_z
Si Si1 0.429067 0.826548 0.314825
Si Si2 0.935203 0.071728 0.315281
Si Si3 0.428081 0.565038 0.685602
Si Si4 0.334171 0.071162 0.313743
Si Si5 0.193503 0.071145 0.685254
Si Si6 0.571673 0.305156 0.185558
O O1 0.500000 0.834891 0.250000
O O2 0.432093 0.821732 0.500000
O O3 0.385863 0.884093 0.261681
O O4 0.401974 0.761165 0.245184
O O5 0.937369 0.069355 0.500000
O O6 0.869154 0.101026 0.258801
O O7 0.000000 0.100519 0.250000
O O8 0.934238 0.000000 0.250000
O O9 0.399475 0.500000 0.750000
O O10 0.500000 0.565408 0.750000
O O11 0.429728 0.564412 0.500000
O O12 0.399316 0.630399 0.747521
O O13 0.341274 0.069807 0.500000
O O14 0.263287 0.096381 0.278841
O O15 0.339395 0.000000 0.250000
O O16 0.185763 0.069171 0.500000
O O17 0.195876 0.000000 0.750000
O O18 0.500000 0.304020 0.250000
O O19 0.570649 0.307315 0.000000
#
# Coordination Sequence:
#
# PCOD9392006 Si02
#       6
#     8   8   8   8   8   8
#     4  11  21  33  46  58  71  88 112 144 182 224
#     4  10  16  22  33  49  70  91 112 132 156 190
#     4  10  16  23  34  51  72  93 114 134 159 193
#     4  10  20  33  46  59  72  88 111 143 182 224
#     4   9  16  26  39  53  70  88 108 133 165 203
#     4  10  17  27  40  54  71  90 111 136 168 206
#
# _framework density 12.336869999999999
#
# number of rings (size 3 to 8) (size 9 to 14) (size 15 to 20)
#    0.000    2.000    0.000   11.000    0.000    2.333 
#    0.000    1.667    0.000    0.000    0.000    0.000 
#    0.000    0.000    0.000    0.000    0.000    0.000 
#
# Total GULP energy -267291.795116 kJ/mol
# GULP energy per Si atom -5568.579065 kJ/mol
# Density = 1.230879 g / cm^3
# Si number density = 12.336870 Si / 1000 Ang^3
#
#
#
# Elastic Constant Matrix: (Units=GPa)
#
#
# Indices 1 2 3 4 5 6 
#
# 1 65.0983 32.0276 36.4748 0.0000 0.0000 0.0000
# 2 32.0276 71.4471 34.9826 0.0000 0.0000 0.0000
# 3 36.4748 34.9826 122.8258 0.0000 0.0000 0.0000
# 4 0.0000 0.0000 0.0000 17.2946 0.0000 0.0000
# 5 0.0000 0.0000 0.0000 0.0000 14.4078 0.0000
# 6 0.0000 0.0000 0.0000 0.0000 0.0000 -0.2547
#
#
#
# Elastic Compliance Matrix: (Units=1/GPa)
#
#
# Indices 1 2 3 4 5 6 
#
# 1 0.021436 -0.007544 -0.004217 0.000000 0.000000 0.000000
# 2 -0.007544 0.018920 -0.003148 0.000000 0.000000 0.000000
# 3 -0.004217 -0.003148 0.010291 0.000000 0.000000 0.000000
# 4 0.000000 0.000000 0.000000 0.057821 0.000000 0.000000
# 5 0.000000 0.000000 0.000000 0.000000 0.069407 0.000000
# 6 0.000000 0.000000 0.000000 0.000000 0.000000 -3.926360
#
#
# Mechanical properties :
#
#
# Convention : Reuss Voigt Hill
#
# Bulk Modulus (GPa) = 48.01421 51.81568 49.91494
# Shear Modulus (GPa) = -1.34708 16.68196 7.66744
#
# Velocity S-wave (km/s) = -1.04608 3.68122 2.49571
# Velocity P-wave (km/s) = 6.12737 7.75631 6.98946
#
# Compressibility (1/GPa) = 0.02082717
#
# Stress axis : x y z
#
# Youngs Moduli (GPa) = 46.65079 52.85493 97.17652
#
# Poissons Ratio (x) = 0.39875 0.40979
# Poissons Ratio (y) = 0.35195 0.30593
# Poissons Ratio (z) = 0.19672 0.16640
#
# Static dielectric constant tensor:
#      x y z
#    x 1.422680 0.000000 0.000000 
#    y 0.000000 1.418680 0.000000 
#    z 0.000000 0.000000 1.409080 
# 
# From -- ./inp_files/6030.got.cif
#   From: 2010.05.17/outbox.cif.g08.bks.cpg/sg49_4_cif.got.tgz:6030.got - 2010.06.03 21:02:19.
