data_PCOD9392168
_publ_section_title
;
Structure prediction by ZEFSAII (Michael W. Deem and Ramdas Pophale) SiO2 
 PCOD9392168
Probable space group: P C C M
;
_chemical_formula_sum "Si O2"
_cell_formula_units_Z 40
_cell_length_a 27.116962
_cell_length_b 9.267647
_cell_length_c 8.712367
_cell_angle_alpha 90.000000
_cell_angle_beta 90.000000
_cell_angle_gamma 90.000000
_cell_volume 2189.508710
_symmetry_space_group_name_H-M "P C C M"
_symmetry_group_IT_number 49
_symmetry_cell_setting 'orthorhombic'
loop_
_space_group_symop_operation_xyz
x,y,z
-x,-y,z
x,-y,1/2-z
-x,y,1/2-z
-x,-y,-z
x,y,-z
-x,y,1/2+z
x,-y,1/2+z
loop_
_atom_site_type_symbol
_atom_site_label
_atom_site_fract_x
_atom_site_fract_y
_atom_site_fract_z
Si Si1 0.450311 0.662850 0.683356
Si Si2 0.250344 0.159779 0.683572
Si Si3 0.949594 0.336122 0.683667
Si Si4 0.341286 0.662093 0.315962
Si Si5 0.847751 0.661571 0.684198
O O1 0.449224 0.500000 0.750000
O O2 0.500000 0.733209 0.750000
O O3 0.454615 0.655937 0.500000
O O4 0.396097 0.722498 0.722936
O O5 0.254111 0.155000 0.500000
O O6 0.297545 0.242642 0.749811
O O7 0.200393 0.246146 0.722808
O O8 0.248115 0.000000 0.750000
O O9 0.948731 0.500000 0.750000
O O10 0.951166 0.340211 0.500000
O O11 0.897906 0.273907 0.743615
O O12 0.000000 0.269193 0.750000
O O13 0.337408 0.500000 0.250000
O O14 0.337766 0.654686 0.500000
O O15 0.841255 0.500000 0.750000
O O16 0.853277 0.653266 0.500000
#
# Coordination Sequence:
#
# PCOD9392168 Si02
#       5
#     8   8   8   8   8
#     4   9  16  26  44  72 104 136 167 207 254 303
#     4  11  24  39  56  76 103 139 177 219 267 316
#     4  10  17  27  46  73 105 137 167 206 253 301
#     4  10  20  34  54  80 109 139 176 217 260 309
#     4  10  20  34  53  79 106 135 172 213 256 305
#
# _framework density 18.268939
#
# number of rings (size 3 to 8) (size 9 to 14) (size 15 to 20)
#    0.000    2.000    0.000    7.200    0.000    7.200 
#    0.000    0.000    0.000    1.200    0.000    8.400 
#    0.000    0.000    0.000    0.000    0.000    0.000 
#
# Total GULP energy -223131.924621 kJ/mol
# GULP energy per Si atom -5578.298116 kJ/mol
# Density = 1.822736 g / cm^3
# Si number density = 18.268939 Si / 1000 Ang^3
#
#
#
# Elastic Constant Matrix: (Units=GPa)
#
#
# Indices 1 2 3 4 5 6 
#
# 1 238.5296 68.8155 92.3286 0.0000 0.0000 0.0000
# 2 68.8155 56.7106 30.6368 0.0000 0.0000 0.0000
# 3 92.3286 30.6368 99.1395 0.0000 0.0000 0.0000
# 4 0.0000 0.0000 0.0000 15.8080 0.0000 0.0000
# 5 0.0000 0.0000 0.0000 0.0000 42.2153 0.0000
# 6 0.0000 0.0000 0.0000 0.0000 0.0000 -5.4186
#
#
#
# Elastic Compliance Matrix: (Units=1/GPa)
#
#
# Indices 1 2 3 4 5 6 
#
# 1 0.008461 -0.007214 -0.005650 0.000000 0.000000 0.000000
# 2 -0.007214 0.027319 -0.001724 0.000000 0.000000 0.000000
# 3 -0.005650 -0.001724 0.015881 0.000000 0.000000 0.000000
# 4 0.000000 0.000000 0.000000 0.063259 0.000000 0.000000
# 5 0.000000 0.000000 0.000000 0.000000 0.023688 0.000000
# 6 0.000000 0.000000 0.000000 0.000000 0.000000 -0.184551
#
#
# Mechanical properties :
#
#
# Convention : Reuss Voigt Hill
#
# Bulk Modulus (GPa) = 44.47425 86.43795 65.45610
# Shear Modulus (GPa) = -539.20988 24.02753 -257.59117
#
# Velocity S-wave (km/s) = -17.19860 3.63052 -11.88720
# Velocity P-wave (km/s) = 19.23518 8.06171 12.34911
#
# Compressibility (1/GPa) = 0.02248492
#
# Stress axis : x y z
#
# Youngs Moduli (GPa) = 118.19487 36.60499 62.96740
#
# Poissons Ratio (x) = 0.26408 0.35576
# Poissons Ratio (y) = 0.85269 0.10853
# Poissons Ratio (z) = 0.66780 0.06309
#
# Static dielectric constant tensor:
#      x y z
#    x 1.698370 0.000000 0.000000 
#    y 0.000000 1.576310 0.000000 
#    z 0.000000 0.000000 1.610230 
# 
# From -- ./inp_files/1883.got.cif
#   From: 2010.05.17/outbox.cif.g08.bks.cpg/sg49_1_cif.got.tgz:1883.got - 2010.06.03 21:02:19.
