data_PCOD9392560
_publ_section_title
;
Structure prediction by ZEFSAII (Michael W. Deem and Ramdas Pophale) SiO2 
 PCOD9392560
Probable space group: P C C M
;
_chemical_formula_sum "Si O2"
_cell_formula_units_Z 64
_cell_length_a 17.459040
_cell_length_b 9.101124
_cell_length_c 20.098455
_cell_angle_alpha 90.000000
_cell_angle_beta 90.000000
_cell_angle_gamma 90.000000
_cell_volume 3193.581952
_symmetry_space_group_name_H-M "P C C M"
_symmetry_group_IT_number 49
_symmetry_cell_setting 'orthorhombic'
loop_
_space_group_symop_operation_xyz
x,y,z
-x,-y,z
x,-y,1/2-z
-x,y,1/2-z
-x,-y,-z
x,y,-z
-x,y,1/2+z
x,-y,1/2+z
loop_
_atom_site_type_symbol
_atom_site_label
_atom_site_fract_x
_atom_site_fract_y
_atom_site_fract_z
Si Si1 0.085302 0.442506 0.323753
Si Si2 0.810481 0.669578 0.137155
Si Si3 0.290944 0.173410 0.325646
Si Si4 0.535942 0.160970 0.184819
Si Si5 0.129724 0.836367 0.756271
Si Si6 0.708915 0.094680 0.574755
Si Si7 0.437177 0.695719 0.420688
Si Si8 0.662023 0.501659 0.826189
O O1 0.111123 0.500000 0.250000
O O2 0.141602 0.520550 0.376254
O O3 0.089940 0.268454 0.310959
O O4 0.000000 0.500000 0.334323
O O5 0.867170 0.763252 0.183742
O O6 0.774218 0.780739 0.084226
O O7 0.734141 0.612537 0.174497
O O8 0.375429 0.142775 0.298582
O O9 0.218999 0.160533 0.277483
O O10 0.302610 0.343688 0.346449
O O11 0.278530 0.045172 0.379057
O O12 0.500000 0.234574 0.250000
O O13 0.512454 0.249810 0.118746
O O14 0.500000 0.000000 0.177366
O O15 0.099174 0.000000 0.750000
O O16 0.708533 0.041349 0.500000
O O17 0.627253 0.175385 0.586693
O O18 0.447627 0.668974 0.500000
O O19 0.399051 0.561477 0.379617
O O20 0.632699 0.500000 0.750000
#
# Coordination Sequence:
#
# PCOD9392560 Si02
#       8
#     8   8   8   8   8   8   8   8
#     4   9  18  35  56  89 128 156 184 228 291 368
#     4  10  18  34  58  83 118 158 188 237 298 363
#     4  12  22  35  58  85 115 152 201 259 302 362
#     4  11  24  36  56  86 118 155 209 266 316 364
#     4  11  20  32  60  91 120 157 195 239 300 352
#     4  10  22  37  57  83 112 155 208 256 302 363
#     4  10  23  43  59  79 118 166 206 250 326 389
#     4  11  20  35  61  86 117 153 207 257 311 368
#
# _framework density 20.040192999999999
#
# number of rings (size 3 to 8) (size 9 to 14) (size 15 to 20)
#    0.000    1.500    5.000    1.125    3.500    1.750 
#    0.000    6.875    0.000    0.375    0.000    0.875 
#    0.000    0.000    0.000    0.000    0.000    0.000 
#
# Total GULP energy -356748.626039 kJ/mol
# GULP energy per Si atom -5574.197282 kJ/mol
# Density = 1.999458 g / cm^3
# Si number density = 20.040193 Si / 1000 Ang^3
#
#
#
# Elastic Constant Matrix: (Units=GPa)
#
#
# Indices 1 2 3 4 5 6 
#
# 1 77.9706 15.5361 12.4026 0.0000 0.0000 0.0000
# 2 15.5361 121.9762 25.8792 0.0000 0.0000 0.0000
# 3 12.4026 25.8792 73.2036 0.0000 0.0000 0.0000
# 4 0.0000 0.0000 0.0000 13.9332 0.0000 0.0000
# 5 0.0000 0.0000 0.0000 0.0000 13.2543 0.0000
# 6 0.0000 0.0000 0.0000 0.0000 0.0000 -16.1705
#
#
#
# Elastic Compliance Matrix: (Units=1/GPa)
#
#
# Indices 1 2 3 4 5 6 
#
# 1 0.013375 -0.001322 -0.001799 0.000000 0.000000 0.000000
# 2 -0.001322 0.008994 -0.002956 0.000000 0.000000 0.000000
# 3 -0.001799 -0.002956 0.015010 0.000000 0.000000 0.000000
# 4 0.000000 0.000000 0.000000 0.071771 0.000000 0.000000
# 5 0.000000 0.000000 0.000000 0.000000 0.075447 0.000000
# 6 0.000000 0.000000 0.000000 0.000000 0.000000 -0.061841
#
#
# Mechanical properties :
#
#
# Convention : Reuss Voigt Hill
#
# Bulk Modulus (GPa) = 39.64104 42.30960 40.97532
# Shear Modulus (GPa) = 34.88761 16.82555 25.85658
#
# Velocity S-wave (km/s) = 4.17691 2.90071 3.59588
# Velocity P-wave (km/s) = 6.56398 5.69008 6.14259
#
# Compressibility (1/GPa) = 0.02522638
#
# Stress axis : x y z
#
# Youngs Moduli (GPa) = 74.76711 111.18819 66.62163
#
# Poissons Ratio (x) = 0.14698 0.11983
# Poissons Ratio (y) = 0.09884 0.19690
# Poissons Ratio (z) = 0.13449 0.32862
#
# Static dielectric constant tensor:
#      x y z
#    x 1.731620 0.000000 0.000000 
#    y 0.000000 1.804200 0.000000 
#    z 0.000000 0.000000 1.699000 
# 
# From -- ./inp_files/21045.got.cif
#   From: 2010.05.17/outbox.cif.g08.bks.cpg/sg49_11_cif.got.tgz:21045.got - 2010.06.03 21:02:19.
