data_PCOD9392200
_publ_section_title
;
Structure prediction by ZEFSAII (Michael W. Deem and Ramdas Pophale) SiO2 
 PCOD9392200
Probable space group: P C C M
;
_chemical_formula_sum "Si O2"
_cell_formula_units_Z 64
_cell_length_a 29.661726
_cell_length_b 14.471612
_cell_length_c 8.696375
_cell_angle_alpha 90.000000
_cell_angle_beta 90.000000
_cell_angle_gamma 90.000000
_cell_volume 3732.944970
_symmetry_space_group_name_H-M "P C C M"
_symmetry_group_IT_number 49
_symmetry_cell_setting 'orthorhombic'
loop_
_space_group_symop_operation_xyz
x,y,z
-x,-y,z
x,-y,1/2-z
-x,y,1/2-z
-x,-y,-z
x,y,-z
-x,y,1/2+z
x,-y,1/2+z
loop_
_atom_site_type_symbol
_atom_site_label
_atom_site_fract_x
_atom_site_fract_y
_atom_site_fract_z
Si Si1 0.184304 0.720600 0.685167
Si Si2 0.550903 0.091542 0.682860
Si Si3 0.550159 0.718368 0.682664
Si Si4 0.863510 0.103302 0.184351
Si Si5 0.370106 0.602160 0.684314
Si Si6 0.951868 0.780373 0.315778
Si Si7 0.270164 0.395960 0.814903
Si Si8 0.904792 0.396807 0.684088
O O1 0.185163 0.731177 0.500000
O O2 0.172170 0.819862 0.756903
O O3 0.230813 0.673107 0.736598
O O4 0.144060 0.648201 0.721964
O O5 0.500000 0.092425 0.750000
O O6 0.549192 0.088765 0.500000
O O7 0.569381 0.186905 0.745322
O O8 0.573381 0.000000 0.750000
O O9 0.500000 0.700934 0.750000
O O10 0.546012 0.726437 0.500000
O O11 0.586710 0.644732 0.733719
O O12 0.911947 0.148606 0.229497
O O13 0.857991 0.000000 0.250000
O O14 0.861626 0.098945 0.000000
O O15 0.366722 0.500000 0.750000
O O16 0.376321 0.604290 0.500000
O O17 0.320350 0.642086 0.720898
O O18 0.953245 0.776304 0.500000
O O19 0.939314 0.678699 0.251715
O O20 0.000000 0.809261 0.250000
O O21 0.264488 0.500000 0.750000
O O22 0.267442 0.404031 0.000000
O O23 0.909349 0.500000 0.750000
O O24 0.909349 0.400161 0.500000
#
# Coordination Sequence:
#
# PCOD9392200 Si02
#       8
#     8   8   8   8   8   8   8   8
#     4   9  18  33  53  78 105 133 164 203 249 299
#     4  10  17  28  46  70  97 125 158 199 245 292
#     4  11  21  34  51  73 100 134 174 215 258 303
#     4  10  21  36  55  78 103 133 168 211 256 303
#     4  10  20  35  52  74 103 136 172 210 251 298
#     4  10  21  36  52  72  99 132 173 214 256 301
#     4   9  18  32  53  79 107 136 166 202 247 298
#     4  10  19  31  49  73 103 135 168 206 250 299
#
# _framework density 17.144641
#
# number of rings (size 3 to 8) (size 9 to 14) (size 15 to 20)
#    0.000    2.125    0.000    5.250    0.000    3.750 
#    0.000    3.750    0.000    0.750    0.000    3.500 
#    0.000    0.000    0.000    0.000    0.000    0.000 
#
# Total GULP energy -356809.188477 kJ/mol
# GULP energy per Si atom -5575.143570 kJ/mol
# Density = 1.710562 g / cm^3
# Si number density = 17.144641 Si / 1000 Ang^3
#
#
#
# Elastic Constant Matrix: (Units=GPa)
#
#
# Indices 1 2 3 4 5 6 
#
# 1 100.3999 48.4145 35.2133 0.0000 0.0000 0.0000
# 2 48.4145 101.8477 30.5007 0.0000 0.0000 0.0000
# 3 35.2133 30.5007 83.8269 0.0000 0.0000 0.0000
# 4 0.0000 0.0000 0.0000 30.1038 0.0000 0.0000
# 5 0.0000 0.0000 0.0000 0.0000 23.2524 0.0000
# 6 0.0000 0.0000 0.0000 0.0000 0.0000 18.3717
#
#
#
# Elastic Compliance Matrix: (Units=1/GPa)
#
#
# Indices 1 2 3 4 5 6 
#
# 1 0.013959 -0.005476 -0.003871 0.000000 0.000000 0.000000
# 2 -0.005476 0.013168 -0.002491 0.000000 0.000000 0.000000
# 3 -0.003871 -0.002491 0.014462 0.000000 0.000000 0.000000
# 4 0.000000 0.000000 0.000000 0.033218 0.000000 0.000000
# 5 0.000000 0.000000 0.000000 0.000000 0.043006 0.000000
# 6 0.000000 0.000000 0.000000 0.000000 0.000000 0.054431
#
#
# Mechanical properties :
#
#
# Convention : Reuss Voigt Hill
#
# Bulk Modulus (GPa) = 55.82824 57.14795 56.48810
# Shear Modulus (GPa) = 24.76589 25.80865 25.28727
#
# Velocity S-wave (km/s) = 3.80482 3.88409 3.84466
# Velocity P-wave (km/s) = 7.20666 7.31574 7.26141
#
# Compressibility (1/GPa) = 0.01791208
#
# Stress axis : x y z
#
# Youngs Moduli (GPa) = 71.64077 75.94396 69.14800
#
# Poissons Ratio (x) = 0.41587 0.26768
# Poissons Ratio (y) = 0.39231 0.17223
# Poissons Ratio (z) = 0.27733 0.18916
#
# Static dielectric constant tensor:
#      x y z
#    x 1.573550 0.000000 0.000000 
#    y 0.000000 1.584130 0.000000 
#    z 0.000000 0.000000 1.575590 
# 
# From -- ./inp_files/6996.got.cif
#   From: 2010.05.17/outbox.cif.g08.bks.cpg/sg49_4_cif.got.tgz:6996.got - 2010.06.03 21:02:19.
