data_PCOD9392640
_publ_section_title
;
Structure prediction by ZEFSAII (Michael W. Deem and Ramdas Pophale) SiO2 
 PCOD9392640
Probable space group: P C C M
;
_chemical_formula_sum "Si O2"
_cell_formula_units_Z 58
_cell_length_a 15.255027
_cell_length_b 7.704288
_cell_length_c 25.284183
_cell_angle_alpha 90.000000
_cell_angle_beta 90.000000
_cell_angle_gamma 90.000000
_cell_volume 2971.627815
_symmetry_space_group_name_H-M "P C C M"
_symmetry_group_IT_number 49
_symmetry_cell_setting 'orthorhombic'
loop_
_space_group_symop_operation_xyz
x,y,z
-x,-y,z
x,-y,1/2-z
-x,y,1/2-z
-x,-y,-z
x,y,-z
-x,y,1/2+z
x,-y,1/2+z
loop_
_atom_site_type_symbol
_atom_site_label
_atom_site_fract_x
_atom_site_fract_y
_atom_site_fract_z
Si Si1 0.154875 0.888421 0.308450
Si Si2 0.317256 0.113441 0.123147
Si Si3 0.368340 0.735596 0.124045
Si Si4 0.898248 0.526857 0.858033
Si Si5 0.737223 0.449392 0.437620
Si Si6 0.525374 0.795237 0.808588
Si Si7 0.000000 0.000000 0.750000
Si Si8 0.768948 0.331531 0.216549
O O1 0.224132 0.942380 0.352244
O O2 0.108840 0.712878 0.329390
O O3 0.208896 0.818790 0.257684
O O4 0.077150 0.018299 0.294577
O O5 0.299960 0.262319 0.080540
O O6 0.375520 0.201388 0.170009
O O7 0.361800 0.935103 0.104406
O O8 0.329500 0.596833 0.083527
O O9 0.465269 0.707064 0.146801
O O10 0.306305 0.719760 0.175876
O O11 0.829836 0.526499 0.906749
O O12 0.855189 0.392820 0.816027
O O13 0.000000 0.500000 0.870949
O O14 0.748279 0.459580 0.500000
O O15 0.500000 0.728860 0.750000
O O16 0.500000 0.000000 0.807493
O O17 0.740746 0.500000 0.250000
#
# Coordination Sequence:
#
# PCOD9392640 Si02
#       8
#     8   8   8   8   8   8   2   8
#     4  10  19  29  46  75 112 147 178 211 259 319
#     4  10  21  38  56  79 113 146 178 225 271 316
#     4  10  20  36  58  82 110 145 184 223 266 319
#     4   9  18  33  52  74 102 137 179 226 272 325
#     4  10  23  41  59  79 102 136 185 237 288 328
#     4   9  18  33  57  87 117 149 180 207 251 318
#     4  12  20  24  42  76 108 148 188 210 248 320
#     4   9  17  30  50  78 113 149 180 214 260 321
#
# _framework density 19.517924000000001
#
# number of rings (size 3 to 8) (size 9 to 14) (size 15 to 20)
#    0.000    2.345    0.000    3.310    0.000    6.621 
#    0.000    2.069    0.000    2.483    0.000    7.724 
#    0.000    0.000    0.000    0.000    0.000    0.000 
#
# Total GULP energy -323034.633550 kJ/mol
# GULP energy per Si atom -5569.562647 kJ/mol
# Density = 1.947350 g / cm^3
# Si number density = 19.517924 Si / 1000 Ang^3
#
#
#
# Elastic Constant Matrix: (Units=GPa)
#
#
# Indices 1 2 3 4 5 6 
#
# 1 81.9582 5.3486 4.0387 0.0000 0.0000 0.0000
# 2 5.3486 73.3121 18.1364 0.0000 0.0000 0.0000
# 3 4.0387 18.1364 85.3209 0.0000 0.0000 0.0000
# 4 0.0000 0.0000 0.0000 8.8678 0.0000 0.0000
# 5 0.0000 0.0000 0.0000 0.0000 9.1670 0.0000
# 6 0.0000 0.0000 0.0000 0.0000 0.0000 10.2299
#
#
#
# Elastic Compliance Matrix: (Units=1/GPa)
#
#
# Indices 1 2 3 4 5 6 
#
# 1 0.012273 -0.000793 -0.000412 0.000000 0.000000 0.000000
# 2 -0.000793 0.014449 -0.003034 0.000000 0.000000 0.000000
# 3 -0.000412 -0.003034 0.012385 0.000000 0.000000 0.000000
# 4 0.000000 0.000000 0.000000 0.112767 0.000000 0.000000
# 5 0.000000 0.000000 0.000000 0.000000 0.109087 0.000000
# 6 0.000000 0.000000 0.000000 0.000000 0.000000 0.097753
#
#
# Mechanical properties :
#
#
# Convention : Reuss Voigt Hill
#
# Bulk Modulus (GPa) = 32.64987 32.84874 32.74930
# Shear Modulus (GPa) = 13.24847 19.85745 16.55296
#
# Velocity S-wave (km/s) = 2.60818 3.19312 2.91536
# Velocity P-wave (km/s) = 5.08277 5.51918 5.30546
#
# Compressibility (1/GPa) = 0.03062799
#
# Stress axis : x y z
#
# Youngs Moduli (GPa) = 81.47675 69.21031 80.74379
#
# Poissons Ratio (x) = 0.05491 0.03329
# Poissons Ratio (y) = 0.06465 0.24496
# Poissons Ratio (z) = 0.03359 0.20997
#
# Static dielectric constant tensor:
#      x y z
#    x 1.694470 0.000000 0.000000 
#    y 0.000000 1.749170 0.000000 
#    z 0.000000 0.000000 1.665810 
# 
# From -- ./inp_files/23194.got.cif
#   From: 2010.05.17/outbox.cif.g08.bks.cpg/sg49_12_cif.got.tgz:23194.got - 2010.06.03 21:02:19.
