data_PCOD9392707
_publ_section_title
;
Structure prediction by ZEFSAII (Michael W. Deem and Ramdas Pophale) SiO2 
 PCOD9392707
Probable space group: P C C M
;
_chemical_formula_sum "Si O2"
_cell_formula_units_Z 58
_cell_length_a 10.106149
_cell_length_b 8.598179
_cell_length_c 30.181862
_cell_angle_alpha 90.000000
_cell_angle_beta 90.000000
_cell_angle_gamma 90.000000
_cell_volume 2622.637147
_symmetry_space_group_name_H-M "P C C M"
_symmetry_group_IT_number 49
_symmetry_cell_setting 'orthorhombic'
loop_
_space_group_symop_operation_xyz
x,y,z
-x,-y,z
x,-y,1/2-z
-x,y,1/2-z
-x,-y,-z
x,y,-z
-x,y,1/2+z
x,-y,1/2+z
loop_
_atom_site_type_symbol
_atom_site_label
_atom_site_fract_x
_atom_site_fract_y
_atom_site_fract_z
Si Si1 0.143730 0.946589 0.868650
Si Si2 0.337651 0.678654 0.853866
Si Si3 0.302038 0.457046 0.550924
Si Si4 0.205709 0.743430 0.588856
Si Si5 0.000000 0.500000 0.250000
Si Si6 0.938269 0.248389 0.953178
Si Si7 0.796438 0.629142 0.181949
Si Si8 0.551476 0.822289 0.202016
O O1 0.236069 0.822016 0.843966
O O2 0.100234 0.854381 0.912076
O O3 0.228958 0.088177 0.889730
O O4 0.000000 0.000000 0.848346
O O5 0.348350 0.643415 0.906548
O O6 0.287197 0.528570 0.826602
O O7 0.478956 0.727738 0.836177
O O8 0.349598 0.434357 0.500000
O O9 0.317305 0.634073 0.567903
O O10 0.146048 0.406750 0.549645
O O11 0.147266 0.658271 0.632669
O O12 0.094570 0.745349 0.551472
O O13 0.092586 0.399433 0.218009
O O14 0.899670 0.175724 0.000000
O O15 0.704243 0.773562 0.196998
O O16 0.500000 0.768234 0.250000
O O17 0.500000 0.000000 0.198250
#
# Coordination Sequence:
#
# PCOD9392707 Si02
#       8
#     8   8   8   8   2   8   8   8
#     4   9  19  31  51  87 126 173 214 266 333 401
#     4  10  21  40  67  91 131 178 227 282 338 406
#     4   9  18  31  53  88 124 169 224 276 334 397
#     4  10  19  30  52  79 122 164 214 259 326 394
#     4  12  28  40  66 102 146 164 216 288 360 424
#     4   9  17  29  47  78 120 169 215 260 313 387
#     4  11  25  41  64  96 128 172 215 272 342 408
#     4  11  24  46  74  97 125 166 230 281 337 418
#
# _framework density 22.115144999999998
#
# number of rings (size 3 to 8) (size 9 to 14) (size 15 to 20)
#    0.000    2.069    0.000    2.897    7.724    4.690 
#    0.000    0.000    0.000    8.690    0.000    0.000 
#    0.000    0.000    0.000    0.000    0.000    0.000 
#
# Total GULP energy -323151.213631 kJ/mol
# GULP energy per Si atom -5571.572649 kJ/mol
# Density = 2.206481 g / cm^3
# Si number density = 22.115145 Si / 1000 Ang^3
#
#
#
# Elastic Constant Matrix: (Units=GPa)
#
#
# Indices 1 2 3 4 5 6 
#
# 1 72.8996 21.5546 31.1301 0.0000 0.0000 0.0000
# 2 21.5546 95.1060 6.5325 0.0000 0.0000 0.0000
# 3 31.1301 6.5325 116.4012 0.0000 0.0000 0.0000
# 4 0.0000 0.0000 0.0000 8.7152 0.0000 0.0000
# 5 0.0000 0.0000 0.0000 0.0000 10.3590 0.0000
# 6 0.0000 0.0000 0.0000 0.0000 0.0000 28.7215
#
#
#
# Elastic Compliance Matrix: (Units=1/GPa)
#
#
# Indices 1 2 3 4 5 6 
#
# 1 0.016547 -0.003460 -0.004231 0.000000 0.000000 0.000000
# 2 -0.003460 0.011279 0.000292 0.000000 0.000000 0.000000
# 3 -0.004231 0.000292 0.009706 0.000000 0.000000 0.000000
# 4 0.000000 0.000000 0.000000 0.114742 0.000000 0.000000
# 5 0.000000 0.000000 0.000000 0.000000 0.096534 0.000000
# 6 0.000000 0.000000 0.000000 0.000000 0.000000 0.034817
#
#
# Mechanical properties :
#
#
# Convention : Reuss Voigt Hill
#
# Bulk Modulus (GPa) = 43.98522 44.76013 44.37267
# Shear Modulus (GPa) = 16.33980 24.57176 20.45578
#
# Velocity S-wave (km/s) = 2.72113 3.33691 3.04463
# Velocity P-wave (km/s) = 5.45940 5.92707 5.69804
#
# Compressibility (1/GPa) = 0.02273491
#
# Stress axis : x y z
#
# Youngs Moduli (GPa) = 60.43301 88.66357 103.02732
#
# Poissons Ratio (x) = 0.30674 0.43593
# Poissons Ratio (y) = 0.20907 -0.03011
# Poissons Ratio (z) = 0.25570 -0.02591
#
# Static dielectric constant tensor:
#      x y z
#    x 1.894060 0.000000 0.000000 
#    y 0.000000 1.914610 0.000000 
#    z 0.000000 0.000000 1.804260 
# 
# From -- ./inp_files/24853.got.cif
#   From: 2010.05.17/outbox.cif.g08.bks.cpg/sg49_13_cif.got.tgz:24853.got - 2010.06.03 21:02:19.
