data_PCOD9392367
_publ_section_title
;
Structure prediction by ZEFSAII (Michael W. Deem and Ramdas Pophale) SiO2 
 PCOD9392367
Probable space group: P C C M
;
_chemical_formula_sum "Si O2"
_cell_formula_units_Z 52
_cell_length_a 5.265531
_cell_length_b 25.876459
_cell_length_c 19.698392
_cell_angle_alpha 90.000000
_cell_angle_beta 90.000000
_cell_angle_gamma 90.000000
_cell_volume 2683.970856
_symmetry_space_group_name_H-M "P C C M"
_symmetry_group_IT_number 49
_symmetry_cell_setting 'orthorhombic'
loop_
_space_group_symop_operation_xyz
x,y,z
-x,-y,z
x,-y,1/2-z
-x,y,1/2-z
-x,-y,-z
x,y,-z
-x,y,1/2+z
x,-y,1/2+z
loop_
_atom_site_type_symbol
_atom_site_label
_atom_site_fract_x
_atom_site_fract_y
_atom_site_fract_z
Si Si1 0.000000 0.201946 0.750000
Si Si2 0.032800 0.738770 0.618906
Si Si3 0.248294 0.035033 0.578065
Si Si4 0.509944 0.203683 0.924303
Si Si5 0.618564 0.877885 0.318509
Si Si6 0.499241 0.558960 0.667782
Si Si7 0.001166 0.623616 0.832621
O O1 0.891392 0.239168 0.692954
O O2 0.803550 0.164438 0.786139
O O3 0.272650 0.757359 0.575763
O O4 0.769833 0.766021 0.595544
O O5 0.998294 0.677999 0.628642
O O6 0.752558 0.945280 0.500000
O O7 0.252894 0.079818 0.633830
O O8 0.500000 0.000000 0.586246
O O9 0.000000 0.000000 0.586548
O O10 0.454637 0.157087 0.871013
O O11 0.542876 0.182138 0.000000
O O12 0.500000 0.902095 0.250000
O O13 0.500000 0.500000 0.642404
O O14 0.500000 0.556138 0.750000
O O15 0.750562 0.590546 0.649427
O O16 0.248011 0.590666 0.649451
O O17 0.000000 0.632106 0.750000
#
# Coordination Sequence:
#
# PCOD9392367 Si02
#       7
#     4   8   8   8   8   8   8
#     4  10  22  38  57  90 123 154 192 246 296 352
#     4  11  21  37  58  83 121 153 204 241 295 361
#     4  10  24  45  67  91 123 163 204 249 300 358
#     4  11  24  40  61  86 120 162 199 243 295 359
#     4  11  23  41  64  94 123 160 200 251 299 361
#     4   9  17  28  43  70 111 155 196 237 292 364
#     4  10  18  29  49  76 109 154 193 238 303 353
#
# _framework density 19.374279000000001
#
# number of rings (size 3 to 8) (size 9 to 14) (size 15 to 20)
#    0.000    1.692    2.308    2.308    2.154    2.154 
#    0.000    3.077    0.000    0.000    0.000    0.000 
#    0.000   43.077    0.000    0.000    0.000    0.000 
#
# Total GULP energy -290051.654565 kJ/mol
# GULP energy per Si atom -5577.916434 kJ/mol
# Density = 1.933018 g / cm^3
# Si number density = 19.374279 Si / 1000 Ang^3
#
#
#
# Elastic Constant Matrix: (Units=GPa)
#
#
# Indices 1 2 3 4 5 6 
#
# 1 122.6082 38.4367 28.0162 0.0000 0.0000 0.0000
# 2 38.4367 94.1433 52.6392 0.0000 0.0000 0.0000
# 3 28.0162 52.6392 107.7579 0.0000 0.0000 0.0000
# 4 0.0000 0.0000 0.0000 97.4157 0.0000 0.0000
# 5 0.0000 0.0000 0.0000 0.0000 41.9693 0.0000
# 6 0.0000 0.0000 0.0000 0.0000 0.0000 23.6015
#
#
#
# Elastic Compliance Matrix: (Units=1/GPa)
#
#
# Indices 1 2 3 4 5 6 
#
# 1 0.009401 -0.003400 -0.000783 0.000000 0.000000 0.000000
# 2 -0.003400 0.015844 -0.006855 0.000000 0.000000 0.000000
# 3 -0.000783 -0.006855 0.012833 0.000000 0.000000 0.000000
# 4 0.000000 0.000000 0.000000 0.010265 0.000000 0.000000
# 5 0.000000 0.000000 0.000000 0.000000 0.023827 0.000000
# 6 0.000000 0.000000 0.000000 0.000000 0.000000 0.042370
#
#
# Mechanical properties :
#
#
# Convention : Reuss Voigt Hill
#
# Bulk Modulus (GPa) = 62.50300 62.52151 62.51225
# Shear Modulus (GPa) = 35.22360 46.29179 40.75770
#
# Velocity S-wave (km/s) = 4.26850 4.89339 4.59159
# Velocity P-wave (km/s) = 7.52491 8.01670 7.77469
#
# Compressibility (1/GPa) = 0.01599923
#
# Stress axis : x y z
#
# Youngs Moduli (GPa) = 106.37183 63.11734 77.92709
#
# Poissons Ratio (x) = 0.21462 0.06103
# Poissons Ratio (y) = 0.36170 0.53422
# Poissons Ratio (z) = 0.08330 0.43270
#
# Static dielectric constant tensor:
#      x y z
#    x 1.683910 0.000000 0.000000 
#    y 0.000000 1.651100 0.000000 
#    z 0.000000 0.000000 1.520600 
# 
# From -- ./inp_files/19004.got.cif
#   From: 2010.05.17/outbox.cif.g08.bks.cpg/sg49_10_cif.got.tgz:19004.got - 2010.06.03 21:02:19.
