data_PCOD9392156
_publ_section_title
;
Structure prediction by ZEFSAII (Michael W. Deem and Ramdas Pophale) SiO2 
 PCOD9392156
Probable space group: P C C M
;
_chemical_formula_sum "Si O2"
_cell_formula_units_Z 40
_cell_length_a 9.322174
_cell_length_b 27.329953
_cell_length_c 8.596862
_cell_angle_alpha 90.000000
_cell_angle_beta 90.000000
_cell_angle_gamma 90.000000
_cell_volume 2190.261882
_symmetry_space_group_name_H-M "P C C M"
_symmetry_group_IT_number 49
_symmetry_cell_setting 'orthorhombic'
loop_
_space_group_symop_operation_xyz
x,y,z
-x,-y,z
x,-y,1/2-z
-x,y,1/2-z
-x,-y,-z
x,y,-z
-x,y,1/2+z
x,-y,1/2+z
loop_
_atom_site_type_symbol
_atom_site_label
_atom_site_fract_x
_atom_site_fract_y
_atom_site_fract_z
Si Si1 0.163722 0.949603 0.814361
Si Si2 0.660193 0.751578 0.812212
Si Si3 0.838054 0.342651 0.312119
Si Si4 0.163210 0.450083 0.186022
Si Si5 0.162042 0.847533 0.313032
O O1 0.225217 0.898294 0.753696
O O2 0.000000 0.948986 0.750000
O O3 0.229952 0.000000 0.750000
O O4 0.160562 0.950679 0.000000
O O5 0.500000 0.752724 0.750000
O O6 0.742742 0.702745 0.758115
O O7 0.746667 0.800285 0.766069
O O8 0.657429 0.750600 0.000000
O O9 0.844780 0.341399 0.500000
O O10 0.778210 0.396559 0.268262
O O11 0.000000 0.337938 0.250000
O O12 0.232004 0.500000 0.250000
O O13 0.000000 0.449349 0.250000
O O14 0.159040 0.453265 0.000000
O O15 0.156575 0.850863 0.500000
O O16 0.000000 0.841969 0.250000
#
# Coordination Sequence:
#
# PCOD9392156 Si02
#       5
#     8   8   8   8   8
#     4  10  17  27  45  71 102 132 161 197 241 287
#     4  10  22  37  52  71  98 130 166 205 247 293
#     4   9  18  32  50  74 100 128 162 203 244 289
#     4   9  15  24  41  66  97 125 154 192 238 286
#     4  10  19  32  51  76 102 129 163 203 243 289
#
# _framework density 18.262657000000001
#
# number of rings (size 3 to 8) (size 9 to 14) (size 15 to 20)
#    0.000    2.400    0.000    6.000    0.000    3.200 
#    0.000    0.000    0.000    1.200    0.000    8.400 
#    0.000    0.000    0.000    0.000    0.000    0.000 
#
# Total GULP energy -222950.624428 kJ/mol
# GULP energy per Si atom -5573.765611 kJ/mol
# Density = 1.822109 g / cm^3
# Si number density = 18.262657 Si / 1000 Ang^3
#
#
#
# Elastic Constant Matrix: (Units=GPa)
#
#
# Indices 1 2 3 4 5 6 
#
# 1 54.4926 69.0412 15.3400 0.0000 0.0000 0.0000
# 2 69.0412 243.6347 56.8160 0.0000 0.0000 0.0000
# 3 15.3400 56.8160 65.1453 0.0000 0.0000 0.0000
# 4 0.0000 0.0000 0.0000 85.6703 0.0000 0.0000
# 5 0.0000 0.0000 0.0000 0.0000 19.4500 0.0000
# 6 0.0000 0.0000 0.0000 0.0000 0.0000 -2.4452
#
#
#
# Elastic Compliance Matrix: (Units=1/GPa)
#
#
# Indices 1 2 3 4 5 6 
#
# 1 0.028640 -0.008214 0.000420 0.000000 0.000000 0.000000
# 2 -0.008214 0.007508 -0.004614 0.000000 0.000000 0.000000
# 3 0.000420 -0.004614 0.019276 0.000000 0.000000 0.000000
# 4 0.000000 0.000000 0.000000 0.011673 0.000000 0.000000
# 5 0.000000 0.000000 0.000000 0.000000 0.051414 0.000000
# 6 0.000000 0.000000 0.000000 0.000000 0.000000 -0.408958
#
#
# Mechanical properties :
#
#
# Convention : Reuss Voigt Hill
#
# Bulk Modulus (GPa) = 32.67204 71.74076 52.20640
# Shear Modulus (GPa) = -19.57491 35.34004 7.88256
#
# Velocity S-wave (km/s) = -3.27747 4.40375 2.07981
# Velocity P-wave (km/s) = 1.89908 8.07622 5.86651
#
# Compressibility (1/GPa) = 0.03060721
#
# Stress axis : x y z
#
# Youngs Moduli (GPa) = 34.91650 133.18879 51.87917
#
# Poissons Ratio (x) = 1.09399 -0.02178
# Poissons Ratio (y) = 0.28680 0.23937
# Poissons Ratio (z) = -0.01466 0.61454
#
# Static dielectric constant tensor:
#      x y z
#    x 1.572130 0.000000 0.000000 
#    y 0.000000 1.711650 0.000000 
#    z 0.000000 0.000000 1.626750 
# 
# From -- ./inp_files/1909.got.cif
#   From: 2010.05.17/outbox.cif.g08.bks.cpg/sg49_1_cif.got.tgz:1909.got - 2010.06.03 21:02:19.
