data_PCOD9392388
_publ_section_title
;
Structure prediction by ZEFSAII (Michael W. Deem and Ramdas Pophale) SiO2 
 PCOD9392388
Probable space group: P C C M
;
_chemical_formula_sum "Si O2"
_cell_formula_units_Z 64
_cell_length_a 19.461179
_cell_length_b 24.089764
_cell_length_c 8.851569
_cell_angle_alpha 90.000000
_cell_angle_beta 90.000000
_cell_angle_gamma 90.000000
_cell_volume 4149.750173
_symmetry_space_group_name_H-M "P C C M"
_symmetry_group_IT_number 49
_symmetry_cell_setting 'orthorhombic'
loop_
_space_group_symop_operation_xyz
x,y,z
-x,-y,z
x,-y,1/2-z
-x,y,1/2-z
-x,-y,-z
x,y,-z
-x,y,1/2+z
x,-y,1/2+z
loop_
_atom_site_type_symbol
_atom_site_label
_atom_site_fract_x
_atom_site_fract_y
_atom_site_fract_z
Si Si1 0.574557 0.270435 0.181164
Si Si2 0.927914 0.387964 0.318723
Si Si3 0.294022 0.660669 0.179903
Si Si4 0.658933 0.168630 0.680924
Si Si5 0.927119 0.742785 0.818941
Si Si6 0.213162 0.774645 0.819324
Si Si7 0.215517 0.559357 0.680665
Si Si8 0.574689 0.940503 0.181024
O O1 0.500000 0.280021 0.250000
O O2 0.628798 0.319456 0.215729
O O3 0.607700 0.214626 0.249757
O O4 0.571045 0.264689 0.000000
O O5 0.932189 0.391024 0.500000
O O6 0.918856 0.322804 0.278325
O O7 0.861049 0.421709 0.268198
O O8 0.000000 0.407369 0.250000
O O9 0.246304 0.714060 0.215564
O O10 0.267221 0.607275 0.266528
O O11 0.289213 0.650979 0.000000
O O12 0.661141 0.175315 0.500000
O O13 0.733596 0.181408 0.749869
O O14 0.628410 0.108155 0.715940
O O15 0.862364 0.775014 0.751080
O O16 0.000000 0.760705 0.750000
O O17 0.928110 0.746937 0.000000
O O18 0.210794 0.780281 0.000000
O O19 0.232586 0.500000 0.750000
O O20 0.215222 0.556202 0.500000
O O21 0.500000 0.926175 0.250000
O O22 0.594442 0.000000 0.250000
O O23 0.568159 0.945114 0.000000
#
# Coordination Sequence:
#
# PCOD9392388 Si02
#       8
#     8   8   8   8   8   8   8   8
#     4  10  20  33  51  76 100 125 155 191 239 287
#     4   9  19  32  47  67  90 120 154 189 229 275
#     4   9  19  34  50  69  93 119 151 189 231 284
#     4  10  20  32  48  72 101 133 167 205 243 282
#     4  10  18  30  47  69  96 127 162 196 237 290
#     4  10  19  31  49  72  97 127 160 199 245 289
#     4  11  22  35  50  69  90 118 154 191 235 282
#     4  10  20  32  48  69  97 136 176 210 244 281
#
# _framework density 15.422616
#
# number of rings (size 3 to 8) (size 9 to 14) (size 15 to 20)
#    0.000    2.125    1.250    3.750    0.000    7.250 
#    0.000    1.250    0.000    0.375    0.000    2.625 
#    0.000    0.500    0.000    5.250    0.000    2.875 
#
# Total GULP energy -357141.444502 kJ/mol
# GULP energy per Si atom -5580.335070 kJ/mol
# Density = 1.538751 g / cm^3
# Si number density = 15.422616 Si / 1000 Ang^3
#
#
#
# Elastic Constant Matrix: (Units=GPa)
#
#
# Indices 1 2 3 4 5 6 
#
# 1 135.1547 63.8125 58.1544 0.0000 0.0000 0.0000
# 2 63.8125 94.2409 51.4719 0.0000 0.0000 0.0000
# 3 58.1544 51.4719 60.1589 0.0000 0.0000 0.0000
# 4 0.0000 0.0000 0.0000 20.9402 0.0000 0.0000
# 5 0.0000 0.0000 0.0000 0.0000 29.8792 0.0000
# 6 0.0000 0.0000 0.0000 0.0000 0.0000 23.3211
#
#
#
# Elastic Compliance Matrix: (Units=1/GPa)
#
#
# Indices 1 2 3 4 5 6 
#
# 1 0.013333 -0.003733 -0.009695 0.000000 0.000000 0.000000
# 2 -0.003733 0.020965 -0.014329 0.000000 0.000000 0.000000
# 3 -0.009695 -0.014329 0.038254 0.000000 0.000000 0.000000
# 4 0.000000 0.000000 0.000000 0.047755 0.000000 0.000000
# 5 0.000000 0.000000 0.000000 0.000000 0.033468 0.000000
# 6 0.000000 0.000000 0.000000 0.000000 0.000000 0.042880
#
#
# Mechanical properties :
#
#
# Convention : Reuss Voigt Hill
#
# Bulk Modulus (GPa) = 58.69001 70.71467 64.70234
# Shear Modulus (GPa) = 19.39132 22.56913 20.98022
#
# Velocity S-wave (km/s) = 3.54973 3.82956 3.69230
# Velocity P-wave (km/s) = 7.41201 8.09351 7.76025
#
# Compressibility (1/GPa) = 0.01703868
#
# Stress axis : x y z
#
# Youngs Moduli (GPa) = 75.00268 47.69886 26.14101
#
# Poissons Ratio (x) = 0.17806 0.25343
# Poissons Ratio (y) = 0.27998 0.37457
# Poissons Ratio (z) = 0.72713 0.68347
#
# Static dielectric constant tensor:
#      x y z
#    x 1.509350 0.000000 0.000000 
#    y 0.000000 1.491910 0.000000 
#    z 0.000000 0.000000 1.512290 
# 
# From -- ./inp_files/5404.got.cif
#   From: 2010.05.17/outbox.cif.g08.bks.cpg/sg49_3_cif.got.tgz:5404.got - 2010.06.03 21:02:19.
