data_PCOD9392638
_publ_section_title
;
Structure prediction by ZEFSAII (Michael W. Deem and Ramdas Pophale) SiO2 
 PCOD9392638
Probable space group: P C C M
;
_chemical_formula_sum "Si O2"
_cell_formula_units_Z 56
_cell_length_a 19.063507
_cell_length_b 19.699020
_cell_length_c 8.700119
_cell_angle_alpha 90.000000
_cell_angle_beta 90.000000
_cell_angle_gamma 90.000000
_cell_volume 3267.176618
_symmetry_space_group_name_H-M "P C C M"
_symmetry_group_IT_number 49
_symmetry_cell_setting 'orthorhombic'
loop_
_space_group_symop_operation_xyz
x,y,z
-x,-y,z
x,-y,1/2-z
-x,y,1/2-z
-x,-y,-z
x,y,-z
-x,y,1/2+z
x,-y,1/2+z
loop_
_atom_site_type_symbol
_atom_site_label
_atom_site_fract_x
_atom_site_fract_y
_atom_site_fract_z
Si Si1 0.707593 0.792748 0.813345
Si Si2 0.075191 0.846997 0.684966
Si Si3 0.815003 0.427747 0.183128
Si Si4 0.847362 0.712245 0.814724
Si Si5 0.423140 0.705883 0.315155
Si Si6 0.649985 0.572794 0.315487
Si Si7 0.215184 0.074287 0.814405
O O1 0.771412 0.742936 0.767694
O O2 0.633749 0.762178 0.763440
O O3 0.728849 0.868430 0.764057
O O4 0.707855 0.793076 0.000000
O O5 0.072979 0.848048 0.500000
O O6 0.097211 0.770281 0.731527
O O7 0.138705 0.896543 0.732486
O O8 0.000000 0.866014 0.750000
O O9 0.838691 0.500000 0.250000
O O10 0.855287 0.362062 0.245233
O O11 0.732482 0.419326 0.227371
O O12 0.818677 0.429980 0.000000
O O13 0.847981 0.707456 0.000000
O O14 0.500000 0.718734 0.250000
O O15 0.425083 0.704804 0.500000
O O16 0.394092 0.633912 0.255401
O O17 0.626969 0.500000 0.250000
O O18 0.644652 0.573410 0.500000
O O19 0.227792 0.000000 0.750000
O O20 0.216062 0.071932 0.000000
#
# Coordination Sequence:
#
# PCOD9392638 Si02
#       7
#     8   8   8   8   8   8   8
#     4   8  16  32  53  71  95 129 165 201 246 296
#     4   9  19  33  51  75 107 139 168 199 239 292
#     4  10  19  29  46  72  99 127 163 211 255 297
#     4   9  16  31  52  71  93 129 170 207 247 294
#     4  11  21  34  52  72  97 132 167 209 257 302
#     4  10  20  33  48  70  99 131 168 208 252 303
#     4   9  18  34  54  79 104 133 167 200 240 289
#
# _framework density 17.140181999999999
#
# number of rings (size 3 to 8) (size 9 to 14) (size 15 to 20)
#    0.000    2.571    1.429    3.000    0.000    2.857 
#    0.000    6.429    0.000    0.857    0.000    6.000 
#    0.000    0.000    0.000    0.000    0.000    0.000 
#
# Total GULP energy -312275.905748 kJ/mol
# GULP energy per Si atom -5576.355460 kJ/mol
# Density = 1.710117 g / cm^3
# Si number density = 17.140182 Si / 1000 Ang^3
#
#
#
# Elastic Constant Matrix: (Units=GPa)
#
#
# Indices 1 2 3 4 5 6 
#
# 1 56.9498 40.4191 12.9171 0.0000 0.0000 0.0000
# 2 40.4191 146.8902 23.1065 0.0000 0.0000 0.0000
# 3 12.9171 23.1065 20.8188 0.0000 0.0000 0.0000
# 4 0.0000 0.0000 0.0000 30.0456 0.0000 0.0000
# 5 0.0000 0.0000 0.0000 0.0000 169.8382 0.0000
# 6 0.0000 0.0000 0.0000 0.0000 0.0000 16.6686
#
#
#
# Elastic Compliance Matrix: (Units=1/GPa)
#
#
# Indices 1 2 3 4 5 6 
#
# 1 0.023082 -0.004965 -0.008810 0.000000 0.000000 0.000000
# 2 -0.004965 0.009316 -0.007259 0.000000 0.000000 0.000000
# 3 -0.008810 -0.007259 0.061556 0.000000 0.000000 0.000000
# 4 0.000000 0.000000 0.000000 0.033283 0.000000 0.000000
# 5 0.000000 0.000000 0.000000 0.000000 0.005888 0.000000
# 6 0.000000 0.000000 0.000000 0.000000 0.000000 0.059993
#
#
# Mechanical properties :
#
#
# Convention : Reuss Voigt Hill
#
# Bulk Modulus (GPa) = 19.27330 41.94935 30.61132
# Shear Modulus (GPa) = 19.80345 53.19156 36.49750
#
# Velocity S-wave (km/s) = 3.40278 5.57679 4.61950
# Velocity P-wave (km/s) = 5.16793 8.12372 6.80817
#
# Compressibility (1/GPa) = 0.05188524
#
# Stress axis : x y z
#
# Youngs Moduli (GPa) = 43.32437 107.34257 16.24532
#
# Poissons Ratio (x) = 0.53300 0.14312
# Poissons Ratio (y) = 0.21512 0.11792
# Poissons Ratio (z) = 0.38169 0.77918
#
# Static dielectric constant tensor:
#      x y z
#    x 1.574650 0.000000 0.000000 
#    y 0.000000 1.573920 0.000000 
#    z 0.000000 0.000000 1.578120 
# 
# From -- ./inp_files/5152.got.cif
#   From: 2010.05.17/outbox.cif.g08.bks.cpg/sg49_3_cif.got.tgz:5152.got - 2010.06.03 21:02:19.
