data_PCOD9392739
_publ_section_title
;
Structure prediction by ZEFSAII (Michael W. Deem and Ramdas Pophale) SiO2 
 PCOD9392739
Probable space group: P C C M
;
_chemical_formula_sum "Si O2"
_cell_formula_units_Z 64
_cell_length_a 15.196177
_cell_length_b 28.870660
_cell_length_c 8.725147
_cell_angle_alpha 90.000000
_cell_angle_beta 90.000000
_cell_angle_gamma 90.000000
_cell_volume 3827.928421
_symmetry_space_group_name_H-M "P C C M"
_symmetry_group_IT_number 49
_symmetry_cell_setting 'orthorhombic'
loop_
_space_group_symop_operation_xyz
x,y,z
-x,-y,z
x,-y,1/2-z
-x,y,1/2-z
-x,-y,-z
x,y,-z
-x,y,1/2+z
x,-y,1/2+z
loop_
_atom_site_type_symbol
_atom_site_label
_atom_site_fract_x
_atom_site_fract_y
_atom_site_fract_z
Si Si1 0.281535 0.548211 0.816150
Si Si2 0.900977 0.046615 0.816789
Si Si3 0.404383 0.264775 0.816878
Si Si4 0.907562 0.419313 0.184215
Si Si5 0.906837 0.311783 0.184506
Si Si6 0.403934 0.627516 0.316109
Si Si7 0.226530 0.767281 0.185300
Si Si8 0.901407 0.149599 0.815383
O O1 0.316758 0.500000 0.750000
O O2 0.179697 0.554023 0.766949
O O3 0.334401 0.592176 0.754072
O O4 0.285385 0.547809 0.000000
O O5 0.866822 0.097867 0.776127
O O6 0.000000 0.047381 0.750000
O O7 0.857768 0.000000 0.750000
O O8 0.904434 0.042576 0.000000
O O9 0.500000 0.252406 0.750000
O O10 0.386677 0.318784 0.773558
O O11 0.323768 0.234937 0.753360
O O12 0.407762 0.262156 0.000000
O O13 0.896251 0.365315 0.232088
O O14 0.000000 0.436404 0.250000
O O15 0.912378 0.420369 0.000000
O O16 0.827515 0.278746 0.232869
O O17 0.000000 0.294817 0.250000
O O18 0.911190 0.310619 0.000000
O O19 0.500000 0.615886 0.250000
O O20 0.404191 0.624016 0.500000
O O21 0.166635 0.810838 0.233460
O O22 0.232465 0.767569 0.000000
O O23 0.000000 0.156027 0.750000
O O24 0.909041 0.151837 0.000000
#
# Coordination Sequence:
#
# PCOD9392739 Si02
#       8
#     8   8   8   8   8   8   8   8
#     4  11  23  38  55  76 101 127 156 191 233 279
#     4   9  15  24  38  57  83 120 167 211 250 287
#     4  10  21  36  55  77  98 123 156 193 232 278
#     4   9  19  34  51  70  93 123 158 194 228 266
#     4   9  17  29  46  68  93 123 157 190 226 269
#     4  10  21  38  59  81 102 124 152 187 229 278
#     4  10  19  31  47  68  98 131 160 195 239 283
#     4   9  18  29  42  64  96 133 170 208 247 288
#
# _framework density 16.719225999999999
#
# number of rings (size 3 to 8) (size 9 to 14) (size 15 to 20)
#    0.000    2.375    0.000    3.000    0.000    5.500 
#    0.000    5.000    0.000    0.000    0.000    0.000 
#    0.000    0.500    0.000    5.750    0.000    1.750 
#
# Total GULP energy -356984.167837 kJ/mol
# GULP energy per Si atom -5577.877622 kJ/mol
# Density = 1.668117 g / cm^3
# Si number density = 16.719226 Si / 1000 Ang^3
#
#
#
# Elastic Constant Matrix: (Units=GPa)
#
#
# Indices 1 2 3 4 5 6 
#
# 1 101.4087 53.3503 24.2374 0.0000 0.0000 0.0000
# 2 53.3503 77.3980 24.0355 0.0000 0.0000 0.0000
# 3 24.2374 24.0355 26.4444 0.0000 0.0000 0.0000
# 4 0.0000 0.0000 0.0000 28.5255 0.0000 0.0000
# 5 0.0000 0.0000 0.0000 0.0000 27.7595 0.0000
# 6 0.0000 0.0000 0.0000 0.0000 0.0000 12.7908
#
#
#
# Elastic Compliance Matrix: (Units=1/GPa)
#
#
# Indices 1 2 3 4 5 6 
#
# 1 0.016251 -0.009162 -0.006567 0.000000 0.000000 0.000000
# 2 -0.009162 0.023167 -0.012659 0.000000 0.000000 0.000000
# 3 -0.006567 -0.012659 0.055340 0.000000 0.000000 0.000000
# 4 0.000000 0.000000 0.000000 0.035056 0.000000 0.000000
# 5 0.000000 0.000000 0.000000 0.000000 0.036024 0.000000
# 6 0.000000 0.000000 0.000000 0.000000 0.000000 0.078181
#
#
# Mechanical properties :
#
#
# Convention : Reuss Voigt Hill
#
# Bulk Modulus (GPa) = 26.32871 45.38861 35.85866
# Shear Modulus (GPa) = 15.95120 20.72369 18.33744
#
# Velocity S-wave (km/s) = 3.09214 3.52449 3.31537
# Velocity P-wave (km/s) = 5.34137 6.61583 6.01246
#
# Compressibility (1/GPa) = 0.03798135
#
# Stress axis : x y z
#
# Youngs Moduli (GPa) = 61.53520 43.16487 18.07016
#
# Poissons Ratio (x) = 0.39549 0.11866
# Poissons Ratio (y) = 0.56381 0.22875
# Poissons Ratio (z) = 0.40409 0.54642
#
# Static dielectric constant tensor:
#      x y z
#    x 1.542040 0.000000 0.000000 
#    y 0.000000 1.596190 0.000000 
#    z 0.000000 0.000000 1.551920 
# 
# From -- ./inp_files/4506.got.cif
#   From: 2010.05.17/outbox.cif.g08.bks.cpg/sg49_3_cif.got.tgz:4506.got - 2010.06.03 21:02:19.
