data_PCOD9392544
_publ_section_title
;
Structure prediction by ZEFSAII (Michael W. Deem and Ramdas Pophale) SiO2 
 PCOD9392544
Probable space group: P C C M
;
_chemical_formula_sum "Si O2"
_cell_formula_units_Z 64
_cell_length_a 13.071780
_cell_length_b 14.694990
_cell_length_c 15.852950
_cell_angle_alpha 90.000000
_cell_angle_beta 90.000000
_cell_angle_gamma 90.000000
_cell_volume 3045.188035
_symmetry_space_group_name_H-M "P C C M"
_symmetry_group_IT_number 49
_symmetry_cell_setting 'orthorhombic'
loop_
_space_group_symop_operation_xyz
x,y,z
-x,-y,z
x,-y,1/2-z
-x,y,1/2-z
-x,-y,-z
x,y,-z
-x,y,1/2+z
x,-y,1/2+z
loop_
_atom_site_type_symbol
_atom_site_label
_atom_site_fract_x
_atom_site_fract_y
_atom_site_fract_z
Si Si1 0.667983 0.495057 0.599579
Si Si2 0.174221 0.763756 0.101557
Si Si3 0.885185 0.968146 0.397196
Si Si4 0.388889 0.318426 0.340204
Si Si5 0.955915 0.722882 0.901094
Si Si6 0.607454 0.710516 0.141324
Si Si7 0.784257 0.147697 0.398227
Si Si8 0.109092 0.522608 0.598955
O O1 0.666267 0.516397 0.500000
O O2 0.602679 0.572991 0.643930
O O3 0.641072 0.388924 0.607655
O O4 0.783654 0.509734 0.633692
O O5 0.149919 0.867498 0.129090
O O6 0.280642 0.721274 0.130161
O O7 0.071297 0.710766 0.131043
O O8 0.179319 0.761158 0.000000
O O9 0.889070 0.965565 0.500000
O O10 0.801492 0.043744 0.371233
O O11 0.000000 0.000000 0.370828
O O12 0.391724 0.300350 0.241505
O O13 0.488942 0.274315 0.383388
O O14 0.884349 0.799791 0.862786
O O15 0.891058 0.631387 0.899935
O O16 0.969982 0.747221 0.000000
O O17 0.684422 0.792444 0.120491
O O18 0.791278 0.147637 0.500000
O O19 0.105487 0.491504 0.500000
O O20 0.000000 0.500000 0.638518
#
# Coordination Sequence:
#
# PCOD9392544 Si02
#       8
#     8   8   8   8   8   8   8   8
#     4  11  21  36  62  89 110 142 192 242 284 337
#     4  10  19  34  59  89 119 149 186 235 285 340
#     4   9  16  30  58  93 122 146 180 231 292 349
#     4  11  25  41  56  78 114 158 196 235 288 336
#     4   9  15  27  51  82 115 146 176 218 279 339
#     4  11  24  42  58  76 113 159 196 236 284 338
#     4  10  18  33  60  89 112 144 190 234 279 339
#     4   9  16  26  45  77 113 143 173 213 267 329
#
# _framework density 21.016764999999999
#
# number of rings (size 3 to 8) (size 9 to 14) (size 15 to 20)
#    0.000    2.000    2.500    2.250    0.000    5.500 
#    0.000    1.875    0.000    5.250    0.000    0.000 
#    0.000    0.000    0.000    0.000    0.000    0.000 
#
# Total GULP energy -356919.331527 kJ/mol
# GULP energy per Si atom -5576.864555 kJ/mol
# Density = 2.096893 g / cm^3
# Si number density = 21.016765 Si / 1000 Ang^3
#
#
#
# Elastic Constant Matrix: (Units=GPa)
#
#
# Indices 1 2 3 4 5 6 
#
# 1 133.3479 51.1387 1.8044 0.0000 0.0000 0.0000
# 2 51.1387 79.3488 9.7217 0.0000 0.0000 0.0000
# 3 1.8044 9.7217 16.1340 0.0000 0.0000 0.0000
# 4 0.0000 0.0000 0.0000 1.7666 0.0000 0.0000
# 5 0.0000 0.0000 0.0000 0.0000 24.1213 0.0000
# 6 0.0000 0.0000 0.0000 0.0000 0.0000 26.1323
#
#
#
# Elastic Compliance Matrix: (Units=1/GPa)
#
#
# Indices 1 2 3 4 5 6 
#
# 1 0.010095 -0.006875 0.003014 0.000000 0.000000 0.000000
# 2 -0.006875 0.018290 -0.010252 0.000000 0.000000 0.000000
# 3 0.003014 -0.010252 0.067821 0.000000 0.000000 0.000000
# 4 0.000000 0.000000 0.000000 0.566059 0.000000 0.000000
# 5 0.000000 0.000000 0.000000 0.000000 0.041457 0.000000
# 6 0.000000 0.000000 0.000000 0.000000 0.000000 0.038267
#
#
# Mechanical properties :
#
#
# Convention : Reuss Voigt Hill
#
# Bulk Modulus (GPa) = 14.71034 39.35115 27.03074
# Shear Modulus (GPa) = 6.30616 21.48176 13.89396
#
# Velocity S-wave (km/s) = 1.73409 3.20054 2.57396
# Velocity P-wave (km/s) = 3.32023 5.69405 4.66080
#
# Compressibility (1/GPa) = 0.06797940
#
# Stress axis : x y z
#
# Youngs Moduli (GPa) = 99.05833 54.67594 14.74467
#
# Poissons Ratio (x) = 0.37591 -0.04444
# Poissons Ratio (y) = 0.68106 0.15116
# Poissons Ratio (z) = -0.29854 0.56052
#
# Static dielectric constant tensor:
#      x y z
#    x 1.818980 0.000000 0.000000 
#    y 0.000000 1.767910 0.000000 
#    z 0.000000 0.000000 1.780060 
# 
# From -- ./inp_files/17299.got.cif
#   From: 2010.05.17/outbox.cif.g08.bks.cpg/sg49_9_cif.got.tgz:17299.got - 2010.06.03 21:02:19.
