data_PCOD9392817
_publ_section_title
;
Structure prediction by ZEFSAII (Michael W. Deem and Ramdas Pophale) SiO2 
 PCOD9392817
Probable space group: P C C M
;
_chemical_formula_sum "Si O2"
_cell_formula_units_Z 40
_cell_length_a 8.520984
_cell_length_b 18.094269
_cell_length_c 11.209873
_cell_angle_alpha 90.000000
_cell_angle_beta 90.000000
_cell_angle_gamma 90.000000
_cell_volume 1728.349167
_symmetry_space_group_name_H-M "P C C M"
_symmetry_group_IT_number 49
_symmetry_cell_setting 'orthorhombic'
loop_
_space_group_symop_operation_xyz
x,y,z
-x,-y,z
x,-y,1/2-z
-x,y,1/2-z
-x,-y,-z
x,y,-z
-x,y,1/2+z
x,-y,1/2+z
loop_
_atom_site_type_symbol
_atom_site_label
_atom_site_fract_x
_atom_site_fract_y
_atom_site_fract_z
Si Si1 0.442468 0.415280 0.873201
Si Si2 0.925663 0.608501 0.127731
Si Si3 0.604137 0.206164 0.133446
Si Si4 0.046956 0.772867 0.870875
Si Si5 0.322148 0.967626 0.129886
O O1 0.500000 0.500000 0.873382
O O2 0.500000 0.380768 0.750000
O O3 0.255587 0.412444 0.871659
O O4 0.497252 0.382271 0.000000
O O5 0.000000 0.581136 0.250000
O O6 0.946535 0.697449 0.129003
O O7 0.996991 0.584364 0.000000
O O8 0.500000 0.219824 0.250000
O O9 0.769629 0.248896 0.136893
O O10 0.658234 0.120336 0.140403
O O11 0.531452 0.214994 0.000000
O O12 0.000000 0.814563 0.750000
O O13 0.023676 0.809905 0.000000
O O14 0.500000 0.000000 0.126607
O O15 0.246959 0.000000 0.250000
O O16 0.250390 0.985185 0.000000
#
# Coordination Sequence:
#
# PCOD9392817 Si02
#       5
#     8   8   8   8   8
#     4   9  18  34  57  86 116 144 181 229 274 320
#     4   9  18  35  58  81 109 149 187 221 271 331
#     4  10  19  31  51  80 109 139 180 232 280 328
#     4   9  19  36  55  76 106 145 187 228 273 331
#     4   9  15  25  43  71 104 135 170 217 275 327
#
# _framework density 23.143471000000002
#
# number of rings (size 3 to 8) (size 9 to 14) (size 15 to 20)
#    0.000    2.800    2.000    0.000    0.000    1.600 
#    0.000    6.000    0.000   33.000    0.000    4.200 
#    0.000    0.000    0.000    0.000    0.000    0.000 
#
# Total GULP energy -223039.680515 kJ/mol
# GULP energy per Si atom -5575.992013 kJ/mol
# Density = 2.309080 g / cm^3
# Si number density = 23.143471 Si / 1000 Ang^3
#
#
#
# Elastic Constant Matrix: (Units=GPa)
#
#
# Indices 1 2 3 4 5 6 
#
# 1 68.4202 12.2205 47.5413 0.0000 0.0000 0.0000
# 2 12.2205 84.4625 7.5002 0.0000 0.0000 0.0000
# 3 47.5413 7.5002 348.6244 0.0000 0.0000 0.0000
# 4 0.0000 0.0000 0.0000 -13.4712 0.0000 0.0000
# 5 0.0000 0.0000 0.0000 0.0000 20.9448 0.0000
# 6 0.0000 0.0000 0.0000 0.0000 0.0000 8.5845
#
#
#
# Elastic Compliance Matrix: (Units=1/GPa)
#
#
# Indices 1 2 3 4 5 6 
#
# 1 0.016543 -0.002197 -0.002209 0.000000 0.000000 0.000000
# 2 -0.002197 0.012154 0.000038 0.000000 0.000000 0.000000
# 3 -0.002209 0.000038 0.003169 0.000000 0.000000 0.000000
# 4 0.000000 0.000000 0.000000 -0.074232 0.000000 0.000000
# 5 0.000000 0.000000 0.000000 0.000000 0.047744 0.000000
# 6 0.000000 0.000000 0.000000 0.000000 0.000000 0.116489
#
#
# Mechanical properties :
#
#
# Convention : Reuss Voigt Hill
#
# Bulk Modulus (GPa) = 43.23401 70.67011 56.95206
# Shear Modulus (GPa) = 36.14996 32.16130 34.15563
#
# Velocity S-wave (km/s) = 3.95649 3.73184 3.84581
# Velocity P-wave (km/s) = 6.29231 7.01219 6.66198
#
# Compressibility (1/GPa) = 0.02312994
#
# Stress axis : x y z
#
# Youngs Moduli (GPa) = 60.44972 82.27674 315.57877
#
# Poissons Ratio (x) = 0.18079 0.69699
# Poissons Ratio (y) = 0.13283 -0.01205
# Poissons Ratio (z) = 0.13351 -0.00314
#
# Static dielectric constant tensor:
#      x y z
#    x 1.847080 0.000000 0.000000 
#    y 0.000000 1.854110 0.000000 
#    z 0.000000 0.000000 1.989340 
# 
# From -- ./inp_files/8115.got.cif
#   From: 2010.05.17/outbox.cif.g08.bks.cpg/sg49_5_cif.got.tgz:8115.got - 2010.06.03 21:02:19.
