data_PCOD9392208
_publ_section_title
;
Structure prediction by ZEFSAII (Michael W. Deem and Ramdas Pophale) SiO2 
 PCOD9392208
Probable space group: P C C M
;
_chemical_formula_sum "Si O2"
_cell_formula_units_Z 48
_cell_length_a 9.765110
_cell_length_b 31.321985
_cell_length_c 8.672294
_cell_angle_alpha 90.000000
_cell_angle_beta 90.000000
_cell_angle_gamma 90.000000
_cell_volume 2652.530642
_symmetry_space_group_name_H-M "P C C M"
_symmetry_group_IT_number 49
_symmetry_cell_setting 'orthorhombic'
loop_
_space_group_symop_operation_xyz
x,y,z
-x,-y,z
x,-y,1/2-z
-x,y,1/2-z
-x,-y,-z
x,y,-z
-x,y,1/2+z
x,-y,1/2+z
loop_
_atom_site_type_symbol
_atom_site_label
_atom_site_fract_x
_atom_site_fract_y
_atom_site_fract_z
Si Si1 0.153741 0.867478 0.184174
Si Si2 0.649490 0.546945 0.685129
Si Si3 0.651227 0.204601 0.684873
Si Si4 0.155788 0.956173 0.684636
Si Si5 0.152600 0.375860 0.684712
Si Si6 0.650955 0.695998 0.184166
O O1 0.242689 0.827470 0.237788
O O2 0.214653 0.911561 0.253838
O O3 0.000000 0.862745 0.250000
O O4 0.147849 0.870852 0.000000
O O5 0.681738 0.500000 0.750000
O O6 0.500000 0.559170 0.750000
O O7 0.641407 0.544899 0.500000
O O8 0.761855 0.581885 0.730125
O O9 0.500000 0.195799 0.750000
O O10 0.653031 0.199417 0.500000
O O11 0.681723 0.254342 0.720281
O O12 0.152760 0.957046 0.500000
O O13 0.000000 0.955685 0.750000
O O14 0.219130 0.000000 0.750000
O O15 0.147485 0.374332 0.500000
O O16 0.237224 0.335390 0.745669
O O17 0.000000 0.376670 0.750000
O O18 0.500000 0.686143 0.250000
O O19 0.647563 0.691265 0.000000
#
# Coordination Sequence:
#
# PCOD9392208 Si02
#       6
#     8   8   8   8   8   8
#     4  11  21  34  53  79 109 143 181 225 274 324
#     4  10  21  37  59  85 111 145 186 229 272 322
#     4  10  21  38  58  82 109 142 181 223 271 325
#     4  10  17  28  46  71 103 138 177 222 269 321
#     4  11  24  39  57  83 115 149 185 226 278 329
#     4  10  21  38  61  84 109 142 183 226 270 323
#
# _framework density 18.095927
#
# number of rings (size 3 to 8) (size 9 to 14) (size 15 to 20)
#    0.000    1.667    0.000    7.500    0.000    7.000 
#    0.000    1.667    0.000    0.500    0.000    3.500 
#    0.000    0.000    0.000    0.000    0.000    0.000 
#
# Total GULP energy -268125.801172 kJ/mol
# GULP energy per Si atom -5585.954191 kJ/mol
# Density = 1.805474 g / cm^3
# Si number density = 18.095927 Si / 1000 Ang^3
#
#
#
# Elastic Constant Matrix: (Units=GPa)
#
#
# Indices 1 2 3 4 5 6 
#
# 1 116.7188 109.3456 58.5825 0.0000 0.0000 0.0000
# 2 109.3456 143.8044 73.5481 0.0000 0.0000 0.0000
# 3 58.5825 73.5481 122.8764 0.0000 0.0000 0.0000
# 4 0.0000 0.0000 0.0000 18.0211 0.0000 0.0000
# 5 0.0000 0.0000 0.0000 0.0000 29.8734 0.0000
# 6 0.0000 0.0000 0.0000 0.0000 0.0000 23.8893
#
#
#
# Elastic Compliance Matrix: (Units=1/GPa)
#
#
# Indices 1 2 3 4 5 6 
#
# 1 0.029858 -0.022227 -0.000931 0.000000 0.000000 0.000000
# 2 -0.022227 0.026568 -0.005306 0.000000 0.000000 0.000000
# 3 -0.000931 -0.005306 0.011758 0.000000 0.000000 0.000000
# 4 0.000000 0.000000 0.000000 0.055491 0.000000 0.000000
# 5 0.000000 0.000000 0.000000 0.000000 0.033475 0.000000
# 6 0.000000 0.000000 0.000000 0.000000 0.000000 0.041860
#
#
# Mechanical properties :
#
#
# Convention : Reuss Voigt Hill
#
# Bulk Modulus (GPa) = 88.83555 96.26133 92.54844
# Shear Modulus (GPa) = 19.25384 23.81830 21.53607
#
# Velocity S-wave (km/s) = 3.26542 3.63192 3.45353
# Velocity P-wave (km/s) = 7.96337 8.42011 8.19493
#
# Compressibility (1/GPa) = 0.01125675
#
# Stress axis : x y z
#
# Youngs Moduli (GPa) = 33.49207 37.63874 85.05006
#
# Poissons Ratio (x) = 0.83660 0.07917
# Poissons Ratio (y) = 0.74443 0.45124
# Poissons Ratio (z) = 0.03118 0.19970
#
# Static dielectric constant tensor:
#      x y z
#    x 1.595000 0.000000 0.000000 
#    y 0.000000 1.644940 0.000000 
#    z 0.000000 0.000000 1.603610 
# 
# From -- ./inp_files/2037.got.cif
#   From: 2010.05.17/outbox.cif.g08.bks.cpg/sg49_2_cif.got.tgz:2037.got - 2010.06.03 21:02:19.
