data_PCOD9392749
_publ_section_title
;
Structure prediction by ZEFSAII (Michael W. Deem and Ramdas Pophale) SiO2 
 PCOD9392749
Probable space group: P C C M
;
_chemical_formula_sum "Si O2"
_cell_formula_units_Z 56
_cell_length_a 30.262785
_cell_length_b 14.046228
_cell_length_c 8.746440
_cell_angle_alpha 90.000000
_cell_angle_beta 90.000000
_cell_angle_gamma 90.000000
_cell_volume 3717.919030
_symmetry_space_group_name_H-M "P C C M"
_symmetry_group_IT_number 49
_symmetry_cell_setting 'orthorhombic'
loop_
_space_group_symop_operation_xyz
x,y,z
-x,-y,z
x,-y,1/2-z
-x,y,1/2-z
-x,-y,-z
x,y,-z
-x,y,1/2+z
x,-y,1/2+z
loop_
_atom_site_type_symbol
_atom_site_label
_atom_site_fract_x
_atom_site_fract_y
_atom_site_fract_z
Si Si1 0.317326 0.103067 0.816958
Si Si2 0.044508 0.107199 0.182967
Si Si3 0.770492 0.215974 0.315105
Si Si4 0.637710 0.295967 0.315385
Si Si5 0.546577 0.605976 0.816524
Si Si6 0.276721 0.603507 0.817748
Si Si7 0.857866 0.106528 0.315757
O O1 0.268582 0.141786 0.773422
O O2 0.350806 0.187487 0.771005
O O3 0.326412 0.000000 0.750000
O O4 0.318360 0.096176 0.000000
O O5 0.093185 0.145778 0.223789
O O6 0.000000 0.153428 0.250000
O O7 0.045499 0.000000 0.250000
O O8 0.040662 0.103074 0.000000
O O9 0.769826 0.225869 0.500000
O O10 0.757112 0.316276 0.242326
O O11 0.817491 0.173257 0.266947
O O12 0.642682 0.302988 0.500000
O O13 0.588787 0.330267 0.275160
O O14 0.675081 0.362310 0.241015
O O15 0.553340 0.500000 0.750000
O O16 0.500000 0.641489 0.750000
O O17 0.543596 0.600216 0.000000
O O18 0.266963 0.500000 0.750000
O O19 0.276521 0.600320 0.000000
O O20 0.856131 0.098775 0.500000
O O21 0.852952 0.000000 0.250000
#
# Coordination Sequence:
#
# PCOD9392749 Si02
#       7
#     8   8   8   8   8   8   8
#     4   9  17  29  45  64  87 114 145 180 216 249
#     4   9  15  23  35  53  77 109 146 181 218 257
#     4   9  18  32  45  61  88 117 145 181 219 256
#     4   9  19  34  49  67  92 120 147 179 215 253
#     4  10  19  31  48  69  93 117 142 174 216 261
#     4  11  21  32  48  68  89 115 145 177 213 257
#     4   9  17  27  41  60  85 117 150 184 221 258
#
# _framework density 15.062188000000001
#
# number of rings (size 3 to 8) (size 9 to 14) (size 15 to 20)
#    0.000    2.571    0.000    4.714    0.000    5.714 
#    0.000    0.000    0.000    0.429    0.000    3.000 
#    0.000    0.571    0.000    6.571    0.000    2.000 
#
# Total GULP energy -312051.283801 kJ/mol
# GULP energy per Si atom -5572.344354 kJ/mol
# Density = 1.502791 g / cm^3
# Si number density = 15.062188 Si / 1000 Ang^3
#
#
#
# Elastic Constant Matrix: (Units=GPa)
#
#
# Indices 1 2 3 4 5 6 
#
# 1 161.1867 69.4081 42.8212 0.0000 0.0000 0.0000
# 2 69.4081 93.0365 29.8217 0.0000 0.0000 0.0000
# 3 42.8212 29.8217 36.8061 0.0000 0.0000 0.0000
# 4 0.0000 0.0000 0.0000 19.9715 0.0000 0.0000
# 5 0.0000 0.0000 0.0000 0.0000 27.1563 0.0000
# 6 0.0000 0.0000 0.0000 0.0000 0.0000 18.9841
#
#
#
# Elastic Compliance Matrix: (Units=1/GPa)
#
#
# Indices 1 2 3 4 5 6 
#
# 1 0.010653 -0.005369 -0.008044 0.000000 0.000000 0.000000
# 2 -0.005369 0.017225 -0.007710 0.000000 0.000000 0.000000
# 3 -0.008044 -0.007710 0.042775 0.000000 0.000000 0.000000
# 4 0.000000 0.000000 0.000000 0.050071 0.000000 0.000000
# 5 0.000000 0.000000 0.000000 0.000000 0.036824 0.000000
# 6 0.000000 0.000000 0.000000 0.000000 0.000000 0.052676
#
#
# Mechanical properties :
#
#
# Convention : Reuss Voigt Hill
#
# Bulk Modulus (GPa) = 35.20229 63.90349 49.55289
# Shear Modulus (GPa) = 19.08849 23.15427 21.12138
#
# Velocity S-wave (km/s) = 3.56379 3.92503 3.74876
# Velocity P-wave (km/s) = 6.35265 7.94101 7.19082
#
# Compressibility (1/GPa) = 0.02840724
#
# Stress axis : x y z
#
# Youngs Moduli (GPa) = 93.87186 58.05405 23.37839
#
# Poissons Ratio (x) = 0.31170 0.18805
# Poissons Ratio (y) = 0.50400 0.18025
# Poissons Ratio (z) = 0.75506 0.44760
#
# Static dielectric constant tensor:
#      x y z
#    x 1.529700 0.000000 0.000000 
#    y 0.000000 1.470790 0.000000 
#    z 0.000000 0.000000 1.511670 
# 
# From -- ./inp_files/7026.got.cif
#   From: 2010.05.17/outbox.cif.g08.bks.cpg/sg49_4_cif.got.tgz:7026.got - 2010.06.03 21:02:19.
