data_PCOD9392058
_publ_section_title
;
Structure prediction by ZEFSAII (Michael W. Deem and Ramdas Pophale) SiO2 
 PCOD9392058
Probable space group: P C C M
;
_chemical_formula_sum "Si O2"
_cell_formula_units_Z 32
_cell_length_a 5.319005
_cell_length_b 18.823625
_cell_length_c 14.536312
_cell_angle_alpha 90.000000
_cell_angle_beta 90.000000
_cell_angle_gamma 90.000000
_cell_volume 1455.418519
_symmetry_space_group_name_H-M "P C C M"
_symmetry_group_IT_number 49
_symmetry_cell_setting 'orthorhombic'
loop_
_space_group_symop_operation_xyz
x,y,z
-x,-y,z
x,-y,1/2-z
-x,y,1/2-z
-x,-y,-z
x,y,-z
-x,y,1/2+z
x,-y,1/2+z
loop_
_atom_site_type_symbol
_atom_site_label
_atom_site_fract_x
_atom_site_fract_y
_atom_site_fract_z
Si Si1 0.075548 0.164813 0.890820
Si Si2 0.414156 0.922594 0.889952
Si Si3 0.746256 0.468694 0.356767
Si Si4 0.758792 0.313883 0.306308
O O1 0.336370 0.123564 0.877640
O O2 0.132096 0.242298 0.850876
O O3 0.834375 0.119333 0.854230
O O4 0.031937 0.172775 0.000000
O O5 0.500000 0.000000 0.854790
O O6 0.366181 0.931936 0.000000
O O7 0.500000 0.500000 0.399840
O O8 0.745422 0.500000 0.250000
O O9 0.712421 0.384076 0.365223
O O10 0.000000 0.500000 0.395990
O O11 0.500000 0.299302 0.250000
O O12 0.000000 0.340477 0.250000
#
# Coordination Sequence:
#
# PCOD9392058 Si02
#       4
#     8   8   8   8
#     4  10  21  35  53  82 114 139 173 229 283 322
#     4   9  17  33  57  80 103 140 186 221 255 318
#     4  10  16  30  49  75  97 131 183 235 252 298
#     4  12  21  33  55  81 108 143 182 228 272 327
#
# _framework density 21.986802999999998
#
# number of rings (size 3 to 8) (size 9 to 14) (size 15 to 20)
#    0.000    1.750    5.000    2.250    0.000    3.000 
#    0.000    0.000    0.000   12.750    0.000    0.000 
#    0.000    0.000    0.000    0.000    0.000    0.000 
#
# Total GULP energy -178317.766355 kJ/mol
# GULP energy per Si atom -5572.430199 kJ/mol
# Density = 2.193676 g / cm^3
# Si number density = 21.986803 Si / 1000 Ang^3
#
#
#
# Elastic Constant Matrix: (Units=GPa)
#
#
# Indices 1 2 3 4 5 6 
#
# 1 167.5919 53.5461 45.3974 0.0000 0.0000 0.0000
# 2 53.5461 197.8347 26.6503 0.0000 0.0000 0.0000
# 3 45.3974 26.6503 43.3864 0.0000 0.0000 0.0000
# 4 0.0000 0.0000 0.0000 36.8950 0.0000 0.0000
# 5 0.0000 0.0000 0.0000 0.0000 -1.6060 0.0000
# 6 0.0000 0.0000 0.0000 0.0000 0.0000 -33.4737
#
#
#
# Elastic Compliance Matrix: (Units=1/GPa)
#
#
# Indices 1 2 3 4 5 6 
#
# 1 0.008587 -0.001214 -0.008239 0.000000 0.000000 0.000000
# 2 -0.001214 0.005682 -0.002220 0.000000 0.000000 0.000000
# 3 -0.008239 -0.002220 0.033033 0.000000 0.000000 0.000000
# 4 0.000000 0.000000 0.000000 0.027104 0.000000 0.000000
# 5 0.000000 0.000000 0.000000 0.000000 -0.622652 0.000000
# 6 0.000000 0.000000 0.000000 0.000000 0.000000 -0.029874
#
#
# Mechanical properties :
#
#
# Convention : Reuss Voigt Hill
#
# Bulk Modulus (GPa) = 41.74303 73.33342 57.53822
# Shear Modulus (GPa) = -9.14430 19.24433 5.05002
#
# Velocity S-wave (km/s) = -2.04157 2.96170 1.51718
# Velocity P-wave (km/s) = 3.67006 6.71724 5.41252
#
# Compressibility (1/GPa) = 0.02395609
#
# Stress axis : x y z
#
# Youngs Moduli (GPa) = 116.46164 175.98148 30.27287
#
# Poissons Ratio (x) = 0.21368 0.24941
# Poissons Ratio (y) = 0.14141 0.06720
# Poissons Ratio (z) = 0.95949 0.39067
#
# Static dielectric constant tensor:
#      x y z
#    x 1.634080 0.000000 0.000000 
#    y 0.000000 1.851200 0.000000 
#    z 0.000000 0.000000 2.790810 
# 
# From -- ./inp_files/10522.got.cif
#   From: 2010.05.17/outbox.cif.g08.bks.cpg/sg49_6_cif.got.tgz:10522.got - 2010.06.03 21:02:19.
