data_PCOD9392652
_publ_section_title
;
Structure prediction by ZEFSAII (Michael W. Deem and Ramdas Pophale) SiO2 
 PCOD9392652
Probable space group: P C C M
;
_chemical_formula_sum "Si O2"
_cell_formula_units_Z 64
_cell_length_a 18.719032
_cell_length_b 27.188826
_cell_length_c 8.757980
_cell_angle_alpha 90.000000
_cell_angle_beta 90.000000
_cell_angle_gamma 90.000000
_cell_volume 4457.360819
_symmetry_space_group_name_H-M "P C C M"
_symmetry_group_IT_number 49
_symmetry_cell_setting 'orthorhombic'
loop_
_space_group_symop_operation_xyz
x,y,z
-x,-y,z
x,-y,1/2-z
-x,y,1/2-z
-x,-y,-z
x,y,-z
-x,y,1/2+z
x,-y,1/2+z
loop_
_atom_site_type_symbol
_atom_site_label
_atom_site_fract_x
_atom_site_fract_y
_atom_site_fract_z
Si Si1 0.578905 0.552687 0.316582
Si Si2 0.298981 0.800504 0.824441
Si Si3 0.799941 0.297611 0.176097
Si Si4 0.921412 0.053733 0.316556
Si Si5 0.161330 0.855179 0.184495
Si Si6 0.662495 0.650422 0.684552
Si Si7 0.578066 0.256724 0.319451
Si Si8 0.078246 0.761064 0.681363
O O1 0.601603 0.500000 0.250000
O O2 0.500000 0.562998 0.250000
O O3 0.574135 0.549624 0.500000
O O4 0.631312 0.597323 0.275336
O O5 0.249800 0.751319 0.823689
O O6 0.243497 0.842418 0.773914
O O7 0.367824 0.787059 0.726585
O O8 0.320430 0.809262 0.000000
O O9 0.744699 0.339343 0.230562
O O10 0.868492 0.283427 0.274238
O O11 0.821122 0.306652 0.000000
O O12 0.924426 0.052298 0.500000
O O13 0.867330 0.094946 0.257314
O O14 0.000000 0.066087 0.250000
O O15 0.903280 0.000000 0.250000
O O16 0.112451 0.810316 0.245044
O O17 0.156813 0.856366 0.000000
O O18 0.660421 0.655691 0.500000
O O19 0.612770 0.693121 0.753358
O O20 0.500000 0.249568 0.250000
O O21 0.573270 0.260908 0.500000
O O22 0.074845 0.767028 0.500000
O O23 0.000000 0.753469 0.750000
#
# Coordination Sequence:
#
# PCOD9392652 Si02
#       8
#     8   8   8   8   8   8   8   8
#     4  10  19  30  43  60  82 110 141 176 211 245
#     4   8  16  30  45  60  83 111 139 172 211 251
#     4   8  15  29  44  59  81 108 136 171 210 249
#     4  11  21  33  47  64  87 114 146 182 216 251
#     4  10  19  32  47  63  85 114 144 176 214 253
#     4   9  18  31  45  60  82 111 142 173 212 253
#     4  11  20  28  42  62  86 113 144 177 210 249
#     4  11  20  29  42  62  86 113 144 175 207 247
#
# _framework density 14.358271
#
# number of rings (size 3 to 8) (size 9 to 14) (size 15 to 20)
#    0.000    2.250    0.000    7.125    0.000    7.000 
#    0.000    0.000    0.000    0.000    0.000    0.000 
#    0.000    1.000    0.000   11.000    0.000    4.000 
#
# Total GULP energy -356810.800465 kJ/mol
# GULP energy per Si atom -5575.168757 kJ/mol
# Density = 1.432559 g / cm^3
# Si number density = 14.358271 Si / 1000 Ang^3
#
#
#
# Elastic Constant Matrix: (Units=GPa)
#
#
# Indices 1 2 3 4 5 6 
#
# 1 99.7109 52.6904 48.9078 0.0000 0.0000 0.0000
# 2 52.6904 84.7308 35.1535 0.0000 0.0000 0.0000
# 3 48.9078 35.1535 81.1060 0.0000 0.0000 0.0000
# 4 0.0000 0.0000 0.0000 54.5727 0.0000 0.0000
# 5 0.0000 0.0000 0.0000 0.0000 21.6868 0.0000
# 6 0.0000 0.0000 0.0000 0.0000 0.0000 27.5037
#
#
#
# Elastic Compliance Matrix: (Units=1/GPa)
#
#
# Indices 1 2 3 4 5 6 
#
# 1 0.017874 -0.008100 -0.007267 0.000000 0.000000 0.000000
# 2 -0.008100 0.018060 -0.002944 0.000000 0.000000 0.000000
# 3 -0.007267 -0.002944 0.017988 0.000000 0.000000 0.000000
# 4 0.000000 0.000000 0.000000 0.018324 0.000000 0.000000
# 5 0.000000 0.000000 0.000000 0.000000 0.046111 0.000000
# 6 0.000000 0.000000 0.000000 0.000000 0.000000 0.036359
#
#
# Mechanical properties :
#
#
# Convention : Reuss Voigt Hill
#
# Bulk Modulus (GPa) = 57.80273 59.89456 58.84864
# Shear Modulus (GPa) = 25.36734 29.33906 27.35320
#
# Velocity S-wave (km/s) = 4.20782 4.52525 4.36942
# Velocity P-wave (km/s) = 7.99703 8.31317 8.15663
#
# Compressibility (1/GPa) = 0.01730022
#
# Stress axis : x y z
#
# Youngs Moduli (GPa) = 55.94771 55.37028 55.59367
#
# Poissons Ratio (x) = 0.44849 0.40402
# Poissons Ratio (y) = 0.45317 0.16364
# Poissons Ratio (z) = 0.40660 0.16298
#
# Static dielectric constant tensor:
#      x y z
#    x 1.474860 0.000000 0.000000 
#    y 0.000000 1.469930 0.000000 
#    z 0.000000 0.000000 1.479280 
# 
# From -- ./inp_files/5456.got.cif
#   From: 2010.05.17/outbox.cif.g08.bks.cpg/sg49_3_cif.got.tgz:5456.got - 2010.06.03 21:02:19.
