data_PCOD9392489
_publ_section_title
;
Structure prediction by ZEFSAII (Michael W. Deem and Ramdas Pophale) SiO2 
 PCOD9392489
Probable space group: P C C M
;
_chemical_formula_sum "Si O2"
_cell_formula_units_Z 52
_cell_length_a 13.461030
_cell_length_b 8.358459
_cell_length_c 21.218504
_cell_angle_alpha 90.000000
_cell_angle_beta 90.000000
_cell_angle_gamma 90.000000
_cell_volume 2387.367457
_symmetry_space_group_name_H-M "P C C M"
_symmetry_group_IT_number 49
_symmetry_cell_setting 'orthorhombic'
loop_
_space_group_symop_operation_xyz
x,y,z
-x,-y,z
x,-y,1/2-z
-x,y,1/2-z
-x,-y,-z
x,y,-z
-x,y,1/2+z
x,-y,1/2+z
loop_
_atom_site_type_symbol
_atom_site_label
_atom_site_fract_x
_atom_site_fract_y
_atom_site_fract_z
Si Si1 0.339568 0.469770 0.663475
Si Si2 0.000000 0.500000 0.649816
Si Si3 0.584855 0.265177 0.572531
Si Si4 0.754479 0.958055 0.125823
Si Si5 0.160073 0.268944 0.630440
Si Si6 0.171090 0.300802 0.781620
Si Si7 0.568402 0.146719 0.833123
O O1 0.399645 0.583153 0.617199
O O2 0.258815 0.374381 0.621284
O O3 0.270930 0.595003 0.703289
O O4 0.407661 0.326359 0.693603
O O5 0.935652 0.629055 0.611696
O O6 0.920433 0.402884 0.691600
O O7 0.574566 0.304026 0.500000
O O8 0.682886 0.152610 0.583178
O O9 0.485969 0.182700 0.600423
O O10 0.815509 0.852087 0.174581
O O11 0.825689 0.096350 0.099285
O O12 0.674323 0.063235 0.163930
O O13 0.155846 0.259862 0.708137
O O14 0.500000 0.000000 0.808997
#
# Coordination Sequence:
#
# PCOD9392489 Si02
#       7
#     8   4   8   8   8   8   8
#     4   9  18  31  50  76 106 140 171 211 263 317
#     4  10  19  30  52  84 107 134 177 214 250 304
#     4  10  20  35  56  78 101 132 176 228 271 307
#     4   9  20  33  50  76 107 140 168 211 268 320
#     4  10  18  33  53  77 109 139 172 215 258 306
#     4  10  18  32  53  77 109 142 174 212 255 306
#     4   9  18  32  49  70 103 133 169 215 260 305
#
# _framework density 21.781313999999998
#
# number of rings (size 3 to 8) (size 9 to 14) (size 15 to 20)
#    0.000    2.462    0.000    3.692    0.000    4.615 
#    0.000    5.385    0.000  123.692    0.000   63.538 
#    0.000    0.000    0.000    0.000    0.000    0.000 
#
# Total GULP energy -289543.172285 kJ/mol
# GULP energy per Si atom -5568.137929 kJ/mol
# Density = 2.173174 g / cm^3
# Si number density = 21.781314 Si / 1000 Ang^3
#
#
#
# Elastic Constant Matrix: (Units=GPa)
#
#
# Indices 1 2 3 4 5 6 
#
# 1 104.1118 46.8681 15.2328 0.0000 0.0000 0.0000
# 2 46.8681 133.1916 4.0291 0.0000 0.0000 0.0000
# 3 15.2328 4.0291 29.1062 0.0000 0.0000 0.0000
# 4 0.0000 0.0000 0.0000 31.5378 0.0000 0.0000
# 5 0.0000 0.0000 0.0000 0.0000 12.6028 0.0000
# 6 0.0000 0.0000 0.0000 0.0000 0.0000 26.7561
#
#
#
# Elastic Compliance Matrix: (Units=1/GPa)
#
#
# Indices 1 2 3 4 5 6 
#
# 1 0.012340 -0.004164 -0.005882 0.000000 0.000000 0.000000
# 2 -0.004164 0.008945 0.000941 0.000000 0.000000 0.000000
# 3 -0.005882 0.000941 0.037305 0.000000 0.000000 0.000000
# 4 0.000000 0.000000 0.000000 0.031708 0.000000 0.000000
# 5 0.000000 0.000000 0.000000 0.000000 0.079347 0.000000
# 6 0.000000 0.000000 0.000000 0.000000 0.000000 0.037375
#
#
# Mechanical properties :
#
#
# Convention : Reuss Voigt Hill
#
# Bulk Modulus (GPa) = 24.76470 44.29663 34.53067
# Shear Modulus (GPa) = 20.94762 27.53130 24.23946
#
# Velocity S-wave (km/s) = 3.10453 3.55912 3.33957
# Velocity P-wave (km/s) = 4.92394 6.10499 5.54599
#
# Compressibility (1/GPa) = 0.04038006
#
# Stress axis : x y z
#
# Youngs Moduli (GPa) = 81.03481 111.79533 26.80608
#
# Poissons Ratio (x) = 0.46557 0.15767
# Poissons Ratio (y) = 0.33747 -0.02523
# Poissons Ratio (z) = 0.47664 -0.10523
#
# Static dielectric constant tensor:
#      x y z
#    x 1.689750 0.000000 0.000000 
#    y 0.000000 1.968090 0.000000 
#    z 0.000000 0.000000 1.774650 
# 
# From -- ./inp_files/24799.got.cif
#   From: 2010.05.17/outbox.cif.g08.bks.cpg/sg49_13_cif.got.tgz:24799.got - 2010.06.03 21:02:19.
