data_PCOD9392494
_publ_section_title
;
Structure prediction by ZEFSAII (Michael W. Deem and Ramdas Pophale) SiO2 
 PCOD9392494
Probable space group: P C C M
;
_chemical_formula_sum "Si O2"
_cell_formula_units_Z 48
_cell_length_a 14.857229
_cell_length_b 21.138675
_cell_length_c 8.556962
_cell_angle_alpha 90.000000
_cell_angle_beta 90.000000
_cell_angle_gamma 90.000000
_cell_volume 2687.417757
_symmetry_space_group_name_H-M "P C C M"
_symmetry_group_IT_number 49
_symmetry_cell_setting 'orthorhombic'
loop_
_space_group_symop_operation_xyz
x,y,z
-x,-y,z
x,-y,1/2-z
-x,y,1/2-z
-x,-y,-z
x,y,-z
-x,y,1/2+z
x,-y,1/2+z
loop_
_atom_site_type_symbol
_atom_site_label
_atom_site_fract_x
_atom_site_fract_y
_atom_site_fract_z
Si Si1 0.100609 0.069226 0.311890
Si Si2 0.404685 0.759965 0.187724
Si Si3 0.788565 0.432373 0.687247
Si Si4 0.214413 0.189602 0.309859
Si Si5 0.404803 0.383503 0.812756
Si Si6 0.101233 0.312861 0.312250
O O1 0.097861 0.067762 0.500000
O O2 0.167623 0.124720 0.259286
O O3 0.000000 0.082591 0.250000
O O4 0.126701 0.000000 0.250000
O O5 0.500000 0.784605 0.250000
O O6 0.317381 0.799345 0.238962
O O7 0.394993 0.688195 0.249839
O O8 0.407099 0.757501 0.000000
O O9 0.819590 0.500000 0.750000
O O10 0.792318 0.431676 0.500000
O O11 0.684487 0.420887 0.736136
O O12 0.847543 0.374862 0.751872
O O13 0.213985 0.189360 0.500000
O O14 0.155704 0.250285 0.260368
O O15 0.500000 0.408770 0.750000
O O16 0.408712 0.381568 0.000000
O O17 0.100349 0.313791 0.500000
O O18 0.000000 0.310890 0.250000
#
# Coordination Sequence:
#
# PCOD9392494 Si02
#       6
#     8   8   8   8   8   8
#     4  10  19  34  53  80 113 148 183 219 264 316
#     4  10  18  32  53  80 109 141 176 217 268 319
#     4  11  24  40  57  79 106 141 181 224 271 326
#     4   9  19  34  56  81 111 145 178 218 269 318
#     4  10  20  34  54  80 108 138 175 219 269 323
#     4  11  22  39  59  81 107 139 177 225 274 322
#
# _framework density 17.861011999999999
#
# number of rings (size 3 to 8) (size 9 to 14) (size 15 to 20)
#    0.000    1.833    1.667    4.500    0.000    2.667 
#    0.000    9.167    0.000    0.500    0.000    3.500 
#    0.000    0.000    0.000    0.000    0.000    0.000 
#
# Total GULP energy -268061.722163 kJ/mol
# GULP energy per Si atom -5584.619212 kJ/mol
# Density = 1.782036 g / cm^3
# Si number density = 17.861012 Si / 1000 Ang^3
#
#
#
# Elastic Constant Matrix: (Units=GPa)
#
#
# Indices 1 2 3 4 5 6 
#
# 1 145.5307 83.6040 29.2941 0.0000 0.0000 0.0000
# 2 83.6040 126.9015 23.5211 0.0000 0.0000 0.0000
# 3 29.2941 23.5211 48.1307 0.0000 0.0000 0.0000
# 4 0.0000 0.0000 0.0000 12.7029 0.0000 0.0000
# 5 0.0000 0.0000 0.0000 0.0000 20.1994 0.0000
# 6 0.0000 0.0000 0.0000 0.0000 0.0000 14.7353
#
#
#
# Elastic Compliance Matrix: (Units=1/GPa)
#
#
# Indices 1 2 3 4 5 6 
#
# 1 0.011614 -0.006973 -0.003661 0.000000 0.000000 0.000000
# 2 -0.006973 0.012851 -0.002036 0.000000 0.000000 0.000000
# 3 -0.003661 -0.002036 0.024000 0.000000 0.000000 0.000000
# 4 0.000000 0.000000 0.000000 0.078722 0.000000 0.000000
# 5 0.000000 0.000000 0.000000 0.000000 0.049506 0.000000
# 6 0.000000 0.000000 0.000000 0.000000 0.000000 0.067864
#
#
# Mechanical properties :
#
#
# Convention : Reuss Voigt Hill
#
# Bulk Modulus (GPa) = 43.24363 65.93348 54.58855
# Shear Modulus (GPa) = 18.01101 21.80377 19.90739
#
# Velocity S-wave (km/s) = 3.17897 3.49771 3.34214
# Velocity P-wave (km/s) = 6.14315 7.30115 6.74704
#
# Compressibility (1/GPa) = 0.02312480
#
# Stress axis : x y z
#
# Youngs Moduli (GPa) = 86.10194 77.81252 41.66622
#
# Poissons Ratio (x) = 0.54258 0.15255
# Poissons Ratio (y) = 0.60038 0.08485
# Poissons Ratio (z) = 0.31523 0.15846
#
# Static dielectric constant tensor:
#      x y z
#    x 1.615880 0.000000 0.000000 
#    y 0.000000 1.588410 0.000000 
#    z 0.000000 0.000000 1.605920 
# 
# From -- ./inp_files/3745.got.cif
#   From: 2010.05.17/outbox.cif.g08.bks.cpg/sg49_2_cif.got.tgz:3745.got - 2010.06.03 21:02:19.
