data_PCOD9392062
_publ_section_title
;
Structure prediction by ZEFSAII (Michael W. Deem and Ramdas Pophale) SiO2 
 PCOD9392062
Probable space group: P C C M
;
_chemical_formula_sum "Si O2"
_cell_formula_units_Z 64
_cell_length_a 5.434620
_cell_length_b 29.608881
_cell_length_c 19.529467
_cell_angle_alpha 90.000000
_cell_angle_beta 90.000000
_cell_angle_gamma 90.000000
_cell_volume 3142.545453
_symmetry_space_group_name_H-M "P C C M"
_symmetry_group_IT_number 49
_symmetry_cell_setting 'orthorhombic'
loop_
_space_group_symop_operation_xyz
x,y,z
-x,-y,z
x,-y,1/2-z
-x,y,1/2-z
-x,-y,-z
x,y,-z
-x,y,1/2+z
x,-y,1/2+z
loop_
_atom_site_type_symbol
_atom_site_label
_atom_site_fract_x
_atom_site_fract_y
_atom_site_fract_z
Si Si1 0.773294 0.634158 0.422516
Si Si2 0.378411 0.405563 0.819994
Si Si3 0.095095 0.314889 0.178770
Si Si4 0.748995 0.019164 0.172044
Si Si5 0.814405 0.191725 0.077876
Si Si6 0.316442 0.750017 0.422531
Si Si7 0.750358 0.124675 0.205275
Si Si8 0.136093 0.547250 0.428128
O O1 0.711726 0.647373 0.500000
O O2 0.550287 0.616008 0.378079
O O3 0.892780 0.674682 0.379362
O O4 0.961287 0.591527 0.426674
O O5 0.500000 0.418520 0.750000
O O6 0.197107 0.364369 0.802415
O O7 0.274736 0.448963 0.857502
O O8 0.295393 0.285476 0.139053
O O9 0.000000 0.294160 0.250000
O O10 0.742797 0.072867 0.179414
O O11 0.500000 0.000000 0.139177
O O12 0.749398 0.000000 0.250000
O O13 0.000000 0.000000 0.140045
O O14 0.576635 0.224546 0.080764
O O15 0.774544 0.156638 0.139238
O O16 0.076443 0.217514 0.086139
O O17 0.816286 0.172402 0.000000
O O18 0.293752 0.730305 0.500000
O O19 0.500000 0.132983 0.250000
O O20 0.000000 0.130062 0.250000
O O21 0.283756 0.550598 0.500000
O O22 0.000000 0.500000 0.430037
#
# Coordination Sequence:
#
# PCOD9392062 Si02
#       8
#     8   8   8   8   8   8   8   8
#     4  10  21  38  61  88 116 154 199 239 294 368
#     4  11  22  38  60  88 121 156 195 249 313 364
#     4  11  23  39  62  89 121 154 188 258 316 360
#     4  10  16  30  50  84 119 155 198 261 312 366
#     4  10  24  44  61  87 128 170 206 257 321 381
#     4  10  23  43  65  89 122 167 216 255 309 390
#     4  12  21  34  61  93 119 161 214 264 311 373
#     4   9  20  39  61  85 118 157 200 249 293 355
#
# _framework density 20.365656999999999
#
# number of rings (size 3 to 8) (size 9 to 14) (size 15 to 20)
#    0.000    1.625    3.750    1.500    1.750    3.500 
#    0.000    3.750    0.000    0.750    0.000    0.000 
#    0.000    0.000    0.000    0.000    0.000    0.000 
#
# Total GULP energy -357110.924411 kJ/mol
# GULP energy per Si atom -5579.858194 kJ/mol
# Density = 2.031930 g / cm^3
# Si number density = 20.365657 Si / 1000 Ang^3
#
#
#
# Elastic Constant Matrix: (Units=GPa)
#
#
# Indices 1 2 3 4 5 6 
#
# 1 107.9864 17.6244 44.8381 0.0000 0.0000 0.0000
# 2 17.6244 67.5746 54.3506 0.0000 0.0000 0.0000
# 3 44.8381 54.3506 156.4646 0.0000 0.0000 0.0000
# 4 0.0000 0.0000 0.0000 15.4186 0.0000 0.0000
# 5 0.0000 0.0000 0.0000 0.0000 -109.1183 0.0000
# 6 0.0000 0.0000 0.0000 0.0000 0.0000 22.6801
#
#
#
# Elastic Compliance Matrix: (Units=1/GPa)
#
#
# Indices 1 2 3 4 5 6 
#
# 1 0.010521 -0.000443 -0.002861 0.000000 0.000000 0.000000
# 2 -0.000443 0.020555 -0.007013 0.000000 0.000000 0.000000
# 3 -0.002861 -0.007013 0.009647 0.000000 0.000000 0.000000
# 4 0.000000 0.000000 0.000000 0.064857 0.000000 0.000000
# 5 0.000000 0.000000 0.000000 0.000000 -0.009164 0.000000
# 6 0.000000 0.000000 0.000000 0.000000 0.000000 0.044092
#
#
# Mechanical properties :
#
#
# Convention : Reuss Voigt Hill
#
# Bulk Modulus (GPa) = 49.77943 62.85020 56.31482
# Shear Modulus (GPa) = 29.79086 0.14357 14.96721
#
# Velocity S-wave (km/s) = 3.82880 0.26580 2.71389
# Velocity P-wave (km/s) = 6.63643 5.56975 6.12635
#
# Compressibility (1/GPa) = 0.02008862
#
# Stress axis : x y z
#
# Youngs Moduli (GPa) = 95.05084 48.65095 103.65644
#
# Poissons Ratio (x) = 0.02154 0.29657
# Poissons Ratio (y) = 0.04208 0.72695
# Poissons Ratio (z) = 0.27195 0.34119
#
# Static dielectric constant tensor:
#      x y z
#    x 1.840470 0.000000 0.000000 
#    y 0.000000 1.711980 0.000000 
#    z 0.000000 0.000000 1.718040 
# 
# From -- ./inp_files/15417.got.cif
#   From: 2010.05.17/outbox.cif.g08.bks.cpg/sg49_8_cif.got.tgz:15417.got - 2010.06.03 21:02:19.
