data_PCOD9392512
_publ_section_title
;
Structure prediction by ZEFSAII (Michael W. Deem and Ramdas Pophale) SiO2 
 PCOD9392512
Probable space group: P C C M
;
_chemical_formula_sum "Si O2"
_cell_formula_units_Z 38
_cell_length_a 11.196042
_cell_length_b 6.326434
_cell_length_c 29.773887
_cell_angle_alpha 90.000000
_cell_angle_beta 90.000000
_cell_angle_gamma 90.000000
_cell_volume 2108.914809
_symmetry_space_group_name_H-M "P C C M"
_symmetry_group_IT_number 49
_symmetry_cell_setting 'orthorhombic'
loop_
_space_group_symop_operation_xyz
x,y,z
-x,-y,z
x,-y,1/2-z
-x,y,1/2-z
-x,-y,-z
x,y,-z
-x,y,1/2+z
x,-y,1/2+z
loop_
_atom_site_type_symbol
_atom_site_label
_atom_site_fract_x
_atom_site_fract_y
_atom_site_fract_z
Si Si1 0.838691 0.815529 0.051758
Si Si2 0.500000 0.000000 0.250000
Si Si3 0.633540 0.444958 0.588486
Si Si4 0.000000 0.500000 0.390722
Si Si5 0.802671 0.187941 0.118584
Si Si6 0.619516 0.111900 0.663654
O O1 0.705159 0.718384 0.057122
O O2 0.919766 0.645349 0.077247
O O3 0.848283 0.029784 0.080057
O O4 0.869668 0.841712 0.000000
O O5 0.416130 0.869360 0.284122
O O6 0.500000 0.500000 0.574407
O O7 0.707024 0.658621 0.595218
O O8 0.633975 0.328481 0.637091
O O9 0.089784 0.340266 0.365016
O O10 0.731980 0.041046 0.154177
O O11 0.500000 0.000000 0.643710
#
# Coordination Sequence:
#
# PCOD9392512 Si02
#       6
#     8   2   8   4   8   8
#     4  10  22  35  52  77 105 140 189 243 279 316
#     4   8  16  32  58  88 112 130 164 216 270 322
#     4  10  18  33  53  75 109 147 177 216 272 339
#     4  10  21  36  56  76 101 144 192 230 281 324
#     4  10  20  34  53  78 109 145 181 225 269 327
#     4   9  17  32  55  82 113 134 171 218 273 326
#
# _framework density 18.018744999999999
#
# number of rings (size 3 to 8) (size 9 to 14) (size 15 to 20)
#    0.632    1.684    2.105    0.947    0.000    5.474 
#    0.000    5.789    0.000    0.000    0.000   42.737 
#    0.000    0.000    0.000    0.000    0.000    0.000 
#
# Total GULP energy -211568.272088 kJ/mol
# GULP energy per Si atom -5567.586108 kJ/mol
# Density = 1.797773 g / cm^3
# Si number density = 18.018745 Si / 1000 Ang^3
#
#
#
# Elastic Constant Matrix: (Units=GPa)
#
#
# Indices 1 2 3 4 5 6 
#
# 1 100.4152 32.1774 2.8022 0.0000 0.0000 0.0000
# 2 32.1774 95.5611 14.8831 0.0000 0.0000 0.0000
# 3 2.8022 14.8831 61.6184 0.0000 0.0000 0.0000
# 4 0.0000 0.0000 0.0000 0.6697 0.0000 0.0000
# 5 0.0000 0.0000 0.0000 0.0000 6.0625 0.0000
# 6 0.0000 0.0000 0.0000 0.0000 0.0000 36.7457
#
#
#
# Elastic Compliance Matrix: (Units=1/GPa)
#
#
# Indices 1 2 3 4 5 6 
#
# 1 0.011173 -0.003827 0.000416 0.000000 0.000000 0.000000
# 2 -0.003827 0.012184 -0.002769 0.000000 0.000000 0.000000
# 3 0.000416 -0.002769 0.016879 0.000000 0.000000 0.000000
# 4 0.000000 0.000000 0.000000 1.493251 0.000000 0.000000
# 5 0.000000 0.000000 0.000000 0.000000 0.164949 0.000000
# 6 0.000000 0.000000 0.000000 0.000000 0.000000 0.027214
#
#
# Mechanical properties :
#
#
# Convention : Reuss Voigt Hill
#
# Bulk Modulus (GPa) = 35.87187 39.70223 37.78705
# Shear Modulus (GPa) = 2.86155 22.54437 12.70296
#
# Velocity S-wave (km/s) = 1.26156 3.54101 2.65804
# Velocity P-wave (km/s) = 4.69823 6.22897 5.51695
#
# Compressibility (1/GPa) = 0.02787700
#
# Stress axis : x y z
#
# Youngs Moduli (GPa) = 89.49815 82.07198 59.24596
#
# Poissons Ratio (x) = 0.31410 -0.02466
# Poissons Ratio (y) = 0.34252 0.16405
# Poissons Ratio (z) = -0.03725 0.22725
#
# Static dielectric constant tensor:
#      x y z
#    x 1.687160 0.000000 0.000000 
#    y 0.000000 1.633800 0.000000 
#    z 0.000000 0.000000 1.588150 
# 
# From -- ./inp_files/26582.got.cif
#   From: 2010.05.17/outbox.cif.g08.bks.cpg/sg49_14_cif.got.tgz:26582.got - 2010.06.03 21:02:19.
