data_PCOD9392180
_publ_section_title
;
Structure prediction by ZEFSAII (Michael W. Deem and Ramdas Pophale) SiO2 
 PCOD9392180
Probable space group: P C C M
;
_chemical_formula_sum "Si O2"
_cell_formula_units_Z 32
_cell_length_a 15.715471
_cell_length_b 15.706756
_cell_length_c 8.640199
_cell_angle_alpha 90.000000
_cell_angle_beta 90.000000
_cell_angle_gamma 90.000000
_cell_volume 2132.738672
_symmetry_space_group_name_H-M "P C C M"
_symmetry_group_IT_number 49
_symmetry_cell_setting 'orthorhombic'
loop_
_space_group_symop_operation_xyz
x,y,z
-x,-y,z
x,-y,1/2-z
-x,y,1/2-z
-x,-y,-z
x,y,-z
-x,y,1/2+z
x,-y,1/2+z
loop_
_atom_site_type_symbol
_atom_site_label
_atom_site_fract_x
_atom_site_fract_y
_atom_site_fract_z
Si Si1 0.404170 0.234314 0.684928
Si Si2 0.086095 0.096176 0.184447
Si Si3 0.403212 0.412456 0.185168
Si Si4 0.275585 0.096251 0.813797
O O1 0.500000 0.223479 0.750000
O O2 0.408149 0.239832 0.500000
O O3 0.367659 0.323112 0.753263
O O4 0.345864 0.156746 0.739698
O O5 0.180025 0.130131 0.223953
O O6 0.000000 0.137824 0.250000
O O7 0.087424 0.000000 0.250000
O O8 0.079009 0.092455 0.000000
O O9 0.363788 0.500000 0.250000
O O10 0.500000 0.411715 0.250000
O O11 0.404807 0.414012 0.000000
O O12 0.282927 0.000000 0.750000
O O13 0.284184 0.094565 0.000000
#
# Coordination Sequence:
#
# PCOD9392180 Si02
#       4
#     8   8   8   8
#     4  11  21  33  47  64  87 118 152 187 222 261
#     4   9  16  26  43  63  85 109 139 177 220 263
#     4  10  17  28  45  65  87 111 141 179 221 265
#     4  10  20  33  46  64  88 118 152 187 221 259
#
# _framework density 15.004184
#
# number of rings (size 3 to 8) (size 9 to 14) (size 15 to 20)
#    0.000    2.000    0.000    9.000    0.000    3.500 
#    0.000    2.500    0.000    0.000    0.000    0.000 
#    0.000    1.000    0.000   10.500    0.000    5.750 
#
# Total GULP energy -178277.847683 kJ/mol
# GULP energy per Si atom -5571.182740 kJ/mol
# Density = 1.497003 g / cm^3
# Si number density = 15.004184 Si / 1000 Ang^3
#
#
#
# Elastic Constant Matrix: (Units=GPa)
#
#
# Indices 1 2 3 4 5 6 
#
# 1 85.8044 49.1877 44.9684 0.0000 0.0000 0.0000
# 2 49.1877 92.4273 44.7981 0.0000 0.0000 0.0000
# 3 44.9684 44.7981 129.2349 0.0000 0.0000 0.0000
# 4 0.0000 0.0000 0.0000 29.6916 0.0000 0.0000
# 5 0.0000 0.0000 0.0000 0.0000 20.6608 0.0000
# 6 0.0000 0.0000 0.0000 0.0000 0.0000 -0.9775
#
#
#
# Elastic Compliance Matrix: (Units=1/GPa)
#
#
# Indices 1 2 3 4 5 6 
#
# 1 0.018026 -0.007876 -0.003542 0.000000 0.000000 0.000000
# 2 -0.007876 0.016446 -0.002960 0.000000 0.000000 0.000000
# 3 -0.003542 -0.002960 0.009996 0.000000 0.000000 0.000000
# 4 0.000000 0.000000 0.000000 0.033680 0.000000 0.000000
# 5 0.000000 0.000000 0.000000 0.000000 0.048401 0.000000
# 6 0.000000 0.000000 0.000000 0.000000 0.000000 -1.023010
#
#
# Mechanical properties :
#
#
# Convention : Reuss Voigt Hill
#
# Bulk Modulus (GPa) = 63.64907 65.04166 64.34536
# Shear Modulus (GPa) = -5.79731 21.10913 7.65591
#
# Velocity S-wave (km/s) = -1.96779 3.75491 2.26133
# Velocity P-wave (km/s) = 6.11147 7.88938 7.05664
#
# Compressibility (1/GPa) = 0.01571115
#
# Stress axis : x y z
#
# Youngs Moduli (GPa) = 55.47624 60.80677 100.03568
#
# Poissons Ratio (x) = 0.47892 0.35433
# Poissons Ratio (y) = 0.43694 0.29612
# Poissons Ratio (z) = 0.19650 0.18000
#
# Static dielectric constant tensor:
#      x y z
#    x 1.521780 0.000000 0.000000 
#    y 0.000000 1.512050 0.000000 
#    z 0.000000 0.000000 1.498660 
# 
# From -- ./inp_files/2466.got.cif
#   From: 2010.05.17/outbox.cif.g08.bks.cpg/sg49_2_cif.got.tgz:2466.got - 2010.06.03 21:02:19.
