data_PCOD9392231
_publ_section_title
;
Structure prediction by ZEFSAII (Michael W. Deem and Ramdas Pophale) SiO2 
 PCOD9392231
Probable space group: P C C M
;
_chemical_formula_sum "Si O2"
_cell_formula_units_Z 48
_cell_length_a 30.131979
_cell_length_b 9.065723
_cell_length_c 9.085220
_cell_angle_alpha 90.000000
_cell_angle_beta 90.000000
_cell_angle_gamma 90.000000
_cell_volume 2481.792967
_symmetry_space_group_name_H-M "P C C M"
_symmetry_group_IT_number 49
_symmetry_cell_setting 'orthorhombic'
loop_
_space_group_symop_operation_xyz
x,y,z
-x,-y,z
x,-y,1/2-z
-x,y,1/2-z
-x,-y,-z
x,y,-z
-x,y,1/2+z
x,-y,1/2+z
loop_
_atom_site_type_symbol
_atom_site_label
_atom_site_fract_x
_atom_site_fract_y
_atom_site_fract_z
Si Si1 0.544817 0.834033 0.320030
Si Si2 0.634610 0.837189 0.178997
Si Si3 0.934336 0.637480 0.000000
Si Si4 0.900022 0.174861 0.767075
Si Si5 0.284868 0.337964 0.678567
Si Si6 0.038943 0.699273 0.000000
Si Si7 0.813661 0.349410 0.833437
O O1 0.500000 0.766018 0.250000
O O2 0.544230 0.838263 0.500000
O O3 0.590099 0.767759 0.252930
O O4 0.545294 0.000000 0.250000
O O5 0.677845 0.754169 0.237717
O O6 0.637637 0.000000 0.250000
O O7 0.631514 0.841761 0.000000
O O8 0.909931 0.716157 0.133031
O O9 0.935771 0.459755 0.000000
O O10 0.986684 0.676603 0.000000
O O11 0.853278 0.233352 0.827331
O O12 0.897206 0.000000 0.750000
O O13 0.942824 0.208726 0.865139
O O14 0.286816 0.500000 0.750000
O O15 0.291891 0.337522 0.500000
O O16 0.234344 0.285767 0.711925
O O17 0.824739 0.500000 0.750000
O O18 0.807223 0.398288 0.000000
#
# Coordination Sequence:
#
# PCOD9392231 Si02
#       7
#     8   8   4   8   8   4   8
#     4  10  17  28  47  75 111 153 199 251 305 366
#     4  11  21  35  55  84 118 157 200 251 310 365
#     4  11  25  41  67  91 115 167 203 251 288 367
#     4  12  25  40  61  94 126 157 194 252 312 358
#     4  10  21  39  61  87 115 153 199 247 298 359
#     4  11  23  45  65  87 123 157 215 241 296 359
#     4  10  22  41  65  88 116 155 199 242 290 362
#
# _framework density 19.340857
#
# number of rings (size 3 to 8) (size 9 to 14) (size 15 to 20)
#    0.000    1.333    0.833    7.500    1.167    4.667 
#    0.000    0.000    0.000    0.500    0.000    3.500 
#    0.000    0.000    0.000    0.000    0.000    0.000 
#
# Total GULP energy -267515.826424 kJ/mol
# GULP energy per Si atom -5573.246384 kJ/mol
# Density = 1.929684 g / cm^3
# Si number density = 19.340857 Si / 1000 Ang^3
#
#
#
# Elastic Constant Matrix: (Units=GPa)
#
#
# Indices 1 2 3 4 5 6 
#
# 1 127.1931 48.0656 34.2793 0.0000 0.0000 0.0000
# 2 48.0656 64.3363 14.0946 0.0000 0.0000 0.0000
# 3 34.2793 14.0946 128.1891 0.0000 0.0000 0.0000
# 4 0.0000 0.0000 0.0000 23.8019 0.0000 0.0000
# 5 0.0000 0.0000 0.0000 0.0000 34.8100 0.0000
# 6 0.0000 0.0000 0.0000 0.0000 0.0000 31.7240
#
#
#
# Elastic Compliance Matrix: (Units=1/GPa)
#
#
# Indices 1 2 3 4 5 6 
#
# 1 0.011524 -0.008130 -0.002188 0.000000 0.000000 0.000000
# 2 -0.008130 0.021663 -0.000208 0.000000 0.000000 0.000000
# 3 -0.002188 -0.000208 0.008409 0.000000 0.000000 0.000000
# 4 0.000000 0.000000 0.000000 0.042013 0.000000 0.000000
# 5 0.000000 0.000000 0.000000 0.000000 0.028727 0.000000
# 6 0.000000 0.000000 0.000000 0.000000 0.000000 0.031522
#
#
# Mechanical properties :
#
#
# Convention : Reuss Voigt Hill
#
# Bulk Modulus (GPa) = 48.67526 56.95527 52.81526
# Shear Modulus (GPa) = 29.11065 32.95244 31.03155
#
# Velocity S-wave (km/s) = 3.88382 4.13216 4.00991
# Velocity P-wave (km/s) = 6.73304 7.23038 6.98613
#
# Compressibility (1/GPa) = 0.02054432
#
# Stress axis : x y z
#
# Youngs Moduli (GPa) = 86.77472 46.16158 118.92243
#
# Poissons Ratio (x) = 0.37531 0.26017
# Poissons Ratio (y) = 0.70551 0.02470
# Poissons Ratio (z) = 0.18984 0.00959
#
# Static dielectric constant tensor:
#      x y z
#    x 1.723480 0.000000 0.000000 
#    y 0.000000 1.649260 0.000000 
#    z 0.000000 0.000000 1.669500 
# 
# From -- ./inp_files/6932.got.cif
#   From: 2010.05.17/outbox.cif.g08.bks.cpg/sg49_4_cif.got.tgz:6932.got - 2010.06.03 21:02:19.
