data_PCOD9392241
_publ_section_title
;
Structure prediction by ZEFSAII (Michael W. Deem and Ramdas Pophale) SiO2 
 PCOD9392241
Probable space group: P C C M
;
_chemical_formula_sum "Si O2"
_cell_formula_units_Z 40
_cell_length_a 25.128886
_cell_length_b 9.066644
_cell_length_c 9.448314
_cell_angle_alpha 90.000000
_cell_angle_beta 90.000000
_cell_angle_gamma 90.000000
_cell_volume 2152.653441
_symmetry_space_group_name_H-M "P C C M"
_symmetry_group_IT_number 49
_symmetry_cell_setting 'orthorhombic'
loop_
_space_group_symop_operation_xyz
x,y,z
-x,-y,z
x,-y,1/2-z
-x,y,1/2-z
-x,-y,-z
x,y,-z
-x,y,1/2+z
x,-y,1/2+z
loop_
_atom_site_type_symbol
_atom_site_label
_atom_site_fract_x
_atom_site_fract_y
_atom_site_fract_z
Si Si1 0.260013 0.148430 0.337049
Si Si2 0.574302 0.346860 0.500000
Si Si3 0.844464 0.655443 0.670285
Si Si4 0.947522 0.336339 0.675186
Si Si5 0.622331 0.822313 0.739111
Si Si6 0.551568 0.306585 0.000000
O O1 0.262863 0.105022 0.500000
O O2 0.209731 0.253693 0.317421
O O3 0.317185 0.218636 0.300948
O O4 0.252935 0.000000 0.250000
O O5 0.604869 0.272974 0.628463
O O6 0.572133 0.524193 0.500000
O O7 0.511944 0.303818 0.500000
O O8 0.835786 0.500000 0.750000
O O9 0.856870 0.638103 0.500000
O O10 0.893185 0.729252 0.758836
O O11 0.946075 0.500000 0.750000
O O12 0.949534 0.341512 0.500000
O O13 0.000000 0.267887 0.750000
O O14 0.577328 0.777551 0.629512
O O15 0.622333 0.000000 0.750000
#
# Coordination Sequence:
#
# PCOD9392241 Si02
#       6
#     8   4   8   8   8   4
#     4  10  23  41  61  83 114 152 191 239 290 344
#     4  11  25  39  63  91 117 165 182 247 302 357
#     4  10  20  35  54  85 117 149 194 241 289 346
#     4  10  17  28  48  77 113 155 193 239 292 341
#     4  11  23  41  62  89 116 155 203 246 292 354
#     4  11  23  43  61  87 129 147 200 235 304 363
#
# _framework density 18.581717999999999
#
# number of rings (size 3 to 8) (size 9 to 14) (size 15 to 20)
#    0.000    1.600    1.000    6.000    4.200    7.200 
#    0.000    0.000    0.000    0.600    0.000    4.200 
#    0.000    0.000    0.000    0.000    0.000    0.000 
#
# Total GULP energy -222760.949943 kJ/mol
# GULP energy per Si atom -5569.023749 kJ/mol
# Density = 1.853943 g / cm^3
# Si number density = 18.581718 Si / 1000 Ang^3
#
#
#
# Elastic Constant Matrix: (Units=GPa)
#
#
# Indices 1 2 3 4 5 6 
#
# 1 141.2432 48.6282 64.5545 0.0000 0.0000 0.0000
# 2 48.6282 39.1050 32.4184 0.0000 0.0000 0.0000
# 3 64.5545 32.4184 145.3613 0.0000 0.0000 0.0000
# 4 0.0000 0.0000 0.0000 -85.8031 0.0000 0.0000
# 5 0.0000 0.0000 0.0000 0.0000 35.3056 0.0000
# 6 0.0000 0.0000 0.0000 0.0000 0.0000 21.6097
#
#
#
# Elastic Compliance Matrix: (Units=1/GPa)
#
#
# Indices 1 2 3 4 5 6 
#
# 1 0.013190 -0.014165 -0.002699 0.000000 0.000000 0.000000
# 2 -0.014165 0.046585 -0.004099 0.000000 0.000000 0.000000
# 3 -0.002699 -0.004099 0.008992 0.000000 0.000000 0.000000
# 4 0.000000 0.000000 0.000000 -0.011655 0.000000 0.000000
# 5 0.000000 0.000000 0.000000 0.000000 0.028324 0.000000
# 6 0.000000 0.000000 0.000000 0.000000 0.000000 0.046275
#
#
# Mechanical properties :
#
#
# Convention : Reuss Voigt Hill
#
# Bulk Modulus (GPa) = 37.25494 68.54577 52.90036
# Shear Modulus (GPa) = 27.38457 6.22967 16.80712
#
# Velocity S-wave (km/s) = 3.84309 1.83299 3.01075
# Velocity P-wave (km/s) = 6.30756 6.43807 6.37315
#
# Compressibility (1/GPa) = 0.02684208
#
# Stress axis : x y z
#
# Youngs Moduli (GPa) = 75.81311 21.46618 111.21092
#
# Poissons Ratio (x) = 0.30408 0.30012
# Poissons Ratio (y) = 1.07392 0.45580
# Poissons Ratio (z) = 0.20459 0.08798
#
# Static dielectric constant tensor:
#      x y z
#    x 1.684590 0.000000 0.000000 
#    y 0.000000 1.624390 0.000000 
#    z 0.000000 0.000000 1.618610 
# 
# From -- ./inp_files/6214.got.cif
#   From: 2010.05.17/outbox.cif.g08.bks.cpg/sg49_4_cif.got.tgz:6214.got - 2010.06.03 21:02:19.
