data_PCOD9392127
_publ_section_title
;
Structure prediction by ZEFSAII (Michael W. Deem and Ramdas Pophale) SiO2 
 PCOD9392127
Probable space group: P C C M
;
_chemical_formula_sum "Si O2"
_cell_formula_units_Z 64
_cell_length_a 14.609684
_cell_length_b 29.428127
_cell_length_c 8.518919
_cell_angle_alpha 90.000000
_cell_angle_beta 90.000000
_cell_angle_gamma 90.000000
_cell_volume 3662.586860
_symmetry_space_group_name_H-M "P C C M"
_symmetry_group_IT_number 49
_symmetry_cell_setting 'orthorhombic'
loop_
_space_group_symop_operation_xyz
x,y,z
-x,-y,z
x,-y,1/2-z
-x,y,1/2-z
-x,-y,-z
x,y,-z
-x,y,1/2+z
x,-y,1/2+z
loop_
_atom_site_type_symbol
_atom_site_label
_atom_site_fract_x
_atom_site_fract_y
_atom_site_fract_z
Si Si1 0.331894 0.828658 0.182629
Si Si2 0.396284 0.642133 0.311819
Si Si3 0.596093 0.925851 0.317615
Si Si4 0.855602 0.142123 0.317391
Si Si5 0.395388 0.452986 0.313322
Si Si6 0.700521 0.735548 0.189424
Si Si7 0.794624 0.048495 0.687689
Si Si8 0.093679 0.238286 0.189610
O O1 0.401101 0.870639 0.195070
O O2 0.250132 0.842825 0.299293
O O3 0.354488 0.777391 0.231942
O O4 0.300784 0.828548 0.000000
O O5 0.500000 0.646996 0.250000
O O6 0.399004 0.638972 0.500000
O O7 0.356099 0.594879 0.245801
O O8 0.339787 0.686818 0.266324
O O9 0.500000 0.942390 0.250000
O O10 0.602701 0.937933 0.500000
O O11 0.688549 0.943747 0.236628
O O12 0.881698 0.139241 0.500000
O O13 0.854423 0.091298 0.249702
O O14 0.904135 0.186133 0.246481
O O15 0.353296 0.500000 0.250000
O O16 0.500000 0.452409 0.250000
O O17 0.397442 0.454090 0.500000
O O18 0.808073 0.740407 0.233922
O O19 0.694399 0.740240 0.000000
O O20 0.798763 0.049364 0.500000
O O21 0.825393 0.000000 0.750000
O O22 0.000000 0.260191 0.250000
O O23 0.091826 0.237153 0.000000
#
# Coordination Sequence:
#
# PCOD9392127 Si02
#       8
#     8   8   8   8   8   8   8   8
#     4   9  17  28  44  63  82 106 143 184 218 255
#     4  10  19  31  45  64  92 129 167 203 239 278
#     4  10  20  32  44  61  83 109 143 183 221 263
#     4   8  16  31  48  64  87 114 138 165 209 264
#     4  10  17  27  43  63  88 121 162 207 247 285
#     4   9  19  33  47  64  95 131 158 187 233 285
#     4  10  19  32  49  66  84 109 138 174 218 267
#     4   9  17  31  50  73  95 120 152 186 226 274
#
# _framework density 17.473989
#
# number of rings (size 3 to 8) (size 9 to 14) (size 15 to 20)
#    0.000    2.625    0.000    4.500    0.000    5.750 
#    0.000    3.750    0.000    0.375    0.000    2.625 
#    0.000    0.500    0.000    5.750    0.000    1.750 
#
# Total GULP energy -356355.690216 kJ/mol
# GULP energy per Si atom -5568.057660 kJ/mol
# Density = 1.743422 g / cm^3
# Si number density = 17.473989 Si / 1000 Ang^3
#
#
#
# Elastic Constant Matrix: (Units=GPa)
#
#
# Indices 1 2 3 4 5 6 
#
# 1 37.5185 18.3207 7.4687 0.0000 0.0000 0.0000
# 2 18.3207 143.0419 28.2662 0.0000 0.0000 0.0000
# 3 7.4687 28.2662 44.3307 0.0000 0.0000 0.0000
# 4 0.0000 0.0000 0.0000 28.6802 0.0000 0.0000
# 5 0.0000 0.0000 0.0000 0.0000 11.3590 0.0000
# 6 0.0000 0.0000 0.0000 0.0000 0.0000 9.3337
#
#
#
# Elastic Compliance Matrix: (Units=1/GPa)
#
#
# Indices 1 2 3 4 5 6 
#
# 1 0.028744 -0.003117 -0.002855 0.000000 0.000000 0.000000
# 2 -0.003117 0.008337 -0.004791 0.000000 0.000000 0.000000
# 3 -0.002855 -0.004791 0.026093 0.000000 0.000000 0.000000
# 4 0.000000 0.000000 0.000000 0.034867 0.000000 0.000000
# 5 0.000000 0.000000 0.000000 0.000000 0.088036 0.000000
# 6 0.000000 0.000000 0.000000 0.000000 0.000000 0.107139
#
#
# Mechanical properties :
#
#
# Convention : Reuss Voigt Hill
#
# Bulk Modulus (GPa) = 24.01057 37.00027 30.50542
# Shear Modulus (GPa) = 15.21490 21.26360 18.23925
#
# Velocity S-wave (km/s) = 2.95399 3.49215 3.23429
# Velocity P-wave (km/s) = 5.04037 6.12214 5.60740
#
# Compressibility (1/GPa) = 0.04164832
#
# Stress axis : x y z
#
# Youngs Moduli (GPa) = 34.78978 119.94896 38.32402
#
# Poissons Ratio (x) = 0.37392 0.10942
# Poissons Ratio (y) = 0.10845 0.18359
# Poissons Ratio (z) = 0.09933 0.57462
#
# Static dielectric constant tensor:
#      x y z
#    x 1.593470 0.000000 0.000000 
#    y 0.000000 1.654970 0.000000 
#    z 0.000000 0.000000 1.608790 
# 
# From -- ./inp_files/5454.got.cif
#   From: 2010.05.17/outbox.cif.g08.bks.cpg/sg49_3_cif.got.tgz:5454.got - 2010.06.03 21:02:19.
