data_PCOD9392924
_publ_section_title
;
Structure prediction by ZEFSAII (Michael W. Deem and Ramdas Pophale) SiO2 
 PCOD9392924
Probable space group: P C C M
;
_chemical_formula_sum "Si O2"
_cell_formula_units_Z 48
_cell_length_a 7.969445
_cell_length_b 18.947919
_cell_length_c 17.473406
_cell_angle_alpha 90.000000
_cell_angle_beta 90.000000
_cell_angle_gamma 90.000000
_cell_volume 2638.561160
_symmetry_space_group_name_H-M "P C C M"
_symmetry_group_IT_number 49
_symmetry_cell_setting 'orthorhombic'
loop_
_space_group_symop_operation_xyz
x,y,z
-x,-y,z
x,-y,1/2-z
-x,y,1/2-z
-x,-y,-z
x,y,-z
-x,y,1/2+z
x,-y,1/2+z
loop_
_atom_site_type_symbol
_atom_site_label
_atom_site_fract_x
_atom_site_fract_y
_atom_site_fract_z
Si Si1 0.252391 0.679163 0.592521
Si Si2 0.562369 0.422993 0.907026
Si Si3 0.189728 0.073667 0.276861
Si Si4 0.618173 0.808139 0.815369
Si Si5 0.055878 0.578943 0.906764
Si Si6 0.590474 0.923551 0.589463
O O1 0.247823 0.688733 0.500000
O O2 0.418293 0.633080 0.611281
O O3 0.277033 0.752209 0.636389
O O4 0.085485 0.635724 0.615518
O O5 0.500000 0.500000 0.880810
O O6 0.752639 0.407119 0.881081
O O7 0.569613 0.425884 0.000000
O O8 0.270133 0.138922 0.233951
O O9 0.232254 0.076611 0.366201
O O10 0.000000 0.072154 0.250000
O O11 0.271015 0.000000 0.250000
O O12 0.500000 0.773375 0.750000
O O13 0.514483 0.860186 0.871605
O O14 0.000000 0.500000 0.883274
O O15 0.056352 0.578872 0.000000
O O16 0.608670 0.910947 0.500000
O O17 0.500000 0.000000 0.599192
#
# Coordination Sequence:
#
# PCOD9392924 Si02
#       6
#     8   8   8   8   8   8
#     4  10  19  32  51  80 116 147 186 242 295 343
#     4   9  15  26  48  77 109 145 186 232 281 340
#     4  10  20  38  61  84 112 152 192 231 292 368
#     4  10  21  37  58  78 111 154 194 237 298 363
#     4   9  15  26  47  76 109 145 184 229 283 343
#     4  10  19  35  61  88 112 146 197 248 288 345
#
# _framework density 18.191731999999998
#
# number of rings (size 3 to 8) (size 9 to 14) (size 15 to 20)
#    0.000    2.333    3.333    0.500    0.000    0.000 
#    6.000    3.333    0.000    0.500    0.000    1.167 
#    0.000    0.000    0.000    0.000    0.000    4.833 
#
# Total GULP energy -267390.076022 kJ/mol
# GULP energy per Si atom -5570.626584 kJ/mol
# Density = 1.815033 g / cm^3
# Si number density = 18.191732 Si / 1000 Ang^3
#
#
#
# Elastic Constant Matrix: (Units=GPa)
#
#
# Indices 1 2 3 4 5 6 
#
# 1 131.2627 45.2000 43.4927 0.0000 0.0000 0.0000
# 2 45.2000 104.4617 36.5814 0.0000 0.0000 0.0000
# 3 43.4927 36.5814 87.1725 0.0000 0.0000 0.0000
# 4 0.0000 0.0000 0.0000 -18.0028 0.0000 0.0000
# 5 0.0000 0.0000 0.0000 0.0000 13.5452 0.0000
# 6 0.0000 0.0000 0.0000 0.0000 0.0000 6.5788
#
#
#
# Elastic Compliance Matrix: (Units=1/GPa)
#
#
# Indices 1 2 3 4 5 6 
#
# 1 0.009861 -0.002982 -0.003668 0.000000 0.000000 0.000000
# 2 -0.002982 0.012124 -0.003600 0.000000 0.000000 0.000000
# 3 -0.003668 -0.003600 0.014812 0.000000 0.000000 0.000000
# 4 0.000000 0.000000 0.000000 -0.055547 0.000000 0.000000
# 5 0.000000 0.000000 0.000000 0.000000 0.073827 0.000000
# 6 0.000000 0.000000 0.000000 0.000000 0.000000 0.152003
#
#
# Mechanical properties :
#
#
# Convention : Reuss Voigt Hill
#
# Bulk Modulus (GPa) = 61.36335 63.71614 62.53974
# Shear Modulus (GPa) = 21.45805 13.59909 17.52857
#
# Velocity S-wave (km/s) = 3.43818 2.73709 3.10747
# Velocity P-wave (km/s) = 7.04032 6.71489 6.87953
#
# Compressibility (1/GPa) = 0.01629637
#
# Stress axis : x y z
#
# Youngs Moduli (GPa) = 101.41332 82.48219 67.51098
#
# Poissons Ratio (x) = 0.24596 0.24765
# Poissons Ratio (y) = 0.30242 0.24303
# Poissons Ratio (z) = 0.37202 0.29693
#
# Static dielectric constant tensor:
#      x y z
#    x 1.668840 0.000000 0.000000 
#    y 0.000000 1.630940 0.000000 
#    z 0.000000 0.000000 1.603720 
# 
# From -- ./inp_files/11859.got.cif
#   From: 2010.05.17/outbox.cif.g08.bks.cpg/sg49_6_cif.got.tgz:11859.got - 2010.06.03 21:02:19.
