data_PCOD9392922
_publ_section_title
;
Structure prediction by ZEFSAII (Michael W. Deem and Ramdas Pophale) SiO2 
 PCOD9392922
Probable space group: P C C M
;
_chemical_formula_sum "Si O2"
_cell_formula_units_Z 58
_cell_length_a 14.571721
_cell_length_b 22.769588
_cell_length_c 9.016773
_cell_angle_alpha 90.000000
_cell_angle_beta 90.000000
_cell_angle_gamma 90.000000
_cell_volume 2991.693901
_symmetry_space_group_name_H-M "P C C M"
_symmetry_group_IT_number 49
_symmetry_cell_setting 'orthorhombic'
loop_
_space_group_symop_operation_xyz
x,y,z
-x,-y,z
x,-y,1/2-z
-x,y,1/2-z
-x,-y,-z
x,y,-z
-x,y,1/2+z
x,-y,1/2+z
loop_
_atom_site_type_symbol
_atom_site_label
_atom_site_fract_x
_atom_site_fract_y
_atom_site_fract_z
Si Si1 0.902956 0.057179 0.172879
Si Si2 0.000000 0.500000 0.250000
Si Si3 0.246311 0.156318 0.675672
Si Si4 0.416773 0.673225 0.170351
Si Si5 0.348345 0.441600 0.175188
Si Si6 0.601050 0.937025 0.681506
Si Si7 0.159988 0.590209 0.172566
Si Si8 0.791939 0.717571 0.329718
O O1 0.837633 0.112044 0.188362
O O2 0.000000 0.067619 0.250000
O O3 0.861031 0.000000 0.250000
O O4 0.916036 0.045061 0.000000
O O5 0.071965 0.547164 0.178334
O O6 0.264609 0.167990 0.500000
O O7 0.334003 0.117950 0.725911
O O8 0.212241 0.218175 0.743760
O O9 0.500000 0.707040 0.250000
O O10 0.401279 0.614188 0.262722
O O11 0.316220 0.701621 0.171211
O O12 0.440741 0.661752 0.000000
O O13 0.385244 0.500000 0.250000
O O14 0.242516 0.434651 0.228470
O O15 0.352264 0.445125 0.000000
O O16 0.500000 0.927807 0.750000
O O17 0.599362 0.941120 0.500000
O O18 0.632442 0.000000 0.750000
O O19 0.153110 0.659078 0.223000
O O20 0.191186 0.592226 0.000000
O O21 0.824154 0.724853 0.500000
#
# Coordination Sequence:
#
# PCOD9392922 Si02
#       8
#     8   2   8   8   8   8   8   8
#     4  10  19  33  54  80 108 141 182 232 281 331
#     4  12  22  32  60  94 116 136 184 224 278 344
#     4   9  18  33  55  79 106 148 192 229 280 339
#     4  10  20  35  56  80 107 141 182 221 266 317
#     4  11  21  35  56  79 109 140 172 215 268 322
#     4  10  19  32  51  79 114 150 190 235 282 330
#     4  10  21  37  57  82 111 145 179 222 277 332
#     4   8  17  36  56  75 107 147 184 223 273 332
#
# _framework density 19.38701
#
# number of rings (size 3 to 8) (size 9 to 14) (size 15 to 20)
#    0.000    2.207    0.690    4.759    0.000    1.379 
#    1.241    3.448    0.000   15.724    0.000    0.000 
#    0.000    0.000    0.000    0.000    0.000    0.000 
#
# Total GULP energy -322903.153585 kJ/mol
# GULP energy per Si atom -5567.295751 kJ/mol
# Density = 1.934288 g / cm^3
# Si number density = 19.387010 Si / 1000 Ang^3
#
#
#
# Elastic Constant Matrix: (Units=GPa)
#
#
# Indices 1 2 3 4 5 6 
#
# 1 68.0345 30.8851 22.5236 0.0000 0.0000 0.0000
# 2 30.8851 143.0425 30.3514 0.0000 0.0000 0.0000
# 3 22.5236 30.3514 101.5213 0.0000 0.0000 0.0000
# 4 0.0000 0.0000 0.0000 20.1311 0.0000 0.0000
# 5 0.0000 0.0000 0.0000 0.0000 7.9059 0.0000
# 6 0.0000 0.0000 0.0000 0.0000 0.0000 22.9771
#
#
#
# Elastic Compliance Matrix: (Units=1/GPa)
#
#
# Indices 1 2 3 4 5 6 
#
# 1 0.017041 -0.003072 -0.002862 0.000000 0.000000 0.000000
# 2 -0.003072 0.008018 -0.001716 0.000000 0.000000 0.000000
# 3 -0.002862 -0.001716 0.010998 0.000000 0.000000 0.000000
# 4 0.000000 0.000000 0.000000 0.049674 0.000000 0.000000
# 5 0.000000 0.000000 0.000000 0.000000 0.126488 0.000000
# 6 0.000000 0.000000 0.000000 0.000000 0.000000 0.043522
#
#
# Mechanical properties :
#
#
# Convention : Reuss Voigt Hill
#
# Bulk Modulus (GPa) = 48.17603 53.34649 50.76126
# Shear Modulus (GPa) = 17.98819 25.45868 21.72344
#
# Velocity S-wave (km/s) = 3.04936 3.62772 3.35104
# Velocity P-wave (km/s) = 6.10752 6.71740 6.41970
#
# Compressibility (1/GPa) = 0.02075721
#
# Stress axis : x y z
#
# Youngs Moduli (GPa) = 58.68342 124.71540 90.92495
#
# Poissons Ratio (x) = 0.38313 0.26025
# Poissons Ratio (y) = 0.18028 0.15599
# Poissons Ratio (z) = 0.16796 0.21396
#
# Static dielectric constant tensor:
#      x y z
#    x 1.688710 0.000000 0.000000 
#    y 0.000000 1.729790 0.000000 
#    z 0.000000 0.000000 1.662800 
# 
# From -- ./inp_files/4280.got.cif
#   From: 2010.05.17/outbox.cif.g08.bks.cpg/sg49_3_cif.got.tgz:4280.got - 2010.06.03 21:02:19.
