data_PCOD9392840
_publ_section_title
;
Structure prediction by ZEFSAII (Michael W. Deem and Ramdas Pophale) SiO2 
 PCOD9392840
Probable space group: P C C M
;
_chemical_formula_sum "Si O2"
_cell_formula_units_Z 64
_cell_length_a 20.080682
_cell_length_b 20.206779
_cell_length_c 8.862894
_cell_angle_alpha 90.000000
_cell_angle_beta 90.000000
_cell_angle_gamma 90.000000
_cell_volume 3596.260190
_symmetry_space_group_name_H-M "P C C M"
_symmetry_group_IT_number 49
_symmetry_cell_setting 'orthorhombic'
loop_
_space_group_symop_operation_xyz
x,y,z
-x,-y,z
x,-y,1/2-z
-x,y,1/2-z
-x,-y,-z
x,y,-z
-x,y,1/2+z
x,-y,1/2+z
loop_
_atom_site_type_symbol
_atom_site_label
_atom_site_fract_x
_atom_site_fract_y
_atom_site_fract_z
Si Si1 0.433644 0.174491 0.321237
Si Si2 0.927094 0.690765 0.680472
Si Si3 0.646072 0.933529 0.171455
Si Si4 0.186591 0.217034 0.183102
Si Si5 0.431507 0.679611 0.318969
Si Si6 0.718513 0.335198 0.681977
Si Si7 0.805842 0.067274 0.670943
Si Si8 0.830814 0.427935 0.820432
O O1 0.500000 0.142518 0.250000
O O2 0.439351 0.182148 0.500000
O O3 0.373459 0.128412 0.272601
O O4 0.428190 0.245269 0.241274
O O5 0.928778 0.700104 0.500000
O O6 0.876700 0.743255 0.754862
O O7 0.894179 0.619034 0.711611
O O8 0.000000 0.695913 0.750000
O O9 0.725708 0.938228 0.164024
O O10 0.620236 0.000000 0.250000
O O11 0.621277 0.925668 0.000000
O O12 0.251184 0.262516 0.225185
O O13 0.183471 0.140925 0.237623
O O14 0.186326 0.214989 0.000000
O O15 0.500000 0.650458 0.250000
O O16 0.436987 0.679163 0.500000
O O17 0.358527 0.652463 0.275721
O O18 0.722319 0.338646 0.500000
O O19 0.767422 0.389097 0.753041
O O20 0.831976 0.067488 0.500000
O O21 0.830278 0.000000 0.750000
O O22 0.837504 0.500000 0.750000
O O23 0.823325 0.432958 0.000000
#
# Coordination Sequence:
#
# PCOD9392840 Si02
#       8
#     8   8   8   8   8   8   8   8
#     4  11  21  32  45  62  85 117 156 201 253 309
#     4  10  21  36  55  82 112 144 178 213 251 298
#     4  10  19  32  46  63  87 116 154 199 250 310
#     4   9  17  32  53  76 103 138 176 216 261 311
#     4  10  19  32  50  73 100 131 167 212 263 313
#     4   9  18  33  54  77 104 139 178 218 264 313
#     4   9  18  31  49  72  99 130 165 208 260 311
#     4  10  21  36  56  83 114 145 179 213 251 299
#
# _framework density 17.796265999999999
#
# number of rings (size 3 to 8) (size 9 to 14) (size 15 to 20)
#    0.000    2.250    0.000    4.125    0.000    6.000 
#    0.000    5.000    0.000    0.750    0.000    5.250 
#    0.000    0.000    0.000    0.000    0.000    0.000 
#
# Total GULP energy -356708.647818 kJ/mol
# GULP energy per Si atom -5573.572622 kJ/mol
# Density = 1.775576 g / cm^3
# Si number density = 17.796266 Si / 1000 Ang^3
#
#
#
# Elastic Constant Matrix: (Units=GPa)
#
#
# Indices 1 2 3 4 5 6 
#
# 1 88.0534 14.4403 26.6633 0.0000 0.0000 0.0000
# 2 14.4403 84.3036 20.5435 0.0000 0.0000 0.0000
# 3 26.6633 20.5435 40.7139 0.0000 0.0000 0.0000
# 4 0.0000 0.0000 0.0000 21.2249 0.0000 0.0000
# 5 0.0000 0.0000 0.0000 0.0000 22.9427 0.0000
# 6 0.0000 0.0000 0.0000 0.0000 0.0000 9.6304
#
#
#
# Elastic Compliance Matrix: (Units=1/GPa)
#
#
# Indices 1 2 3 4 5 6 
#
# 1 0.014169 -0.000189 -0.009184 0.000000 0.000000 0.000000
# 2 -0.000189 0.013527 -0.006702 0.000000 0.000000 0.000000
# 3 -0.009184 -0.006702 0.033957 0.000000 0.000000 0.000000
# 4 0.000000 0.000000 0.000000 0.047114 0.000000 0.000000
# 5 0.000000 0.000000 0.000000 0.000000 0.043587 0.000000
# 6 0.000000 0.000000 0.000000 0.000000 0.000000 0.103838
#
#
# Mechanical properties :
#
#
# Convention : Reuss Voigt Hill
#
# Bulk Modulus (GPa) = 33.89302 37.37389 35.63346
# Shear Modulus (GPa) = 16.76857 20.85452 18.81155
#
# Velocity S-wave (km/s) = 3.07294 3.42694 3.25476
# Velocity P-wave (km/s) = 5.62823 6.05848 5.84731
#
# Compressibility (1/GPa) = 0.02950460
#
# Stress axis : x y z
#
# Youngs Moduli (GPa) = 70.57862 73.92389 29.44858
#
# Poissons Ratio (x) = 0.01398 0.27044
# Poissons Ratio (y) = 0.01334 0.19736
# Poissons Ratio (z) = 0.64816 0.49543
#
# Static dielectric constant tensor:
#      x y z
#    x 1.631290 0.000000 0.000000 
#    y 0.000000 1.605580 0.000000 
#    z 0.000000 0.000000 1.608780 
# 
# From -- ./inp_files/5941.got.cif
#   From: 2010.05.17/outbox.cif.g08.bks.cpg/sg49_3_cif.got.tgz:5941.got - 2010.06.03 21:02:19.
