data_PCOD9392984
_publ_section_title
;
Structure prediction by ZEFSAII (Michael W. Deem and Ramdas Pophale) SiO2 
 PCOD9392984
Probable space group: P C C M
;
_chemical_formula_sum "Si O2"
_cell_formula_units_Z 56
_cell_length_a 15.053741
_cell_length_b 8.191868
_cell_length_c 20.906628
_cell_angle_alpha 90.000000
_cell_angle_beta 90.000000
_cell_angle_gamma 90.000000
_cell_volume 2578.168970
_symmetry_space_group_name_H-M "P C C M"
_symmetry_group_IT_number 49
_symmetry_cell_setting 'orthorhombic'
loop_
_space_group_symop_operation_xyz
x,y,z
-x,-y,z
x,-y,1/2-z
-x,y,1/2-z
-x,-y,-z
x,y,-z
-x,y,1/2+z
x,-y,1/2+z
loop_
_atom_site_type_symbol
_atom_site_label
_atom_site_fract_x
_atom_site_fract_y
_atom_site_fract_z
Si Si1 0.544772 0.332167 0.099377
Si Si2 0.361153 0.323982 0.726919
Si Si3 0.715001 0.504740 0.426781
Si Si4 0.234556 0.065412 0.322697
Si Si5 0.897045 0.950873 0.073742
Si Si6 0.906330 0.433107 0.577029
Si Si7 0.622899 0.191749 0.362390
O O1 0.500000 0.500000 0.075520
O O2 0.563004 0.346831 0.174834
O O3 0.644926 0.344876 0.073168
O O4 0.468912 0.193645 0.097074
O O5 0.333072 0.500000 0.750000
O O6 0.278906 0.236813 0.693261
O O7 0.392669 0.218606 0.786843
O O8 0.719668 0.446837 0.500000
O O9 0.816554 0.529890 0.405302
O O10 0.674105 0.354272 0.386640
O O11 0.214560 0.000000 0.250000
O O12 0.153788 0.051817 0.371814
O O13 0.311745 0.961488 0.359937
O O14 0.891081 0.758446 0.090951
O O15 0.863710 0.973716 0.000000
O O16 0.000000 0.000000 0.073130
O O17 0.913344 0.444102 0.500000
O O18 0.000000 0.500000 0.603293
#
# Coordination Sequence:
#
# PCOD9392984 Si02
#       7
#     8   8   8   8   8   8   8
#     4  10  20  32  56  83 117 158 199 258 311 370
#     4  11  20  36  58  84 117 153 210 264 317 377
#     4  10  19  32  56  88 122 160 209 265 322 383
#     4  10  23  39  59  89 124 169 212 269 339 406
#     4  10  21  40  63  88 122 168 220 273 334 405
#     4   9  18  34  59  89 120 157 211 273 322 379
#     4  10  20  35  57  83 118 161 205 249 315 391
#
# _framework density 21.720842000000001
#
# number of rings (size 3 to 8) (size 9 to 14) (size 15 to 20)
#    0.000    2.000    4.286    0.429    0.000    4.571 
#    0.000    4.286    0.000    0.000    0.000    7.000 
#    0.000    0.000    0.000    0.000    0.000    0.000 
#
# Total GULP energy -311972.554351 kJ/mol
# GULP energy per Si atom -5570.938471 kJ/mol
# Density = 2.167140 g / cm^3
# Si number density = 21.720842 Si / 1000 Ang^3
#
#
#
# Elastic Constant Matrix: (Units=GPa)
#
#
# Indices 1 2 3 4 5 6 
#
# 1 135.9082 20.8638 25.8994 0.0000 0.0000 0.0000
# 2 20.8638 21.0510 1.7165 0.0000 0.0000 0.0000
# 3 25.8994 1.7165 69.1506 0.0000 0.0000 0.0000
# 4 0.0000 0.0000 0.0000 15.4433 0.0000 0.0000
# 5 0.0000 0.0000 0.0000 0.0000 43.5238 0.0000
# 6 0.0000 0.0000 0.0000 0.0000 0.0000 28.8344
#
#
#
# Elastic Compliance Matrix: (Units=1/GPa)
#
#
# Indices 1 2 3 4 5 6 
#
# 1 0.009368 -0.009017 -0.003285 0.000000 0.000000 0.000000
# 2 -0.009017 0.056279 0.001980 0.000000 0.000000 0.000000
# 3 -0.003285 0.001980 0.015642 0.000000 0.000000 0.000000
# 4 0.000000 0.000000 0.000000 0.064753 0.000000 0.000000
# 5 0.000000 0.000000 0.000000 0.000000 0.022976 0.000000
# 6 0.000000 0.000000 0.000000 0.000000 0.000000 0.034681
#
#
# Mechanical properties :
#
#
# Convention : Reuss Voigt Hill
#
# Bulk Modulus (GPa) = 16.48909 35.89656 26.19283
# Shear Modulus (GPa) = 20.44507 29.40230 24.92369
#
# Velocity S-wave (km/s) = 3.07133 3.68318 3.39109
# Velocity P-wave (km/s) = 4.49280 5.88642 5.23619
#
# Compressibility (1/GPa) = 0.06064615
#
# Stress axis : x y z
#
# Youngs Moduli (GPa) = 106.74502 17.76863 63.92905
#
# Poissons Ratio (x) = 0.16022 0.21000
# Poissons Ratio (y) = 0.96251 -0.12659
# Poissons Ratio (z) = 0.35064 -0.03519
#
# Static dielectric constant tensor:
#      x y z
#    x 1.851110 0.000000 0.000000 
#    y 0.000000 1.837910 0.000000 
#    z 0.000000 0.000000 1.809520 
# 
# From -- ./inp_files/20892.got.cif
#   From: 2010.05.17/outbox.cif.g08.bks.cpg/sg49_11_cif.got.tgz:20892.got - 2010.06.03 21:02:19.
