data_PCOD9392674
_publ_section_title
;
Structure prediction by ZEFSAII (Michael W. Deem and Ramdas Pophale) SiO2 
 PCOD9392674
Probable space group: P C C M
;
_chemical_formula_sum "Si O2"
_cell_formula_units_Z 56
_cell_length_a 21.338532
_cell_length_b 18.823888
_cell_length_c 8.766232
_cell_angle_alpha 90.000000
_cell_angle_beta 90.000000
_cell_angle_gamma 90.000000
_cell_volume 3521.168669
_symmetry_space_group_name_H-M "P C C M"
_symmetry_group_IT_number 49
_symmetry_cell_setting 'orthorhombic'
loop_
_space_group_symop_operation_xyz
x,y,z
-x,-y,z
x,-y,1/2-z
-x,y,1/2-z
-x,-y,-z
x,y,-z
-x,y,1/2+z
x,-y,1/2+z
loop_
_atom_site_type_symbol
_atom_site_label
_atom_site_fract_x
_atom_site_fract_y
_atom_site_fract_z
Si Si1 0.566542 0.079318 0.183203
Si Si2 0.119397 0.785061 0.825857
Si Si3 0.256689 0.289023 0.324640
Si Si4 0.065241 0.650119 0.680488
Si Si5 0.195647 0.422339 0.816604
Si Si6 0.188676 0.922034 0.184595
Si Si7 0.312372 0.153675 0.817862
O O1 0.500000 0.104908 0.250000
O O2 0.624227 0.125742 0.241892
O O3 0.575539 0.000000 0.250000
O O4 0.564475 0.076628 0.000000
O O5 0.188361 0.748920 0.826909
O O6 0.077614 0.731969 0.728030
O O7 0.134312 0.865102 0.773719
O O8 0.095938 0.785936 0.000000
O O9 0.277553 0.295253 0.500000
O O10 0.244515 0.364831 0.248183
O O11 0.299546 0.234960 0.230604
O O12 0.061771 0.645445 0.500000
O O13 0.126066 0.605148 0.731300
O O14 0.000000 0.625047 0.750000
O O15 0.206470 0.500000 0.750000
O O16 0.197896 0.422718 0.000000
O O17 0.254022 0.892297 0.252398
O O18 0.177041 0.000000 0.250000
O O19 0.193238 0.922655 0.000000
O O20 0.314412 0.146292 0.000000
#
# Coordination Sequence:
#
# PCOD9392674 Si02
#       7
#     8   8   8   8   8   8   8
#     4  11  21  34  48  66  94 130 169 206 244 283
#     4   8  16  30  46  63  86 113 144 182 228 274
#     4   9  17  31  49  69  92 120 152 190 231 275
#     4  10  20  32  48  67  88 116 152 186 222 268
#     4  10  20  33  49  71  97 126 153 184 226 275
#     4  10  19  30  45  67  91 117 148 189 236 280
#     4  11  20  31  47  68  94 125 160 197 233 276
#
# _framework density 15.903810999999999
#
# number of rings (size 3 to 8) (size 9 to 14) (size 15 to 20)
#    0.000    2.143    0.000    6.000    0.000    6.000 
#    0.000    1.429    0.000    0.429    0.000    3.000 
#    0.000    0.571    0.000    5.714    0.000    3.429 
#
# Total GULP energy -312356.986969 kJ/mol
# GULP energy per Si atom -5577.803339 kJ/mol
# Density = 1.586761 g / cm^3
# Si number density = 15.903811 Si / 1000 Ang^3
#
#
#
# Elastic Constant Matrix: (Units=GPa)
#
#
# Indices 1 2 3 4 5 6 
#
# 1 24.6025 7.5691 11.2254 0.0000 0.0000 0.0000
# 2 7.5691 106.3322 25.3427 0.0000 0.0000 0.0000
# 3 11.2254 25.3427 86.7213 0.0000 0.0000 0.0000
# 4 0.0000 0.0000 0.0000 25.6205 0.0000 0.0000
# 5 0.0000 0.0000 0.0000 0.0000 23.2204 0.0000
# 6 0.0000 0.0000 0.0000 0.0000 0.0000 15.5393
#
#
#
# Elastic Compliance Matrix: (Units=1/GPa)
#
#
# Indices 1 2 3 4 5 6 
#
# 1 0.043547 -0.001888 -0.005085 0.000000 0.000000 0.000000
# 2 -0.001888 0.010190 -0.002734 0.000000 0.000000 0.000000
# 3 -0.005085 -0.002734 0.012988 0.000000 0.000000 0.000000
# 4 0.000000 0.000000 0.000000 0.039031 0.000000 0.000000
# 5 0.000000 0.000000 0.000000 0.000000 0.043066 0.000000
# 6 0.000000 0.000000 0.000000 0.000000 0.000000 0.064353
#
#
# Mechanical properties :
#
#
# Convention : Reuss Voigt Hill
#
# Bulk Modulus (GPa) = 21.13594 33.99226 27.56410
# Shear Modulus (GPa) = 20.13206 24.44395 22.28801
#
# Velocity S-wave (km/s) = 3.56176 3.92470 3.74762
# Velocity P-wave (km/s) = 5.49850 6.47748 6.00796
#
# Compressibility (1/GPa) = 0.04731277
#
# Stress axis : x y z
#
# Youngs Moduli (GPa) = 22.96348 98.13172 76.99259
#
# Poissons Ratio (x) = 0.18526 0.39152
# Poissons Ratio (y) = 0.04335 0.21047
# Poissons Ratio (z) = 0.11677 0.26825
#
# Static dielectric constant tensor:
#      x y z
#    x 1.521310 0.000000 0.000000 
#    y 0.000000 1.534940 0.000000 
#    z 0.000000 0.000000 1.533510 
# 
# From -- ./inp_files/5204.got.cif
#   From: 2010.05.17/outbox.cif.g08.bks.cpg/sg49_3_cif.got.tgz:5204.got - 2010.06.03 21:02:19.
