data_PCOD9392002
_publ_section_title
;
Structure prediction by ZEFSAII (Michael W. Deem and Ramdas Pophale) SiO2 
 PCOD9392002
Probable space group: P C C M
;
_chemical_formula_sum "Si O2"
_cell_formula_units_Z 40
_cell_length_a 27.120763
_cell_length_b 9.380225
_cell_length_c 8.599046
_cell_angle_alpha 90.000000
_cell_angle_beta 90.000000
_cell_angle_gamma 90.000000
_cell_volume 2187.587492
_symmetry_space_group_name_H-M "P C C M"
_symmetry_group_IT_number 49
_symmetry_cell_setting 'orthorhombic'
loop_
_space_group_symop_operation_xyz
x,y,z
-x,-y,z
x,-y,1/2-z
-x,y,1/2-z
-x,-y,-z
x,y,-z
-x,y,1/2+z
x,-y,1/2+z
loop_
_atom_site_type_symbol
_atom_site_label
_atom_site_fract_x
_atom_site_fract_y
_atom_site_fract_z
Si Si1 0.550784 0.162927 0.685211
Si Si2 0.946684 0.840024 0.186134
Si Si3 0.855565 0.659639 0.687385
Si Si4 0.760419 0.839346 0.687252
Si Si5 0.347992 0.837709 0.186586
O O1 0.500000 0.228247 0.750000
O O2 0.549326 0.157950 0.500000
O O3 0.602416 0.229064 0.742515
O O4 0.551466 0.000000 0.750000
O O5 0.903065 0.740895 0.246694
O O6 0.000000 0.792497 0.250000
O O7 0.938594 0.000000 0.250000
O O8 0.947756 0.843372 0.000000
O O9 0.854413 0.500000 0.750000
O O10 0.857559 0.659991 0.500000
O O11 0.806086 0.743187 0.737923
O O12 0.761242 0.847648 0.500000
O O13 0.706100 0.779406 0.730273
O O14 0.765601 0.000000 0.750000
O O15 0.346306 0.000000 0.250000
O O16 0.352731 0.840193 0.000000
#
# Coordination Sequence:
#
# PCOD9392002 Si02
#       5
#     8   8   8   8   8
#     4  10  16  22  32  50  78 115 153 193 239 294
#     4  11  22  39  62  88 114 144 178 217 258 306
#     4  11  23  39  56  80 110 143 179 219 264 313
#     4   9  19  33  52  74 100 132 171 213 258 307
#     4   9  15  25  39  59  85 117 155 199 244 294
#
# _framework density 18.284983
#
# number of rings (size 3 to 8) (size 9 to 14) (size 15 to 20)
#    0.000    2.000    0.000    7.800    0.000    4.400 
#    0.000    2.000    0.000    0.000    0.000    0.000 
#    0.000    0.800    0.000    9.200    0.000    5.800 
#
# Total GULP energy -223120.902453 kJ/mol
# GULP energy per Si atom -5578.022561 kJ/mol
# Density = 1.824337 g / cm^3
# Si number density = 18.284983 Si / 1000 Ang^3
#
#
#
# Elastic Constant Matrix: (Units=GPa)
#
#
# Indices 1 2 3 4 5 6 
#
# 1 234.4707 80.6542 73.2282 0.0000 0.0000 0.0000
# 2 80.6542 48.4979 26.8904 0.0000 0.0000 0.0000
# 3 73.2282 26.8904 118.6019 0.0000 0.0000 0.0000
# 4 0.0000 0.0000 0.0000 16.9257 0.0000 0.0000
# 5 0.0000 0.0000 0.0000 0.0000 32.9264 0.0000
# 6 0.0000 0.0000 0.0000 0.0000 0.0000 -6.3959
#
#
#
# Elastic Compliance Matrix: (Units=1/GPa)
#
#
# Indices 1 2 3 4 5 6 
#
# 1 0.010811 -0.016331 -0.002972 0.000000 0.000000 0.000000
# 2 -0.016331 0.048253 -0.000857 0.000000 0.000000 0.000000
# 3 -0.002972 -0.000857 0.010461 0.000000 0.000000 0.000000
# 4 0.000000 0.000000 0.000000 0.059082 0.000000 0.000000
# 5 0.000000 0.000000 0.000000 0.000000 0.030371 0.000000
# 6 0.000000 0.000000 0.000000 0.000000 0.000000 -0.156350
#
#
# Mechanical properties :
#
#
# Convention : Reuss Voigt Hill
#
# Bulk Modulus (GPa) = 34.24106 84.79068 59.51587
# Shear Modulus (GPa) = 94.90672 23.41108 59.15890
#
# Velocity S-wave (km/s) = 7.21227 3.58207 5.69421
# Velocity P-wave (km/s) = 9.38737 7.97375 8.70929
#
# Compressibility (1/GPa) = 0.02920471
#
# Stress axis : x y z
#
# Youngs Moduli (GPa) = 92.50129 20.72389 95.59233
#
# Poissons Ratio (x) = 0.33843 0.28412
# Poissons Ratio (y) = 1.51061 0.08196
# Poissons Ratio (z) = 0.27493 0.01777
#
# Static dielectric constant tensor:
#      x y z
#    x 1.699450 0.000000 0.000000 
#    y 0.000000 1.581780 0.000000 
#    z 0.000000 0.000000 1.617710 
# 
# From -- ./inp_files/1891.got.cif
#   From: 2010.05.17/outbox.cif.g08.bks.cpg/sg49_1_cif.got.tgz:1891.got - 2010.06.03 21:02:19.
