data_PCOD9392404
_publ_section_title
;
Structure prediction by ZEFSAII (Michael W. Deem and Ramdas Pophale) SiO2 
 PCOD9392404
Probable space group: P C C M
;
_chemical_formula_sum "Si O2"
_cell_formula_units_Z 64
_cell_length_a 20.059240
_cell_length_b 20.454443
_cell_length_c 9.082060
_cell_angle_alpha 90.000000
_cell_angle_beta 90.000000
_cell_angle_gamma 90.000000
_cell_volume 3726.374497
_symmetry_space_group_name_H-M "P C C M"
_symmetry_group_IT_number 49
_symmetry_cell_setting 'orthorhombic'
loop_
_space_group_symop_operation_xyz
x,y,z
-x,-y,z
x,-y,1/2-z
-x,y,1/2-z
-x,-y,-z
x,y,-z
-x,y,1/2+z
x,-y,1/2+z
loop_
_atom_site_type_symbol
_atom_site_label
_atom_site_fract_x
_atom_site_fract_y
_atom_site_fract_z
Si Si1 0.836538 0.808727 0.675462
Si Si2 0.296002 0.393006 0.174875
Si Si3 0.704028 0.764025 0.174557
Si Si4 0.850019 0.565141 0.176282
Si Si5 0.567326 0.241156 0.830307
Si Si6 0.567632 0.400637 0.168473
Si Si7 0.927809 0.301474 0.676843
Si Si8 0.069087 0.070018 0.324147
O O1 0.834624 0.797011 0.500000
O O2 0.763388 0.801069 0.743641
O O3 0.881891 0.754654 0.754853
O O4 0.872152 0.878269 0.700730
O O5 0.288382 0.314579 0.196829
O O6 0.226509 0.423803 0.226479
O O7 0.362664 0.417777 0.254081
O O8 0.303449 0.403575 0.000000
O O9 0.632488 0.780891 0.242634
O O10 0.706320 0.775724 0.000000
O O11 0.877239 0.500000 0.250000
O O12 0.892979 0.629148 0.210054
O O13 0.848763 0.558060 0.000000
O O14 0.500000 0.219805 0.750000
O O15 0.566859 0.320864 0.829782
O O16 0.569316 0.220594 0.000000
O O17 0.500000 0.421715 0.250000
O O18 0.566956 0.422739 0.000000
O O19 0.931827 0.294143 0.500000
O O20 0.000000 0.298458 0.750000
O O21 0.059385 0.062812 0.500000
O O22 0.000000 0.094131 0.250000
O O23 0.083022 0.000000 0.250000
#
# Coordination Sequence:
#
# PCOD9392404 Si02
#       8
#     8   8   8   8   8   8   8   8
#     4  11  22  35  54  82 111 141 177 217 260 309
#     4   9  17  32  49  68  96 128 163 207 254 307
#     4  10  18  30  49  72 102 138 173 215 263 310
#     4  10  22  39  56  75  99 129 168 212 263 317
#     4   9  16  26  40  64  98 135 174 213 257 310
#     4   9  16  25  41  67  94 125 161 200 247 301
#     4  11  23  40  58  80 105 133 169 211 262 316
#     4  10  21  36  55  79 108 143 181 218 257 306
#
# _framework density 17.174869999999999
#
# number of rings (size 3 to 8) (size 9 to 14) (size 15 to 20)
#    0.000    2.125    1.250    3.000    0.000    8.250 
#    0.000    1.250    0.000    0.375    0.000    2.625 
#    0.000    0.500    0.000    5.250    0.000    3.125 
#
# Total GULP energy -357340.625903 kJ/mol
# GULP energy per Si atom -5583.447280 kJ/mol
# Density = 1.713578 g / cm^3
# Si number density = 17.174870 Si / 1000 Ang^3
#
#
#
# Elastic Constant Matrix: (Units=GPa)
#
#
# Indices 1 2 3 4 5 6 
#
# 1 142.2959 45.5546 63.8159 0.0000 0.0000 0.0000
# 2 45.5546 54.4841 43.8719 0.0000 0.0000 0.0000
# 3 63.8159 43.8719 92.4374 0.0000 0.0000 0.0000
# 4 0.0000 0.0000 0.0000 7.2345 0.0000 0.0000
# 5 0.0000 0.0000 0.0000 0.0000 30.4456 0.0000
# 6 0.0000 0.0000 0.0000 0.0000 0.0000 37.2584
#
#
#
# Elastic Compliance Matrix: (Units=1/GPa)
#
#
# Indices 1 2 3 4 5 6 
#
# 1 0.010951 -0.004967 -0.005203 0.000000 0.000000 0.000000
# 2 -0.004967 0.031960 -0.011740 0.000000 0.000000 0.000000
# 3 -0.005203 -0.011740 0.019982 0.000000 0.000000 0.000000
# 4 0.000000 0.000000 0.000000 0.138227 0.000000 0.000000
# 5 0.000000 0.000000 0.000000 0.000000 0.032845 0.000000
# 6 0.000000 0.000000 0.000000 0.000000 0.000000 0.026840
#
#
# Mechanical properties :
#
#
# Convention : Reuss Voigt Hill
#
# Bulk Modulus (GPa) = 52.42737 66.18914 59.30825
# Shear Modulus (GPa) = 16.07816 24.05271 20.06544
#
# Velocity S-wave (km/s) = 3.06297 3.74633 3.42175
# Velocity P-wave (km/s) = 6.56513 7.57201 7.08648
#
# Compressibility (1/GPa) = 0.01907401
#
# Stress axis : x y z
#
# Youngs Moduli (GPa) = 91.31539 31.28948 50.04536
#
# Poissons Ratio (x) = 0.15540 0.26039
# Poissons Ratio (y) = 0.45353 0.58751
# Poissons Ratio (z) = 0.47512 0.36733
#
# Static dielectric constant tensor:
#      x y z
#    x 1.574820 0.000000 0.000000 
#    y 0.000000 1.570080 0.000000 
#    z 0.000000 0.000000 1.573210 
# 
# From -- ./inp_files/5324.got.cif
#   From: 2010.05.17/outbox.cif.g08.bks.cpg/sg49_3_cif.got.tgz:5324.got - 2010.06.03 21:02:19.
