data_PCOD9392816
_publ_section_title
;
Structure prediction by ZEFSAII (Michael W. Deem and Ramdas Pophale) SiO2 
 PCOD9392816
Probable space group: P C C M
;
_chemical_formula_sum "Si O2"
_cell_formula_units_Z 38
_cell_length_a 22.785464
_cell_length_b 7.548398
_cell_length_c 10.244970
_cell_angle_alpha 90.000000
_cell_angle_beta 90.000000
_cell_angle_gamma 90.000000
_cell_volume 1762.070818
_symmetry_space_group_name_H-M "P C C M"
_symmetry_group_IT_number 49
_symmetry_cell_setting 'orthorhombic'
loop_
_space_group_symop_operation_xyz
x,y,z
-x,-y,z
x,-y,1/2-z
-x,y,1/2-z
-x,-y,-z
x,y,-z
-x,y,1/2+z
x,-y,1/2+z
loop_
_atom_site_type_symbol
_atom_site_label
_atom_site_fract_x
_atom_site_fract_y
_atom_site_fract_z
Si Si1 0.175152 0.314935 0.000000
Si Si2 0.925144 0.041397 0.500000
Si Si3 0.638952 0.713712 0.261743
Si Si4 0.000000 0.000000 0.250000
Si Si5 0.575367 0.718455 0.000000
Si Si6 0.142465 0.308982 0.500000
Si Si7 0.559346 0.714009 0.500000
Si Si8 0.227092 0.792702 0.235527
O O1 0.131135 0.481559 0.000000
O O2 0.214434 0.308933 0.129313
O O3 0.136386 0.139160 0.000000
O O4 0.957578 0.088609 0.361817
O O5 0.911093 0.830073 0.500000
O O6 0.640415 0.500000 0.250000
O O7 0.612758 0.775215 0.124644
O O8 0.593839 0.771536 0.372226
O O9 0.704471 0.772179 0.295632
O O10 0.566571 0.502444 0.000000
O O11 0.507682 0.775477 0.000000
O O12 0.183249 0.274881 0.374758
O O13 0.214606 0.000000 0.250000
#
# Coordination Sequence:
#
# PCOD9392816 Si02
#       8
#     4   4   8   2   4   4   4   8
#     4  12  24  42  69  97 133 173 217 262 314 377
#     4  11  22  46  66 102 134 176 215 258 310 360
#     4  10  19  31  51  79 110 145 198 254 311 379
#     4  10  24  42  74  94 140 180 208 262 312 354
#     4   9  17  30  49  73 103 144 196 256 312 372
#     4  12  24  42  69  97 133 173 217 262 314 377
#     4   9  17  30  49  73 103 144 196 256 312 372
#     4  12  23  40  60  92 129 167 208 260 327 390
#
# _framework density 21.565536999999999
#
# number of rings (size 3 to 8) (size 9 to 14) (size 15 to 20)
#    0.000    1.263    2.105    5.053    0.000    4.211 
#    0.000    3.158    0.000    3.789    0.000    0.000 
#    0.000    0.000    0.000    0.000    0.000    0.000 
#
# Total GULP energy -212213.993348 kJ/mol
# GULP energy per Si atom -5584.578772 kJ/mol
# Density = 2.151645 g / cm^3
# Si number density = 21.565537 Si / 1000 Ang^3
#
#
#
# Elastic Constant Matrix: (Units=GPa)
#
#
# Indices 1 2 3 4 5 6 
#
# 1 74.0467 -19.7794 21.8539 0.0000 0.0000 0.0000
# 2 -19.7794 70.0774 -9.2102 0.0000 0.0000 0.0000
# 3 21.8539 -9.2102 155.6122 0.0000 0.0000 0.0000
# 4 0.0000 0.0000 0.0000 29.7215 0.0000 0.0000
# 5 0.0000 0.0000 0.0000 0.0000 58.0204 0.0000
# 6 0.0000 0.0000 0.0000 0.0000 0.0000 10.5105
#
#
#
# Elastic Compliance Matrix: (Units=1/GPa)
#
#
# Indices 1 2 3 4 5 6 
#
# 1 0.015137 0.004024 -0.001888 0.000000 0.000000 0.000000
# 2 0.004024 0.015452 0.000349 0.000000 0.000000 0.000000
# 3 -0.001888 0.000349 0.006712 0.000000 0.000000 0.000000
# 4 0.000000 0.000000 0.000000 0.033646 0.000000 0.000000
# 5 0.000000 0.000000 0.000000 0.000000 0.017235 0.000000
# 6 0.000000 0.000000 0.000000 0.000000 0.000000 0.095143
#
#
# Mechanical properties :
#
#
# Convention : Reuss Voigt Hill
#
# Bulk Modulus (GPa) = 23.65574 31.71832 27.68703
# Shear Modulus (GPa) = 25.98168 40.10862 33.04515
#
# Velocity S-wave (km/s) = 3.47476 4.31727 3.91872
# Velocity P-wave (km/s) = 5.20496 6.29219 5.77422
#
# Compressibility (1/GPa) = 0.04227303
#
# Stress axis : x y z
#
# Youngs Moduli (GPa) = 66.06283 64.71768 148.98673
#
# Poissons Ratio (x) = -0.26045 0.28123
# Poissons Ratio (y) = -0.26586 -0.05205
# Poissons Ratio (z) = 0.12470 -0.02261
#
# Static dielectric constant tensor:
#      x y z
#    x 1.742750 0.000000 0.000000 
#    y 0.000000 1.824010 0.000000 
#    z 0.000000 0.000000 1.751010 
# 
# From -- ./inp_files/1857.got.cif
#   From: 2010.05.17/outbox.cif.g08.bks.cpg/sg49_1_cif.got.tgz:1857.got - 2010.06.03 21:02:19.
