data_PCOD9392938
_publ_section_title
;
Structure prediction by ZEFSAII (Michael W. Deem and Ramdas Pophale) SiO2 
 PCOD9392938
Probable space group: P C C M
;
_chemical_formula_sum "Si O2"
_cell_formula_units_Z 64
_cell_length_a 25.297603
_cell_length_b 15.812235
_cell_length_c 8.583348
_cell_angle_alpha 90.000000
_cell_angle_beta 90.000000
_cell_angle_gamma 90.000000
_cell_volume 3433.439141
_symmetry_space_group_name_H-M "P C C M"
_symmetry_group_IT_number 49
_symmetry_cell_setting 'orthorhombic'
loop_
_space_group_symop_operation_xyz
x,y,z
-x,-y,z
x,-y,1/2-z
-x,y,1/2-z
-x,-y,-z
x,y,-z
-x,y,1/2+z
x,-y,1/2+z
loop_
_atom_site_type_symbol
_atom_site_label
_atom_site_fract_x
_atom_site_fract_y
_atom_site_fract_z
Si Si1 0.857199 0.276935 0.313601
Si Si2 0.358881 0.590488 0.187950
Si Si3 0.557360 0.731616 0.312080
Si Si4 0.398919 0.086900 0.686883
Si Si5 0.712345 0.859074 0.812888
Si Si6 0.830380 0.911151 0.813586
Si Si7 0.940845 0.408707 0.185508
Si Si8 0.743873 0.319473 0.814481
O O1 0.862581 0.277434 0.500000
O O2 0.855833 0.178168 0.260574
O O3 0.902647 0.333696 0.239401
O O4 0.800293 0.316384 0.268915
O O5 0.376043 0.500000 0.250000
O O6 0.397998 0.665275 0.240618
O O7 0.298544 0.610616 0.236662
O O8 0.359391 0.590492 0.000000
O O9 0.500000 0.707828 0.250000
O O10 0.556934 0.730687 0.500000
O O11 0.571707 0.827240 0.262958
O O12 0.396699 0.084608 0.500000
O O13 0.339639 0.094531 0.754369
O O14 0.423087 0.000000 0.750000
O O15 0.767991 0.903612 0.773768
O O16 0.715719 0.769068 0.727301
O O17 0.710687 0.847826 0.000000
O O18 0.851463 0.000000 0.750000
O O19 0.834414 0.912819 0.000000
O O20 0.922285 0.500000 0.250000
O O21 0.000000 0.395490 0.250000
O O22 0.942685 0.413100 0.000000
O O23 0.752185 0.325121 0.000000
#
# Coordination Sequence:
#
# PCOD9392938 Si02
#       8
#     8   8   8   8   8   8   8   8
#     4  10  21  37  56  86 123 158 201 246 287 346
#     4  10  22  40  60  84 112 143 182 227 282 341
#     4  10  23  43  61  80 108 141 180 231 283 338
#     4  11  22  37  56  81 112 142 180 227 277 338
#     4  10  19  32  52  80 111 148 190 229 278 335
#     4   9  19  32  49  77 115 154 193 237 280 330
#     4  11  22  39  63  90 119 157 199 247 301 350
#     4  10  19  35  56  81 117 154 188 232 285 339
#
# _framework density 18.640201999999999
#
# number of rings (size 3 to 8) (size 9 to 14) (size 15 to 20)
#    0.000    1.875    1.250    4.125    0.000    7.500 
#    0.000    3.750    0.000    0.375    0.000    2.625 
#    0.000    0.000    0.000    0.000    0.000    0.000 
#
# Total GULP energy -357294.563299 kJ/mol
# GULP energy per Si atom -5582.727552 kJ/mol
# Density = 1.859778 g / cm^3
# Si number density = 18.640202 Si / 1000 Ang^3
#
#
#
# Elastic Constant Matrix: (Units=GPa)
#
#
# Indices 1 2 3 4 5 6 
#
# 1 75.8167 59.8205 21.7693 0.0000 0.0000 0.0000
# 2 59.8205 134.0034 28.5169 0.0000 0.0000 0.0000
# 3 21.7693 28.5169 50.6059 0.0000 0.0000 0.0000
# 4 0.0000 0.0000 0.0000 31.1903 0.0000 0.0000
# 5 0.0000 0.0000 0.0000 0.0000 135.2014 0.0000
# 6 0.0000 0.0000 0.0000 0.0000 0.0000 2.3328
#
#
#
# Elastic Compliance Matrix: (Units=1/GPa)
#
#
# Indices 1 2 3 4 5 6 
#
# 1 0.021152 -0.008529 -0.004293 0.000000 0.000000 0.000000
# 2 -0.008529 0.011918 -0.003047 0.000000 0.000000 0.000000
# 3 -0.004293 -0.003047 0.023324 0.000000 0.000000 0.000000
# 4 0.000000 0.000000 0.000000 0.032061 0.000000 0.000000
# 5 0.000000 0.000000 0.000000 0.000000 0.007396 0.000000
# 6 0.000000 0.000000 0.000000 0.000000 0.000000 0.428668
#
#
# Mechanical properties :
#
#
# Convention : Reuss Voigt Hill
#
# Bulk Modulus (GPa) = 40.55703 53.40438 46.98070
# Shear Modulus (GPa) = 8.85777 43.76619 26.31198
#
# Velocity S-wave (km/s) = 2.18227 4.85082 3.76116
# Velocity P-wave (km/s) = 5.30611 7.75153 6.64233
#
# Compressibility (1/GPa) = 0.02465664
#
# Stress axis : x y z
#
# Youngs Moduli (GPa) = 47.27767 83.90456 42.87368
#
# Poissons Ratio (x) = 0.71560 0.18405
# Poissons Ratio (y) = 0.40322 0.13065
# Poissons Ratio (z) = 0.20295 0.25568
#
# Static dielectric constant tensor:
#      x y z
#    x 1.621610 0.000000 0.000000 
#    y 0.000000 1.670230 0.000000 
#    z 0.000000 0.000000 1.646770 
# 
# From -- ./inp_files/6568.got.cif
#   From: 2010.05.17/outbox.cif.g08.bks.cpg/sg49_4_cif.got.tgz:6568.got - 2010.06.03 21:02:19.
