data_PCOD9392410
_publ_section_title
;
Structure prediction by ZEFSAII (Michael W. Deem and Ramdas Pophale) SiO2 
 PCOD9392410
Probable space group: P C C M
;
_chemical_formula_sum "Si O2"
_cell_formula_units_Z 48
_cell_length_a 18.130349
_cell_length_b 13.526711
_cell_length_c 8.920534
_cell_angle_alpha 90.000000
_cell_angle_beta 90.000000
_cell_angle_gamma 90.000000
_cell_volume 2187.707362
_symmetry_space_group_name_H-M "P C C M"
_symmetry_group_IT_number 49
_symmetry_cell_setting 'orthorhombic'
loop_
_space_group_symop_operation_xyz
x,y,z
-x,-y,z
x,-y,1/2-z
-x,y,1/2-z
-x,-y,-z
x,y,-z
-x,y,1/2+z
x,-y,1/2+z
loop_
_atom_site_type_symbol
_atom_site_label
_atom_site_fract_x
_atom_site_fract_y
_atom_site_fract_z
Si Si1 0.382086 0.401587 0.321607
Si Si2 0.076671 0.675118 0.818791
Si Si3 0.426218 0.179332 0.322678
Si Si4 0.735484 0.838876 0.327359
Si Si5 0.103637 0.902272 0.831038
Si Si6 0.771546 0.358079 0.324675
O O1 0.415952 0.500000 0.250000
O O2 0.386644 0.407811 0.500000
O O3 0.414383 0.294667 0.273908
O O4 0.297100 0.400289 0.267742
O O5 0.083564 0.792320 0.774588
O O6 0.148791 0.623427 0.749006
O O7 0.000000 0.638107 0.750000
O O8 0.078320 0.668862 0.000000
O O9 0.500000 0.138365 0.250000
O O10 0.437522 0.179993 0.500000
O O11 0.347452 0.126690 0.294272
O O12 0.731685 0.794874 0.500000
O O13 0.806796 0.906868 0.333583
O O14 0.756396 0.758322 0.203210
O O15 0.077969 0.000000 0.750000
O O16 0.075906 0.904808 0.000000
O O17 0.769397 0.383723 0.500000
#
# Coordination Sequence:
#
# PCOD9392410 Si02
#       6
#     8   8   8   8   8   8
#     4  10  20  34  50  71  99 130 161 198 239 283
#     4  10  20  34  50  71  99 130 161 198 239 283
#     4   9  18  31  48  69  96 126 159 198 242 287
#     4   8  16  32  48  65  92 127 161 198 239 282
#     4   9  18  31  48  69  96 126 159 198 242 287
#     4  10  18  30  50  73  94 123 162 200 236 282
#
# _framework density 21.940777000000001
#
# number of rings (size 3 to 8) (size 9 to 14) (size 15 to 20)
#    0.000    2.667    0.000    4.500    0.000    7.333 
#    0.000    3.333    0.000    1.000    0.000    7.000 
#    0.000    0.000    0.000    0.000    0.000    0.000 
#
# Total GULP energy -267550.373868 kJ/mol
# GULP energy per Si atom -5573.966122 kJ/mol
# Density = 2.189084 g / cm^3
# Si number density = 21.940777 Si / 1000 Ang^3
#
#
#
# Elastic Constant Matrix: (Units=GPa)
#
#
# Indices 1 2 3 4 5 6 
#
# 1 175.6485 -11.8807 25.3349 0.0000 0.0000 0.0000
# 2 -11.8807 32.4423 6.4319 0.0000 0.0000 0.0000
# 3 25.3349 6.4319 41.8057 0.0000 0.0000 0.0000
# 4 0.0000 0.0000 0.0000 -25.3958 0.0000 0.0000
# 5 0.0000 0.0000 0.0000 0.0000 -13.6751 0.0000
# 6 0.0000 0.0000 0.0000 0.0000 0.0000 -5.5826
#
#
#
# Elastic Compliance Matrix: (Units=1/GPa)
#
#
# Indices 1 2 3 4 5 6 
#
# 1 0.006563 0.003292 -0.004484 0.000000 0.000000 0.000000
# 2 0.003292 0.033445 -0.007141 0.000000 0.000000 0.000000
# 3 -0.004484 -0.007141 0.027736 0.000000 0.000000 0.000000
# 4 0.000000 0.000000 0.000000 -0.039377 0.000000 0.000000
# 5 0.000000 0.000000 0.000000 0.000000 -0.073125 0.000000
# 6 0.000000 0.000000 0.000000 0.000000 0.000000 -0.179129
#
#
# Mechanical properties :
#
#
# Convention : Reuss Voigt Hill
#
# Bulk Modulus (GPa) = 19.57732 32.18542 25.88137
# Shear Modulus (GPa) = -26.28856 6.40333 -9.94261
#
# Velocity S-wave (km/s) = -3.46520 1.71020 -2.13106
# Velocity P-wave (km/s) = 2.65857 4.31287 2.40134
#
# Compressibility (1/GPa) = 0.05107952
#
# Stress axis : x y z
#
# Youngs Moduli (GPa) = 152.37975 29.89964 36.05442
#
# Poissons Ratio (x) = -0.09843 0.16165
# Poissons Ratio (y) = -0.50166 0.25745
# Poissons Ratio (z) = 0.68320 0.21350
#
# Static dielectric constant tensor:
#      x y z
#    x 1.839690 0.000000 0.000000 
#    y 0.000000 1.895920 0.000000 
#    z 0.000000 0.000000 1.786460 
# 
# From -- ./inp_files/3712.got.cif
#   From: 2010.05.17/outbox.cif.g08.bks.cpg/sg49_2_cif.got.tgz:3712.got - 2010.06.03 21:02:19.
