data_PCOD9392865
_publ_section_title
;
Structure prediction by ZEFSAII (Michael W. Deem and Ramdas Pophale) SiO2 
 PCOD9392865
Probable space group: P C C M
;
_chemical_formula_sum "Si O2"
_cell_formula_units_Z 56
_cell_length_a 14.259704
_cell_length_b 22.070798
_cell_length_c 9.002901
_cell_angle_alpha 90.000000
_cell_angle_beta 90.000000
_cell_angle_gamma 90.000000
_cell_volume 2833.420430
_symmetry_space_group_name_H-M "P C C M"
_symmetry_group_IT_number 49
_symmetry_cell_setting 'orthorhombic'
loop_
_space_group_symop_operation_xyz
x,y,z
-x,-y,z
x,-y,1/2-z
-x,y,1/2-z
-x,-y,-z
x,y,-z
-x,y,1/2+z
x,-y,1/2+z
loop_
_atom_site_type_symbol
_atom_site_label
_atom_site_fract_x
_atom_site_fract_y
_atom_site_fract_z
Si Si1 0.147904 0.811701 0.331552
Si Si2 0.193685 0.310952 0.677927
Si Si3 0.406671 0.300961 0.674166
Si Si4 0.374501 0.180902 0.833525
Si Si5 0.632121 0.061355 0.829934
Si Si6 0.861025 0.063301 0.830015
Si Si7 0.102219 0.440634 0.322776
O O1 0.111148 0.808983 0.500000
O O2 0.139968 0.746469 0.250244
O O3 0.261141 0.818148 0.338971
O O4 0.113355 0.873106 0.250376
O O5 0.196042 0.299838 0.500000
O O6 0.302295 0.317915 0.729439
O O7 0.147973 0.375730 0.707100
O O8 0.500000 0.327279 0.750000
O O9 0.411649 0.312236 0.500000
O O10 0.405431 0.229829 0.713374
O O11 0.399539 0.115543 0.774478
O O12 0.408441 0.194956 0.000000
O O13 0.746701 0.062862 0.833910
O O14 0.605314 0.000000 0.750000
O O15 0.600120 0.066265 0.000000
O O16 0.888334 0.000000 0.750000
O O17 0.894741 0.063423 0.000000
O O18 0.149771 0.500000 0.250000
O O19 0.096634 0.448977 0.500000
O O20 0.000000 0.437702 0.250000
#
# Coordination Sequence:
#
# PCOD9392865 Si02
#       7
#     8   8   8   8   8   8   8
#     4   9  16  25  40  63  91 124 167 215 263 313
#     4   9  19  34  52  75 107 143 177 216 264 313
#     4  10  19  32  49  70  96 129 170 215 259 303
#     4   9  16  26  39  57  81 112 153 203 256 309
#     4   9  15  22  33  50  72 103 145 197 255 313
#     4   9  15  22  33  51  81 120 163 211 264 317
#     4  10  20  36  59  88 119 150 180 211 251 305
#
# _framework density 19.764099000000002
#
# number of rings (size 3 to 8) (size 9 to 14) (size 15 to 20)
#    0.000    2.714    0.000    3.000    0.000    8.571 
#    0.000    0.000    0.000    0.857    0.000    6.000 
#    0.000    0.571    0.000    6.000    0.000    9.000 
#
# Total GULP energy -312302.129459 kJ/mol
# GULP energy per Si atom -5576.823740 kJ/mol
# Density = 1.971911 g / cm^3
# Si number density = 19.764099 Si / 1000 Ang^3
#
#
#
# Elastic Constant Matrix: (Units=GPa)
#
#
# Indices 1 2 3 4 5 6 
#
# 1 44.6198 28.4515 11.7119 0.0000 0.0000 0.0000
# 2 28.4515 156.7099 62.4386 0.0000 0.0000 0.0000
# 3 11.7119 62.4386 89.3395 0.0000 0.0000 0.0000
# 4 0.0000 0.0000 0.0000 26.5050 0.0000 0.0000
# 5 0.0000 0.0000 0.0000 0.0000 -4.7509 0.0000
# 6 0.0000 0.0000 0.0000 0.0000 0.0000 -13.8205
#
#
#
# Elastic Compliance Matrix: (Units=1/GPa)
#
#
# Indices 1 2 3 4 5 6 
#
# 1 0.025347 -0.004543 -0.000148 0.000000 0.000000 0.000000
# 2 -0.004543 0.009658 -0.006154 0.000000 0.000000 0.000000
# 3 -0.000148 -0.006154 0.015514 0.000000 0.000000 0.000000
# 4 0.000000 0.000000 0.000000 0.037729 0.000000 0.000000
# 5 0.000000 0.000000 0.000000 0.000000 -0.210487 0.000000
# 6 0.000000 0.000000 0.000000 0.000000 0.000000 -0.072356
#
#
# Mechanical properties :
#
#
# Convention : Reuss Voigt Hill
#
# Bulk Modulus (GPa) = 34.68755 55.09701 44.89228
# Shear Modulus (GPa) = -30.61939 14.12455 -8.24742
#
# Velocity S-wave (km/s) = -3.94031 2.67621 -2.04499
# Velocity P-wave (km/s) = 1.76424 6.12269 4.14577
#
# Compressibility (1/GPa) = 0.02882879
#
# Stress axis : x y z
#
# Youngs Moduli (GPa) = 39.45207 103.53932 64.45828
#
# Poissons Ratio (x) = 0.47038 0.00953
# Poissons Ratio (y) = 0.17923 0.39670
# Poissons Ratio (z) = 0.00583 0.63723
#
# Static dielectric constant tensor:
#      x y z
#    x 1.783640 0.000000 0.000000 
#    y 0.000000 1.861880 0.000000 
#    z 0.000000 0.000000 1.686360 
# 
# From -- ./inp_files/5151.got.cif
#   From: 2010.05.17/outbox.cif.g08.bks.cpg/sg49_3_cif.got.tgz:5151.got - 2010.06.03 21:02:19.
