data_PCOD9392541
_publ_section_title
;
Structure prediction by ZEFSAII (Michael W. Deem and Ramdas Pophale) SiO2 
 PCOD9392541
Probable space group: P C C M
;
_chemical_formula_sum "Si O2"
_cell_formula_units_Z 58
_cell_length_a 21.784775
_cell_length_b 13.855191
_cell_length_c 9.206781
_cell_angle_alpha 90.000000
_cell_angle_beta 90.000000
_cell_angle_gamma 90.000000
_cell_volume 2778.903135
_symmetry_space_group_name_H-M "P C C M"
_symmetry_group_IT_number 49
_symmetry_cell_setting 'orthorhombic'
loop_
_space_group_symop_operation_xyz
x,y,z
-x,-y,z
x,-y,1/2-z
-x,y,1/2-z
-x,-y,-z
x,y,-z
-x,y,1/2+z
x,-y,1/2+z
loop_
_atom_site_type_symbol
_atom_site_label
_atom_site_fract_x
_atom_site_fract_y
_atom_site_fract_z
Si Si1 0.725749 0.369626 0.165429
Si Si2 0.710922 0.140840 0.161446
Si Si3 0.064067 0.231650 0.166216
Si Si4 0.500000 0.000000 0.750000
Si Si5 0.844706 0.093405 0.825832
Si Si6 0.402452 0.601061 0.324861
Si Si7 0.410098 0.172472 0.165336
Si Si8 0.851223 0.414443 0.336445
O O1 0.720583 0.590568 0.500000
O O2 0.722555 0.254766 0.150421
O O3 0.667602 0.395854 0.265613
O O4 0.789652 0.391525 0.244681
O O5 0.774264 0.103403 0.227393
O O6 0.647756 0.133529 0.245556
O O7 0.703327 0.098941 0.000000
O O8 0.112611 0.175861 0.265573
O O9 0.098197 0.332873 0.154642
O O10 0.000000 0.234356 0.250000
O O11 0.057468 0.193280 0.000000
O O12 0.542077 0.917889 0.829737
O O13 0.871352 0.000000 0.750000
O O14 0.843846 0.090564 0.000000
O O15 0.427534 0.500000 0.250000
O O16 0.407062 0.590493 0.500000
O O17 0.426098 0.713683 0.287738
O O18 0.390997 0.186500 0.000000
O O19 0.881967 0.500000 0.250000
O O20 0.832246 0.439407 0.500000
#
# Coordination Sequence:
#
# PCOD9392541 Si02
#       8
#     8   8   8   2   8   8   8   8
#     4  10  18  33  58  89 126 167 208 256 318 383
#     4   9  20  38  63  95 129 166 209 260 318 375
#     4  11  25  44  65  88 119 164 213 269 327 389
#     4  12  26  48  70  98 134 180 226 272 322 376
#     4  11  23  41  65  96 129 164 208 264 323 387
#     4  10  20  37  61  94 131 169 213 267 327 387
#     4  10  24  43  67  96 131 176 223 269 319 383
#     4  11  23  37  57  86 120 162 210 259 317 382
#
# _framework density 20.871544
#
# number of rings (size 3 to 8) (size 9 to 14) (size 15 to 20)
#    0.000    1.655    1.379    2.690    0.966    5.517 
#    0.000    3.103    0.000    1.655    0.000    0.000 
#    0.000    0.000    0.000    0.000    0.000    0.000 
#
# Total GULP energy -322881.970280 kJ/mol
# GULP energy per Si atom -5566.930522 kJ/mol
# Density = 2.082404 g / cm^3
# Si number density = 20.871544 Si / 1000 Ang^3
#
#
#
# Elastic Constant Matrix: (Units=GPa)
#
#
# Indices 1 2 3 4 5 6 
#
# 1 93.1410 26.4933 44.7875 0.0000 0.0000 0.0000
# 2 26.4933 109.5886 29.6584 0.0000 0.0000 0.0000
# 3 44.7875 29.6584 110.7548 0.0000 0.0000 0.0000
# 4 0.0000 0.0000 0.0000 2.2000 0.0000 0.0000
# 5 0.0000 0.0000 0.0000 0.0000 -5.4605 0.0000
# 6 0.0000 0.0000 0.0000 0.0000 0.0000 -7.1432
#
#
#
# Elastic Compliance Matrix: (Units=1/GPa)
#
#
# Indices 1 2 3 4 5 6 
#
# 1 0.013706 -0.001955 -0.005019 0.000000 0.000000 0.000000
# 2 -0.001955 0.010117 -0.001919 0.000000 0.000000 0.000000
# 3 -0.005019 -0.001919 0.011572 0.000000 0.000000 0.000000
# 4 0.000000 0.000000 0.000000 0.454538 0.000000 0.000000
# 5 0.000000 0.000000 0.000000 0.000000 -0.183135 0.000000
# 6 0.000000 0.000000 0.000000 0.000000 0.000000 -0.139993
#
#
# Mechanical properties :
#
#
# Convention : Reuss Voigt Hill
#
# Bulk Modulus (GPa) = 56.78603 57.26252 57.02428
# Shear Modulus (GPa) = 26.25203 12.08894 19.17048
#
# Velocity S-wave (km/s) = 3.55038 2.40928 3.03396
# Velocity P-wave (km/s) = 6.63878 5.93589 6.29715
#
# Compressibility (1/GPa) = 0.01760996
#
# Stress axis : x y z
#
# Youngs Moduli (GPa) = 72.96123 98.84433 86.41344
#
# Poissons Ratio (x) = 0.19325 0.43370
# Poissons Ratio (y) = 0.14265 0.16579
# Poissons Ratio (z) = 0.36618 0.18964
#
# Static dielectric constant tensor:
#      x y z
#    x 1.725750 0.000000 0.000000 
#    y 0.000000 2.088340 0.000000 
#    z 0.000000 0.000000 1.747140 
# 
# From -- ./inp_files/6475.got.cif
#   From: 2010.05.17/outbox.cif.g08.bks.cpg/sg49_4_cif.got.tgz:6475.got - 2010.06.03 21:02:19.
