data_PCOD9392976
_publ_section_title
;
Structure prediction by ZEFSAII (Michael W. Deem and Ramdas Pophale) SiO2 
 PCOD9392976
Probable space group: P C C M
;
_chemical_formula_sum "Si O2"
_cell_formula_units_Z 40
_cell_length_a 11.123153
_cell_length_b 9.985099
_cell_length_c 18.532527
_cell_angle_alpha 90.000000
_cell_angle_beta 90.000000
_cell_angle_gamma 90.000000
_cell_volume 2058.329639
_symmetry_space_group_name_H-M "P C C M"
_symmetry_group_IT_number 49
_symmetry_cell_setting 'orthorhombic'
loop_
_space_group_symop_operation_xyz
x,y,z
-x,-y,z
x,-y,1/2-z
-x,y,1/2-z
-x,-y,-z
x,y,-z
-x,y,1/2+z
x,-y,1/2+z
loop_
_atom_site_type_symbol
_atom_site_label
_atom_site_fract_x
_atom_site_fract_y
_atom_site_fract_z
Si Si1 0.865102 0.351222 0.778485
Si Si2 0.140608 0.981042 0.421861
Si Si3 0.297353 0.866708 0.703236
Si Si4 0.511147 0.836473 0.916359
Si Si5 0.751752 0.277665 0.920131
O O1 0.843141 0.500000 0.750000
O O2 0.766385 0.244845 0.751382
O O3 0.837334 0.352262 0.863742
O O4 0.000000 0.313943 0.750000
O O5 0.165694 0.915896 0.500000
O O6 0.196799 0.908327 0.354649
O O7 0.197177 0.127463 0.423565
O O8 0.000000 0.000000 0.413792
O O9 0.403033 0.811965 0.652022
O O10 0.330401 0.000000 0.750000
O O11 0.388403 0.753611 0.903360
O O12 0.500000 0.000000 0.915825
O O13 0.549034 0.805579 0.000000
O O14 0.757641 0.338724 0.000000
#
# Coordination Sequence:
#
# PCOD9392976 Si02
#       5
#     8   8   8   8   8
#     4  11  25  44  61  87 123 160 200 253 310 359
#     4  10  19  32  54  86 118 151 194 245 297 353
#     4  12  22  34  60  90 121 152 204 250 304 357
#     4  10  19  35  58  89 127 161 195 246 304 359
#     4  10  20  39  62  85 120 162 200 238 300 364
#
# _framework density 19.433233000000001
#
# number of rings (size 3 to 8) (size 9 to 14) (size 15 to 20)
#    0.000    1.400    4.000    1.800    0.000    2.800 
#    0.000    7.000    0.000    2.400    0.000    0.000 
#    0.000    0.000    0.000    0.000    0.000    0.000 
#
# Total GULP energy -222931.701852 kJ/mol
# GULP energy per Si atom -5573.292546 kJ/mol
# Density = 1.938900 g / cm^3
# Si number density = 19.433233 Si / 1000 Ang^3
#
#
#
# Elastic Constant Matrix: (Units=GPa)
#
#
# Indices 1 2 3 4 5 6 
#
# 1 113.9411 17.9890 64.3335 0.0000 0.0000 0.0000
# 2 17.9890 34.6731 20.3353 0.0000 0.0000 0.0000
# 3 64.3335 20.3353 137.5105 0.0000 0.0000 0.0000
# 4 0.0000 0.0000 0.0000 13.7512 0.0000 0.0000
# 5 0.0000 0.0000 0.0000 0.0000 31.5867 0.0000
# 6 0.0000 0.0000 0.0000 0.0000 0.0000 5.1706
#
#
#
# Elastic Compliance Matrix: (Units=1/GPa)
#
#
# Indices 1 2 3 4 5 6 
#
# 1 0.012259 -0.003281 -0.005250 0.000000 0.000000 0.000000
# 2 -0.003281 0.032458 -0.003265 0.000000 0.000000 0.000000
# 3 -0.005250 -0.003265 0.010211 0.000000 0.000000 0.000000
# 4 0.000000 0.000000 0.000000 0.072721 0.000000 0.000000
# 5 0.000000 0.000000 0.000000 0.000000 0.031659 0.000000
# 6 0.000000 0.000000 0.000000 0.000000 0.000000 0.193401
#
#
# Mechanical properties :
#
#
# Convention : Reuss Voigt Hill
#
# Bulk Modulus (GPa) = 31.91223 54.60450 43.25837
# Shear Modulus (GPa) = 12.92840 22.33283 17.63061
#
# Velocity S-wave (km/s) = 2.58209 3.39367 3.01531
# Velocity P-wave (km/s) = 5.03455 6.59663 5.86780
#
# Compressibility (1/GPa) = 0.03133595
#
# Stress axis : x y z
#
# Youngs Moduli (GPa) = 81.57469 30.80915 97.93197
#
# Poissons Ratio (x) = 0.10108 0.51414
# Poissons Ratio (y) = 0.26765 0.31974
# Poissons Ratio (z) = 0.42826 0.10059
#
# Static dielectric constant tensor:
#      x y z
#    x 1.692320 0.000000 0.000000 
#    y 0.000000 1.638420 0.000000 
#    z 0.000000 0.000000 1.767860 
# 
# From -- ./inp_files/16826.got.cif
#   From: 2010.05.17/outbox.cif.g08.bks.cpg/sg49_9_cif.got.tgz:16826.got - 2010.06.03 21:02:19.
