data_PCOD9392904
_publ_section_title
;
Structure prediction by ZEFSAII (Michael W. Deem and Ramdas Pophale) SiO2 
 PCOD9392904
Probable space group: P C C M
;
_chemical_formula_sum "Si O2"
_cell_formula_units_Z 64
_cell_length_a 20.401864
_cell_length_b 20.083789
_cell_length_c 8.664374
_cell_angle_alpha 90.000000
_cell_angle_beta 90.000000
_cell_angle_gamma 90.000000
_cell_volume 3550.198929
_symmetry_space_group_name_H-M "P C C M"
_symmetry_group_IT_number 49
_symmetry_cell_setting 'orthorhombic'
loop_
_space_group_symop_operation_xyz
x,y,z
-x,-y,z
x,-y,1/2-z
-x,y,1/2-z
-x,-y,-z
x,y,-z
-x,y,1/2+z
x,-y,1/2+z
loop_
_atom_site_type_symbol
_atom_site_label
_atom_site_fract_x
_atom_site_fract_y
_atom_site_fract_z
Si Si1 0.716505 0.572520 0.685333
Si Si2 0.702416 0.200644 0.683276
Si Si3 0.904972 0.070929 0.175084
Si Si4 0.747062 0.932073 0.324714
Si Si5 0.433907 0.239908 0.823988
Si Si6 0.570600 0.400479 0.677778
Si Si7 0.193132 0.308230 0.187283
Si Si8 0.071284 0.775656 0.187054
O O1 0.734347 0.500000 0.750000
O O2 0.717720 0.574848 0.500000
O O3 0.640157 0.583684 0.739994
O O4 0.770127 0.625151 0.751725
O O5 0.698765 0.212703 0.500000
O O6 0.724574 0.127442 0.718733
O O7 0.631988 0.215217 0.754287
O O8 0.756104 0.251539 0.741551
O O9 0.826036 0.067587 0.172237
O O10 0.918961 0.145881 0.239282
O O11 0.925801 0.000000 0.250000
O O12 0.930686 0.070669 0.000000
O O13 0.724355 0.923479 0.500000
O O14 0.723805 0.000000 0.250000
O O15 0.500000 0.215955 0.750000
O O16 0.432300 0.320083 0.822723
O O17 0.434383 0.217612 0.000000
O O18 0.500000 0.422144 0.750000
O O19 0.574220 0.424112 0.500000
O O20 0.124535 0.277756 0.249730
O O21 0.189446 0.312005 0.000000
O O22 0.000000 0.756442 0.250000
O O23 0.074579 0.775677 0.000000
#
# Coordination Sequence:
#
# PCOD9392904 Si02
#       8
#     8   8   8   8   8   8   8   8
#     4  12  25  41  62  88 119 157 196 241 290 345
#     4  10  19  33  55  81 110 146 186 234 286 336
#     4   9  19  33  51  77 114 153 193 234 277 335
#     4  10  19  32  50  77 109 145 187 234 284 339
#     4   9  18  32  50  77 111 146 185 230 281 337
#     4  10  19  35  55  83 120 159 199 238 284 341
#     4  11  22  40  63  88 117 150 189 239 289 340
#     4  11  23  40  59  87 119 155 198 240 289 344
#
# _framework density 18.027159000000001
#
# number of rings (size 3 to 8) (size 9 to 14) (size 15 to 20)
#    0.000    1.750    2.500    2.625    0.000    3.500 
#    0.000    2.500    0.000    0.750    0.000    5.250 
#    0.000    0.000    0.000    0.000    0.000    0.000 
#
# Total GULP energy -356532.005136 kJ/mol
# GULP energy per Si atom -5570.812580 kJ/mol
# Density = 1.798613 g / cm^3
# Si number density = 18.027159 Si / 1000 Ang^3
#
#
#
# Elastic Constant Matrix: (Units=GPa)
#
#
# Indices 1 2 3 4 5 6 
#
# 1 133.5168 62.9442 49.0112 0.0000 0.0000 0.0000
# 2 62.9442 98.0361 22.5406 0.0000 0.0000 0.0000
# 3 49.0112 22.5406 66.7259 0.0000 0.0000 0.0000
# 4 0.0000 0.0000 0.0000 23.5935 0.0000 0.0000
# 5 0.0000 0.0000 0.0000 0.0000 23.6168 0.0000
# 6 0.0000 0.0000 0.0000 0.0000 0.0000 19.7723
#
#
#
# Elastic Compliance Matrix: (Units=1/GPa)
#
#
# Indices 1 2 3 4 5 6 
#
# 1 0.013565 -0.006959 -0.007613 0.000000 0.000000 0.000000
# 2 -0.006959 0.014629 0.000170 0.000000 0.000000 0.000000
# 3 -0.007613 0.000170 0.020521 0.000000 0.000000 0.000000
# 4 0.000000 0.000000 0.000000 0.042385 0.000000 0.000000
# 5 0.000000 0.000000 0.000000 0.000000 0.042343 0.000000
# 6 0.000000 0.000000 0.000000 0.000000 0.000000 0.050576
#
#
# Mechanical properties :
#
#
# Convention : Reuss Voigt Hill
#
# Bulk Modulus (GPa) = 50.22374 63.03010 56.62692
# Shear Modulus (GPa) = 22.78318 24.31536 23.54927
#
# Velocity S-wave (km/s) = 3.55889 3.67661 3.61823
# Velocity P-wave (km/s) = 6.69389 7.28445 6.99540
#
# Compressibility (1/GPa) = 0.01991090
#
# Stress axis : x y z
#
# Youngs Moduli (GPa) = 73.71952 68.35554 48.73019
#
# Poissons Ratio (x) = 0.47569 0.37098
# Poissons Ratio (y) = 0.51302 -0.00826
# Poissons Ratio (z) = 0.56121 -0.01159
#
# Static dielectric constant tensor:
#      x y z
#    x 1.646590 0.000000 0.000000 
#    y 0.000000 1.607360 0.000000 
#    z 0.000000 0.000000 1.641140 
# 
# From -- ./inp_files/5973.got.cif
#   From: 2010.05.17/outbox.cif.g08.bks.cpg/sg49_3_cif.got.tgz:5973.got - 2010.06.03 21:02:19.
