data_PCOD9392094
_publ_section_title
;
Structure prediction by ZEFSAII (Michael W. Deem and Ramdas Pophale) SiO2 
 PCOD9392094
Probable space group: P C C M
;
_chemical_formula_sum "Si O2"
_cell_formula_units_Z 64
_cell_length_a 15.480057
_cell_length_b 13.557437
_cell_length_c 18.328134
_cell_angle_alpha 90.000000
_cell_angle_beta 90.000000
_cell_angle_gamma 90.000000
_cell_volume 3846.523605
_symmetry_space_group_name_H-M "P C C M"
_symmetry_group_IT_number 49
_symmetry_cell_setting 'orthorhombic'
loop_
_space_group_symop_operation_xyz
x,y,z
-x,-y,z
x,-y,1/2-z
-x,y,1/2-z
-x,-y,-z
x,y,-z
-x,y,1/2+z
x,-y,1/2+z
loop_
_atom_site_type_symbol
_atom_site_label
_atom_site_fract_x
_atom_site_fract_y
_atom_site_fract_z
Si Si1 0.738850 0.200000 0.317115
Si Si2 0.407950 0.442871 0.416089
Si Si3 0.661104 0.350210 0.412309
Si Si4 0.618243 0.097651 0.201302
Si Si5 0.724813 0.017610 0.417895
Si Si6 0.487206 0.276634 0.333988
Si Si7 0.099717 0.882461 0.765279
Si Si8 0.914072 0.934853 0.580742
O O1 0.730808 0.303075 0.358098
O O2 0.670933 0.173845 0.252911
O O3 0.714413 0.122808 0.380644
O O4 0.831902 0.175525 0.283114
O O5 0.500000 0.500000 0.409355
O O6 0.398900 0.412001 0.500000
O O7 0.343022 0.531982 0.400609
O O8 0.412558 0.346589 0.366713
O O9 0.669824 0.333257 0.500000
O O10 0.571502 0.300321 0.382781
O O11 0.539291 0.161523 0.169350
O O12 0.598929 0.000000 0.250000
O O13 0.679235 0.059774 0.136018
O O14 0.690467 0.011911 0.500000
O O15 0.827791 0.000347 0.421345
O O16 0.500000 0.307488 0.250000
O O17 0.106061 0.864474 0.851755
O O18 0.000000 0.863252 0.750000
O O19 0.116736 0.000000 0.750000
O O20 0.926000 0.891077 0.500000
O O21 0.000000 0.000000 0.596690
#
# Coordination Sequence:
#
# PCOD9392094 Si02
#       8
#     8   8   8   8   8   8   8   8
#     4  11  18  33  47  69 101 138 172 212 266 324
#     4   8  17  34  54  74  99 125 159 219 276 309
#     4  10  21  36  53  75 103 133 171 226 278 323
#     4  10  21  35  48  67 104 138 172 215 256 304
#     4  10  19  30  45  64  92 136 176 212 252 302
#     4  11  20  34  53  78  96 136 177 213 266 323
#     4  11  17  29  48  70  97 140 183 223 266 315
#     4  10  17  26  42  66  94 128 175 219 258 306
#
# _framework density 16.638400000000001
#
# number of rings (size 3 to 8) (size 9 to 14) (size 15 to 20)
#    0.000    1.875    5.000    1.875    0.000    3.500 
#    0.000    0.625    0.000    2.250    0.000    0.000 
#    0.000    2.000    0.000    2.750    3.500    0.000 
#
# Total GULP energy -356406.097320 kJ/mol
# GULP energy per Si atom -5568.845271 kJ/mol
# Density = 1.660053 g / cm^3
# Si number density = 16.638400 Si / 1000 Ang^3
#
#
#
# Elastic Constant Matrix: (Units=GPa)
#
#
# Indices 1 2 3 4 5 6 
#
# 1 53.7603 21.2687 24.3772 0.0000 0.0000 0.0000
# 2 21.2687 66.7171 43.6007 0.0000 0.0000 0.0000
# 3 24.3772 43.6007 123.1914 0.0000 0.0000 0.0000
# 4 0.0000 0.0000 0.0000 16.9612 0.0000 0.0000
# 5 0.0000 0.0000 0.0000 0.0000 24.4894 0.0000
# 6 0.0000 0.0000 0.0000 0.0000 0.0000 16.0864
#
#
#
# Elastic Compliance Matrix: (Units=1/GPa)
#
#
# Indices 1 2 3 4 5 6 
#
# 1 0.021824 -0.005379 -0.002415 0.000000 0.000000 0.000000
# 2 -0.005379 0.020824 -0.006306 0.000000 0.000000 0.000000
# 3 -0.002415 -0.006306 0.010827 0.000000 0.000000 0.000000
# 4 0.000000 0.000000 0.000000 0.058958 0.000000 0.000000
# 5 0.000000 0.000000 0.000000 0.000000 0.040834 0.000000
# 6 0.000000 0.000000 0.000000 0.000000 0.000000 0.062164
#
#
# Mechanical properties :
#
#
# Convention : Reuss Voigt Hill
#
# Bulk Modulus (GPa) = 39.56315 46.90688 43.23502
# Shear Modulus (GPa) = 19.83675 21.80221 20.81948
#
# Velocity S-wave (km/s) = 3.45661 3.62381 3.54120
# Velocity P-wave (km/s) = 6.30561 6.76480 6.53923
#
# Compressibility (1/GPa) = 0.02527605
#
# Stress axis : x y z
#
# Youngs Moduli (GPa) = 45.82078 48.02038 92.36086
#
# Poissons Ratio (x) = 0.25831 0.22303
# Poissons Ratio (y) = 0.24648 0.58242
# Poissons Ratio (z) = 0.11064 0.30281
#
# Static dielectric constant tensor:
#      x y z
#    x 1.605880 0.000000 0.000000 
#    y 0.000000 1.571750 0.000000 
#    z 0.000000 0.000000 1.603500 
# 
# From -- ./inp_files/18230.got.cif
#   From: 2010.05.17/outbox.cif.g08.bks.cpg/sg49_10_cif.got.tgz:18230.got - 2010.06.03 21:02:19.
