data_PCOD9392813
_publ_section_title
;
Structure prediction by ZEFSAII (Michael W. Deem and Ramdas Pophale) SiO2 
 PCOD9392813
Probable space group: P C C M
;
_chemical_formula_sum "Si O2"
_cell_formula_units_Z 40
_cell_length_a 21.779768
_cell_length_b 5.271207
_cell_length_c 14.610783
_cell_angle_alpha 90.000000
_cell_angle_beta 90.000000
_cell_angle_gamma 90.000000
_cell_volume 1677.400666
_symmetry_space_group_name_H-M "P C C M"
_symmetry_group_IT_number 49
_symmetry_cell_setting 'orthorhombic'
loop_
_space_group_symop_operation_xyz
x,y,z
-x,-y,z
x,-y,1/2-z
-x,y,1/2-z
-x,-y,-z
x,y,-z
-x,y,1/2+z
x,-y,1/2+z
loop_
_atom_site_type_symbol
_atom_site_label
_atom_site_fract_x
_atom_site_fract_y
_atom_site_fract_z
Si Si1 0.171121 0.949867 0.852997
Si Si2 0.363943 0.618499 0.610764
Si Si3 0.039075 0.255534 0.391894
Si Si4 0.565698 0.885314 0.388424
Si Si5 0.778058 0.458113 0.644255
O O1 0.103909 0.823597 0.848757
O O2 0.211193 0.732894 0.899166
O O3 0.193785 0.000000 0.750000
O O4 0.180429 0.229162 0.894734
O O5 0.365175 0.610155 0.500000
O O6 0.387563 0.893938 0.638554
O O7 0.293707 0.596155 0.639996
O O8 0.408483 0.388121 0.642405
O O9 0.051049 0.300537 0.500000
O O10 0.000000 0.500000 0.358761
O O11 0.000000 0.000000 0.382530
O O12 0.562720 0.869230 0.500000
O O13 0.500000 0.000000 0.359402
O O14 0.796649 0.500000 0.750000
#
# Coordination Sequence:
#
# PCOD9392813 Si02
#       5
#     8   8   8   8   8
#     4  10  21  37  55  77 104 139 179 213 254 311
#     4  10  19  31  51  77 100 130 174 214 255 311
#     4  10  21  37  57  82 111 140 171 214 268 317
#     4   9  17  30  49  74 103 132 166 213 262 307
#     4  10  21  36  53  74 105 139 171 214 263 306
#
# _framework density 23.846419999999998
#
# number of rings (size 3 to 8) (size 9 to 14) (size 15 to 20)
#    0.000    2.200    0.000    3.000    0.000    4.400 
#    0.000    1.000    0.000    3.600    0.000    0.000 
#    0.000    0.000    0.000    0.000    0.000    0.000 
#
# Total GULP energy -223309.379255 kJ/mol
# GULP energy per Si atom -5582.734481 kJ/mol
# Density = 2.379214 g / cm^3
# Si number density = 23.846420 Si / 1000 Ang^3
#
#
#
# Elastic Constant Matrix: (Units=GPa)
#
#
# Indices 1 2 3 4 5 6 
#
# 1 82.6965 18.6153 -3.3545 0.0000 0.0000 0.0000
# 2 18.6153 163.1065 28.7286 0.0000 0.0000 0.0000
# 3 -3.3545 28.7286 70.2367 0.0000 0.0000 0.0000
# 4 0.0000 0.0000 0.0000 -10.2194 0.0000 0.0000
# 5 0.0000 0.0000 0.0000 0.0000 22.8288 0.0000
# 6 0.0000 0.0000 0.0000 0.0000 0.0000 42.5136
#
#
#
# Elastic Compliance Matrix: (Units=1/GPa)
#
#
# Indices 1 2 3 4 5 6 
#
# 1 0.012516 -0.001653 0.001274 0.000000 0.000000 0.000000
# 2 -0.001653 0.006825 -0.002871 0.000000 0.000000 0.000000
# 3 0.001274 -0.002871 0.015473 0.000000 0.000000 0.000000
# 4 0.000000 0.000000 0.000000 -0.097853 0.000000 0.000000
# 5 0.000000 0.000000 0.000000 0.000000 0.043804 0.000000
# 6 0.000000 0.000000 0.000000 0.000000 0.000000 0.023522
#
#
# Mechanical properties :
#
#
# Convention : Reuss Voigt Hill
#
# Bulk Modulus (GPa) = 35.31739 44.89094 40.10416
# Shear Modulus (GPa) = 247.22552 29.16128 138.19340
#
# Velocity S-wave (km/s) = 10.19309 3.50076 7.62084
# Velocity P-wave (km/s) = 12.38445 5.93349 9.71033
#
# Compressibility (1/GPa) = 0.02831466
#
# Stress axis : x y z
#
# Youngs Moduli (GPa) = 79.89685 146.51547 64.63051
#
# Poissons Ratio (x) = 0.24217 -0.08233
# Poissons Ratio (y) = 0.13206 0.18553
# Poissons Ratio (z) = -0.10177 0.42059
#
# Static dielectric constant tensor:
#      x y z
#    x 1.847920 0.000000 0.000000 
#    y 0.000000 1.976670 0.000000 
#    z 0.000000 0.000000 1.934790 
# 
# From -- ./inp_files/15275.got.cif
#   From: 2010.05.17/outbox.cif.g08.bks.cpg/sg49_8_cif.got.tgz:15275.got - 2010.06.03 21:02:19.
