data_PCOD9392353
_publ_section_title
;
Structure prediction by ZEFSAII (Michael W. Deem and Ramdas Pophale) SiO2 
 PCOD9392353
Probable space group: P C C M
;
_chemical_formula_sum "Si O2"
_cell_formula_units_Z 56
_cell_length_a 18.882995
_cell_length_b 19.462167
_cell_length_c 9.134239
_cell_angle_alpha 90.000000
_cell_angle_beta 90.000000
_cell_angle_gamma 90.000000
_cell_volume 3356.869389
_symmetry_space_group_name_H-M "P C C M"
_symmetry_group_IT_number 49
_symmetry_cell_setting 'orthorhombic'
loop_
_space_group_symop_operation_xyz
x,y,z
-x,-y,z
x,-y,1/2-z
-x,y,1/2-z
-x,-y,-z
x,y,-z
-x,y,1/2+z
x,-y,1/2+z
loop_
_atom_site_type_symbol
_atom_site_label
_atom_site_fract_x
_atom_site_fract_y
_atom_site_fract_z
Si Si1 0.845489 0.791704 0.825966
Si Si2 0.425050 0.214669 0.324284
Si Si3 0.188431 0.071015 0.674647
Si Si4 0.356123 0.929916 0.825337
Si Si5 0.299262 0.292488 0.174148
Si Si6 0.785421 0.572627 0.824047
Si Si7 0.926083 0.654694 0.176139
O O1 0.850158 0.862170 0.738079
O O2 0.768150 0.757534 0.801195
O O3 0.900983 0.732091 0.784819
O O4 0.851700 0.804685 0.000000
O O5 0.500000 0.228704 0.250000
O O6 0.429854 0.217614 0.500000
O O7 0.398740 0.137905 0.281590
O O8 0.365353 0.266342 0.265797
O O9 0.181222 0.066741 0.500000
O O10 0.272586 0.079412 0.709693
O O11 0.165399 0.000000 0.750000
O O12 0.380796 0.000000 0.750000
O O13 0.361524 0.937560 0.000000
O O14 0.272005 0.368697 0.212532
O O15 0.314791 0.290444 0.000000
O O16 0.772510 0.500000 0.750000
O O17 0.862134 0.603792 0.781338
O O18 0.785510 0.565737 0.000000
O O19 0.000000 0.637440 0.250000
O O20 0.931995 0.652250 0.000000
#
# Coordination Sequence:
#
# PCOD9392353 Si02
#       7
#     8   8   8   8   8   8   8
#     4   9  17  31  51  72  97 131 169 211 255 297
#     4  11  22  35  50  73 101 133 173 213 256 305
#     4  10  18  29  46  71  98 127 167 213 259 304
#     4   9  19  32  46  67  97 130 167 209 252 302
#     4   9  18  34  54  74  99 131 167 209 252 297
#     4   9  19  35  55  81 109 137 169 202 244 295
#     4   9  19  34  51  76 109 141 172 203 242 295
#
# _framework density 16.682210000000001
#
# number of rings (size 3 to 8) (size 9 to 14) (size 15 to 20)
#    0.000    2.571    1.429    2.571    0.000    4.000 
#    0.000    5.714    0.000    0.857    0.000    6.000 
#    0.000    0.000    0.000    0.000    0.000    0.000 
#
# Total GULP energy -312332.566386 kJ/mol
# GULP energy per Si atom -5577.367257 kJ/mol
# Density = 1.664424 g / cm^3
# Si number density = 16.682210 Si / 1000 Ang^3
#
#
#
# Elastic Constant Matrix: (Units=GPa)
#
#
# Indices 1 2 3 4 5 6 
#
# 1 60.9964 39.3031 24.3862 0.0000 0.0000 0.0000
# 2 39.3031 136.0619 48.3444 0.0000 0.0000 0.0000
# 3 24.3862 48.3444 29.9801 0.0000 0.0000 0.0000
# 4 0.0000 0.0000 0.0000 32.0342 0.0000 0.0000
# 5 0.0000 0.0000 0.0000 0.0000 10.5541 0.0000
# 6 0.0000 0.0000 0.0000 0.0000 0.0000 13.9265
#
#
#
# Elastic Compliance Matrix: (Units=1/GPa)
#
#
# Indices 1 2 3 4 5 6 
#
# 1 0.024295 0.000009 -0.019776 0.000000 0.000000 0.000000
# 2 0.000009 0.017210 -0.027760 0.000000 0.000000 0.000000
# 3 -0.019776 -0.027760 0.094205 0.000000 0.000000 0.000000
# 4 0.000000 0.000000 0.000000 0.031217 0.000000 0.000000
# 5 0.000000 0.000000 0.000000 0.000000 0.094750 0.000000
# 6 0.000000 0.000000 0.000000 0.000000 0.000000 0.071806
#
#
# Mechanical properties :
#
#
# Convention : Reuss Voigt Hill
#
# Bulk Modulus (GPa) = 24.59607 50.12288 37.35947
# Shear Modulus (GPa) = 11.30992 18.96994 15.13993
#
# Velocity S-wave (km/s) = 2.60660 3.37580 3.01582
# Velocity P-wave (km/s) = 4.88211 6.73095 5.87966
#
# Compressibility (1/GPa) = 0.04065690
#
# Stress axis : x y z
#
# Youngs Moduli (GPa) = 41.16034 58.10414 10.61509
#
# Poissons Ratio (x) = -0.00051 0.20992
# Poissons Ratio (y) = -0.00036 0.29467
# Poissons Ratio (z) = 0.81399 1.61296
#
# Static dielectric constant tensor:
#      x y z
#    x 1.546940 0.000000 0.000000 
#    y 0.000000 1.552690 0.000000 
#    z 0.000000 0.000000 1.550580 
# 
# From -- ./inp_files/5153.got.cif
#   From: 2010.05.17/outbox.cif.g08.bks.cpg/sg49_3_cif.got.tgz:5153.got - 2010.06.03 21:02:19.
