data_PCOD9392905
_publ_section_title
;
Structure prediction by ZEFSAII (Michael W. Deem and Ramdas Pophale) SiO2 
 PCOD9392905
Probable space group: P C C M
;
_chemical_formula_sum "Si O2"
_cell_formula_units_Z 64
_cell_length_a 25.369590
_cell_length_b 15.723306
_cell_length_c 8.560792
_cell_angle_alpha 90.000000
_cell_angle_beta 90.000000
_cell_angle_gamma 90.000000
_cell_volume 3414.847080
_symmetry_space_group_name_H-M "P C C M"
_symmetry_group_IT_number 49
_symmetry_cell_setting 'orthorhombic'
loop_
_space_group_symop_operation_xyz
x,y,z
-x,-y,z
x,-y,1/2-z
-x,y,1/2-z
-x,-y,-z
x,y,-z
-x,y,1/2+z
x,-y,1/2+z
loop_
_atom_site_type_symbol
_atom_site_label
_atom_site_fract_x
_atom_site_fract_y
_atom_site_fract_z
Si Si1 0.857120 0.774408 0.688330
Si Si2 0.169469 0.590326 0.686787
Si Si3 0.258427 0.822786 0.813479
Si Si4 0.713026 0.358072 0.687792
Si Si5 0.059373 0.092018 0.186746
Si Si6 0.556725 0.233107 0.187066
Si Si7 0.639844 0.090263 0.811309
Si Si8 0.596875 0.588868 0.186368
O O1 0.858303 0.774989 0.500000
O O2 0.856359 0.676273 0.744692
O O3 0.801565 0.816411 0.744586
O O4 0.904016 0.831657 0.753921
O O5 0.149168 0.500000 0.750000
O O6 0.164822 0.592254 0.500000
O O7 0.231885 0.596839 0.728633
O O8 0.284343 0.732451 0.771974
O O9 0.300270 0.891682 0.754615
O O10 0.255139 0.831495 0.000000
O O11 0.712778 0.345789 0.500000
O O12 0.658884 0.403553 0.731895
O O13 0.000000 0.103109 0.250000
O O14 0.078356 0.000000 0.250000
O O15 0.058576 0.089601 0.000000
O O16 0.500000 0.205793 0.250000
O O17 0.601812 0.167010 0.239179
O O18 0.569203 0.327438 0.247886
O O19 0.556221 0.234621 0.000000
O O20 0.621083 0.000000 0.750000
O O21 0.640154 0.089595 0.000000
O O22 0.575534 0.500000 0.250000
O O23 0.593336 0.589607 0.000000
#
# Coordination Sequence:
#
# PCOD9392905 Si02
#       8
#     8   8   8   8   8   8   8   8
#     4  10  20  35  57  86 120 158 198 241 290 343
#     4  10  19  32  50  79 117 158 200 241 287 336
#     4   9  18  34  55  81 115 151 187 227 279 335
#     4   9  18  31  51  79 111 147 187 228 275 331
#     4  11  22  39  62  88 119 155 199 248 296 347
#     4  11  24  43  63  82 108 140 182 232 284 338
#     4  10  22  39  60  85 112 145 182 227 280 338
#     4  11  22  36  57  85 113 145 183 225 278 336
#
# _framework density 18.741688
#
# number of rings (size 3 to 8) (size 9 to 14) (size 15 to 20)
#    0.000    1.875    1.250    3.375    0.000    4.000 
#    0.000    3.750    0.000    0.375    0.000    2.625 
#    0.000    0.000    0.000    0.000    0.000    0.000 
#
# Total GULP energy -357255.508020 kJ/mol
# GULP energy per Si atom -5582.117313 kJ/mol
# Density = 1.869903 g / cm^3
# Si number density = 18.741688 Si / 1000 Ang^3
#
#
#
# Elastic Constant Matrix: (Units=GPa)
#
#
# Indices 1 2 3 4 5 6 
#
# 1 78.8920 59.3230 28.1485 0.0000 0.0000 0.0000
# 2 59.3230 124.2897 39.9475 0.0000 0.0000 0.0000
# 3 28.1485 39.9475 47.6120 0.0000 0.0000 0.0000
# 4 0.0000 0.0000 0.0000 32.7262 0.0000 0.0000
# 5 0.0000 0.0000 0.0000 0.0000 22.6992 0.0000
# 6 0.0000 0.0000 0.0000 0.0000 0.0000 6.3397
#
#
#
# Elastic Compliance Matrix: (Units=1/GPa)
#
#
# Indices 1 2 3 4 5 6 
#
# 1 0.020745 -0.008160 -0.005418 0.000000 0.000000 0.000000
# 2 -0.008160 0.014226 -0.007112 0.000000 0.000000 0.000000
# 3 -0.005418 -0.007112 0.030173 0.000000 0.000000 0.000000
# 4 0.000000 0.000000 0.000000 0.030557 0.000000 0.000000
# 5 0.000000 0.000000 0.000000 0.000000 0.044054 0.000000
# 6 0.000000 0.000000 0.000000 0.000000 0.000000 0.157736
#
#
# Mechanical properties :
#
#
# Convention : Reuss Voigt Hill
#
# Bulk Modulus (GPa) = 42.07960 56.18129 49.13044
# Shear Modulus (GPa) = 14.41788 20.57802 17.49795
#
# Velocity S-wave (km/s) = 2.77663 3.31717 3.05886
# Velocity P-wave (km/s) = 5.72544 6.68680 6.22471
#
# Compressibility (1/GPa) = 0.02376449
#
# Stress axis : x y z
#
# Youngs Moduli (GPa) = 48.20548 70.29258 33.14191
#
# Poissons Ratio (x) = 0.57358 0.17956
# Poissons Ratio (y) = 0.39335 0.23570
# Poissons Ratio (z) = 0.26117 0.49992
#
# Static dielectric constant tensor:
#      x y z
#    x 1.662700 0.000000 0.000000 
#    y 0.000000 1.633610 0.000000 
#    z 0.000000 0.000000 1.647240 
# 
# From -- ./inp_files/4301.got.cif
#   From: 2010.05.17/outbox.cif.g08.bks.cpg/sg49_3_cif.got.tgz:4301.got - 2010.06.03 21:02:19.
