data_PCOD9392589
_publ_section_title
;
Structure prediction by ZEFSAII (Michael W. Deem and Ramdas Pophale) SiO2 
 PCOD9392589
Probable space group: P C C M
;
_chemical_formula_sum "Si O2"
_cell_formula_units_Z 64
_cell_length_a 16.053011
_cell_length_b 11.519206
_cell_length_c 19.729756
_cell_angle_alpha 90.000000
_cell_angle_beta 90.000000
_cell_angle_gamma 90.000000
_cell_volume 3648.385849
_symmetry_space_group_name_H-M "P C C M"
_symmetry_group_IT_number 49
_symmetry_cell_setting 'orthorhombic'
loop_
_space_group_symop_operation_xyz
x,y,z
-x,-y,z
x,-y,1/2-z
-x,y,1/2-z
-x,-y,-z
x,y,-z
-x,y,1/2+z
x,-y,1/2+z
loop_
_atom_site_type_symbol
_atom_site_label
_atom_site_fract_x
_atom_site_fract_y
_atom_site_fract_z
Si Si1 0.210286 0.409280 0.187798
Si Si2 0.110503 0.237407 0.579753
Si Si3 0.473249 0.865166 0.677320
Si Si4 0.239959 0.934482 0.855758
Si Si5 0.614355 0.794848 0.420173
Si Si6 0.719393 0.159416 0.705049
Si Si7 0.978265 0.365104 0.671077
Si Si8 0.735373 0.585150 0.578304
O O1 0.197808 0.500000 0.250000
O O2 0.259519 0.294210 0.206953
O O3 0.120694 0.362378 0.163851
O O4 0.256313 0.479112 0.128843
O O5 0.093007 0.216299 0.500000
O O6 0.158840 0.129174 0.614088
O O7 0.179029 0.340861 0.583228
O O8 0.031395 0.281704 0.622435
O O9 0.500000 0.815754 0.750000
O O10 0.528382 0.806589 0.619630
O O11 0.374342 0.857026 0.678334
O O12 0.500000 0.000000 0.675582
O O13 0.319395 0.896317 0.901029
O O14 0.265231 0.884697 0.781670
O O15 0.229017 0.071763 0.843485
O O16 0.600368 0.798021 0.500000
O O17 0.662583 0.675513 0.403076
O O18 0.000000 0.500000 0.657327
O O19 0.000000 0.340688 0.750000
O O20 0.724582 0.550475 0.500000
#
# Coordination Sequence:
#
# PCOD9392589 Si02
#       8
#     8   8   8   8   8   8   8   8
#     4  12  22  36  58  86 117 152 195 243 292 357
#     4  10  20  35  61  89 118 156 204 250 295 358
#     4  11  19  36  57  86 114 144 193 252 292 337
#     4  10  18  38  56  86 117 150 193 244 298 358
#     4  10  19  34  59  83 112 152 195 244 296 354
#     4  11  22  35  61  87 116 155 195 245 305 349
#     4  11  19  34  55  89 116 153 196 254 294 337
#     4   9  19  35  54  80 113 152 188 233 296 354
#
# _framework density 17.542005
#
# number of rings (size 3 to 8) (size 9 to 14) (size 15 to 20)
#    0.000    1.500    5.000    4.125    0.000    1.000 
#    0.000    3.125    0.000    4.500    0.000    0.000 
#    0.000    0.000    0.000    0.000    0.000    0.000 
#
# Total GULP energy -356902.558583 kJ/mol
# GULP energy per Si atom -5576.602478 kJ/mol
# Density = 1.750208 g / cm^3
# Si number density = 17.542005 Si / 1000 Ang^3
#
#
#
# Elastic Constant Matrix: (Units=GPa)
#
#
# Indices 1 2 3 4 5 6 
#
# 1 89.7428 41.4043 51.2637 0.0000 0.0000 0.0000
# 2 41.4043 82.4132 51.1978 0.0000 0.0000 0.0000
# 3 51.2637 51.1978 97.6385 0.0000 0.0000 0.0000
# 4 0.0000 0.0000 0.0000 24.9728 0.0000 0.0000
# 5 0.0000 0.0000 0.0000 0.0000 18.6099 0.0000
# 6 0.0000 0.0000 0.0000 0.0000 0.0000 7.0875
#
#
#
# Elastic Compliance Matrix: (Units=1/GPa)
#
#
# Indices 1 2 3 4 5 6 
#
# 1 0.016940 -0.004428 -0.006572 0.000000 0.000000 0.000000
# 2 -0.004428 0.019154 -0.007719 0.000000 0.000000 0.000000
# 3 -0.006572 -0.007719 0.017740 0.000000 0.000000 0.000000
# 4 0.000000 0.000000 0.000000 0.040044 0.000000 0.000000
# 5 0.000000 0.000000 0.000000 0.000000 0.053735 0.000000
# 6 0.000000 0.000000 0.000000 0.000000 0.000000 0.141093
#
#
# Mechanical properties :
#
#
# Convention : Reuss Voigt Hill
#
# Bulk Modulus (GPa) = 60.99033 61.94733 61.46883
# Shear Modulus (GPa) = 15.07804 18.52929 16.80366
#
# Velocity S-wave (km/s) = 2.93497 3.25357 3.09837
# Velocity P-wave (km/s) = 6.80654 7.03596 6.92220
#
# Compressibility (1/GPa) = 0.01639604
#
# Stress axis : x y z
#
# Youngs Moduli (GPa) = 59.03150 52.20973 56.36979
#
# Poissons Ratio (x) = 0.23117 0.37049
# Poissons Ratio (y) = 0.26137 0.43510
# Poissons Ratio (z) = 0.38798 0.40299
#
# Static dielectric constant tensor:
#      x y z
#    x 1.633380 0.000000 0.000000 
#    y 0.000000 1.612810 0.000000 
#    z 0.000000 0.000000 1.581410 
# 
# From -- ./inp_files/17967.got.cif
#   From: 2010.05.17/outbox.cif.g08.bks.cpg/sg49_9_cif.got.tgz:17967.got - 2010.06.03 21:02:19.
