data_PCOD9392723
_publ_section_title
;
Structure prediction by ZEFSAII (Michael W. Deem and Ramdas Pophale) SiO2 
 PCOD9392723
Probable space group: P C C M
;
_chemical_formula_sum "Si O2"
_cell_formula_units_Z 52
_cell_length_a 11.749563
_cell_length_b 28.068116
_cell_length_c 9.380636
_cell_angle_alpha 90.000000
_cell_angle_beta 90.000000
_cell_angle_gamma 90.000000
_cell_volume 3093.622097
_symmetry_space_group_name_H-M "P C C M"
_symmetry_group_IT_number 49
_symmetry_cell_setting 'orthorhombic'
loop_
_space_group_symop_operation_xyz
x,y,z
-x,-y,z
x,-y,1/2-z
-x,y,1/2-z
-x,-y,-z
x,y,-z
-x,y,1/2+z
x,-y,1/2+z
loop_
_atom_site_type_symbol
_atom_site_label
_atom_site_fract_x
_atom_site_fract_y
_atom_site_fract_z
Si Si1 0.119242 0.190860 0.830486
Si Si2 0.314245 0.117129 0.210908
Si Si3 0.500000 0.189596 0.250000
Si Si4 0.353629 0.962296 0.500000
Si Si5 0.381303 0.069686 0.500000
Si Si6 0.378633 0.651199 0.670229
Si Si7 0.705884 0.742275 0.333518
Si Si8 0.622662 0.455270 0.670282
O O1 0.196417 0.143879 0.810649
O O2 0.194333 0.230348 0.749106
O O3 0.000000 0.186326 0.750000
O O4 0.106619 0.200237 0.000000
O O5 0.415175 0.153837 0.164222
O O6 0.348876 0.102464 0.368505
O O7 0.309194 0.066816 0.133466
O O8 0.408826 0.224803 0.324679
O O9 0.488085 0.948327 0.500000
O O10 0.323525 0.017519 0.500000
O O11 0.500000 0.650802 0.750000
O O12 0.392253 0.660108 0.500000
O O13 0.313109 0.693334 0.748704
O O14 0.327345 0.597898 0.686364
O O15 0.731226 0.734787 0.500000
O O16 0.680836 0.500000 0.750000
O O17 0.500000 0.452167 0.750000
O O18 0.610061 0.464020 0.500000
#
# Coordination Sequence:
#
# PCOD9392723 Si02
#       8
#     8   8   4   4   4   8   8   8
#     4  11  25  42  62  81 105 139 183 227 272 324
#     4  11  22  36  58  82 113 142 175 218 262 318
#     4  10  22  30  51  80 115 138 182 206 268 316
#     4  11  20  38  55  89 119 147 176 207 263 316
#     4  11  22  34  59  87 121 147 172 211 257 326
#     4  10  19  31  45  70 107 145 186 227 277 326
#     4  11  23  35  55  79 110 144 180 228 275 330
#     4   9  16  25  40  61  91 137 186 231 268 316
#
# _framework density 16.808775000000001
#
# number of rings (size 3 to 8) (size 9 to 14) (size 15 to 20)
#    0.000    1.538    3.077    2.769    6.462    3.692 
#    0.000    0.000    0.000    2.769    0.000    0.000 
#    0.000    0.615    0.000    6.462    0.000    3.538 
#
# Total GULP energy -289559.267765 kJ/mol
# GULP energy per Si atom -5568.447457 kJ/mol
# Density = 1.677052 g / cm^3
# Si number density = 16.808775 Si / 1000 Ang^3
#
#
#
# Elastic Constant Matrix: (Units=GPa)
#
#
# Indices 1 2 3 4 5 6 
#
# 1 88.0090 35.6604 39.6382 0.0000 0.0000 0.0000
# 2 35.6604 122.1149 61.2065 0.0000 0.0000 0.0000
# 3 39.6382 61.2065 160.2670 0.0000 0.0000 0.0000
# 4 0.0000 0.0000 0.0000 32.9164 0.0000 0.0000
# 5 0.0000 0.0000 0.0000 0.0000 16.8052 0.0000
# 6 0.0000 0.0000 0.0000 0.0000 0.0000 12.0455
#
#
#
# Elastic Compliance Matrix: (Units=1/GPa)
#
#
# Indices 1 2 3 4 5 6 
#
# 1 0.013524 -0.002811 -0.002271 0.000000 0.000000 0.000000
# 2 -0.002811 0.010712 -0.003396 0.000000 0.000000 0.000000
# 3 -0.002271 -0.003396 0.008098 0.000000 0.000000 0.000000
# 4 0.000000 0.000000 0.000000 0.030380 0.000000 0.000000
# 5 0.000000 0.000000 0.000000 0.000000 0.059505 0.000000
# 6 0.000000 0.000000 0.000000 0.000000 0.000000 0.083018
#
#
# Mechanical properties :
#
#
# Convention : Reuss Voigt Hill
#
# Bulk Modulus (GPa) = 65.02637 71.48901 68.25769
# Shear Modulus (GPa) = 21.99538 27.94582 24.97060
#
# Velocity S-wave (km/s) = 3.62133 4.08189 3.85849
# Velocity P-wave (km/s) = 7.50036 8.05226 7.78120
#
# Compressibility (1/GPa) = 0.01537838
#
# Stress axis : x y z
#
# Youngs Moduli (GPa) = 73.93997 93.35453 123.48432
#
# Poissons Ratio (x) = 0.26242 0.28049
# Poissons Ratio (y) = 0.20784 0.41931
# Poissons Ratio (z) = 0.16795 0.31700
#
# Static dielectric constant tensor:
#      x y z
#    x 1.549690 0.000000 0.000000 
#    y 0.000000 1.625780 0.000000 
#    z 0.000000 0.000000 1.580950 
# 
# From -- ./inp_files/3056.got.cif
#   From: 2010.05.17/outbox.cif.g08.bks.cpg/sg49_2_cif.got.tgz:3056.got - 2010.06.03 21:02:19.
