data_PCOD9392281
_publ_section_title
;
Structure prediction by ZEFSAII (Michael W. Deem and Ramdas Pophale) SiO2 
 PCOD9392281
Probable space group: P C C M
;
_chemical_formula_sum "Si O2"
_cell_formula_units_Z 56
_cell_length_a 15.660429
_cell_length_b 9.338127
_cell_length_c 19.674839
_cell_angle_alpha 90.000000
_cell_angle_beta 90.000000
_cell_angle_gamma 90.000000
_cell_volume 2877.230254
_symmetry_space_group_name_H-M "P C C M"
_symmetry_group_IT_number 49
_symmetry_cell_setting 'orthorhombic'
loop_
_space_group_symop_operation_xyz
x,y,z
-x,-y,z
x,-y,1/2-z
-x,y,1/2-z
-x,-y,-z
x,y,-z
-x,y,1/2+z
x,-y,1/2+z
loop_
_atom_site_type_symbol
_atom_site_label
_atom_site_fract_x
_atom_site_fract_y
_atom_site_fract_z
Si Si1 0.346986 0.312706 0.114940
Si Si2 0.591444 0.075764 0.000000
Si Si3 0.714026 0.118848 0.881315
Si Si4 0.081601 0.591628 0.417494
Si Si5 0.181179 0.862587 0.420892
Si Si6 0.482723 0.332938 0.000000
Si Si7 0.597596 0.829075 0.747073
Si Si8 0.253785 0.567856 0.921125
O O1 0.263595 0.241855 0.081206
O O2 0.427916 0.292257 0.066268
O O3 0.359192 0.238593 0.186989
O O4 0.326991 0.482197 0.119268
O O5 0.646024 0.046380 0.933021
O O6 0.500000 0.000000 0.000000
O O7 0.569473 0.244107 0.000000
O O8 0.660378 0.179544 0.817566
O O9 0.748928 0.262748 0.914840
O O10 0.789128 0.000016 0.876356
O O11 0.076965 0.597487 0.500000
O O12 0.103855 0.756947 0.397583
O O13 0.163704 0.497214 0.398687
O O14 0.000000 0.500000 0.393641
O O15 0.167318 0.906901 0.500000
O O16 0.500000 0.500000 0.000000
O O17 0.500000 0.771524 0.750000
O O18 0.589423 0.000000 0.750000
O O19 0.268027 0.530115 0.000000
#
# Coordination Sequence:
#
# PCOD9392281 Si02
#       8
#     8   4   8   8   8   4   8   8
#     4  11  20  38  55  77 107 155 197 247 303 369
#     4  12  24  32  54  80 105 149 200 257 307 350
#     4  12  22  37  54  83 115 153 201 256 299 356
#     4   8  16  31  56  88 121 151 181 227 300 366
#     4  10  17  32  57  82 111 151 198 239 286 359
#     4  12  22  34  56  82 105 145 208 259 311 368
#     4  11  25  39  54  77 117 155 203 261 309 364
#     4  10  19  36  59  84 117 150 190 250 298 359
#
# _framework density 19.463160999999999
#
# number of rings (size 3 to 8) (size 9 to 14) (size 15 to 20)
#    0.000    1.429    4.286    3.429    2.000    0.571 
#    0.000    1.429    0.000    3.429    0.000    8.000 
#    0.000    0.000    0.000    0.000    0.000    0.000 
#
# Total GULP energy -312097.375203 kJ/mol
# GULP energy per Si atom -5573.167414 kJ/mol
# Density = 1.941886 g / cm^3
# Si number density = 19.463161 Si / 1000 Ang^3
#
#
#
# Elastic Constant Matrix: (Units=GPa)
#
#
# Indices 1 2 3 4 5 6 
#
# 1 76.7660 32.7580 27.8883 0.0000 0.0000 0.0000
# 2 32.7580 117.2650 18.0016 0.0000 0.0000 0.0000
# 3 27.8883 18.0016 87.5179 0.0000 0.0000 0.0000
# 4 0.0000 0.0000 0.0000 21.8910 0.0000 0.0000
# 5 0.0000 0.0000 0.0000 0.0000 11.1494 0.0000
# 6 0.0000 0.0000 0.0000 0.0000 0.0000 25.7646
#
#
#
# Elastic Compliance Matrix: (Units=1/GPa)
#
#
# Indices 1 2 3 4 5 6 
#
# 1 0.016274 -0.003872 -0.004389 0.000000 0.000000 0.000000
# 2 -0.003872 0.009727 -0.000767 0.000000 0.000000 0.000000
# 3 -0.004389 -0.000767 0.012983 0.000000 0.000000 0.000000
# 4 0.000000 0.000000 0.000000 0.045681 0.000000 0.000000
# 5 0.000000 0.000000 0.000000 0.000000 0.089691 0.000000
# 6 0.000000 0.000000 0.000000 0.000000 0.000000 0.038813
#
#
# Mechanical properties :
#
#
# Convention : Reuss Voigt Hill
#
# Bulk Modulus (GPa) = 47.78585 48.76051 48.27318
# Shear Modulus (GPa) = 20.99076 25.28774 23.13925
#
# Velocity S-wave (km/s) = 3.28759 3.60844 3.45175
# Velocity P-wave (km/s) = 6.24630 6.51676 6.38297
#
# Compressibility (1/GPa) = 0.02092670
#
# Stress axis : x y z
#
# Youngs Moduli (GPa) = 61.44950 102.80531 77.02604
#
# Poissons Ratio (x) = 0.39808 0.33808
# Poissons Ratio (y) = 0.23795 0.05907
# Poissons Ratio (z) = 0.26971 0.07884
#
# Static dielectric constant tensor:
#      x y z
#    x 1.720510 0.000000 0.000000 
#    y 0.000000 1.750620 0.000000 
#    z 0.000000 0.000000 1.706400 
# 
# From -- ./inp_files/20926.got.cif
#   From: 2010.05.17/outbox.cif.g08.bks.cpg/sg49_11_cif.got.tgz:20926.got - 2010.06.03 21:02:19.
