data_PCOD9392467
_publ_section_title
;
Structure prediction by ZEFSAII (Michael W. Deem and Ramdas Pophale) SiO2 
 PCOD9392467
Probable space group: P C C M
;
_chemical_formula_sum "Si O2"
_cell_formula_units_Z 48
_cell_length_a 8.077379
_cell_length_b 18.497148
_cell_length_c 14.826783
_cell_angle_alpha 90.000000
_cell_angle_beta 90.000000
_cell_angle_gamma 90.000000
_cell_volume 2215.247034
_symmetry_space_group_name_H-M "P C C M"
_symmetry_group_IT_number 49
_symmetry_cell_setting 'orthorhombic'
loop_
_space_group_symop_operation_xyz
x,y,z
-x,-y,z
x,-y,1/2-z
-x,y,1/2-z
-x,-y,-z
x,y,-z
-x,y,1/2+z
x,-y,1/2+z
loop_
_atom_site_type_symbol
_atom_site_label
_atom_site_fract_x
_atom_site_fract_y
_atom_site_fract_z
Si Si1 0.628303 0.841451 0.320466
Si Si2 0.138899 0.156347 0.821893
Si Si3 0.693410 0.695817 0.601067
Si Si4 0.417701 0.079784 0.500000
Si Si5 0.019119 0.084931 0.500000
Si Si6 0.702320 0.582488 0.249829
Si Si7 0.290439 0.304201 0.898082
O O1 0.500000 0.807127 0.250000
O O2 0.736968 0.886580 0.247771
O O3 0.732277 0.775549 0.362263
O O4 0.540773 0.881514 0.404422
O O5 0.222479 0.229457 0.858452
O O6 0.000000 0.176064 0.750000
O O7 0.066500 0.115956 0.909376
O O8 0.754902 0.687797 0.500000
O O9 0.750415 0.631277 0.664654
O O10 0.491656 0.696364 0.599688
O O11 0.218456 0.091169 0.500000
O O12 0.500000 0.000000 0.500000
O O13 0.000000 0.000000 0.500000
O O14 0.759915 0.500000 0.250000
O O15 0.500000 0.580829 0.250000
O O16 0.757548 0.628227 0.163486
O O17 0.231220 0.311646 0.000000
#
# Coordination Sequence:
#
# PCOD9392467 Si02
#       7
#     8   8   8   4   4   8   8
#     4  12  23  42  71  99 129 171 230 278 332 405
#     4  12  24  43  70  97 128 175 224 274 334 404
#     4  10  18  31  58  91 125 170 223 279 338 396
#     4  12  30  50  68 102 135 170 217 279 345 417
#     4  12  30  50  68  96 139 174 217 277 348 412
#     4   9  17  30  49  87 135 171 217 283 346 403
#     4  10  19  33  59  89 122 170 223 274 334 404
#
# _framework density 21.668011
#
# number of rings (size 3 to 8) (size 9 to 14) (size 15 to 20)
#    0.000    1.167    6.667    0.500    2.333    1.333 
#    0.000    3.333    0.000    0.500    0.000    1.167 
#    0.000    0.000    0.000    0.000    0.000    0.000 
#
# Total GULP energy -267722.562035 kJ/mol
# GULP energy per Si atom -5577.553376 kJ/mol
# Density = 2.161869 g / cm^3
# Si number density = 21.668011 Si / 1000 Ang^3
#
#
#
# Elastic Constant Matrix: (Units=GPa)
#
#
# Indices 1 2 3 4 5 6 
#
# 1 17.2882 15.9109 35.1185 0.0000 0.0000 0.0000
# 2 15.9109 159.7297 103.4905 0.0000 0.0000 0.0000
# 3 35.1185 103.4905 246.9768 0.0000 0.0000 0.0000
# 4 0.0000 0.0000 0.0000 32.1602 0.0000 0.0000
# 5 0.0000 0.0000 0.0000 0.0000 26.6169 0.0000
# 6 0.0000 0.0000 0.0000 0.0000 0.0000 15.2358
#
#
#
# Elastic Compliance Matrix: (Units=1/GPa)
#
#
# Indices 1 2 3 4 5 6 
#
# 1 0.081418 -0.000836 -0.011227 0.000000 0.000000 0.000000
# 2 -0.000836 0.008602 -0.003486 0.000000 0.000000 0.000000
# 3 -0.011227 -0.003486 0.007106 0.000000 0.000000 0.000000
# 4 0.000000 0.000000 0.000000 0.031094 0.000000 0.000000
# 5 0.000000 0.000000 0.000000 0.000000 0.037570 0.000000
# 6 0.000000 0.000000 0.000000 0.000000 0.000000 0.065635
#
#
# Mechanical properties :
#
#
# Convention : Reuss Voigt Hill
#
# Bulk Modulus (GPa) = 15.14487 81.44828 48.29657
# Shear Modulus (GPa) = 17.57267 32.76757 25.17012
#
# Velocity S-wave (km/s) = 2.85089 3.89299 3.41196
# Velocity P-wave (km/s) = 4.22391 7.60776 6.15302
#
# Compressibility (1/GPa) = 0.06602898
#
# Stress axis : x y z
#
# Youngs Moduli (GPa) = 12.28228 116.24800 140.72731
#
# Poissons Ratio (x) = 0.09722 1.57990
# Poissons Ratio (y) = 0.01027 0.49053
# Poissons Ratio (z) = 0.13789 0.40521
#
# Static dielectric constant tensor:
#      x y z
#    x 1.990980 0.000000 0.000000 
#    y 0.000000 1.740460 0.000000 
#    z 0.000000 0.000000 1.804050 
# 
# From -- ./inp_files/11898.got.cif
#   From: 2010.05.17/outbox.cif.g08.bks.cpg/sg49_6_cif.got.tgz:11898.got - 2010.06.03 21:02:19.
