data_PCOD9392259
_publ_section_title
;
Structure prediction by ZEFSAII (Michael W. Deem and Ramdas Pophale) SiO2 
 PCOD9392259
Probable space group: P C C M
;
_chemical_formula_sum "Si O2"
_cell_formula_units_Z 40
_cell_length_a 10.129193
_cell_length_b 11.471352
_cell_length_c 18.986374
_cell_angle_alpha 90.000000
_cell_angle_beta 90.000000
_cell_angle_gamma 90.000000
_cell_volume 2206.131949
_symmetry_space_group_name_H-M "P C C M"
_symmetry_group_IT_number 49
_symmetry_cell_setting 'orthorhombic'
loop_
_space_group_symop_operation_xyz
x,y,z
-x,-y,z
x,-y,1/2-z
-x,y,1/2-z
-x,-y,-z
x,y,-z
-x,y,1/2+z
x,-y,1/2+z
loop_
_atom_site_type_symbol
_atom_site_label
_atom_site_fract_x
_atom_site_fract_y
_atom_site_fract_z
Si Si1 0.614434 0.413801 0.124358
Si Si2 0.500000 0.000000 0.750000
Si Si3 0.000000 0.500000 0.250000
Si Si4 0.571915 0.787621 0.153423
Si Si5 0.766454 0.714335 0.500000
Si Si6 0.942199 0.629958 0.000000
Si Si7 0.198007 0.618454 0.349883
Si Si8 0.520925 0.136665 0.000000
O O1 0.500000 0.500000 0.093663
O O2 0.541971 0.310933 0.167715
O O3 0.708408 0.354978 0.066780
O O4 0.708617 0.505607 0.161624
O O5 0.433682 0.092913 0.803252
O O6 0.922182 0.412099 0.300494
O O7 0.711350 0.727989 0.167036
O O8 0.545246 0.811379 0.070441
O O9 0.677695 0.831807 0.500000
O O10 0.925828 0.712080 0.500000
O O11 0.854140 0.636874 0.070359
O O12 0.000000 0.500000 0.000000
O O13 0.500000 0.000000 0.000000
#
# Coordination Sequence:
#
# PCOD9392259 Si02
#       8
#     8   2   2   8   4   4   8   4
#     4   9  17  32  54  88 115 145 185 242 304 352
#     4  12  24  42  58  90 112 162 196 246 314 342
#     4  12  24  34  54  86 128 158 192 226 298 366
#     4  10  23  38  63  87 118 152 199 252 302 348
#     4  10  17  28  57  89 119 147 185 240 289 357
#     4  12  19  36  58  87 127 164 192 228 291 367
#     4  11  22  38  58  89 123 159 194 239 294 366
#     4  10  19  40  62  90 110 150 204 260 299 331
#
# _framework density 18.131281999999999
#
# number of rings (size 3 to 8) (size 9 to 14) (size 15 to 20)
#    0.000    1.600    4.000    0.900    2.800    3.200 
#    0.000    0.000    0.000    5.400    0.000    0.000 
#    0.000    0.000    0.000    0.000    0.000    0.000 
#
# Total GULP energy -222790.292337 kJ/mol
# GULP energy per Si atom -5569.757308 kJ/mol
# Density = 1.809001 g / cm^3
# Si number density = 18.131282 Si / 1000 Ang^3
#
#
#
# Elastic Constant Matrix: (Units=GPa)
#
#
# Indices 1 2 3 4 5 6 
#
# 1 95.4825 55.4569 46.8772 0.0000 0.0000 0.0000
# 2 55.4569 134.3415 42.0607 0.0000 0.0000 0.0000
# 3 46.8772 42.0607 108.1123 0.0000 0.0000 0.0000
# 4 0.0000 0.0000 0.0000 -31.3808 0.0000 0.0000
# 5 0.0000 0.0000 0.0000 0.0000 -102.2654 0.0000
# 6 0.0000 0.0000 0.0000 0.0000 0.0000 21.5581
#
#
#
# Elastic Compliance Matrix: (Units=1/GPa)
#
#
# Indices 1 2 3 4 5 6 
#
# 1 0.015769 -0.004975 -0.004902 0.000000 0.000000 0.000000
# 2 -0.004975 0.010046 -0.001751 0.000000 0.000000 0.000000
# 3 -0.004902 -0.001751 0.012056 0.000000 0.000000 0.000000
# 4 0.000000 0.000000 0.000000 -0.031867 0.000000 0.000000
# 5 0.000000 0.000000 0.000000 0.000000 -0.009778 0.000000
# 6 0.000000 0.000000 0.000000 0.000000 0.000000 0.046386
#
#
# Mechanical properties :
#
#
# Convention : Reuss Voigt Hill
#
# Bulk Modulus (GPa) = 68.42184 69.63620 69.02902
# Shear Modulus (GPa) = 70.68102 -9.51487 30.58307
#
# Velocity S-wave (km/s) = 6.25040 -2.29329 4.11147
# Velocity P-wave (km/s) = 9.48203 5.61051 7.79059
#
# Compressibility (1/GPa) = 0.01461522
#
# Stress axis : x y z
#
# Youngs Moduli (GPa) = 63.41467 99.54586 82.94331
#
# Poissons Ratio (x) = 0.49523 0.40659
# Poissons Ratio (y) = 0.31548 0.14524
# Poissons Ratio (z) = 0.31086 0.17432
#
# Static dielectric constant tensor:
#      x y z
#    x 1.671890 0.000000 0.000000 
#    y 0.000000 1.607750 0.000000 
#    z 0.000000 0.000000 1.691510 
# 
# From -- ./inp_files/19713.got.cif
#   From: 2010.05.17/outbox.cif.g08.bks.cpg/sg49_10_cif.got.tgz:19713.got - 2010.06.03 21:02:19.
