data_PCOD9392378
_publ_section_title
;
Structure prediction by ZEFSAII (Michael W. Deem and Ramdas Pophale) SiO2 
 PCOD9392378
Probable space group: P C C M
;
_chemical_formula_sum "Si O2"
_cell_formula_units_Z 64
_cell_length_a 23.601539
_cell_length_b 18.989703
_cell_length_c 8.756305
_cell_angle_alpha 90.000000
_cell_angle_beta 90.000000
_cell_angle_gamma 90.000000
_cell_volume 3924.455204
_symmetry_space_group_name_H-M "P C C M"
_symmetry_group_IT_number 49
_symmetry_cell_setting 'orthorhombic'
loop_
_space_group_symop_operation_xyz
x,y,z
-x,-y,z
x,-y,1/2-z
-x,y,1/2-z
-x,-y,-z
x,y,-z
-x,y,1/2+z
x,-y,1/2+z
loop_
_atom_site_type_symbol
_atom_site_label
_atom_site_fract_x
_atom_site_fract_y
_atom_site_fract_z
Si Si1 0.442905 0.287351 0.820134
Si Si2 0.668782 0.325648 0.174439
Si Si3 0.439806 0.123188 0.184390
Si Si4 0.936656 0.575192 0.316949
Si Si5 0.767844 0.424825 0.823228
Si Si6 0.313522 0.924740 0.315772
Si Si7 0.244203 0.786649 0.684657
Si Si8 0.851020 0.684442 0.179842
O O1 0.500000 0.316637 0.750000
O O2 0.387904 0.328273 0.769147
O O3 0.436505 0.205610 0.769263
O O4 0.447665 0.285753 0.000000
O O5 0.703811 0.397487 0.175958
O O6 0.710287 0.266665 0.243651
O O7 0.655693 0.306676 0.000000
O O8 0.500000 0.095364 0.250000
O O9 0.379087 0.090971 0.233201
O O10 0.442709 0.118504 0.000000
O O11 0.913123 0.500000 0.250000
O O12 0.937515 0.569896 0.500000
O O13 0.902850 0.645638 0.265867
O O14 0.000000 0.580247 0.250000
O O15 0.772967 0.500000 0.750000
O O16 0.802084 0.371832 0.716190
O O17 0.788586 0.421573 0.000000
O O18 0.314441 0.926453 0.500000
O O19 0.268520 0.863554 0.272188
O O20 0.296820 0.000000 0.250000
O O21 0.246825 0.781426 0.500000
O O22 0.180913 0.757787 0.727550
O O23 0.864174 0.688595 0.000000
#
# Coordination Sequence:
#
# PCOD9392378 Si02
#       8
#     8   8   8   8   8   8   8   8
#     4  10  18  30  47  66  87 112 144 185 231 284
#     4  10  19  30  47  69  90 113 147 190 235 281
#     4   9  18  31  46  63  88 116 151 190 232 286
#     4  11  21  34  51  74 108 144 179 211 239 280
#     4  10  20  32  46  68  95 122 155 194 234 280
#     4  10  20  34  48  67  93 125 159 197 243 294
#     4   9  18  34  51  67  93 125 161 199 239 288
#     4  10  19  32  52  73  96 132 169 204 243 278
#
# _framework density 16.307997
#
# number of rings (size 3 to 8) (size 9 to 14) (size 15 to 20)
#    0.000    2.125    1.250    3.375    0.000    3.750 
#    0.000    1.250    0.000    0.375    0.000    2.625 
#    0.000    0.500    0.000    5.750    0.000    1.750 
#
# Total GULP energy -356439.658586 kJ/mol
# GULP energy per Si atom -5569.369665 kJ/mol
# Density = 1.627088 g / cm^3
# Si number density = 16.307997 Si / 1000 Ang^3
#
#
#
# Elastic Constant Matrix: (Units=GPa)
#
#
# Indices 1 2 3 4 5 6 
#
# 1 77.5863 35.6200 26.4694 0.0000 0.0000 0.0000
# 2 35.6200 66.1626 12.5960 0.0000 0.0000 0.0000
# 3 26.4694 12.5960 39.8829 0.0000 0.0000 0.0000
# 4 0.0000 0.0000 0.0000 19.4735 0.0000 0.0000
# 5 0.0000 0.0000 0.0000 0.0000 24.4902 0.0000
# 6 0.0000 0.0000 0.0000 0.0000 0.0000 14.4217
#
#
#
# Elastic Compliance Matrix: (Units=1/GPa)
#
#
# Indices 1 2 3 4 5 6 
#
# 1 0.020803 -0.009120 -0.010927 0.000000 0.000000 0.000000
# 2 -0.009120 0.020079 -0.000289 0.000000 0.000000 0.000000
# 3 -0.010927 -0.000289 0.032416 0.000000 0.000000 0.000000
# 4 0.000000 0.000000 0.000000 0.051352 0.000000 0.000000
# 5 0.000000 0.000000 0.000000 0.000000 0.040833 0.000000
# 6 0.000000 0.000000 0.000000 0.000000 0.000000 0.069340
#
#
# Mechanical properties :
#
#
# Convention : Reuss Voigt Hill
#
# Bulk Modulus (GPa) = 30.64806 37.00029 33.82418
# Shear Modulus (GPa) = 17.45994 18.94018 18.20006
#
# Velocity S-wave (km/s) = 3.27561 3.41164 3.34431
# Velocity P-wave (km/s) = 5.75675 6.18520 5.97482
#
# Compressibility (1/GPa) = 0.03262849
#
# Stress axis : x y z
#
# Youngs Moduli (GPa) = 48.06890 49.80305 30.84867
#
# Poissons Ratio (x) = 0.45419 0.33707
# Poissons Ratio (y) = 0.43838 0.00891
# Poissons Ratio (z) = 0.52523 0.01439
#
# Static dielectric constant tensor:
#      x y z
#    x 1.576540 0.000000 0.000000 
#    y 0.000000 1.570680 0.000000 
#    z 0.000000 0.000000 1.555460 
# 
# From -- ./inp_files/5397.got.cif
#   From: 2010.05.17/outbox.cif.g08.bks.cpg/sg49_3_cif.got.tgz:5397.got - 2010.06.03 21:02:19.
