data_PCOD9392636
_publ_section_title
;
Structure prediction by ZEFSAII (Michael W. Deem and Ramdas Pophale) SiO2 
 PCOD9392636
Probable space group: P C C M
;
_chemical_formula_sum "Si O2"
_cell_formula_units_Z 58
_cell_length_a 25.620872
_cell_length_b 14.333878
_cell_length_c 9.199823
_cell_angle_alpha 90.000000
_cell_angle_beta 90.000000
_cell_angle_gamma 90.000000
_cell_volume 3378.602370
_symmetry_space_group_name_H-M "P C C M"
_symmetry_group_IT_number 49
_symmetry_cell_setting 'orthorhombic'
loop_
_space_group_symop_operation_xyz
x,y,z
-x,-y,z
x,-y,1/2-z
-x,y,1/2-z
-x,-y,-z
x,y,-z
-x,y,1/2+z
x,-y,1/2+z
loop_
_atom_site_type_symbol
_atom_site_label
_atom_site_fract_x
_atom_site_fract_y
_atom_site_fract_z
Si Si1 0.000000 0.000000 0.000000
Si Si2 0.401585 0.405850 0.172720
Si Si3 0.554491 0.796498 0.175389
Si Si4 0.752750 0.223570 0.168921
Si Si5 0.349827 0.098373 0.326315
Si Si6 0.856014 0.100154 0.172014
Si Si7 0.721436 0.404385 0.326861
Si Si8 0.046825 0.174069 0.159441
O O1 0.025851 0.070935 0.119545
O O2 0.420032 0.500000 0.250000
O O3 0.432664 0.312114 0.208593
O O4 0.340317 0.391177 0.210630
O O5 0.404361 0.419750 0.000000
O O6 0.500000 0.821809 0.250000
O O7 0.600484 0.856347 0.247334
O O8 0.553437 0.807935 0.000000
O O9 0.700091 0.164895 0.194700
O O10 0.802072 0.155977 0.190135
O O11 0.751712 0.314490 0.268723
O O12 0.752684 0.253453 0.000000
O O13 0.358433 0.087884 0.500000
O O14 0.339092 0.000000 0.250000
O O15 0.902226 0.159860 0.243752
O O16 0.853012 0.000000 0.250000
O O17 0.866998 0.086476 0.000000
O O18 0.738258 0.500000 0.250000
O O19 0.725443 0.412483 0.500000
O O20 0.000000 0.220681 0.250000
O O21 0.057093 0.217767 0.000000
#
# Coordination Sequence:
#
# PCOD9392636 Si02
#       8
#     2   8   8   8   8   8   8   8
#     4   8  18  24  42  60  90 128 182 222 262 302
#     4   9  19  34  55  82 110 139 170 211 264 328
#     4  11  23  40  58  82 109 138 178 224 273 329
#     4  10  22  38  55  80 111 143 181 225 277 329
#     4  11  23  40  61  80 104 141 180 226 276 328
#     4  11  22  33  48  73 108 147 190 234 273 320
#     4  10  19  34  58  84 109 140 177 218 270 331
#     4  10  19  29  46  68  96 139 187 230 271 314
#
# _framework density 17.166861999999998
#
# number of rings (size 3 to 8) (size 9 to 14) (size 15 to 20)
#    0.414    1.379    1.379    3.517    1.931    3.862 
#    0.000    2.759    0.000    0.000    0.000    0.000 
#    0.000    0.552    0.000    5.793    0.000    2.483 
#
# Total GULP energy -323047.578222 kJ/mol
# GULP energy per Si atom -5569.785831 kJ/mol
# Density = 1.712779 g / cm^3
# Si number density = 17.166862 Si / 1000 Ang^3
#
#
#
# Elastic Constant Matrix: (Units=GPa)
#
#
# Indices 1 2 3 4 5 6 
#
# 1 74.4952 16.1938 57.1276 0.0000 0.0000 0.0000
# 2 16.1938 64.0065 50.9953 0.0000 0.0000 0.0000
# 3 57.1276 50.9953 115.1725 0.0000 0.0000 0.0000
# 4 0.0000 0.0000 0.0000 30.0079 0.0000 0.0000
# 5 0.0000 0.0000 0.0000 0.0000 26.0260 0.0000
# 6 0.0000 0.0000 0.0000 0.0000 0.0000 1.4179
#
#
#
# Elastic Compliance Matrix: (Units=1/GPa)
#
#
# Indices 1 2 3 4 5 6 
#
# 1 0.022645 0.004975 -0.013435 0.000000 0.000000 0.000000
# 2 0.004975 0.025232 -0.013639 0.000000 0.000000 0.000000
# 3 -0.013435 -0.013639 0.021386 0.000000 0.000000 0.000000
# 4 0.000000 0.000000 0.000000 0.033325 0.000000 0.000000
# 5 0.000000 0.000000 0.000000 0.000000 0.038423 0.000000
# 6 0.000000 0.000000 0.000000 0.000000 0.000000 0.705291
#
#
# Mechanical properties :
#
#
# Convention : Reuss Voigt Hill
#
# Bulk Modulus (GPa) = 39.89944 55.81197 47.85570
# Shear Modulus (GPa) = 5.56263 20.11420 12.83841
#
# Velocity S-wave (km/s) = 1.80204 3.42671 2.73767
# Velocity P-wave (km/s) = 5.25570 6.94539 6.15877
#
# Compressibility (1/GPa) = 0.02506301
#
# Stress axis : x y z
#
# Youngs Moduli (GPa) = 44.15967 39.63280 46.75992
#
# Poissons Ratio (x) = -0.19716 0.62822
# Poissons Ratio (y) = -0.21968 0.63778
# Poissons Ratio (z) = 0.59329 0.54057
#
# Static dielectric constant tensor:
#      x y z
#    x 1.591950 0.000000 0.000000 
#    y 0.000000 1.560510 0.000000 
#    z 0.000000 0.000000 1.602890 
# 
# From -- ./inp_files/6444.got.cif
#   From: 2010.05.17/outbox.cif.g08.bks.cpg/sg49_4_cif.got.tgz:6444.got - 2010.06.03 21:02:19.
