data_PCOD9392552
_publ_section_title
;
Structure prediction by ZEFSAII (Michael W. Deem and Ramdas Pophale) SiO2 
 PCOD9392552
Probable space group: P C C M
;
_chemical_formula_sum "Si O2"
_cell_formula_units_Z 64
_cell_length_a 25.610440
_cell_length_b 15.244857
_cell_length_c 8.559159
_cell_angle_alpha 90.000000
_cell_angle_beta 90.000000
_cell_angle_gamma 90.000000
_cell_volume 3341.731012
_symmetry_space_group_name_H-M "P C C M"
_symmetry_group_IT_number 49
_symmetry_cell_setting 'orthorhombic'
loop_
_space_group_symop_operation_xyz
x,y,z
-x,-y,z
x,-y,1/2-z
-x,y,1/2-z
-x,-y,-z
x,y,-z
-x,y,1/2+z
x,-y,1/2+z
loop_
_atom_site_type_symbol
_atom_site_label
_atom_site_fract_x
_atom_site_fract_y
_atom_site_fract_z
Si Si1 0.058895 0.904662 0.687198
Si Si2 0.696230 0.366109 0.180980
Si Si3 0.811256 0.405735 0.313613
Si Si4 0.444892 0.779568 0.187020
Si Si5 0.335615 0.837805 0.818142
Si Si6 0.586316 0.591977 0.816831
Si Si7 0.769267 0.091145 0.811482
Si Si8 0.143441 0.770118 0.187940
O O1 0.059023 0.906592 0.500000
O O2 0.094820 0.825986 0.749192
O O3 0.000000 0.893668 0.750000
O O4 0.077285 0.000000 0.750000
O O5 0.753036 0.389237 0.244883
O O6 0.687116 0.261273 0.182667
O O7 0.648445 0.403791 0.280827
O O8 0.691363 0.394998 0.000000
O O9 0.829051 0.500000 0.250000
O O10 0.808399 0.406993 0.500000
O O11 0.847842 0.326228 0.256968
O O12 0.500000 0.811874 0.250000
O O13 0.393780 0.831096 0.249436
O O14 0.437290 0.677946 0.235371
O O15 0.444162 0.783269 0.000000
O O16 0.289476 0.895461 0.747335
O O17 0.341322 0.863842 0.000000
O O18 0.566443 0.500000 0.750000
O O19 0.576670 0.597291 0.000000
O O20 0.805782 0.172090 0.766955
O O21 0.791045 0.000000 0.750000
O O22 0.767544 0.089702 0.000000
O O23 0.141179 0.764939 0.000000
#
# Coordination Sequence:
#
# PCOD9392552 Si02
#       8
#     8   8   8   8   8   8   8   8
#     4  11  22  39  63  94 129 168 212 255 303 358
#     4  10  18  34  54  74 104 145 188 233 285 339
#     4  12  24  37  55  82 116 158 206 252 298 352
#     4  10  20  35  54  73  95 129 174 224 281 341
#     4   8  16  33  54  74 103 142 177 219 278 340
#     4  11  21  33  48  71  99 131 173 222 277 339
#     4  10  20  35  56  85 118 153 187 227 286 352
#     4  11  22  39  61  87 124 164 203 250 303 354
#
# _framework density 19.151751000000001
#
# number of rings (size 3 to 8) (size 9 to 14) (size 15 to 20)
#    0.000    1.625    1.250    6.375    0.000    2.250 
#    0.000    2.500    0.000    0.750    0.000    5.250 
#    0.000    0.000    0.000    0.000    0.000    0.000 
#
# Total GULP energy -357507.024866 kJ/mol
# GULP energy per Si atom -5586.047264 kJ/mol
# Density = 1.910816 g / cm^3
# Si number density = 19.151751 Si / 1000 Ang^3
#
#
#
# Elastic Constant Matrix: (Units=GPa)
#
#
# Indices 1 2 3 4 5 6 
#
# 1 107.2679 47.4809 25.4313 0.0000 0.0000 0.0000
# 2 47.4809 90.9512 23.8164 0.0000 0.0000 0.0000
# 3 25.4313 23.8164 84.5129 0.0000 0.0000 0.0000
# 4 0.0000 0.0000 0.0000 21.7099 0.0000 0.0000
# 5 0.0000 0.0000 0.0000 0.0000 28.0203 0.0000
# 6 0.0000 0.0000 0.0000 0.0000 0.0000 -12.9024
#
#
#
# Elastic Compliance Matrix: (Units=1/GPa)
#
#
# Indices 1 2 3 4 5 6 
#
# 1 0.012450 -0.005958 -0.002067 0.000000 0.000000 0.000000
# 2 -0.005958 0.014722 -0.002356 0.000000 0.000000 0.000000
# 3 -0.002067 -0.002356 0.013119 0.000000 0.000000 0.000000
# 4 0.000000 0.000000 0.000000 0.046062 0.000000 0.000000
# 5 0.000000 0.000000 0.000000 0.000000 0.035688 0.000000
# 6 0.000000 0.000000 0.000000 0.000000 0.000000 -0.077505
#
#
# Mechanical properties :
#
#
# Convention : Reuss Voigt Hill
#
# Bulk Modulus (GPa) = 51.20879 52.90990 52.05934
# Shear Modulus (GPa) = 69.62987 19.76577 44.69782
#
# Velocity S-wave (km/s) = 6.03621 3.21606 4.83626
# Velocity P-wave (km/s) = 8.68203 6.44029 7.64379
#
# Compressibility (1/GPa) = 0.01952790
#
# Stress axis : x y z
#
# Youngs Moduli (GPa) = 80.32223 67.92444 76.22801
#
# Poissons Ratio (x) = 0.40470 0.15759
# Poissons Ratio (y) = 0.47857 0.17959
# Poissons Ratio (z) = 0.16605 0.16003
#
# Static dielectric constant tensor:
#      x y z
#    x 1.690290 0.000000 0.000000 
#    y 0.000000 1.667390 0.000000 
#    z 0.000000 0.000000 1.650220 
# 
# From -- ./inp_files/6499.got.cif
#   From: 2010.05.17/outbox.cif.g08.bks.cpg/sg49_4_cif.got.tgz:6499.got - 2010.06.03 21:02:19.
