data_PCOD9392975
_publ_section_title
;
Structure prediction by ZEFSAII (Michael W. Deem and Ramdas Pophale) SiO2 
 PCOD9392975
Probable space group: P C C M
;
_chemical_formula_sum "Si O2"
_cell_formula_units_Z 64
_cell_length_a 9.772549
_cell_length_b 15.203073
_cell_length_c 23.361691
_cell_angle_alpha 90.000000
_cell_angle_beta 90.000000
_cell_angle_gamma 90.000000
_cell_volume 3470.911280
_symmetry_space_group_name_H-M "P C C M"
_symmetry_group_IT_number 49
_symmetry_cell_setting 'orthorhombic'
loop_
_space_group_symop_operation_xyz
x,y,z
-x,-y,z
x,-y,1/2-z
-x,y,1/2-z
-x,-y,-z
x,y,-z
-x,y,1/2+z
x,-y,1/2+z
loop_
_atom_site_type_symbol
_atom_site_label
_atom_site_fract_x
_atom_site_fract_y
_atom_site_fract_z
Si Si1 0.848477 0.354135 0.735680
Si Si2 0.654995 0.981514 0.430397
Si Si3 0.352336 0.466593 0.157738
Si Si4 0.075110 0.734818 0.376455
Si Si5 0.202387 0.645253 0.136022
Si Si6 0.356353 0.686402 0.433200
Si Si7 0.625959 0.785797 0.431939
Si Si8 0.088461 0.088628 0.932856
O O1 0.742310 0.419412 0.705122
O O2 0.875792 0.277644 0.689157
O O3 0.790970 0.327093 0.797111
O O4 0.000000 0.392736 0.750000
O O5 0.662020 0.982344 0.500000
O O6 0.679198 0.880899 0.412214
O O7 0.500000 0.000000 0.413695
O O8 0.762535 0.055353 0.412359
O O9 0.500000 0.500000 0.179059
O O10 0.260628 0.546825 0.133942
O O11 0.385219 0.396066 0.108007
O O12 0.203769 0.715093 0.416899
O O13 0.031353 0.832409 0.394579
O O14 0.953620 0.663891 0.383042
O O15 0.294875 0.708228 0.098530
O O16 0.367013 0.663097 0.500000
O O17 0.465133 0.764877 0.422542
O O18 0.648247 0.781975 0.500000
O O19 0.093578 0.116281 0.000000
O O20 0.000000 0.000000 0.930776
#
# Coordination Sequence:
#
# PCOD9392975 Si02
#       8
#     8   8   8   8   8   8   8   8
#     4   9  22  40  60  81 110 147 190 241 287 330
#     4   9  17  30  52  78 105 141 181 222 271 331
#     4  11  22  39  60  88 113 148 198 241 291 338
#     4  10  21  37  56  81 112 152 191 234 291 340
#     4  11  22  37  57  81 112 144 189 240 285 339
#     4  10  21  37  56  81 119 156 187 231 285 352
#     4  10  20  35  55  83 115 147 181 226 289 346
#     4  10  19  32  54  85 117 145 185 237 283 342
#
# _framework density 18.438960000000002
#
# number of rings (size 3 to 8) (size 9 to 14) (size 15 to 20)
#    0.000    2.000    1.250    2.250    0.000   11.750 
#    0.000    0.625    0.000    8.625    0.000    0.875 
#    0.000    0.000    0.000    0.000    0.000    0.000 
#
# Total GULP energy -356897.015655 kJ/mol
# GULP energy per Si atom -5576.515870 kJ/mol
# Density = 1.839699 g / cm^3
# Si number density = 18.438960 Si / 1000 Ang^3
#
#
#
# Elastic Constant Matrix: (Units=GPa)
#
#
# Indices 1 2 3 4 5 6 
#
# 1 76.4693 9.9193 15.7375 0.0000 0.0000 0.0000
# 2 9.9193 76.1959 25.4855 0.0000 0.0000 0.0000
# 3 15.7375 25.4855 43.5195 0.0000 0.0000 0.0000
# 4 0.0000 0.0000 0.0000 15.6135 0.0000 0.0000
# 5 0.0000 0.0000 0.0000 0.0000 26.5583 0.0000
# 6 0.0000 0.0000 0.0000 0.0000 0.0000 24.7542
#
#
#
# Elastic Compliance Matrix: (Units=1/GPa)
#
#
# Indices 1 2 3 4 5 6 
#
# 1 0.014130 -0.000162 -0.005015 0.000000 0.000000 0.000000
# 2 -0.000162 0.016323 -0.009500 0.000000 0.000000 0.000000
# 3 -0.005015 -0.009500 0.030355 0.000000 0.000000 0.000000
# 4 0.000000 0.000000 0.000000 0.064047 0.000000 0.000000
# 5 0.000000 0.000000 0.000000 0.000000 0.037653 0.000000
# 6 0.000000 0.000000 0.000000 0.000000 0.000000 0.040397
#
#
# Mechanical properties :
#
#
# Convention : Reuss Voigt Hill
#
# Bulk Modulus (GPa) = 31.79265 33.16323 32.47794
# Shear Modulus (GPa) = 20.59783 23.05469 21.82626
#
# Velocity S-wave (km/s) = 3.34590 3.53983 3.44423
# Velocity P-wave (km/s) = 5.67506 5.89336 5.78524
#
# Compressibility (1/GPa) = 0.03145381
#
# Stress axis : x y z
#
# Youngs Moduli (GPa) = 70.77023 61.26432 32.94351
#
# Poissons Ratio (x) = 0.00994 0.16520
# Poissons Ratio (y) = 0.01148 0.31297
# Poissons Ratio (z) = 0.35490 0.58202
#
# Static dielectric constant tensor:
#      x y z
#    x 1.695190 0.000000 0.000000 
#    y 0.000000 1.648620 0.000000 
#    z 0.000000 0.000000 1.610660 
# 
# From -- ./inp_files/22535.got.cif
#   From: 2010.05.17/outbox.cif.g08.bks.cpg/sg49_12_cif.got.tgz:22535.got - 2010.06.03 21:02:19.
