data_PCOD9392324
_publ_section_title
;
Structure prediction by ZEFSAII (Michael W. Deem and Ramdas Pophale) SiO2 
 PCOD9392324
Probable space group: P C C M
;
_chemical_formula_sum "Si O2"
_cell_formula_units_Z 64
_cell_length_a 24.258946
_cell_length_b 19.705002
_cell_length_c 8.628776
_cell_angle_alpha 90.000000
_cell_angle_beta 90.000000
_cell_angle_gamma 90.000000
_cell_volume 4124.749761
_symmetry_space_group_name_H-M "P C C M"
_symmetry_group_IT_number 49
_symmetry_cell_setting 'orthorhombic'
loop_
_space_group_symop_operation_xyz
x,y,z
-x,-y,z
x,-y,1/2-z
-x,y,1/2-z
-x,-y,-z
x,y,-z
-x,y,1/2+z
x,-y,1/2+z
loop_
_atom_site_type_symbol
_atom_site_label
_atom_site_fract_x
_atom_site_fract_y
_atom_site_fract_z
Si Si1 0.439475 0.788402 0.686821
Si Si2 0.060464 0.574975 0.315048
Si Si3 0.334455 0.294072 0.186710
Si Si4 0.836441 0.652369 0.686320
Si Si5 0.381572 0.928197 0.686265
Si Si6 0.742928 0.071498 0.185938
Si Si7 0.771679 0.782741 0.313419
Si Si8 0.730008 0.574590 0.813839
O O1 0.500000 0.775444 0.750000
O O2 0.441223 0.787153 0.500000
O O3 0.393439 0.734013 0.738900
O O4 0.417536 0.863196 0.733024
O O5 0.074413 0.500000 0.250000
O O6 0.058565 0.571756 0.500000
O O7 0.106943 0.626729 0.258788
O O8 0.000000 0.592295 0.250000
O O9 0.286047 0.246200 0.250602
O O10 0.317129 0.370577 0.229139
O O11 0.333027 0.289551 0.000000
O O12 0.839647 0.648873 0.500000
O O13 0.818242 0.728612 0.733768
O O14 0.786890 0.603867 0.744034
O O15 0.378769 0.930796 0.500000
O O16 0.319521 0.920354 0.751131
O O17 0.403157 0.000000 0.750000
O O18 0.776302 0.138812 0.233710
O O19 0.764299 0.000000 0.250000
O O20 0.740609 0.068065 0.000000
O O21 0.769304 0.781031 0.500000
O O22 0.719171 0.500000 0.750000
O O23 0.734839 0.572834 0.000000
#
# Coordination Sequence:
#
# PCOD9392324 Si02
#       8
#     8   8   8   8   8   8   8   8
#     4  10  21  34  48  65  85 112 146 185 226 272
#     4  11  21  34  50  70  97 134 172 203 234 269
#     4   9  18  33  49  65  88 115 145 181 227 277
#     4  10  19  32  48  70  99 128 160 197 231 269
#     4  10  19  31  46  64  87 115 147 183 222 266
#     4  10  18  28  44  67  92 122 154 185 225 273
#     4   9  18  30  47  69  93 121 154 191 231 272
#     4  10  19  31  49  71  94 119 147 185 229 276
#
# _framework density 15.516092
#
# number of rings (size 3 to 8) (size 9 to 14) (size 15 to 20)
#    0.000    2.125    1.250    4.125    0.000    3.250 
#    0.000    1.250    0.000    0.375    0.000    2.625 
#    0.000    0.500    0.000    5.750    0.000    1.750 
#
# Total GULP energy -356972.523206 kJ/mol
# GULP energy per Si atom -5577.695675 kJ/mol
# Density = 1.548078 g / cm^3
# Si number density = 15.516092 Si / 1000 Ang^3
#
#
#
# Elastic Constant Matrix: (Units=GPa)
#
#
# Indices 1 2 3 4 5 6 
#
# 1 98.9894 73.5171 31.5767 0.0000 0.0000 0.0000
# 2 73.5171 149.2353 38.9352 0.0000 0.0000 0.0000
# 3 31.5767 38.9352 52.2231 0.0000 0.0000 0.0000
# 4 0.0000 0.0000 0.0000 19.9258 0.0000 0.0000
# 5 0.0000 0.0000 0.0000 0.0000 20.2487 0.0000
# 6 0.0000 0.0000 0.0000 0.0000 0.0000 25.0419
#
#
#
# Elastic Compliance Matrix: (Units=1/GPa)
#
#
# Indices 1 2 3 4 5 6 
#
# 1 0.016915 -0.007032 -0.004985 0.000000 0.000000 0.000000
# 2 -0.007032 0.011243 -0.004130 0.000000 0.000000 0.000000
# 3 -0.004985 -0.004130 0.025242 0.000000 0.000000 0.000000
# 4 0.000000 0.000000 0.000000 0.050186 0.000000 0.000000
# 5 0.000000 0.000000 0.000000 0.000000 0.049386 0.000000
# 6 0.000000 0.000000 0.000000 0.000000 0.000000 0.039933
#
#
# Mechanical properties :
#
#
# Convention : Reuss Voigt Hill
#
# Bulk Modulus (GPa) = 47.38105 65.38955 56.38530
# Shear Modulus (GPa) = 21.53013 23.47121 22.50067
#
# Velocity S-wave (km/s) = 3.72909 3.89357 3.81222
# Velocity P-wave (km/s) = 7.01031 7.90238 7.46968
#
# Compressibility (1/GPa) = 0.02110548
#
# Stress axis : x y z
#
# Youngs Moduli (GPa) = 59.11993 88.94789 39.61698
#
# Poissons Ratio (x) = 0.62549 0.19748
# Poissons Ratio (y) = 0.41574 0.16362
# Poissons Ratio (z) = 0.29469 0.36735
#
# Static dielectric constant tensor:
#      x y z
#    x 1.488560 0.000000 0.000000 
#    y 0.000000 1.542700 0.000000 
#    z 0.000000 0.000000 1.527420 
# 
# From -- ./inp_files/6649.got.cif
#   From: 2010.05.17/outbox.cif.g08.bks.cpg/sg49_4_cif.got.tgz:6649.got - 2010.06.03 21:02:19.
