data_PCOD9392996
_publ_section_title
;
Structure prediction by ZEFSAII (Michael W. Deem and Ramdas Pophale) SiO2 
 PCOD9392996
Probable space group: P C C M
;
_chemical_formula_sum "Si O2"
_cell_formula_units_Z 64
_cell_length_a 23.083981
_cell_length_b 19.171177
_cell_length_c 8.715132
_cell_angle_alpha 90.000000
_cell_angle_beta 90.000000
_cell_angle_gamma 90.000000
_cell_volume 3856.856267
_symmetry_space_group_name_H-M "P C C M"
_symmetry_group_IT_number 49
_symmetry_cell_setting 'orthorhombic'
loop_
_space_group_symop_operation_xyz
x,y,z
-x,-y,z
x,-y,1/2-z
-x,y,1/2-z
-x,-y,-z
x,y,-z
-x,y,1/2+z
x,-y,1/2+z
loop_
_atom_site_type_symbol
_atom_site_label
_atom_site_fract_x
_atom_site_fract_y
_atom_site_fract_z
Si Si1 0.236476 0.290955 0.819770
Si Si2 0.759429 0.924960 0.178402
Si Si3 0.338818 0.176479 0.828330
Si Si4 0.555878 0.768091 0.323217
Si Si5 0.691332 0.574248 0.186008
Si Si6 0.846832 0.817652 0.320015
Si Si7 0.064911 0.074343 0.816255
Si Si8 0.561345 0.385349 0.317151
O O1 0.289215 0.235336 0.810839
O O2 0.265649 0.363138 0.763629
O O3 0.180718 0.255515 0.739374
O O4 0.222250 0.298617 0.000000
O O5 0.694268 0.896273 0.179834
O O6 0.796244 0.872714 0.281877
O O7 0.764044 0.000000 0.250000
O O8 0.779578 0.921607 0.000000
O O9 0.387300 0.187244 0.703414
O O10 0.363833 0.185696 0.000000
O O11 0.500000 0.803746 0.250000
O O12 0.546248 0.751467 0.500000
O O13 0.563867 0.695710 0.231639
O O14 0.710786 0.500000 0.250000
O O15 0.623789 0.584958 0.235517
O O16 0.691164 0.575061 0.000000
O O17 0.858797 0.812982 0.500000
O O18 0.900184 0.856640 0.236024
O O19 0.000000 0.079181 0.750000
O O20 0.089224 0.000000 0.750000
O O21 0.064226 0.069466 0.000000
O O22 0.500000 0.412898 0.250000
O O23 0.558567 0.392200 0.500000
#
# Coordination Sequence:
#
# PCOD9392996 Si02
#       8
#     8   8   8   8   8   8   8   8
#     4   9  18  35  52  69  96 129 163 205 252 296
#     4  10  20  33  49  70  97 127 158 198 243 288
#     4   9  17  32  50  66  90 118 149 190 242 290
#     4  11  20  29  46  68  88 112 147 190 235 288
#     4  10  21  35  51  69  97 130 163 203 254 308
#     4  11  21  33  51  76 103 135 175 214 247 288
#     4  11  21  35  53  77 111 150 186 219 253 292
#     4  10  19  33  48  66  91 122 156 198 244 299
#
# _framework density 16.593826
#
# number of rings (size 3 to 8) (size 9 to 14) (size 15 to 20)
#    0.000    1.875    1.250    6.375    0.000    4.250 
#    0.000    1.250    0.000    0.375    0.000    2.625 
#    0.000    0.500    0.000    5.250    0.000    2.875 
#
# Total GULP energy -356719.012737 kJ/mol
# GULP energy per Si atom -5573.734574 kJ/mol
# Density = 1.655606 g / cm^3
# Si number density = 16.593826 Si / 1000 Ang^3
#
#
#
# Elastic Constant Matrix: (Units=GPa)
#
#
# Indices 1 2 3 4 5 6 
#
# 1 66.3164 40.1262 30.6286 0.0000 0.0000 0.0000
# 2 40.1262 80.1737 21.3006 0.0000 0.0000 0.0000
# 3 30.6286 21.3006 76.0360 0.0000 0.0000 0.0000
# 4 0.0000 0.0000 0.0000 21.8907 0.0000 0.0000
# 5 0.0000 0.0000 0.0000 0.0000 22.7866 0.0000
# 6 0.0000 0.0000 0.0000 0.0000 0.0000 -18.9617
#
#
#
# Elastic Compliance Matrix: (Units=1/GPa)
#
#
# Indices 1 2 3 4 5 6 
#
# 1 0.024650 -0.010479 -0.006994 0.000000 0.000000 0.000000
# 2 -0.010479 0.017931 -0.000802 0.000000 0.000000 0.000000
# 3 -0.006994 -0.000802 0.016194 0.000000 0.000000 0.000000
# 4 0.000000 0.000000 0.000000 0.045681 0.000000 0.000000
# 5 0.000000 0.000000 0.000000 0.000000 0.043885 0.000000
# 6 0.000000 0.000000 0.000000 0.000000 0.000000 -0.052738
#
#
# Mechanical properties :
#
#
# Convention : Reuss Voigt Hill
#
# Bulk Modulus (GPa) = 44.99520 45.18187 45.08853
# Shear Modulus (GPa) = 35.82675 13.84118 24.83397
#
# Velocity S-wave (km/s) = 4.65159 2.89124 3.87276
# Velocity P-wave (km/s) = 7.48493 6.19943 6.87230
#
# Compressibility (1/GPa) = 0.02222459
#
# Stress axis : x y z
#
# Youngs Moduli (GPa) = 40.56820 55.77066 61.75299
#
# Poissons Ratio (x) = 0.58441 0.43189
# Poissons Ratio (y) = 0.42511 0.04952
# Poissons Ratio (z) = 0.28373 0.04473
#
# Static dielectric constant tensor:
#      x y z
#    x 1.596360 0.000000 0.000000 
#    y 0.000000 1.579070 0.000000 
#    z 0.000000 0.000000 1.574500 
# 
# From -- ./inp_files/6620.got.cif
#   From: 2010.05.17/outbox.cif.g08.bks.cpg/sg49_4_cif.got.tgz:6620.got - 2010.06.03 21:02:19.
