data_PCOD9392513
_publ_section_title
;
Structure prediction by ZEFSAII (Michael W. Deem and Ramdas Pophale) SiO2 
 PCOD9392513
Probable space group: P C C M
;
_chemical_formula_sum "Si O2"
_cell_formula_units_Z 64
_cell_length_a 25.559432
_cell_length_b 15.641854
_cell_length_c 8.710627
_cell_angle_alpha 90.000000
_cell_angle_beta 90.000000
_cell_angle_gamma 90.000000
_cell_volume 3482.481704
_symmetry_space_group_name_H-M "P C C M"
_symmetry_group_IT_number 49
_symmetry_cell_setting 'orthorhombic'
loop_
_space_group_symop_operation_xyz
x,y,z
-x,-y,z
x,-y,1/2-z
-x,y,1/2-z
-x,-y,-z
x,y,-z
-x,y,1/2+z
x,-y,1/2+z
loop_
_atom_site_type_symbol
_atom_site_label
_atom_site_fract_x
_atom_site_fract_y
_atom_site_fract_z
Si Si1 0.147603 0.723381 0.184212
Si Si2 0.942149 0.593131 0.685467
Si Si3 0.825055 0.911978 0.315882
Si Si4 0.742731 0.324532 0.678303
Si Si5 0.599896 0.910596 0.682429
Si Si6 0.360822 0.409213 0.814424
Si Si7 0.443892 0.264358 0.815596
Si Si8 0.287815 0.127176 0.178706
O O1 0.099082 0.665516 0.235039
O O2 0.148014 0.822837 0.235637
O O3 0.202432 0.681933 0.235716
O O4 0.146727 0.725074 0.000000
O O5 0.926509 0.500000 0.750000
O O6 0.943932 0.589444 0.500000
O O7 0.000000 0.611053 0.750000
O O8 0.825008 0.915301 0.500000
O O9 0.765497 0.905126 0.255258
O O10 0.847940 0.000000 0.250000
O O11 0.753455 0.344480 0.500000
O O12 0.698191 0.387624 0.739500
O O13 0.716733 0.230144 0.682515
O O14 0.595812 0.910637 0.500000
O O15 0.570878 0.828645 0.751625
O O16 0.660532 0.901507 0.733626
O O17 0.579820 0.000000 0.750000
O O18 0.377985 0.500000 0.750000
O O19 0.399903 0.333168 0.769061
O O20 0.359704 0.411065 0.000000
O O21 0.500000 0.290154 0.750000
O O22 0.445172 0.260680 0.000000
O O23 0.290580 0.100536 0.000000
#
# Coordination Sequence:
#
# PCOD9392513 Si02
#       8
#     8   8   8   8   8   8   8   8
#     4   9  20  35  53  80 114 149 187 231 276 331
#     4  10  20  36  57  82 111 145 187 235 284 332
#     4  10  19  32  49  76 111 149 190 230 275 326
#     4   9  18  34  55  80 113 150 184 224 274 327
#     4  12  24  38  59  86 113 147 185 226 279 335
#     4  10  22  40  61  86 116 147 183 229 277 333
#     4  11  24  45  65  85 113 143 184 234 282 333
#     4  10  18  33  54  78 111 148 186 228 273 325
#
# _framework density 18.377697999999999
#
# number of rings (size 3 to 8) (size 9 to 14) (size 15 to 20)
#    0.000    1.875    1.250    3.375    0.000    4.500 
#    0.000    5.000    0.000    0.375    0.000    2.625 
#    0.000    0.000    0.000    0.000    0.000    0.000 
#
# Total GULP energy -357391.198253 kJ/mol
# GULP energy per Si atom -5584.237473 kJ/mol
# Density = 1.833587 g / cm^3
# Si number density = 18.377698 Si / 1000 Ang^3
#
#
#
# Elastic Constant Matrix: (Units=GPa)
#
#
# Indices 1 2 3 4 5 6 
#
# 1 85.6803 65.4313 22.3805 0.0000 0.0000 0.0000
# 2 65.4313 120.7381 34.1916 0.0000 0.0000 0.0000
# 3 22.3805 34.1916 58.7959 0.0000 0.0000 0.0000
# 4 0.0000 0.0000 0.0000 20.6239 0.0000 0.0000
# 5 0.0000 0.0000 0.0000 0.0000 21.4301 0.0000
# 6 0.0000 0.0000 0.0000 0.0000 0.0000 -21.0009
#
#
#
# Elastic Compliance Matrix: (Units=1/GPa)
#
#
# Indices 1 2 3 4 5 6 
#
# 1 0.020032 -0.010411 -0.001571 0.000000 0.000000 0.000000
# 2 -0.010411 0.015326 -0.004950 0.000000 0.000000 0.000000
# 3 -0.001571 -0.004950 0.020484 0.000000 0.000000 0.000000
# 4 0.000000 0.000000 0.000000 0.048487 0.000000 0.000000
# 5 0.000000 0.000000 0.000000 0.000000 0.046663 0.000000
# 6 0.000000 0.000000 0.000000 0.000000 0.000000 -0.047617
#
#
# Mechanical properties :
#
#
# Convention : Reuss Voigt Hill
#
# Bulk Modulus (GPa) = 45.49705 56.58013 51.03859
# Shear Modulus (GPa) = 34.58618 13.75801 24.17209
#
# Velocity S-wave (km/s) = 4.34287 2.73907 3.63063
# Velocity P-wave (km/s) = 7.06808 6.39199 6.73852
#
# Compressibility (1/GPa) = 0.02197945
#
# Stress axis : x y z
#
# Youngs Moduli (GPa) = 49.91932 65.24778 48.81790
#
# Poissons Ratio (x) = 0.67931 0.07668
# Poissons Ratio (y) = 0.51972 0.24163
# Poissons Ratio (z) = 0.07841 0.32295
#
# Static dielectric constant tensor:
#      x y z
#    x 1.615190 0.000000 0.000000 
#    y 0.000000 1.660800 0.000000 
#    z 0.000000 0.000000 1.620370 
# 
# From -- ./inp_files/6555.got.cif
#   From: 2010.05.17/outbox.cif.g08.bks.cpg/sg49_4_cif.got.tgz:6555.got - 2010.06.03 21:02:19.
