data_PCOD9392126
_publ_section_title
;
Structure prediction by ZEFSAII (Michael W. Deem and Ramdas Pophale) SiO2 
 PCOD9392126
Probable space group: P C C M
;
_chemical_formula_sum "Si O2"
_cell_formula_units_Z 40
_cell_length_a 14.082142
_cell_length_b 20.216812
_cell_length_c 8.903482
_cell_angle_alpha 90.000000
_cell_angle_beta 90.000000
_cell_angle_gamma 90.000000
_cell_volume 2534.785866
_symmetry_space_group_name_H-M "P C C M"
_symmetry_group_IT_number 49
_symmetry_cell_setting 'orthorhombic'
loop_
_space_group_symop_operation_xyz
x,y,z
-x,-y,z
x,-y,1/2-z
-x,y,1/2-z
-x,-y,-z
x,y,-z
-x,y,1/2+z
x,-y,1/2+z
loop_
_atom_site_type_symbol
_atom_site_label
_atom_site_fract_x
_atom_site_fract_y
_atom_site_fract_z
Si Si1 0.601224 0.062994 0.672799
Si Si2 0.395059 0.702760 0.178226
Si Si3 0.897287 0.070776 0.178469
Si Si4 0.722953 0.165741 0.825740
Si Si5 0.393701 0.433641 0.180427
O O1 0.500000 0.071157 0.750000
O O2 0.589237 0.049787 0.500000
O O3 0.660032 0.127068 0.706866
O O4 0.648892 0.000000 0.750000
O O5 0.500000 0.720168 0.250000
O O6 0.314022 0.759201 0.189960
O O7 0.357240 0.636773 0.260420
O O8 0.411387 0.690440 0.000000
O O9 0.827017 0.133740 0.199780
O O10 0.000000 0.084694 0.250000
O O11 0.865632 0.000000 0.250000
O O12 0.905883 0.060423 0.000000
O O13 0.698891 0.147435 0.000000
O O14 0.347750 0.500000 0.250000
O O15 0.500000 0.432961 0.250000
O O16 0.396188 0.437067 0.000000
#
# Coordination Sequence:
#
# PCOD9392126 Si02
#       5
#     8   8   8   8   8
#     4  11  21  32  46  62  85 116 152 188 223 264
#     4  10  19  31  45  65  94 126 157 190 225 266
#     4  10  20  35  53  72  91 115 148 191 238 284
#     4  10  21  34  48  67  92 119 150 187 231 277
#     4  10  17  27  43  63  88 121 159 194 225 260
#
# _framework density 15.780426
#
# number of rings (size 3 to 8) (size 9 to 14) (size 15 to 20)
#    0.000    1.800    0.000    9.000    0.000    6.400 
#    0.000    0.000    0.000    0.000    0.000    0.000 
#    0.000    0.800    0.000    9.200    0.000    2.800 
#
# Total GULP energy -222675.077149 kJ/mol
# GULP energy per Si atom -5566.876929 kJ/mol
# Density = 1.574451 g / cm^3
# Si number density = 15.780426 Si / 1000 Ang^3
#
#
#
# Elastic Constant Matrix: (Units=GPa)
#
#
# Indices 1 2 3 4 5 6 
#
# 1 69.9448 41.0857 39.9484 0.0000 0.0000 0.0000
# 2 41.0857 108.3856 63.6339 0.0000 0.0000 0.0000
# 3 39.9484 63.6339 140.6943 0.0000 0.0000 0.0000
# 4 0.0000 0.0000 0.0000 24.2463 0.0000 0.0000
# 5 0.0000 0.0000 0.0000 0.0000 13.6694 0.0000
# 6 0.0000 0.0000 0.0000 0.0000 0.0000 17.2766
#
#
#
# Elastic Compliance Matrix: (Units=1/GPa)
#
#
# Indices 1 2 3 4 5 6 
#
# 1 0.019251 -0.005566 -0.002948 0.000000 0.000000 0.000000
# 2 -0.005566 0.014172 -0.004829 0.000000 0.000000 0.000000
# 3 -0.002948 -0.004829 0.010129 0.000000 0.000000 0.000000
# 4 0.000000 0.000000 0.000000 0.041243 0.000000 0.000000
# 5 0.000000 0.000000 0.000000 0.000000 0.073156 0.000000
# 6 0.000000 0.000000 0.000000 0.000000 0.000000 0.057882
#
#
# Mechanical properties :
#
#
# Convention : Reuss Voigt Hill
#
# Bulk Modulus (GPa) = 59.29991 67.59563 63.44777
# Shear Modulus (GPa) = 20.14986 22.66225 21.40606
#
# Velocity S-wave (km/s) = 3.57724 3.79370 3.68706
# Velocity P-wave (km/s) = 7.39742 7.88148 7.64328
#
# Compressibility (1/GPa) = 0.01686343
#
# Stress axis : x y z
#
# Youngs Moduli (GPa) = 51.94646 70.56406 98.72738
#
# Poissons Ratio (x) = 0.39278 0.29109
# Poissons Ratio (y) = 0.28915 0.47676
# Poissons Ratio (z) = 0.15316 0.34076
#
# Static dielectric constant tensor:
#      x y z
#    x 1.530730 0.000000 0.000000 
#    y 0.000000 1.629500 0.000000 
#    z 0.000000 0.000000 1.538760 
# 
# From -- ./inp_files/3803.got.cif
#   From: 2010.05.17/outbox.cif.g08.bks.cpg/sg49_2_cif.got.tgz:3803.got - 2010.06.03 21:02:19.
