data_PCOD9392099
_publ_section_title
;
Structure prediction by ZEFSAII (Michael W. Deem and Ramdas Pophale) SiO2 
 PCOD9392099
Probable space group: P C C M
;
_chemical_formula_sum "Si O2"
_cell_formula_units_Z 64
_cell_length_a 27.073847
_cell_length_b 18.920296
_cell_length_c 8.691911
_cell_angle_alpha 90.000000
_cell_angle_beta 90.000000
_cell_angle_gamma 90.000000
_cell_volume 4452.389681
_symmetry_space_group_name_H-M "P C C M"
_symmetry_group_IT_number 49
_symmetry_cell_setting 'orthorhombic'
loop_
_space_group_symop_operation_xyz
x,y,z
-x,-y,z
x,-y,1/2-z
-x,y,1/2-z
-x,-y,-z
x,y,-z
-x,y,1/2+z
x,-y,1/2+z
loop_
_atom_site_type_symbol
_atom_site_label
_atom_site_fract_x
_atom_site_fract_y
_atom_site_fract_z
Si Si1 0.899758 0.290870 0.817564
Si Si2 0.195135 0.787089 0.316883
Si Si3 0.844945 0.078038 0.814849
Si Si4 0.449449 0.419832 0.183822
Si Si5 0.948485 0.848726 0.684961
Si Si6 0.747361 0.652113 0.183244
Si Si7 0.148393 0.577927 0.316542
Si Si8 0.652545 0.579008 0.682517
O O1 0.849066 0.250269 0.776164
O O2 0.939949 0.233105 0.764548
O O3 0.893092 0.366863 0.740384
O O4 0.904146 0.299927 0.000000
O O5 0.184225 0.784926 0.500000
O O6 0.194161 0.866812 0.257065
O O7 0.241334 0.735160 0.291952
O O8 0.899897 0.106682 0.769719
O O9 0.838251 0.000000 0.750000
O O10 0.841927 0.079307 0.000000
O O11 0.448553 0.500000 0.250000
O O12 0.500000 0.387117 0.250000
O O13 0.397483 0.389633 0.242803
O O14 0.451139 0.421865 0.000000
O O15 0.950189 0.849236 0.500000
O O16 0.000000 0.875974 0.750000
O O17 0.797484 0.609500 0.227432
O O18 0.700549 0.623623 0.273525
O O19 0.739956 0.640906 0.000000
O O20 0.142343 0.500000 0.250000
O O21 0.147209 0.575805 0.500000
O O22 0.659712 0.500000 0.750000
O O23 0.646147 0.573822 0.500000
#
# Coordination Sequence:
#
# PCOD9392099 Si02
#       8
#     8   8   8   8   8   8   8   8
#     4   9  17  30  45  62  83 106 134 164 196 239
#     4   9  17  30  47  64  83 109 138 166 199 240
#     4  10  20  33  48  68  91 113 138 165 195 231
#     4  10  17  27  40  53  72  99 136 179 221 262
#     4   9  19  32  47  66  86 109 134 162 196 236
#     4   9  18  30  42  59  82 107 136 168 206 249
#     4  10  19  29  43  62  82 106 134 167 208 249
#     4  11  20  28  39  56  79 108 142 180 222 258
#
# _framework density 14.374304
#
# number of rings (size 3 to 8) (size 9 to 14) (size 15 to 20)
#    0.000    2.375    0.000    6.750    0.000    7.250 
#    0.000    1.250    0.000    0.375    0.000    2.625 
#    0.000    0.000    0.000    0.000    0.000    0.625 
#
# Total GULP energy -356531.133864 kJ/mol
# GULP energy per Si atom -5570.798967 kJ/mol
# Density = 1.434159 g / cm^3
# Si number density = 14.374304 Si / 1000 Ang^3
#
#
#
# Elastic Constant Matrix: (Units=GPa)
#
#
# Indices 1 2 3 4 5 6 
#
# 1 35.6620 13.9185 15.0406 0.0000 0.0000 0.0000
# 2 13.9185 90.1435 20.3460 0.0000 0.0000 0.0000
# 3 15.0406 20.3460 56.0498 0.0000 0.0000 0.0000
# 4 0.0000 0.0000 0.0000 287.4280 0.0000 0.0000
# 5 0.0000 0.0000 0.0000 0.0000 21.6961 0.0000
# 6 0.0000 0.0000 0.0000 0.0000 0.0000 9.1100
#
#
#
# Elastic Compliance Matrix: (Units=1/GPa)
#
#
# Indices 1 2 3 4 5 6 
#
# 1 0.032508 -0.003323 -0.007517 0.000000 0.000000 0.000000
# 2 -0.003323 0.012423 -0.003618 0.000000 0.000000 0.000000
# 3 -0.007517 -0.003618 0.021172 0.000000 0.000000 0.000000
# 4 0.000000 0.000000 0.000000 0.003479 0.000000 0.000000
# 5 0.000000 0.000000 0.000000 0.000000 0.046091 0.000000
# 6 0.000000 0.000000 0.000000 0.000000 0.000000 0.109770
#
#
# Mechanical properties :
#
#
# Convention : Reuss Voigt Hill
#
# Bulk Modulus (GPa) = 26.89085 31.16283 29.02684
# Shear Modulus (GPa) = 18.74378 72.48349 45.61364
#
# Velocity S-wave (km/s) = 3.61498 7.10881 5.63930
# Velocity P-wave (km/s) = 6.01434 9.43964 7.91452
#
# Compressibility (1/GPa) = 0.03718738
#
# Stress axis : x y z
#
# Youngs Moduli (GPa) = 30.76135 80.49548 47.23268
#
# Poissons Ratio (x) = 0.26746 0.35506
# Poissons Ratio (y) = 0.10221 0.17088
# Poissons Ratio (z) = 0.23124 0.29123
#
# Static dielectric constant tensor:
#      x y z
#    x 1.486270 0.000000 0.000000 
#    y 0.000000 1.488750 0.000000 
#    z 0.000000 0.000000 1.481660 
# 
# From -- ./inp_files/6797.got.cif
#   From: 2010.05.17/outbox.cif.g08.bks.cpg/sg49_4_cif.got.tgz:6797.got - 2010.06.03 21:02:19.
