data_PCOD9392285
_publ_section_title
;
Structure prediction by ZEFSAII (Michael W. Deem and Ramdas Pophale) SiO2 
 PCOD9392285
Probable space group: P C C M
;
_chemical_formula_sum "Si O2"
_cell_formula_units_Z 48
_cell_length_a 9.062633
_cell_length_b 14.759215
_cell_length_c 19.367354
_cell_angle_alpha 90.000000
_cell_angle_beta 90.000000
_cell_angle_gamma 90.000000
_cell_volume 2590.525927
_symmetry_space_group_name_H-M "P C C M"
_symmetry_group_IT_number 49
_symmetry_cell_setting 'orthorhombic'
loop_
_space_group_symop_operation_xyz
x,y,z
-x,-y,z
x,-y,1/2-z
-x,y,1/2-z
-x,-y,-z
x,y,-z
-x,y,1/2+z
x,-y,1/2+z
loop_
_atom_site_type_symbol
_atom_site_label
_atom_site_fract_x
_atom_site_fract_y
_atom_site_fract_z
Si Si1 0.549223 0.102410 0.671459
Si Si2 0.121176 0.737804 0.845409
Si Si3 0.582971 0.614300 0.823926
Si Si4 0.839511 0.524303 0.330473
Si Si5 0.404809 0.743351 0.080044
Si Si6 0.196113 0.216356 0.806861
O O1 0.500000 0.126584 0.750000
O O2 0.477629 0.170594 0.617283
O O3 0.722604 0.125459 0.669396
O O4 0.500000 0.000000 0.659332
O O5 0.156074 0.632217 0.832935
O O6 0.230726 0.758752 0.907377
O O7 0.163087 0.789357 0.774670
O O8 0.948259 0.757544 0.850348
O O9 0.500000 0.597706 0.750000
O O10 0.689841 0.531774 0.849891
O O11 0.467456 0.654855 0.879384
O O12 0.693026 0.698856 0.812689
O O13 0.848238 0.500000 0.250000
O O14 0.000000 0.500000 0.363569
O O15 0.440645 0.736664 0.000000
#
# Coordination Sequence:
#
# PCOD9392285 Si02
#       6
#     8   8   8   8   8   8
#     4  10  20  39  66  93 116 142 192 254 306 363
#     4  11  19  33  55  86 121 157 195 243 301 357
#     4  11  19  35  56  88 118 155 209 256 298 343
#     4  11  18  30  53  89 119 154 203 261 300 339
#     4  11  23  39  57  84 122 161 199 244 306 364
#     4  10  17  34  59  84 118 145 195 245 303 360
#
# _framework density 18.529056000000001
#
# number of rings (size 3 to 8) (size 9 to 14) (size 15 to 20)
#    0.000    1.333    6.667    2.000    0.000    2.667 
#    0.000    5.833    0.000    2.000    0.000    0.000 
#    0.000    0.000    0.000    0.000    0.000    0.000 
#
# Total GULP energy -267319.323132 kJ/mol
# GULP energy per Si atom -5569.152565 kJ/mol
# Density = 1.848688 g / cm^3
# Si number density = 18.529056 Si / 1000 Ang^3
#
#
#
# Elastic Constant Matrix: (Units=GPa)
#
#
# Indices 1 2 3 4 5 6 
#
# 1 144.5313 58.0302 35.9350 0.0000 0.0000 0.0000
# 2 58.0302 111.6181 38.0979 0.0000 0.0000 0.0000
# 3 35.9350 38.0979 90.0869 0.0000 0.0000 0.0000
# 4 0.0000 0.0000 0.0000 10.2189 0.0000 0.0000
# 5 0.0000 0.0000 0.0000 0.0000 13.8586 0.0000
# 6 0.0000 0.0000 0.0000 0.0000 0.0000 22.0285
#
#
#
# Elastic Compliance Matrix: (Units=1/GPa)
#
#
# Indices 1 2 3 4 5 6 
#
# 1 0.009010 -0.004041 -0.001885 0.000000 0.000000 0.000000
# 2 -0.004041 0.012283 -0.003583 0.000000 0.000000 0.000000
# 3 -0.001885 -0.003583 0.013367 0.000000 0.000000 0.000000
# 4 0.000000 0.000000 0.000000 0.097858 0.000000 0.000000
# 5 0.000000 0.000000 0.000000 0.000000 0.072157 0.000000
# 6 0.000000 0.000000 0.000000 0.000000 0.000000 0.045396
#
#
# Mechanical properties :
#
#
# Convention : Reuss Voigt Hill
#
# Bulk Modulus (GPa) = 63.92578 67.81804 65.87191
# Shear Modulus (GPa) = 18.22802 23.49940 20.86371
#
# Velocity S-wave (km/s) = 3.13989 3.56511 3.35923
# Velocity P-wave (km/s) = 6.90799 7.32305 7.11855
#
# Compressibility (1/GPa) = 0.01564314
#
# Stress axis : x y z
#
# Youngs Moduli (GPa) = 110.98699 81.41484 74.80876
#
# Poissons Ratio (x) = 0.32899 0.14103
# Poissons Ratio (y) = 0.44849 0.26800
# Poissons Ratio (z) = 0.20923 0.29167
#
# Static dielectric constant tensor:
#      x y z
#    x 1.758680 0.000000 0.000000 
#    y 0.000000 1.668250 0.000000 
#    z 0.000000 0.000000 6.071990 
# 
# From -- ./inp_files/19756.got.cif
#   From: 2010.05.17/outbox.cif.g08.bks.cpg/sg49_10_cif.got.tgz:19756.got - 2010.06.03 21:02:19.
