data_PCOD9392007
_publ_section_title
;
Structure prediction by ZEFSAII (Michael W. Deem and Ramdas Pophale) SiO2 
 PCOD9392007
Probable space group: P C C M
;
_chemical_formula_sum "Si O2"
_cell_formula_units_Z 40
_cell_length_a 15.711645
_cell_length_b 21.220933
_cell_length_c 8.637848
_cell_angle_alpha 90.000000
_cell_angle_beta 90.000000
_cell_angle_gamma 90.000000
_cell_volume 2879.994706
_symmetry_space_group_name_H-M "P C C M"
_symmetry_group_IT_number 49
_symmetry_cell_setting 'orthorhombic'
loop_
_space_group_symop_operation_xyz
x,y,z
-x,-y,z
x,-y,1/2-z
-x,y,1/2-z
-x,-y,-z
x,y,-z
-x,y,1/2+z
x,-y,1/2+z
loop_
_atom_site_type_symbol
_atom_site_label
_atom_site_fract_x
_atom_site_fract_y
_atom_site_fract_z
Si Si1 0.903858 0.306614 0.815133
Si Si2 0.096169 0.165781 0.314171
Si Si3 0.096975 0.564776 0.315552
Si Si4 0.587502 0.928324 0.314854
Si Si5 0.765520 0.070936 0.684851
O O1 0.869646 0.236746 0.780004
O O2 0.863371 0.369163 0.741048
O O3 0.000000 0.304117 0.750000
O O4 0.906714 0.314620 0.000000
O O5 0.094110 0.158492 0.500000
O O6 0.156779 0.114157 0.238675
O O7 0.000000 0.160608 0.250000
O O8 0.135935 0.500000 0.250000
O O9 0.093725 0.562578 0.500000
O O10 0.000000 0.565766 0.250000
O O11 0.500000 0.899121 0.250000
O O12 0.585827 0.929544 0.500000
O O13 0.676884 0.901987 0.253621
O O14 0.588296 0.000000 0.250000
O O15 0.759562 0.067860 0.500000
O O16 0.776540 0.000000 0.750000
#
# Coordination Sequence:
#
# PCOD9392007 Si02
#       5
#     8   8   8   8   8
#     4   9  16  26  39  53  71  94 124 159 196 235
#     4  10  20  33  46  60  78 104 137 173 209 245
#     4  10  16  22  33  49  70  92 119 153 192 231
#     4  10  17  28  45  65  86 105 126 154 194 242
#     4  11  21  33  47  63  82 104 133 169 207 246
#
# _framework density 13.888914
#
# number of rings (size 3 to 8) (size 9 to 14) (size 15 to 20)
#    0.000    2.000    0.000   10.200    0.000    2.800 
#    0.000    2.000    0.000    0.000    0.000    0.000 
#    0.000    0.000    0.000    0.000    0.000    1.000 
#
# Total GULP energy -222791.328156 kJ/mol
# GULP energy per Si atom -5569.783204 kJ/mol
# Density = 1.385730 g / cm^3
# Si number density = 13.888914 Si / 1000 Ang^3
#
#
#
# Elastic Constant Matrix: (Units=GPa)
#
#
# Indices 1 2 3 4 5 6 
#
# 1 64.8125 39.6154 34.8409 0.0000 0.0000 0.0000
# 2 39.6154 92.3852 49.9280 0.0000 0.0000 0.0000
# 3 34.8409 49.9280 132.5925 0.0000 0.0000 0.0000
# 4 0.0000 0.0000 0.0000 19.0951 0.0000 0.0000
# 5 0.0000 0.0000 0.0000 0.0000 22.1967 0.0000
# 6 0.0000 0.0000 0.0000 0.0000 0.0000 -0.4799
#
#
#
# Elastic Compliance Matrix: (Units=1/GPa)
#
#
# Indices 1 2 3 4 5 6 
#
# 1 0.021684 -0.007808 -0.002758 0.000000 0.000000 0.000000
# 2 -0.007808 0.016401 -0.004124 0.000000 0.000000 0.000000
# 3 -0.002758 -0.004124 0.009820 0.000000 0.000000 0.000000
# 4 0.000000 0.000000 0.000000 0.052369 0.000000 0.000000
# 5 0.000000 0.000000 0.000000 0.000000 0.045052 0.000000
# 6 0.000000 0.000000 0.000000 0.000000 0.000000 -2.083971
#
#
# Mechanical properties :
#
#
# Convention : Reuss Voigt Hill
#
# Bulk Modulus (GPa) = 53.98120 59.83988 56.91054
# Shear Modulus (GPa) = -2.62731 19.18946 8.28108
#
# Velocity S-wave (km/s) = -1.37687 3.72107 2.44444
# Velocity P-wave (km/s) = 6.03515 7.85111 7.00225
#
# Compressibility (1/GPa) = 0.01852497
#
# Stress axis : x y z
#
# Youngs Moduli (GPa) = 46.11697 60.97115 101.83760
#
# Poissons Ratio (x) = 0.47605 0.28084
# Poissons Ratio (y) = 0.36007 0.42001
# Poissons Ratio (z) = 0.12718 0.25146
#
# Static dielectric constant tensor:
#      x y z
#    x 1.447380 0.000000 0.000000 
#    y 0.000000 1.504730 0.000000 
#    z 0.000000 0.000000 1.460860 
# 
# From -- ./inp_files/3811.got.cif
#   From: 2010.05.17/outbox.cif.g08.bks.cpg/sg49_2_cif.got.tgz:3811.got - 2010.06.03 21:02:19.
