data_PCOD9392304
_publ_section_title
;
Structure prediction by ZEFSAII (Michael W. Deem and Ramdas Pophale) SiO2 
 PCOD9392304
Probable space group: P C C M
;
_chemical_formula_sum "Si O2"
_cell_formula_units_Z 56
_cell_length_a 19.115303
_cell_length_b 22.308961
_cell_length_c 8.194407
_cell_angle_alpha 90.000000
_cell_angle_beta 90.000000
_cell_angle_gamma 90.000000
_cell_volume 3494.443810
_symmetry_space_group_name_H-M "P C C M"
_symmetry_group_IT_number 49
_symmetry_cell_setting 'orthorhombic'
loop_
_space_group_symop_operation_xyz
x,y,z
-x,-y,z
x,-y,1/2-z
-x,y,1/2-z
-x,-y,-z
x,y,-z
-x,y,1/2+z
x,-y,1/2+z
loop_
_atom_site_type_symbol
_atom_site_label
_atom_site_fract_x
_atom_site_fract_y
_atom_site_fract_z
Si Si1 0.794266 0.245041 0.310353
Si Si2 0.579598 0.304777 0.695224
Si Si3 0.833853 0.565591 0.195191
Si Si4 0.713642 0.359271 0.809645
Si Si5 0.339777 0.816495 0.699972
Si Si6 0.079560 0.317675 0.197331
Si Si7 0.580145 0.933924 0.194983
O O1 0.804916 0.229635 0.500000
O O2 0.750359 0.307065 0.297139
O O3 0.739319 0.197024 0.240992
O O4 0.869377 0.264293 0.240488
O O5 0.500000 0.310758 0.750000
O O6 0.583202 0.307322 0.500000
O O7 0.632126 0.354564 0.767352
O O8 0.611164 0.239822 0.747730
O O9 0.856818 0.500000 0.250000
O O10 0.757505 0.581736 0.267199
O O11 0.886183 0.618866 0.250282
O O12 0.829867 0.567481 0.000000
O O13 0.723403 0.345237 0.000000
O O14 0.338213 0.816555 0.500000
O O15 0.372590 0.878965 0.755582
O O16 0.000000 0.312120 0.250000
O O17 0.082629 0.316837 0.000000
O O18 0.500000 0.925359 0.250000
O O19 0.603058 0.000000 0.250000
O O20 0.580877 0.932760 0.000000
#
# Coordination Sequence:
#
# PCOD9392304 Si02
#       7
#     8   8   8   8   8   8   8
#     4   8  15  30  46  62  84 113 144 177 214 256
#     4  10  18  29  44  64  87 111 141 181 222 263
#     4  10  20  34  49  66  86 114 147 179 209 247
#     4  10  18  29  45  65  86 111 140 175 217 261
#     4   8  15  27  44  61  82 112 148 183 217 255
#     4   9  18  30  46  66  92 118 140 168 209 255
#     4  10  18  28  40  57  83 118 152 185 219 256
#
# _framework density 16.025441000000001
#
# number of rings (size 3 to 8) (size 9 to 14) (size 15 to 20)
#    0.000    2.714    0.000    5.143    0.000    3.143 
#    0.000    7.857    0.000    0.429    0.000    3.000 
#    0.000    0.571    0.000    7.143    0.000    0.000 
#
# Total GULP energy -311833.331660 kJ/mol
# GULP energy per Si atom -5568.452351 kJ/mol
# Density = 1.598897 g / cm^3
# Si number density = 16.025441 Si / 1000 Ang^3
#
#
#
# Elastic Constant Matrix: (Units=GPa)
#
#
# Indices 1 2 3 4 5 6 
#
# 1 136.0639 46.0705 10.2289 0.0000 0.0000 0.0000
# 2 46.0705 51.7526 4.9945 0.0000 0.0000 0.0000
# 3 10.2289 4.9945 30.3996 0.0000 0.0000 0.0000
# 4 0.0000 0.0000 0.0000 -89.4943 0.0000 0.0000
# 5 0.0000 0.0000 0.0000 0.0000 22.3467 0.0000
# 6 0.0000 0.0000 0.0000 0.0000 0.0000 21.0886
#
#
#
# Elastic Compliance Matrix: (Units=1/GPa)
#
#
# Indices 1 2 3 4 5 6 
#
# 1 0.010646 -0.009278 -0.002058 0.000000 0.000000 0.000000
# 2 -0.009278 0.027721 -0.001432 0.000000 0.000000 0.000000
# 3 -0.002058 -0.001432 0.033823 0.000000 0.000000 0.000000
# 4 0.000000 0.000000 0.000000 -0.011174 0.000000 0.000000
# 5 0.000000 0.000000 0.000000 0.000000 0.044749 0.000000
# 6 0.000000 0.000000 0.000000 0.000000 0.000000 0.047419
#
#
# Mechanical properties :
#
#
# Convention : Reuss Voigt Hill
#
# Bulk Modulus (GPa) = 21.43513 37.86709 29.65111
# Shear Modulus (GPa) = 25.73719 1.24968 13.49343
#
# Velocity S-wave (km/s) = 4.01187 0.88403 2.90487
# Velocity P-wave (km/s) = 5.90464 4.97219 5.45836
#
# Compressibility (1/GPa) = 0.04665240
#
# Stress axis : x y z
#
# Youngs Moduli (GPa) = 93.93390 36.07426 29.56575
#
# Poissons Ratio (x) = 0.33471 0.06084
# Poissons Ratio (y) = 0.87155 0.04235
# Poissons Ratio (z) = 0.19329 0.05167
#
# Static dielectric constant tensor:
#      x y z
#    x 1.560590 0.000000 0.000000 
#    y 0.000000 1.538250 0.000000 
#    z 0.000000 0.000000 1.565690 
# 
# From -- ./inp_files/5351.got.cif
#   From: 2010.05.17/outbox.cif.g08.bks.cpg/sg49_3_cif.got.tgz:5351.got - 2010.06.03 21:02:19.
