data_PCOD9392721
_publ_section_title
;
Structure prediction by ZEFSAII (Michael W. Deem and Ramdas Pophale) SiO2 
 PCOD9392721
Probable space group: P C C M
;
_chemical_formula_sum "Si O2"
_cell_formula_units_Z 64
_cell_length_a 32.540853
_cell_length_b 14.665421
_cell_length_c 8.712664
_cell_angle_alpha 90.000000
_cell_angle_beta 90.000000
_cell_angle_gamma 90.000000
_cell_volume 4157.903769
_symmetry_space_group_name_H-M "P C C M"
_symmetry_group_IT_number 49
_symmetry_cell_setting 'orthorhombic'
loop_
_space_group_symop_operation_xyz
x,y,z
-x,-y,z
x,-y,1/2-z
-x,y,1/2-z
-x,-y,-z
x,y,-z
-x,y,1/2+z
x,-y,1/2+z
loop_
_atom_site_type_symbol
_atom_site_label
_atom_site_fract_x
_atom_site_fract_y
_atom_site_fract_z
Si Si1 0.796744 0.216503 0.184274
Si Si2 0.074733 0.402153 0.816570
Si Si3 0.877106 0.101298 0.185053
Si Si4 0.630688 0.897703 0.184542
Si Si5 0.171920 0.597943 0.316652
Si Si6 0.721274 0.896995 0.815214
Si Si7 0.043031 0.215564 0.316130
Si Si8 0.541800 0.103453 0.684284
O O1 0.837002 0.158501 0.232447
O O2 0.803222 0.318302 0.246119
O O3 0.756799 0.166629 0.249805
O O4 0.795134 0.217552 0.000000
O O5 0.061816 0.500000 0.750000
O O6 0.123322 0.390145 0.778462
O O7 0.050943 0.317610 0.744371
O O8 0.070282 0.402004 0.000000
O O9 0.918390 0.153877 0.233867
O O10 0.875576 0.000000 0.250000
O O11 0.877156 0.097303 0.000000
O O12 0.675530 0.860507 0.228659
O O13 0.586443 0.855351 0.228688
O O14 0.630543 0.000000 0.250000
O O15 0.630361 0.902749 0.000000
O O16 0.184481 0.500000 0.250000
O O17 0.175632 0.597720 0.500000
O O18 0.725588 0.000000 0.750000
O O19 0.724024 0.901218 0.000000
O O20 0.041621 0.216644 0.500000
O O21 0.000000 0.181244 0.250000
O O22 0.500000 0.146439 0.750000
O O23 0.538791 0.099684 0.500000
O O24 0.542705 0.000000 0.750000
#
# Coordination Sequence:
#
# PCOD9392721 Si02
#       8
#     8   8   8   8   8   8   8   8
#     4  11  21  35  53  75  99 125 155 191 230 274
#     4  10  20  35  57  82 105 130 153 182 220 266
#     4  10  23  39  56  74  97 124 154 191 229 267
#     4   8  15  25  36  50  75 108 145 188 235 279
#     4  10  20  34  55  80 103 127 152 183 222 269
#     4  10  19  31  45  65  91 123 160 199 240 282
#     4  11  23  40  57  77 101 127 156 190 226 270
#     4   9  14  20  30  46  67  97 137 185 233 277
#
# _framework density 15.392371000000001
#
# number of rings (size 3 to 8) (size 9 to 14) (size 15 to 20)
#    0.000    2.125    1.250    3.000    0.000    5.500 
#    0.000    2.500    0.000    0.000    0.000    0.000 
#    0.000    0.000    0.000    0.000    0.000    0.625 
#
# Total GULP energy -356855.033490 kJ/mol
# GULP energy per Si atom -5575.859898 kJ/mol
# Density = 1.535734 g / cm^3
# Si number density = 15.392371 Si / 1000 Ang^3
#
#
#
# Elastic Constant Matrix: (Units=GPa)
#
#
# Indices 1 2 3 4 5 6 
#
# 1 154.0132 54.8606 39.3645 0.0000 0.0000 0.0000
# 2 54.8606 77.9394 21.8003 0.0000 0.0000 0.0000
# 3 39.3645 21.8003 37.2986 0.0000 0.0000 0.0000
# 4 0.0000 0.0000 0.0000 24.0002 0.0000 0.0000
# 5 0.0000 0.0000 0.0000 0.0000 29.3357 0.0000
# 6 0.0000 0.0000 0.0000 0.0000 0.0000 0.9065
#
#
#
# Elastic Compliance Matrix: (Units=1/GPa)
#
#
# Indices 1 2 3 4 5 6 
#
# 1 0.010319 -0.005042 -0.007944 0.000000 0.000000 0.000000
# 2 -0.005042 0.017801 -0.005084 0.000000 0.000000 0.000000
# 3 -0.007944 -0.005084 0.038166 0.000000 0.000000 0.000000
# 4 0.000000 0.000000 0.000000 0.041666 0.000000 0.000000
# 5 0.000000 0.000000 0.000000 0.000000 0.034088 0.000000
# 6 0.000000 0.000000 0.000000 0.000000 0.000000 1.103110
#
#
# Mechanical properties :
#
#
# Convention : Reuss Voigt Hill
#
# Bulk Modulus (GPa) = 33.16984 55.70021 44.43502
# Shear Modulus (GPa) = 3.87195 21.06354 12.46775
#
# Velocity S-wave (km/s) = 1.58775 3.70326 2.84913
# Velocity P-wave (km/s) = 4.99576 7.38586 6.30510
#
# Compressibility (1/GPa) = 0.03014787
#
# Stress axis : x y z
#
# Youngs Moduli (GPa) = 96.90643 56.17629 26.20132
#
# Poissons Ratio (x) = 0.28322 0.20815
# Poissons Ratio (y) = 0.48856 0.13320
# Poissons Ratio (z) = 0.76983 0.28558
#
# Static dielectric constant tensor:
#      x y z
#    x 1.563940 0.000000 0.000000 
#    y 0.000000 1.469360 0.000000 
#    z 0.000000 0.000000 1.512310 
# 
# From -- ./inp_files/7042.got.cif
#   From: 2010.05.17/outbox.cif.g08.bks.cpg/sg49_4_cif.got.tgz:7042.got - 2010.06.03 21:02:19.
