data_PCOD9392102
_publ_section_title
;
Structure prediction by ZEFSAII (Michael W. Deem and Ramdas Pophale) SiO2 
 PCOD9392102
Probable space group: P C C M
;
_chemical_formula_sum "Si O2"
_cell_formula_units_Z 64
_cell_length_a 19.018581
_cell_length_b 26.986737
_cell_length_c 8.705817
_cell_angle_alpha 90.000000
_cell_angle_beta 90.000000
_cell_angle_gamma 90.000000
_cell_volume 4468.255731
_symmetry_space_group_name_H-M "P C C M"
_symmetry_group_IT_number 49
_symmetry_cell_setting 'orthorhombic'
loop_
_space_group_symop_operation_xyz
x,y,z
-x,-y,z
x,-y,1/2-z
-x,y,1/2-z
-x,-y,-z
x,y,-z
-x,y,1/2+z
x,-y,1/2+z
loop_
_atom_site_type_symbol
_atom_site_label
_atom_site_fract_x
_atom_site_fract_y
_atom_site_fract_z
Si Si1 0.420229 0.949239 0.183944
Si Si2 0.923286 0.347427 0.315672
Si Si3 0.855626 0.447504 0.182035
Si Si4 0.718546 0.606426 0.683744
Si Si5 0.423160 0.351428 0.316829
Si Si6 0.654523 0.751556 0.316773
Si Si7 0.214428 0.295601 0.181208
Si Si8 0.421153 0.153418 0.183188
O O1 0.500000 0.948520 0.250000
O O2 0.390276 0.897301 0.244759
O O3 0.387734 0.000000 0.250000
O O4 0.422047 0.950535 0.000000
O O5 0.924679 0.349834 0.500000
O O6 0.895797 0.400484 0.253407
O O7 0.866205 0.305229 0.271507
O O8 0.000000 0.337547 0.250000
O O9 0.877764 0.500000 0.250000
O O10 0.771813 0.438597 0.210271
O O11 0.867131 0.447007 0.000000
O O12 0.723843 0.618669 0.500000
O O13 0.635872 0.607025 0.721260
O O14 0.750686 0.651200 0.781632
O O15 0.500000 0.359016 0.250000
O O16 0.429818 0.350227 0.500000
O O17 0.389729 0.297986 0.271114
O O18 0.647994 0.757147 0.500000
O O19 0.735550 0.742018 0.271349
O O20 0.623185 0.798983 0.232478
O O21 0.217666 0.285186 0.000000
O O22 0.500000 0.159944 0.250000
O O23 0.425380 0.148585 0.000000
#
# Coordination Sequence:
#
# PCOD9392102 Si02
#       8
#     8   8   8   8   8   8   8   8
#     4  10  17  27  40  54  73 101 139 181 224 266
#     4  10  20  33  49  69  91 112 136 162 192 230
#     4  10  19  32  49  66  85 107 132 162 198 236
#     4   8  16  30  44  58  79 106 131 158 194 240
#     4   9  17  27  40  58  78 100 128 161 200 241
#     4  10  19  30  42  58  82 111 139 169 208 252
#     4   9  17  29  45  64  83 105 134 166 195 233
#     4  11  20  29  40  57  81 109 143 184 226 262
#
# _framework density 14.323262
#
# number of rings (size 3 to 8) (size 9 to 14) (size 15 to 20)
#    0.000    2.375    0.000    6.000    0.000    5.750 
#    0.000    1.250    0.000    0.375    0.000    2.625 
#    0.000    0.000    0.000    0.000    0.000    0.625 
#
# Total GULP energy -356438.484429 kJ/mol
# GULP energy per Si atom -5569.351319 kJ/mol
# Density = 1.429066 g / cm^3
# Si number density = 14.323262 Si / 1000 Ang^3
#
#
#
# Elastic Constant Matrix: (Units=GPa)
#
#
# Indices 1 2 3 4 5 6 
#
# 1 91.3159 16.0699 23.4793 0.0000 0.0000 0.0000
# 2 16.0699 37.8158 20.6568 0.0000 0.0000 0.0000
# 3 23.4793 20.6568 66.1014 0.0000 0.0000 0.0000
# 4 0.0000 0.0000 0.0000 18.6840 0.0000 0.0000
# 5 0.0000 0.0000 0.0000 0.0000 20.5645 0.0000
# 6 0.0000 0.0000 0.0000 0.0000 0.0000 9.0330
#
#
#
# Elastic Compliance Matrix: (Units=1/GPa)
#
#
# Indices 1 2 3 4 5 6 
#
# 1 0.012416 -0.003457 -0.003330 0.000000 0.000000 0.000000
# 2 -0.003457 0.032850 -0.009038 0.000000 0.000000 0.000000
# 3 -0.003330 -0.009038 0.019135 0.000000 0.000000 0.000000
# 4 0.000000 0.000000 0.000000 0.053522 0.000000 0.000000
# 5 0.000000 0.000000 0.000000 0.000000 0.048627 0.000000
# 6 0.000000 0.000000 0.000000 0.000000 0.000000 0.110705
#
#
# Mechanical properties :
#
#
# Convention : Reuss Voigt Hill
#
# Bulk Modulus (GPa) = 30.53277 35.07168 32.80222
# Shear Modulus (GPa) = 15.63374 18.65812 17.14593
#
# Velocity S-wave (km/s) = 3.30736 3.61313 3.46362
# Velocity P-wave (km/s) = 5.99567 6.47652 6.24073
#
# Compressibility (1/GPa) = 0.03275170
#
# Stress axis : x y z
#
# Youngs Moduli (GPa) = 80.54437 30.44148 52.25958
#
# Poissons Ratio (x) = 0.10524 0.17400
# Poissons Ratio (y) = 0.27846 0.47230
# Poissons Ratio (z) = 0.26818 0.27512
#
# Static dielectric constant tensor:
#      x y z
#    x 1.491480 0.000000 0.000000 
#    y 0.000000 1.481540 0.000000 
#    z 0.000000 0.000000 1.482350 
# 
# From -- ./inp_files/5450.got.cif
#   From: 2010.05.17/outbox.cif.g08.bks.cpg/sg49_3_cif.got.tgz:5450.got - 2010.06.03 21:02:19.
