data_PCOD9392371
_publ_section_title
;
Structure prediction by ZEFSAII (Michael W. Deem and Ramdas Pophale) SiO2 
 PCOD9392371
Probable space group: P C C M
;
_chemical_formula_sum "Si O2"
_cell_formula_units_Z 48
_cell_length_a 14.092347
_cell_length_b 24.615348
_cell_length_c 8.591382
_cell_angle_alpha 90.000000
_cell_angle_beta 90.000000
_cell_angle_gamma 90.000000
_cell_volume 2980.247539
_symmetry_space_group_name_H-M "P C C M"
_symmetry_group_IT_number 49
_symmetry_cell_setting 'orthorhombic'
loop_
_space_group_symop_operation_xyz
x,y,z
-x,-y,z
x,-y,1/2-z
-x,y,1/2-z
-x,-y,-z
x,y,-z
-x,y,1/2+z
x,-y,1/2+z
loop_
_atom_site_type_symbol
_atom_site_label
_atom_site_fract_x
_atom_site_fract_y
_atom_site_fract_z
Si Si1 0.395896 0.771997 0.186940
Si Si2 0.104490 0.276842 0.686764
Si Si3 0.606283 0.441468 0.313317
Si Si4 0.209478 0.832870 0.188892
Si Si5 0.288219 0.332374 0.186882
Si Si6 0.106831 0.941563 0.812441
O O1 0.500000 0.783848 0.250000
O O2 0.315329 0.815368 0.236810
O O3 0.358675 0.713936 0.248254
O O4 0.397643 0.770235 0.000000
O O5 0.104393 0.278358 0.500000
O O6 0.140093 0.216511 0.736554
O O7 0.184369 0.317863 0.749047
O O8 0.000000 0.287584 0.750000
O O9 0.637982 0.500000 0.250000
O O10 0.500000 0.431834 0.250000
O O11 0.601914 0.443736 0.500000
O O12 0.673287 0.391501 0.266947
O O13 0.171274 0.891086 0.240657
O O14 0.208855 0.833601 0.000000
O O15 0.287455 0.329093 0.000000
O O16 0.000000 0.933301 0.750000
O O17 0.139806 0.000000 0.750000
O O18 0.104111 0.942986 0.000000
#
# Coordination Sequence:
#
# PCOD9392371 Si02
#       6
#     8   8   8   8   8   8
#     4  10  19  32  49  71  96 125 157 193 236 281
#     4  10  19  32  50  72  97 127 158 194 236 281
#     4  10  20  32  49  71  97 126 158 193 233 277
#     4   8  17  31  47  67  94 124 155 191 232 275
#     4  10  20  33  49  72  98 127 159 194 234 280
#     4  10  18  30  46  67  93 121 152 189 230 276
#
# _framework density 16.106044000000001
#
# number of rings (size 3 to 8) (size 9 to 14) (size 15 to 20)
#    0.000    2.333    0.000    5.500    0.000    4.000 
#    0.000    9.167    0.000    1.000    0.000    7.000 
#    0.000    0.000    0.000    0.000    0.000    0.000 
#
# Total GULP energy -267750.080245 kJ/mol
# GULP energy per Si atom -5578.126672 kJ/mol
# Density = 1.606939 g / cm^3
# Si number density = 16.106044 Si / 1000 Ang^3
#
#
#
# Elastic Constant Matrix: (Units=GPa)
#
#
# Indices 1 2 3 4 5 6 
#
# 1 124.3160 92.3707 33.7785 0.0000 0.0000 0.0000
# 2 92.3707 161.9622 40.8201 0.0000 0.0000 0.0000
# 3 33.7785 40.8201 53.6485 0.0000 0.0000 0.0000
# 4 0.0000 0.0000 0.0000 20.4406 0.0000 0.0000
# 5 0.0000 0.0000 0.0000 0.0000 26.1121 0.0000
# 6 0.0000 0.0000 0.0000 0.0000 0.0000 19.5483
#
#
#
# Elastic Compliance Matrix: (Units=1/GPa)
#
#
# Indices 1 2 3 4 5 6 
#
# 1 0.014473 -0.007371 -0.003504 0.000000 0.000000 0.000000
# 2 -0.007371 0.011393 -0.004028 0.000000 0.000000 0.000000
# 3 -0.003504 -0.004028 0.023911 0.000000 0.000000 0.000000
# 4 0.000000 0.000000 0.000000 0.048922 0.000000 0.000000
# 5 0.000000 0.000000 0.000000 0.000000 0.038296 0.000000
# 6 0.000000 0.000000 0.000000 0.000000 0.000000 0.051155
#
#
# Mechanical properties :
#
#
# Convention : Reuss Voigt Hill
#
# Bulk Modulus (GPa) = 50.07250 74.87391 62.47321
# Shear Modulus (GPa) = 22.26032 24.75069 23.50550
#
# Velocity S-wave (km/s) = 3.72171 3.92437 3.82438
# Velocity P-wave (km/s) = 7.04449 8.19288 7.64029
#
# Compressibility (1/GPa) = 0.01997104
#
# Stress axis : x y z
#
# Youngs Moduli (GPa) = 69.09331 87.76987 41.82201
#
# Poissons Ratio (x) = 0.64697 0.14655
# Poissons Ratio (y) = 0.50930 0.16846
# Poissons Ratio (z) = 0.24211 0.35353
#
# Static dielectric constant tensor:
#      x y z
#    x 1.520310 0.000000 0.000000 
#    y 0.000000 1.538460 0.000000 
#    z 0.000000 0.000000 1.545730 
# 
# From -- ./inp_files/4154.got.cif
#   From: 2010.05.17/outbox.cif.g08.bks.cpg/sg49_3_cif.got.tgz:4154.got - 2010.06.03 21:02:19.
