data_PCOD9392096
_publ_section_title
;
Structure prediction by ZEFSAII (Michael W. Deem and Ramdas Pophale) SiO2 
 PCOD9392096
Probable space group: P C C M
;
_chemical_formula_sum "Si O2"
_cell_formula_units_Z 64
_cell_length_a 21.005877
_cell_length_b 20.370724
_cell_length_c 8.669371
_cell_angle_alpha 90.000000
_cell_angle_beta 90.000000
_cell_angle_gamma 90.000000
_cell_volume 3709.666528
_symmetry_space_group_name_H-M "P C C M"
_symmetry_group_IT_number 49
_symmetry_cell_setting 'orthorhombic'
loop_
_space_group_symop_operation_xyz
x,y,z
-x,-y,z
x,-y,1/2-z
-x,y,1/2-z
-x,-y,-z
x,y,-z
-x,y,1/2+z
x,-y,1/2+z
loop_
_atom_site_type_symbol
_atom_site_label
_atom_site_fract_x
_atom_site_fract_y
_atom_site_fract_z
Si Si1 0.569956 0.427803 0.814114
Si Si2 0.892562 0.793599 0.184975
Si Si3 0.689087 0.658443 0.685608
Si Si4 0.257601 0.789891 0.315593
Si Si5 0.895553 0.931776 0.316437
Si Si6 0.189628 0.573174 0.813733
Si Si7 0.065658 0.655900 0.184811
Si Si8 0.751438 0.934150 0.185184
O O1 0.587102 0.500000 0.750000
O O2 0.500000 0.411872 0.750000
O O3 0.623183 0.375275 0.765743
O O4 0.567717 0.431022 0.000000
O O5 0.817398 0.786229 0.229033
O O6 0.919222 0.862130 0.251213
O O7 0.925961 0.729219 0.249869
O O8 0.896234 0.795953 0.000000
O O9 0.689883 0.658663 0.500000
O O10 0.702495 0.731771 0.741811
O O11 0.748186 0.613305 0.738704
O O12 0.259727 0.782757 0.500000
O O13 0.279499 0.863996 0.277476
O O14 0.899610 0.932744 0.500000
O O15 0.821568 0.931931 0.261438
O O16 0.923086 0.000000 0.250000
O O17 0.189753 0.500000 0.750000
O O18 0.126449 0.612845 0.767005
O O19 0.190706 0.570749 0.000000
O O20 0.000000 0.627858 0.250000
O O21 0.063700 0.658556 0.000000
O O22 0.719705 0.000000 0.250000
O O23 0.759193 0.938425 0.000000
#
# Coordination Sequence:
#
# PCOD9392096 Si02
#       8
#     8   8   8   8   8   8   8   8
#     4  10  20  34  53  76 105 140 177 214 252 301
#     4  10  19  33  51  73  99 129 167 209 256 309
#     4  10  20  34  52  77 106 136 173 212 252 303
#     4   9  18  29  46  72 101 132 168 210 254 302
#     4  10  17  26  43  68  97 130 165 205 251 300
#     4  10  22  38  56  78 102 129 165 207 256 308
#     4  11  23  39  57  76  99 129 167 211 260 312
#     4   9  16  26  39  63  96 132 172 208 252 302
#
# _framework density 17.252226
#
# number of rings (size 3 to 8) (size 9 to 14) (size 15 to 20)
#    0.000    2.125    1.250    4.875    0.000    5.250 
#    0.000    1.250    0.000    0.375    0.000    2.625 
#    0.000    0.500    0.000    5.500    0.000    4.125 
#
# Total GULP energy -357115.763453 kJ/mol
# GULP energy per Si atom -5579.933804 kJ/mol
# Density = 1.721296 g / cm^3
# Si number density = 17.252226 Si / 1000 Ang^3
#
#
#
# Elastic Constant Matrix: (Units=GPa)
#
#
# Indices 1 2 3 4 5 6 
#
# 1 81.6302 62.7823 26.2356 0.0000 0.0000 0.0000
# 2 62.7823 150.6421 36.1823 0.0000 0.0000 0.0000
# 3 26.2356 36.1823 55.0477 0.0000 0.0000 0.0000
# 4 0.0000 0.0000 0.0000 35.2375 0.0000 0.0000
# 5 0.0000 0.0000 0.0000 0.0000 18.1839 0.0000
# 6 0.0000 0.0000 0.0000 0.0000 0.0000 -129.1497
#
#
#
# Elastic Compliance Matrix: (Units=1/GPa)
#
#
# Indices 1 2 3 4 5 6 
#
# 1 0.018947 -0.006801 -0.004560 0.000000 0.000000 0.000000
# 2 -0.006801 0.010324 -0.003545 0.000000 0.000000 0.000000
# 3 -0.004560 -0.003545 0.022669 0.000000 0.000000 0.000000
# 4 0.000000 0.000000 0.000000 0.028379 0.000000 0.000000
# 5 0.000000 0.000000 0.000000 0.000000 0.054994 0.000000
# 6 0.000000 0.000000 0.000000 0.000000 0.000000 -0.007743
#
#
# Mechanical properties :
#
#
# Convention : Reuss Voigt Hill
#
# Bulk Modulus (GPa) = 45.18927 59.74671 52.46799
# Shear Modulus (GPa) = 30.34789 -4.33768 13.00511
#
# Velocity S-wave (km/s) = 4.19868 -1.58737 2.74856
# Velocity P-wave (km/s) = 7.05375 5.59883 6.36797
#
# Compressibility (1/GPa) = 0.02212915
#
# Stress axis : x y z
#
# Youngs Moduli (GPa) = 52.77994 96.86115 44.11319
#
# Poissons Ratio (x) = 0.65876 0.20114
# Poissons Ratio (y) = 0.35896 0.15636
# Poissons Ratio (z) = 0.24066 0.34333
#
# Static dielectric constant tensor:
#      x y z
#    x 1.591840 0.000000 0.000000 
#    y 0.000000 1.607030 0.000000 
#    z 0.000000 0.000000 1.580720 
# 
# From -- ./inp_files/6074.got.cif
#   From: 2010.05.17/outbox.cif.g08.bks.cpg/sg49_4_cif.got.tgz:6074.got - 2010.06.03 21:02:19.
