data_PCOD9392230
_publ_section_title
;
Structure prediction by ZEFSAII (Michael W. Deem and Ramdas Pophale) SiO2 
 PCOD9392230
Probable space group: P C C M
;
_chemical_formula_sum "Si O2"
_cell_formula_units_Z 46
_cell_length_a 5.552538
_cell_length_b 14.320299
_cell_length_c 23.800910
_cell_angle_alpha 90.000000
_cell_angle_beta 90.000000
_cell_angle_gamma 90.000000
_cell_volume 1892.505662
_symmetry_space_group_name_H-M "P C C M"
_symmetry_group_IT_number 49
_symmetry_cell_setting 'orthorhombic'
loop_
_space_group_symop_operation_xyz
x,y,z
-x,-y,z
x,-y,1/2-z
-x,y,1/2-z
-x,-y,-z
x,y,-z
-x,y,1/2+z
x,-y,1/2+z
loop_
_atom_site_type_symbol
_atom_site_label
_atom_site_fract_x
_atom_site_fract_y
_atom_site_fract_z
Si Si1 0.311084 0.625232 0.879433
Si Si2 0.931789 0.894619 0.500000
Si Si3 0.793110 0.577672 0.500000
Si Si4 0.500000 0.000000 0.750000
Si Si5 0.821097 0.281286 0.500000
Si Si6 0.209259 0.663435 0.632985
Si Si7 0.688505 0.852980 0.615107
Si Si8 0.194451 0.873990 0.667589
O O1 0.558906 0.605878 0.848213
O O2 0.313629 0.740180 0.879082
O O3 0.038787 0.608357 0.861157
O O4 0.333533 0.577320 0.940628
O O5 0.777050 0.872553 0.553700
O O6 0.167703 0.829029 0.500000
O O7 0.000000 0.000000 0.500000
O O8 0.000000 0.500000 0.500000
O O9 0.907495 0.680558 0.500000
O O10 0.686948 0.070940 0.719093
O O11 0.752572 0.313885 0.564343
O O12 0.193191 0.760432 0.667295
O O13 0.419081 0.891171 0.624449
O O14 0.913934 0.894437 0.652266
#
# Coordination Sequence:
#
# PCOD9392230 Si02
#       8
#     8   4   4   2   4   8   8   8
#     4   9  16  31  49  69  96 139 172 214 252 305
#     4  12  22  32  57  81 107 141 189 233 263 323
#     4  10  17  28  47  75 111 151 185 213 263 325
#     4  12  28  42  60  76 112 134 186 250 292 340
#     4  10  17  34  49  77 107 147 181 227 267 311
#     4   9  17  32  55  69  97 136 177 212 268 314
#     4  10  21  40  55  77 105 137 186 219 273 318
#     4  10  23  37  57  73  98 141 176 224 283 328
#
# _framework density 24.306398000000002
#
# number of rings (size 3 to 8) (size 9 to 14) (size 15 to 20)
#    0.000    2.087    5.217    0.522    2.435    4.174 
#    0.000    7.826    0.000    0.000    0.000    0.000 
#    0.000    0.000    0.000  169.043    0.000    0.000 
#
# Total GULP energy -256108.069263 kJ/mol
# GULP energy per Si atom -5567.566723 kJ/mol
# Density = 2.425108 g / cm^3
# Si number density = 24.306398 Si / 1000 Ang^3
#
#
#
# Elastic Constant Matrix: (Units=GPa)
#
#
# Indices 1 2 3 4 5 6 
#
# 1 185.0114 13.7694 14.6213 0.0000 0.0000 0.0000
# 2 13.7694 73.9634 7.4139 0.0000 0.0000 0.0000
# 3 14.6213 7.4139 49.6751 0.0000 0.0000 0.0000
# 4 0.0000 0.0000 0.0000 -15.7370 0.0000 0.0000
# 5 0.0000 0.0000 0.0000 0.0000 30.0206 0.0000
# 6 0.0000 0.0000 0.0000 0.0000 0.0000 25.0791
#
#
#
# Elastic Compliance Matrix: (Units=1/GPa)
#
#
# Indices 1 2 3 4 5 6 
#
# 1 0.005591 -0.000889 -0.001513 0.000000 0.000000 0.000000
# 2 -0.000889 0.013867 -0.001808 0.000000 0.000000 0.000000
# 3 -0.001513 -0.001808 0.020846 0.000000 0.000000 0.000000
# 4 0.000000 0.000000 0.000000 -0.063544 0.000000 0.000000
# 5 0.000000 0.000000 0.000000 0.000000 0.033311 0.000000
# 6 0.000000 0.000000 0.000000 0.000000 0.000000 0.039874
#
#
# Mechanical properties :
#
#
# Convention : Reuss Voigt Hill
#
# Bulk Modulus (GPa) = 31.36389 42.25102 36.80745
# Shear Modulus (GPa) = 72.47275 26.06222 49.26748
#
# Velocity S-wave (km/s) = 5.46636 3.27806 4.50703
# Velocity P-wave (km/s) = 7.26450 5.63453 6.50080
#
# Compressibility (1/GPa) = 0.03188380
#
# Stress axis : x y z
#
# Youngs Moduli (GPa) = 178.86499 72.11387 47.97097
#
# Poissons Ratio (x) = 0.06412 0.07257
# Poissons Ratio (y) = 0.15904 0.08673
# Poissons Ratio (z) = 0.27060 0.13037
#
# Static dielectric constant tensor:
#      x y z
#    x 2.070840 0.000000 0.000000 
#    y 0.000000 2.025150 0.000000 
#    z 0.000000 0.000000 1.954920 
# 
# From -- ./inp_files/21860.got.cif
#   From: 2010.05.17/outbox.cif.g08.bks.cpg/sg49_11_cif.got.tgz:21860.got - 2010.06.03 21:02:19.
