data_PCOD9392931
_publ_section_title
;
Structure prediction by ZEFSAII (Michael W. Deem and Ramdas Pophale) SiO2 
 PCOD9392931
Probable space group: P C C M
;
_chemical_formula_sum "Si O2"
_cell_formula_units_Z 64
_cell_length_a 14.668261
_cell_length_b 29.308402
_cell_length_c 8.739034
_cell_angle_alpha 90.000000
_cell_angle_beta 90.000000
_cell_angle_gamma 90.000000
_cell_volume 3756.939468
_symmetry_space_group_name_H-M "P C C M"
_symmetry_group_IT_number 49
_symmetry_cell_setting 'orthorhombic'
loop_
_space_group_symop_operation_xyz
x,y,z
-x,-y,z
x,-y,1/2-z
-x,y,1/2-z
-x,-y,-z
x,y,-z
-x,y,1/2+z
x,-y,1/2+z
loop_
_atom_site_type_symbol
_atom_site_label
_atom_site_fract_x
_atom_site_fract_y
_atom_site_fract_z
Si Si1 0.709928 0.452235 0.316892
Si Si2 0.354423 0.639295 0.826243
Si Si3 0.854796 0.326078 0.827660
Si Si4 0.897938 0.146677 0.684817
Si Si5 0.094127 0.575311 0.814638
Si Si6 0.406976 0.267473 0.182185
Si Si7 0.102724 0.046005 0.816900
Si Si8 0.792010 0.764063 0.816110
O O1 0.675422 0.500000 0.250000
O O2 0.711803 0.452499 0.500000
O O3 0.651479 0.409468 0.255321
O O4 0.813502 0.445881 0.253307
O O5 0.249731 0.656597 0.835780
O O6 0.401395 0.679660 0.733188
O O7 0.389662 0.635763 0.000000
O O8 0.903283 0.371173 0.765741
O O9 0.852120 0.279372 0.734974
O O10 0.887481 0.316914 0.000000
O O11 0.903980 0.148500 0.500000
O O12 0.859793 0.096179 0.723939
O O13 0.835930 0.188689 0.737965
O O14 0.000000 0.151089 0.750000
O O15 0.000000 0.555489 0.750000
O O16 0.097450 0.573069 0.000000
O O17 0.500000 0.247589 0.250000
O O18 0.312348 0.244267 0.236565
O O19 0.409914 0.264956 0.000000
O O20 0.000000 0.047074 0.750000
O O21 0.146862 0.000000 0.750000
O O22 0.098687 0.042061 0.000000
O O23 0.789946 0.764548 0.000000
#
# Coordination Sequence:
#
# PCOD9392931 Si02
#       8
#     8   8   8   8   8   8   8   8
#     4  11  21  34  51  70  91 117 148 183 227 277
#     4   9  17  32  51  71  93 116 145 180 216 263
#     4   8  16  29  44  61  83 111 144 181 222 264
#     4   9  18  30  42  61  90 126 163 199 236 279
#     4  10  20  33  46  63  86 114 150 192 233 275
#     4  10  19  32  52  76  99 126 157 192 233 279
#     4   9  15  24  39  57  81 113 154 199 241 279
#     4   9  18  31  46  65  93 126 159 191 231 281
#
# _framework density 17.035143000000001
#
# number of rings (size 3 to 8) (size 9 to 14) (size 15 to 20)
#    0.000    2.625    0.000    3.750    0.000    5.750 
#    0.000    3.750    0.000    0.375    0.000    2.625 
#    0.000    0.500    0.000    6.250    0.000    0.000 
#
# Total GULP energy -356586.347348 kJ/mol
# GULP energy per Si atom -5571.661677 kJ/mol
# Density = 1.699637 g / cm^3
# Si number density = 17.035143 Si / 1000 Ang^3
#
#
#
# Elastic Constant Matrix: (Units=GPa)
#
#
# Indices 1 2 3 4 5 6 
#
# 1 43.0168 28.5097 8.2051 0.0000 0.0000 0.0000
# 2 28.5097 145.7048 35.7412 0.0000 0.0000 0.0000
# 3 8.2051 35.7412 54.0122 0.0000 0.0000 0.0000
# 4 0.0000 0.0000 0.0000 -3.5712 0.0000 0.0000
# 5 0.0000 0.0000 0.0000 0.0000 10.5588 0.0000
# 6 0.0000 0.0000 0.0000 0.0000 0.0000 9.0511
#
#
#
# Elastic Compliance Matrix: (Units=1/GPa)
#
#
# Indices 1 2 3 4 5 6 
#
# 1 0.026734 -0.005055 -0.000716 0.000000 0.000000 0.000000
# 2 -0.005055 0.009149 -0.005286 0.000000 0.000000 0.000000
# 3 -0.000716 -0.005286 0.022121 0.000000 0.000000 0.000000
# 4 0.000000 0.000000 0.000000 -0.280017 0.000000 0.000000
# 5 0.000000 0.000000 0.000000 0.000000 0.094708 0.000000
# 6 0.000000 0.000000 0.000000 0.000000 0.000000 0.110484
#
#
# Mechanical properties :
#
#
# Convention : Reuss Voigt Hill
#
# Bulk Modulus (GPa) = 27.86371 43.07178 35.46775
# Shear Modulus (GPa) = 289.73886 14.55958 152.14922
#
# Velocity S-wave (km/s) = 13.05574 2.92666 9.46091
# Velocity P-wave (km/s) = 15.60967 6.06295 11.84106
#
# Compressibility (1/GPa) = 0.03588897
#
# Stress axis : x y z
#
# Youngs Moduli (GPa) = 37.40595 109.30098 45.20565
#
# Poissons Ratio (x) = 0.55255 0.03237
# Poissons Ratio (y) = 0.18910 0.23897
# Poissons Ratio (z) = 0.02678 0.57779
#
# Static dielectric constant tensor:
#      x y z
#    x 1.594750 0.000000 0.000000 
#    y 0.000000 1.609820 0.000000 
#    z 0.000000 0.000000 1.584460 
# 
# From -- ./inp_files/5455.got.cif
#   From: 2010.05.17/outbox.cif.g08.bks.cpg/sg49_3_cif.got.tgz:5455.got - 2010.06.03 21:02:19.
