data_PCOD9392081
_publ_section_title
;
Structure prediction by ZEFSAII (Michael W. Deem and Ramdas Pophale) SiO2 
 PCOD9392081
Probable space group: P C C M
;
_chemical_formula_sum "Si O2"
_cell_formula_units_Z 48
_cell_length_a 24.927363
_cell_length_b 14.025478
_cell_length_c 8.539362
_cell_angle_alpha 90.000000
_cell_angle_beta 90.000000
_cell_angle_gamma 90.000000
_cell_volume 2985.516212
_symmetry_space_group_name_H-M "P C C M"
_symmetry_group_IT_number 49
_symmetry_cell_setting 'orthorhombic'
loop_
_space_group_symop_operation_xyz
x,y,z
-x,-y,z
x,-y,1/2-z
-x,y,1/2-z
-x,-y,-z
x,y,-z
-x,y,1/2+z
x,-y,1/2+z
loop_
_atom_site_type_symbol
_atom_site_label
_atom_site_fract_x
_atom_site_fract_y
_atom_site_fract_z
Si Si1 0.167380 0.896503 0.188804
Si Si2 0.887960 0.396253 0.188680
Si Si3 0.332042 0.391718 0.311475
Si Si4 0.942016 0.201051 0.811408
Si Si5 0.444460 0.391026 0.186656
Si Si6 0.221530 0.702651 0.190604
O O1 0.107086 0.866535 0.239264
O O2 0.205739 0.809547 0.239837
O O3 0.182056 0.000000 0.250000
O O4 0.167773 0.897793 0.000000
O O5 0.902708 0.500000 0.250000
O O6 0.926181 0.308911 0.238809
O O7 0.827554 0.366289 0.239228
O O8 0.888449 0.398289 0.000000
O O9 0.326783 0.500000 0.250000
O O10 0.334264 0.393965 0.500000
O O11 0.388182 0.350198 0.247852
O O12 0.279452 0.334139 0.259012
O O13 0.000000 0.173286 0.750000
O O14 0.942770 0.200368 0.000000
O O15 0.443924 0.500000 0.250000
O O16 0.500000 0.347336 0.250000
O O17 0.445316 0.392886 0.000000
O O18 0.221424 0.701898 0.000000
#
# Coordination Sequence:
#
# PCOD9392081 Si02
#       6
#     8   8   8   8   8   8
#     4   9  18  34  51  67  85 109 137 172 216 262
#     4   9  17  30  45  62  84 114 144 174 208 248
#     4  10  17  26  41  62  87 118 149 179 212 249
#     4   9  19  33  47  63  87 112 139 172 211 255
#     4  10  17  26  38  55  82 117 154 188 215 245
#     4   8  16  30  46  62  86 114 141 172 213 259
#
# _framework density 16.077621000000001
#
# number of rings (size 3 to 8) (size 9 to 14) (size 15 to 20)
#    0.000    2.833    0.000    6.000    0.000    2.000 
#    0.000    8.333    0.000    0.000    0.000    0.000 
#    0.000    0.667    0.000    7.667    0.000    2.333 
#
# Total GULP energy -267433.550170 kJ/mol
# GULP energy per Si atom -5571.532295 kJ/mol
# Density = 1.604103 g / cm^3
# Si number density = 16.077621 Si / 1000 Ang^3
#
#
#
# Elastic Constant Matrix: (Units=GPa)
#
#
# Indices 1 2 3 4 5 6 
#
# 1 114.3926 17.9940 20.8019 0.0000 0.0000 0.0000
# 2 17.9940 59.1727 7.4565 0.0000 0.0000 0.0000
# 3 20.8019 7.4565 39.9624 0.0000 0.0000 0.0000
# 4 0.0000 0.0000 0.0000 20.6170 0.0000 0.0000
# 5 0.0000 0.0000 0.0000 0.0000 29.6934 0.0000
# 6 0.0000 0.0000 0.0000 0.0000 0.0000 11.8259
#
#
#
# Elastic Compliance Matrix: (Units=1/GPa)
#
#
# Indices 1 2 3 4 5 6 
#
# 1 0.009988 -0.002440 -0.004744 0.000000 0.000000 0.000000
# 2 -0.002440 0.017902 -0.002071 0.000000 0.000000 0.000000
# 3 -0.004744 -0.002071 0.027879 0.000000 0.000000 0.000000
# 4 0.000000 0.000000 0.000000 0.048504 0.000000 0.000000
# 5 0.000000 0.000000 0.000000 0.000000 0.033678 0.000000
# 6 0.000000 0.000000 0.000000 0.000000 0.000000 0.084560
#
#
# Mechanical properties :
#
#
# Convention : Reuss Voigt Hill
#
# Bulk Modulus (GPa) = 26.83715 34.00361 30.42038
# Shear Modulus (GPa) = 19.72851 23.57894 21.65372
#
# Velocity S-wave (km/s) = 3.50677 3.83374 3.67389
# Velocity P-wave (km/s) = 5.75544 6.38688 6.07936
#
# Compressibility (1/GPa) = 0.03726178
#
# Stress axis : x y z
#
# Youngs Moduli (GPa) = 100.11755 55.85828 35.86887
#
# Poissons Ratio (x) = 0.13627 0.17016
# Poissons Ratio (y) = 0.24424 0.07427
# Poissons Ratio (z) = 0.47497 0.11565
#
# Static dielectric constant tensor:
#      x y z
#    x 1.571860 0.000000 0.000000 
#    y 0.000000 1.517720 0.000000 
#    z 0.000000 0.000000 1.550070 
# 
# From -- ./inp_files/4160.got.cif
#   From: 2010.05.17/outbox.cif.g08.bks.cpg/sg49_3_cif.got.tgz:4160.got - 2010.06.03 21:02:19.
