data_PCOD9392452
_publ_section_title
;
Structure prediction by ZEFSAII (Michael W. Deem and Ramdas Pophale) SiO2 
 PCOD9392452
Probable space group: P C C M
;
_chemical_formula_sum "Si O2"
_cell_formula_units_Z 48
_cell_length_a 9.483292
_cell_length_b 32.085145
_cell_length_c 8.580376
_cell_angle_alpha 90.000000
_cell_angle_beta 90.000000
_cell_angle_gamma 90.000000
_cell_volume 2610.775021
_symmetry_space_group_name_H-M "P C C M"
_symmetry_group_IT_number 49
_symmetry_cell_setting 'orthorhombic'
loop_
_space_group_symop_operation_xyz
x,y,z
-x,-y,z
x,-y,1/2-z
-x,y,1/2-z
-x,-y,-z
x,y,-z
-x,y,1/2+z
x,-y,1/2+z
loop_
_atom_site_type_symbol
_atom_site_label
_atom_site_fract_x
_atom_site_fract_y
_atom_site_fract_z
Si Si1 0.339320 0.208311 0.813756
Si Si2 0.659881 0.878812 0.686433
Si Si3 0.159087 0.955323 0.686708
Si Si4 0.340341 0.704388 0.812548
Si Si5 0.657965 0.545155 0.687386
Si Si6 0.157909 0.624232 0.812068
O O1 0.500000 0.208801 0.750000
O O2 0.278172 0.165294 0.747246
O O3 0.279426 0.252091 0.753161
O O4 0.340380 0.207249 0.000000
O O5 0.500000 0.881932 0.750000
O O6 0.657242 0.878638 0.500000
O O7 0.747741 0.917534 0.750471
O O8 0.157775 0.955862 0.500000
O O9 0.000000 0.950497 0.750000
O O10 0.211595 0.000000 0.750000
O O11 0.500000 0.699223 0.750000
O O12 0.246614 0.664990 0.764464
O O13 0.346142 0.706831 0.000000
O O14 0.703826 0.500000 0.750000
O O15 0.500000 0.552702 0.750000
O O16 0.652988 0.543879 0.500000
O O17 0.760051 0.582457 0.738028
O O18 0.000000 0.625363 0.750000
O O19 0.154373 0.624037 0.000000
#
# Coordination Sequence:
#
# PCOD9392452 Si02
#       6
#     8   8   8   8   8   8
#     4  10  18  31  52  80 109 141 177 220 270 323
#     4  11  21  36  57  84 114 146 182 228 277 327
#     4  11  22  39  59  82 110 146 186 227 273 327
#     4  10  19  34  55  80 105 137 178 221 264 316
#     4  10  20  36  57  83 108 138 177 221 265 315
#     4  10  23  38  54  77 109 143 179 218 266 318
#
# _framework density 18.385345000000001
#
# number of rings (size 3 to 8) (size 9 to 14) (size 15 to 20)
#    0.000    1.667    0.000    9.000    0.000    3.333 
#    0.000    4.167    0.000    2.000    0.000    0.000 
#    0.000    0.000    0.000    0.000    0.000    0.000 
#
# Total GULP energy -268086.481072 kJ/mol
# GULP energy per Si atom -5585.135022 kJ/mol
# Density = 1.834350 g / cm^3
# Si number density = 18.385345 Si / 1000 Ang^3
#
#
#
# Elastic Constant Matrix: (Units=GPa)
#
#
# Indices 1 2 3 4 5 6 
#
# 1 72.0447 96.0244 36.0141 0.0000 0.0000 0.0000
# 2 96.0244 226.9149 74.1637 0.0000 0.0000 0.0000
# 3 36.0141 74.1637 141.0933 0.0000 0.0000 0.0000
# 4 0.0000 0.0000 0.0000 24.7880 0.0000 0.0000
# 5 0.0000 0.0000 0.0000 0.0000 29.1336 0.0000
# 6 0.0000 0.0000 0.0000 0.0000 0.0000 -25.3207
#
#
#
# Elastic Compliance Matrix: (Units=1/GPa)
#
#
# Indices 1 2 3 4 5 6 
#
# 1 0.032024 -0.013137 -0.001269 0.000000 0.000000 0.000000
# 2 -0.013137 0.010710 -0.002276 0.000000 0.000000 0.000000
# 3 -0.001269 -0.002276 0.008608 0.000000 0.000000 0.000000
# 4 0.000000 0.000000 0.000000 0.040342 0.000000 0.000000
# 5 0.000000 0.000000 0.000000 0.000000 0.034325 0.000000
# 6 0.000000 0.000000 0.000000 0.000000 0.000000 -0.039493
#
#
# Mechanical properties :
#
#
# Convention : Reuss Voigt Hill
#
# Bulk Modulus (GPa) = 55.62460 94.71749 75.17105
# Shear Modulus (GPa) = 39.72247 21.31023 30.51635
#
# Velocity S-wave (km/s) = 4.65322 3.40823 4.07851
# Velocity P-wave (km/s) = 7.69353 8.19255 7.94696
#
# Compressibility (1/GPa) = 0.01797766
#
# Stress axis : x y z
#
# Youngs Moduli (GPa) = 31.22624 93.36844 116.17155
#
# Poissons Ratio (x) = 1.22660 0.14741
# Poissons Ratio (y) = 0.41022 0.26446
# Poissons Ratio (z) = 0.03962 0.21255
#
# Static dielectric constant tensor:
#      x y z
#    x 1.626090 0.000000 0.000000 
#    y 0.000000 1.663630 0.000000 
#    z 0.000000 0.000000 1.616970 
# 
# From -- ./inp_files/2100.got.cif
#   From: 2010.05.17/outbox.cif.g08.bks.cpg/sg49_2_cif.got.tgz:2100.got - 2010.06.03 21:02:19.
