data_PCOD9392143
_publ_section_title
;
Structure prediction by ZEFSAII (Michael W. Deem and Ramdas Pophale) SiO2 
 PCOD9392143
Probable space group: P C C M
;
_chemical_formula_sum "Si O2"
_cell_formula_units_Z 64
_cell_length_a 21.369501
_cell_length_b 21.208833
_cell_length_c 8.921680
_cell_angle_alpha 90.000000
_cell_angle_beta 90.000000
_cell_angle_gamma 90.000000
_cell_volume 4043.503241
_symmetry_space_group_name_H-M "P C C M"
_symmetry_group_IT_number 49
_symmetry_cell_setting 'orthorhombic'
loop_
_space_group_symop_operation_xyz
x,y,z
-x,-y,z
x,-y,1/2-z
-x,y,1/2-z
-x,-y,-z
x,y,-z
-x,y,1/2+z
x,-y,1/2+z
loop_
_atom_site_type_symbol
_atom_site_label
_atom_site_fract_x
_atom_site_fract_y
_atom_site_fract_z
Si Si1 0.418630 0.809465 0.667342
Si Si2 0.936808 0.570916 0.180694
Si Si3 0.737060 0.066002 0.828627
Si Si4 0.415310 0.935509 0.828838
Si Si5 0.268068 0.803956 0.331102
Si Si6 0.294280 0.326358 0.320967
Si Si7 0.809085 0.430776 0.820215
Si Si8 0.563747 0.319216 0.823428
O O1 0.442515 0.795762 0.500000
O O2 0.435821 0.877220 0.728706
O O3 0.343338 0.810833 0.659261
O O4 0.435712 0.755011 0.783279
O O5 0.935569 0.500000 0.250000
O O6 0.871371 0.597549 0.242052
O O7 0.000000 0.600383 0.250000
O O8 0.939170 0.568912 0.000000
O O9 0.660939 0.065758 0.831862
O O10 0.755201 0.131881 0.748471
O O11 0.755727 0.000000 0.750000
O O12 0.758884 0.066327 0.000000
O O13 0.432819 0.000000 0.750000
O O14 0.437006 0.931095 0.000000
O O15 0.243053 0.799974 0.500000
O O16 0.263428 0.736912 0.247247
O O17 0.298627 0.316399 0.500000
O O18 0.249707 0.385578 0.292285
O O19 0.366237 0.338550 0.268076
O O20 0.798512 0.500000 0.750000
O O21 0.819040 0.436326 0.000000
O O22 0.500000 0.345790 0.750000
O O23 0.560422 0.330012 0.000000
#
# Coordination Sequence:
#
# PCOD9392143 Si02
#       8
#     8   8   8   8   8   8   8   8
#     4   9  16  26  39  56  75  96 123 160 205 256
#     4  10  17  27  44  68  98 131 163 193 220 250
#     4   9  15  22  33  50  75 104 136 172 214 261
#     4   9  15  22  33  50  71  96 123 155 195 245
#     4   9  16  25  39  58  80 105 138 177 219 266
#     4   9  19  33  48  65  89 117 146 183 230 279
#     4  10  19  32  49  71  97 126 158 192 228 267
#     4  10  19  32  48  65  81 101 131 172 222 274
#
# _framework density 15.827858000000001
#
# number of rings (size 3 to 8) (size 9 to 14) (size 15 to 20)
#    0.000    2.625    0.000    4.500    0.000    7.500 
#    0.000    0.000    0.000    0.750    0.000    5.250 
#    0.000    0.000    0.000    0.000    0.000    0.625 
#
# Total GULP energy -356438.112490 kJ/mol
# GULP energy per Si atom -5569.345508 kJ/mol
# Density = 1.579183 g / cm^3
# Si number density = 15.827858 Si / 1000 Ang^3
#
#
#
# Elastic Constant Matrix: (Units=GPa)
#
#
# Indices 1 2 3 4 5 6 
#
# 1 68.7090 35.7666 30.2651 0.0000 0.0000 0.0000
# 2 35.7666 69.2219 37.1320 0.0000 0.0000 0.0000
# 3 30.2651 37.1320 86.2918 0.0000 0.0000 0.0000
# 4 0.0000 0.0000 0.0000 17.0806 0.0000 0.0000
# 5 0.0000 0.0000 0.0000 0.0000 28.6689 0.0000
# 6 0.0000 0.0000 0.0000 0.0000 0.0000 -0.8902
#
#
#
# Elastic Compliance Matrix: (Units=1/GPa)
#
#
# Indices 1 2 3 4 5 6 
#
# 1 0.020670 -0.008829 -0.003450 0.000000 0.000000 0.000000
# 2 -0.008829 0.022553 -0.006608 0.000000 0.000000 0.000000
# 3 -0.003450 -0.006608 0.015642 0.000000 0.000000 0.000000
# 4 0.000000 0.000000 0.000000 0.058546 0.000000 0.000000
# 5 0.000000 0.000000 0.000000 0.000000 0.034881 0.000000
# 6 0.000000 0.000000 0.000000 0.000000 0.000000 -1.123327
#
#
# Mechanical properties :
#
#
# Convention : Reuss Voigt Hill
#
# Bulk Modulus (GPa) = 47.41584 47.83893 47.62738
# Shear Modulus (GPa) = -5.39823 17.04246 5.82212
#
# Velocity S-wave (km/s) = -1.84878 3.28493 1.92000
# Velocity P-wave (km/s) = 5.04628 6.68415 5.92211
#
# Compressibility (1/GPa) = 0.02109000
#
# Stress axis : x y z
#
# Youngs Moduli (GPa) = 48.37922 44.33989 63.92960
#
# Poissons Ratio (x) = 0.39149 0.22058
# Poissons Ratio (y) = 0.42716 0.42245
# Poissons Ratio (z) = 0.16692 0.29300
#
# Static dielectric constant tensor:
#      x y z
#    x 1.567890 0.000000 0.000000 
#    y 0.000000 1.511140 0.000000 
#    z 0.000000 0.000000 1.553320 
# 
# From -- ./inp_files/6097.got.cif
#   From: 2010.05.17/outbox.cif.g08.bks.cpg/sg49_4_cif.got.tgz:6097.got - 2010.06.03 21:02:19.
