data_PCOD9392789
_publ_section_title
;
Structure prediction by ZEFSAII (Michael W. Deem and Ramdas Pophale) SiO2 
 PCOD9392789
Probable space group: P C C M
;
_chemical_formula_sum "Si O2"
_cell_formula_units_Z 42
_cell_length_a 12.856015
_cell_length_b 19.666309
_cell_length_c 9.366071
_cell_angle_alpha 90.000000
_cell_angle_beta 90.000000
_cell_angle_gamma 90.000000
_cell_volume 2368.027135
_symmetry_space_group_name_H-M "P C C M"
_symmetry_group_IT_number 49
_symmetry_cell_setting 'orthorhombic'
loop_
_space_group_symop_operation_xyz
x,y,z
-x,-y,z
x,-y,1/2-z
-x,y,1/2-z
-x,-y,-z
x,y,-z
-x,y,1/2+z
x,-y,1/2+z
loop_
_atom_site_type_symbol
_atom_site_label
_atom_site_fract_x
_atom_site_fract_y
_atom_site_fract_z
Si Si1 0.105176 0.641566 0.667924
Si Si2 0.794995 0.212192 0.333474
Si Si3 0.500000 0.500000 0.750000
Si Si4 0.600836 0.257932 0.831405
Si Si5 0.662575 0.610220 0.163095
Si Si6 0.890226 0.936928 0.169121
O O1 0.085456 0.633578 0.500000
O O2 0.132037 0.721768 0.694622
O O3 0.214160 0.601592 0.699419
O O4 0.000000 0.622183 0.750000
O O5 0.762032 0.218949 0.500000
O O6 0.700602 0.218199 0.224545
O O7 0.843109 0.138014 0.317536
O O8 0.417741 0.452012 0.832288
O O9 0.500000 0.231483 0.750000
O O10 0.620430 0.334345 0.773735
O O11 0.588461 0.256998 0.000000
O O12 0.661614 0.637157 0.000000
O O13 0.000000 0.932027 0.250000
O O14 0.834579 0.000000 0.250000
O O15 0.899937 0.951645 0.000000
#
# Coordination Sequence:
#
# PCOD9392789 Si02
#       6
#     8   8   2   8   8   8
#     4   9  18  34  54  77 108 140 176 224 269 321
#     4   9  19  34  52  76 107 142 180 225 272 314
#     4  12  22  36  66  82 106 148 184 222 278 324
#     4  11  21  34  55  80 108 138 173 219 269 321
#     4  10  22  38  56  82 112 140 178 227 272 317
#     4  10  19  31  49  74 108 146 182 225 269 320
#
# _framework density 17.736281999999999
#
# number of rings (size 3 to 8) (size 9 to 14) (size 15 to 20)
#    0.000    2.095    0.952    4.857    0.000    5.333 
#    0.000    0.476    0.000    2.857    0.000    4.000 
#    0.000    0.000    0.000    0.000    0.000    0.000 
#
# Total GULP energy -233898.329012 kJ/mol
# GULP energy per Si atom -5569.007834 kJ/mol
# Density = 1.769591 g / cm^3
# Si number density = 17.736282 Si / 1000 Ang^3
#
#
#
# Elastic Constant Matrix: (Units=GPa)
#
#
# Indices 1 2 3 4 5 6 
#
# 1 124.2970 39.6846 62.7067 0.0000 0.0000 0.0000
# 2 39.6846 79.2174 30.3842 0.0000 0.0000 0.0000
# 3 62.7067 30.3842 119.4530 0.0000 0.0000 0.0000
# 4 0.0000 0.0000 0.0000 29.7856 0.0000 0.0000
# 5 0.0000 0.0000 0.0000 0.0000 -31.6866 0.0000
# 6 0.0000 0.0000 0.0000 0.0000 0.0000 28.3928
#
#
#
# Elastic Compliance Matrix: (Units=1/GPa)
#
#
# Indices 1 2 3 4 5 6 
#
# 1 0.011976 -0.003976 -0.005276 0.000000 0.000000 0.000000
# 2 -0.003976 0.015308 -0.001807 0.000000 0.000000 0.000000
# 3 -0.005276 -0.001807 0.011600 0.000000 0.000000 0.000000
# 4 0.000000 0.000000 0.000000 0.033573 0.000000 0.000000
# 5 0.000000 0.000000 0.000000 0.000000 -0.031559 0.000000
# 6 0.000000 0.000000 0.000000 0.000000 0.000000 0.035220
#
#
# Mechanical properties :
#
#
# Convention : Reuss Voigt Hill
#
# Bulk Modulus (GPa) = 59.63584 65.39094 62.51339
# Shear Modulus (GPa) = 48.15793 17.97781 33.06787
#
# Velocity S-wave (km/s) = 5.21643 3.18719 4.32258
# Velocity P-wave (km/s) = 8.36530 7.10582 7.76115
#
# Compressibility (1/GPa) = 0.01676844
#
# Stress axis : x y z
#
# Youngs Moduli (GPa) = 83.49923 65.32412 86.20397
#
# Poissons Ratio (x) = 0.25974 0.45477
# Poissons Ratio (y) = 0.33200 0.15573
# Poissons Ratio (z) = 0.44050 0.11801
#
# Static dielectric constant tensor:
#      x y z
#    x 1.636190 0.000000 0.000000 
#    y 0.000000 1.648240 0.000000 
#    z 0.000000 0.000000 1.596510 
# 
# From -- ./inp_files/2806.got.cif
#   From: 2010.05.17/outbox.cif.g08.bks.cpg/sg49_2_cif.got.tgz:2806.got - 2010.06.03 21:02:19.
