data_PCOD9392700
_publ_section_title
;
Structure prediction by ZEFSAII (Michael W. Deem and Ramdas Pophale) SiO2 
 PCOD9392700
Probable space group: P C C M
;
_chemical_formula_sum "Si O2"
_cell_formula_units_Z 56
_cell_length_a 11.773221
_cell_length_b 11.049585
_cell_length_c 22.716363
_cell_angle_alpha 90.000000
_cell_angle_beta 90.000000
_cell_angle_gamma 90.000000
_cell_volume 2955.153630
_symmetry_space_group_name_H-M "P C C M"
_symmetry_group_IT_number 49
_symmetry_cell_setting 'orthorhombic'
loop_
_space_group_symop_operation_xyz
x,y,z
-x,-y,z
x,-y,1/2-z
-x,y,1/2-z
-x,-y,-z
x,y,-z
-x,y,1/2+z
x,-y,1/2+z
loop_
_atom_site_type_symbol
_atom_site_label
_atom_site_fract_x
_atom_site_fract_y
_atom_site_fract_z
Si Si1 0.362278 0.639145 0.253663
Si Si2 0.044584 0.328169 0.930544
Si Si3 0.358073 0.290243 0.373436
Si Si4 0.746741 0.475861 0.431545
Si Si5 0.201217 0.090019 0.930665
Si Si6 0.373803 0.745673 0.619992
Si Si7 0.844989 0.828305 0.570225
O O1 0.321903 0.500000 0.250000
O O2 0.500000 0.634112 0.250000
O O3 0.326515 0.711718 0.195609
O O4 0.333587 0.700357 0.315536
O O5 0.127004 0.436390 0.908994
O O6 0.118048 0.204730 0.925565
O O7 0.924524 0.280697 0.905887
O O8 0.030338 0.355296 0.000000
O O9 0.322321 0.423690 0.395970
O O10 0.490521 0.261281 0.380521
O O11 0.282554 0.201879 0.412051
O O12 0.755994 0.512971 0.500000
O O13 0.673924 0.353040 0.425992
O O14 0.314860 0.127921 0.896150
O O15 0.139538 0.967089 0.910643
O O16 0.228033 0.075623 0.000000
O O17 0.862130 0.826147 0.500000
#
# Coordination Sequence:
#
# PCOD9392700 Si02
#       7
#     8   8   8   8   8   8   8
#     4   9  17  33  53  71  95 133 174 210 245 295
#     4   8  16  32  52  73  98 133 176 211 244 300
#     4  11  21  31  48  77 107 133 168 209 263 319
#     4  10  19  30  49  77 105 134 167 208 258 310
#     4   9  18  33  54  76  99 135 177 214 256 307
#     4  10  19  33  52  74 100 134 175 216 255 306
#     4  10  20  33  50  75 107 138 168 210 263 313
#
# _framework density 18.949945
#
# number of rings (size 3 to 8) (size 9 to 14) (size 15 to 20)
#    0.000    2.429    1.429    2.571    0.000    5.714 
#    0.000    4.286    0.000    6.000    0.000    4.000 
#    0.000    0.000    0.000    0.000    0.000    0.000 
#
# Total GULP energy -311917.685784 kJ/mol
# GULP energy per Si atom -5569.958675 kJ/mol
# Density = 1.890681 g / cm^3
# Si number density = 18.949945 Si / 1000 Ang^3
#
#
#
# Elastic Constant Matrix: (Units=GPa)
#
#
# Indices 1 2 3 4 5 6 
#
# 1 88.2308 21.7423 18.1551 0.0000 0.0000 0.0000
# 2 21.7423 69.3762 6.8155 0.0000 0.0000 0.0000
# 3 18.1551 6.8155 33.1092 0.0000 0.0000 0.0000
# 4 0.0000 0.0000 0.0000 17.5990 0.0000 0.0000
# 5 0.0000 0.0000 0.0000 0.0000 -40.8204 0.0000
# 6 0.0000 0.0000 0.0000 0.0000 0.0000 9.1055
#
#
#
# Elastic Compliance Matrix: (Units=1/GPa)
#
#
# Indices 1 2 3 4 5 6 
#
# 1 0.013604 -0.003604 -0.006718 0.000000 0.000000 0.000000
# 2 -0.003604 0.015666 -0.001249 0.000000 0.000000 0.000000
# 3 -0.006718 -0.001249 0.034144 0.000000 0.000000 0.000000
# 4 0.000000 0.000000 0.000000 0.056822 0.000000 0.000000
# 5 0.000000 0.000000 0.000000 0.000000 -0.024498 0.000000
# 6 0.000000 0.000000 0.000000 0.000000 0.000000 0.109824
#
#
# Mechanical properties :
#
#
# Convention : Reuss Voigt Hill
#
# Bulk Modulus (GPa) = 24.83020 31.57132 28.20076
# Shear Modulus (GPa) = 20.65025 6.77703 13.71364
#
# Velocity S-wave (km/s) = 3.30468 1.89316 2.69304
# Velocity P-wave (km/s) = 5.26239 4.63414 4.95822
#
# Compressibility (1/GPa) = 0.04027353
#
# Stress axis : x y z
#
# Youngs Moduli (GPa) = 73.50640 63.83168 29.28783
#
# Poissons Ratio (x) = 0.23002 0.19675
# Poissons Ratio (y) = 0.26489 0.03658
# Poissons Ratio (z) = 0.49381 0.07972
#
# Static dielectric constant tensor:
#      x y z
#    x 1.710960 0.000000 0.000000 
#    y 0.000000 1.765350 0.000000 
#    z 0.000000 0.000000 1.635440 
# 
# From -- ./inp_files/20535.got.cif
#   From: 2010.05.17/outbox.cif.g08.bks.cpg/sg49_11_cif.got.tgz:20535.got - 2010.06.03 21:02:19.
