data_PCOD9392502
_publ_section_title
;
Structure prediction by ZEFSAII (Michael W. Deem and Ramdas Pophale) SiO2 
 PCOD9392502
Probable space group: P C C M
;
_chemical_formula_sum "Si O2"
_cell_formula_units_Z 48
_cell_length_a 7.464425
_cell_length_b 16.561130
_cell_length_c 16.642668
_cell_angle_alpha 90.000000
_cell_angle_beta 90.000000
_cell_angle_gamma 90.000000
_cell_volume 2057.355181
_symmetry_space_group_name_H-M "P C C M"
_symmetry_group_IT_number 49
_symmetry_cell_setting 'orthorhombic'
loop_
_space_group_symop_operation_xyz
x,y,z
-x,-y,z
x,-y,1/2-z
-x,y,1/2-z
-x,-y,-z
x,y,-z
-x,y,1/2+z
x,-y,1/2+z
loop_
_atom_site_type_symbol
_atom_site_label
_atom_site_fract_x
_atom_site_fract_y
_atom_site_fract_z
Si Si1 0.780829 0.514406 0.000000
Si Si2 0.709689 0.705402 0.000000
Si Si3 0.196161 0.540162 0.171590
Si Si4 0.816614 0.210767 0.340161
Si Si5 0.804758 0.952785 0.500000
Si Si6 0.205199 0.271513 0.324299
Si Si7 0.675167 0.773502 0.500000
Si Si8 0.212130 0.023659 0.837561
O O1 0.717986 0.475037 0.084060
O O2 0.000000 0.500000 0.000000
O O3 0.717766 0.607843 0.000000
O O4 0.797030 0.731621 0.916485
O O5 0.537831 0.764711 0.000000
O O6 0.285727 0.500000 0.250000
O O7 0.168626 0.634263 0.186797
O O8 0.000000 0.500000 0.166614
O O9 0.713718 0.242826 0.260953
O O10 0.766724 0.118381 0.353113
O O11 0.029762 0.215693 0.327775
O O12 0.789844 0.856175 0.500000
O O13 0.715703 0.978488 0.583930
O O14 0.000000 0.000000 0.500000
O O15 0.285556 0.265336 0.413016
O O16 0.285126 0.000000 0.750000
O O17 0.000000 0.000000 0.834289
#
# Coordination Sequence:
#
# PCOD9392502 Si02
#       8
#     4   4   8   8   4   8   4   8
#     4  10  19  36  60  85 118 163 211 265 323 392
#     4  12  26  42  61  91 133 175 213 271 346 414
#     4  10  18  32  56  89 119 149 196 265 324 371
#     4  11  21  38  65  95 122 164 221 273 323 392
#     4  10  19  36  60  85 118 163 211 265 323 392
#     4  11  21  38  65  95 122 164 221 273 323 392
#     4  12  26  42  61  91 133 175 213 271 346 414
#     4  10  18  32  56  89 119 149 196 265 324 371
#
# _framework density 23.330924
#
# number of rings (size 3 to 8) (size 9 to 14) (size 15 to 20)
#    0.000    1.333    0.000   11.500    0.000    0.667 
#    0.000    3.333    0.000    2.000    0.000    0.000 
#    0.000    0.000    0.000    0.000    0.000    0.000 
#
# Total GULP energy -267622.650109 kJ/mol
# GULP energy per Si atom -5575.471877 kJ/mol
# Density = 2.327782 g / cm^3
# Si number density = 23.330924 Si / 1000 Ang^3
#
#
#
# Elastic Constant Matrix: (Units=GPa)
#
#
# Indices 1 2 3 4 5 6 
#
# 1 33.4224 -22.4696 -10.5012 0.0000 0.0000 0.0000
# 2 -22.4696 130.8666 16.3147 0.0000 0.0000 0.0000
# 3 -10.5012 16.3147 222.6244 0.0000 0.0000 0.0000
# 4 0.0000 0.0000 0.0000 79.1470 0.0000 0.0000
# 5 0.0000 0.0000 0.0000 0.0000 4.5261 0.0000
# 6 0.0000 0.0000 0.0000 0.0000 0.0000 1.3510
#
#
#
# Elastic Compliance Matrix: (Units=1/GPa)
#
#
# Indices 1 2 3 4 5 6 
#
# 1 0.034135 0.005712 0.001192 0.000000 0.000000 0.000000
# 2 0.005712 0.008668 -0.000366 0.000000 0.000000 0.000000
# 3 0.001192 -0.000366 0.004575 0.000000 0.000000 0.000000
# 4 0.000000 0.000000 0.000000 0.012635 0.000000 0.000000
# 5 0.000000 0.000000 0.000000 0.000000 0.220941 0.000000
# 6 0.000000 0.000000 0.000000 0.000000 0.000000 0.740176
#
#
# Mechanical properties :
#
#
# Convention : Reuss Voigt Hill
#
# Bulk Modulus (GPa) = 16.54159 39.28901 27.91530
# Shear Modulus (GPa) = 4.86285 43.90946 24.38615
#
# Velocity S-wave (km/s) = 1.44527 4.34294 3.23651
# Velocity P-wave (km/s) = 3.14491 6.48264 5.09486
#
# Compressibility (1/GPa) = 0.06045367
#
# Stress axis : x y z
#
# Youngs Moduli (GPa) = 29.29564 115.36988 218.58505
#
# Poissons Ratio (x) = -0.65903 -0.26045
# Poissons Ratio (y) = -0.16735 0.07995
# Poissons Ratio (z) = -0.03491 0.04220
#
# Static dielectric constant tensor:
#      x y z
#    x 1.936780 0.000000 0.000000 
#    y 0.000000 1.772590 0.000000 
#    z 0.000000 0.000000 3.484290 
# 
# From -- ./inp_files/16386.got.cif
#   From: 2010.05.17/outbox.cif.g08.bks.cpg/sg49_9_cif.got.tgz:16386.got - 2010.06.03 21:02:19.
