data_PCOD9392960
_publ_section_title
;
Structure prediction by ZEFSAII (Michael W. Deem and Ramdas Pophale) SiO2 
 PCOD9392960
Probable space group: P C C M
;
_chemical_formula_sum "Si O2"
_cell_formula_units_Z 40
_cell_length_a 23.591742
_cell_length_b 5.113881
_cell_length_c 18.068148
_cell_angle_alpha 90.000000
_cell_angle_beta 90.000000
_cell_angle_gamma 90.000000
_cell_volume 2179.838241
_symmetry_space_group_name_H-M "P C C M"
_symmetry_group_IT_number 49
_symmetry_cell_setting 'orthorhombic'
loop_
_space_group_symop_operation_xyz
x,y,z
-x,-y,z
x,-y,1/2-z
-x,y,1/2-z
-x,-y,-z
x,y,-z
-x,y,1/2+z
x,-y,1/2+z
loop_
_atom_site_type_symbol
_atom_site_label
_atom_site_fract_x
_atom_site_fract_y
_atom_site_fract_z
Si Si1 0.859275 0.244392 0.801596
Si Si2 0.730054 0.752647 0.698481
Si Si3 0.556473 0.127876 0.415081
Si Si4 0.632199 0.612224 0.584862
Si Si5 0.038306 0.755525 0.087317
O O1 0.860952 0.500000 0.750000
O O2 0.794499 0.200035 0.828492
O O3 0.904242 0.265411 0.866869
O O4 0.874336 0.000000 0.750000
O O5 0.732392 0.500000 0.750000
O O6 0.686536 0.675787 0.634314
O O7 0.712885 0.000000 0.750000
O O8 0.540244 0.205460 0.500000
O O9 0.598577 0.884014 0.417696
O O10 0.500000 0.000000 0.379568
O O11 0.590413 0.381073 0.385340
O O12 0.647315 0.537226 0.500000
O O13 0.000000 0.500000 0.097280
O O14 0.050666 0.786639 0.000000
O O15 0.000000 0.000000 0.111625
#
# Coordination Sequence:
#
# PCOD9392960 Si02
#       5
#     8   8   8   8   8
#     4  10  21  36  55  78 103 138 182 220 259 314
#     4  10  21  37  54  75 107 142 175 218 271 316
#     4   9  17  30  50  78 108 133 166 216 262 303
#     4  10  19  32  54  80 102 134 179 216 255 313
#     4  10  21  36  54  79 110 140 171 215 272 321
#
# _framework density 18.349986999999999
#
# number of rings (size 3 to 8) (size 9 to 14) (size 15 to 20)
#    0.000    2.200    0.000    3.000    0.000    5.600 
#    0.000    0.000    0.000   23.400    0.000    0.000 
#    0.000    0.000    0.000    0.000    0.000    0.000 
#
# Total GULP energy -222978.199193 kJ/mol
# GULP energy per Si atom -5574.454980 kJ/mol
# Density = 1.830822 g / cm^3
# Si number density = 18.349987 Si / 1000 Ang^3
#
#
#
# Elastic Constant Matrix: (Units=GPa)
#
#
# Indices 1 2 3 4 5 6 
#
# 1 114.3408 17.7068 67.8171 0.0000 0.0000 0.0000
# 2 17.7068 112.4872 19.9479 0.0000 0.0000 0.0000
# 3 67.8171 19.9479 54.0697 0.0000 0.0000 0.0000
# 4 0.0000 0.0000 0.0000 -25.3210 0.0000 0.0000
# 5 0.0000 0.0000 0.0000 0.0000 76.6245 0.0000
# 6 0.0000 0.0000 0.0000 0.0000 0.0000 37.4464
#
#
#
# Elastic Compliance Matrix: (Units=1/GPa)
#
#
# Indices 1 2 3 4 5 6 
#
# 1 0.034756 0.002418 -0.044485 0.000000 0.000000 0.000000
# 2 0.002418 0.009680 -0.006604 0.000000 0.000000 0.000000
# 3 -0.044485 -0.006604 0.076726 0.000000 0.000000 0.000000
# 4 0.000000 0.000000 0.000000 -0.039493 0.000000 0.000000
# 5 0.000000 0.000000 0.000000 0.000000 0.013051 0.000000
# 6 0.000000 0.000000 0.000000 0.000000 0.000000 0.026705
#
#
# Mechanical properties :
#
#
# Convention : Reuss Voigt Hill
#
# Bulk Modulus (GPa) = 41.98006 54.64904 48.31455
# Shear Modulus (GPa) = 22.05496 29.44504 25.75000
#
# Velocity S-wave (km/s) = 3.47061 4.01014 3.75009
# Velocity P-wave (km/s) = 6.24398 7.16155 6.71845
#
# Compressibility (1/GPa) = 0.02382083
#
# Stress axis : x y z
#
# Youngs Moduli (GPa) = 28.77218 103.30145 13.03340
#
# Poissons Ratio (x) = -0.24975 0.57979
# Poissons Ratio (y) = -0.06956 0.08607
# Poissons Ratio (z) = 1.27992 0.68218
#
# Static dielectric constant tensor:
#      x y z
#    x 1.647290 0.000000 0.000000 
#    y 0.000000 1.671220 0.000000 
#    z 0.000000 0.000000 1.616460 
# 
# From -- ./inp_files/15338.got.cif
#   From: 2010.05.17/outbox.cif.g08.bks.cpg/sg49_8_cif.got.tgz:15338.got - 2010.06.03 21:02:19.
