data_PCOD9392019
_publ_section_title
;
Structure prediction by ZEFSAII (Michael W. Deem and Ramdas Pophale) SiO2 
 PCOD9392019
Probable space group: P C C M
;
_chemical_formula_sum "Si O2"
_cell_formula_units_Z 48
_cell_length_a 9.130316
_cell_length_b 32.655966
_cell_length_c 8.616199
_cell_angle_alpha 90.000000
_cell_angle_beta 90.000000
_cell_angle_gamma 90.000000
_cell_volume 2568.999767
_symmetry_space_group_name_H-M "P C C M"
_symmetry_group_IT_number 49
_symmetry_cell_setting 'orthorhombic'
loop_
_space_group_symop_operation_xyz
x,y,z
-x,-y,z
x,-y,1/2-z
-x,y,1/2-z
-x,-y,-z
x,y,-z
-x,y,1/2+z
x,-y,1/2+z
loop_
_atom_site_type_symbol
_atom_site_label
_atom_site_fract_x
_atom_site_fract_y
_atom_site_fract_z
Si Si1 0.663447 0.205604 0.814650
Si Si2 0.165793 0.283429 0.186496
Si Si3 0.166196 0.625833 0.314453
Si Si4 0.834547 0.872550 0.814420
Si Si5 0.167285 0.457904 0.315181
Si Si6 0.167210 0.957798 0.814392
O O1 0.500000 0.206204 0.750000
O O2 0.743329 0.247100 0.761879
O O3 0.746263 0.166679 0.742579
O O4 0.664586 0.202477 0.000000
O O5 0.227577 0.329050 0.222298
O O6 0.000000 0.281257 0.250000
O O7 0.163006 0.278970 0.000000
O O8 0.161230 0.621066 0.500000
O O9 0.235466 0.585006 0.241489
O O10 0.000000 0.627483 0.250000
O O11 0.769291 0.915080 0.747684
O O12 0.000000 0.868726 0.750000
O O13 0.839090 0.874667 0.000000
O O14 0.234554 0.500000 0.250000
O O15 0.161924 0.459274 0.500000
O O16 0.000000 0.457279 0.250000
O O17 0.000000 0.957392 0.750000
O O18 0.234613 0.000000 0.750000
O O19 0.164267 0.958390 0.000000
#
# Coordination Sequence:
#
# PCOD9392019 Si02
#       6
#     8   8   8   8   8   8
#     4  12  25  41  58  78 105 138 175 218 266 318
#     4  10  20  35  55  79 105 136 173 216 262 312
#     4   9  16  26  41  62  90 122 160 202 247 296
#     4  11  21  36  57  83 112 144 181 221 263 310
#     4  10  16  22  33  51  81 119 159 197 241 294
#     4  10  17  28  47  76 110 143 177 217 262 306
#
# _framework density 18.684313
#
# number of rings (size 3 to 8) (size 9 to 14) (size 15 to 20)
#    0.000    1.667    0.000   10.500    0.000    2.000 
#    0.000    0.000    0.000    0.500    0.000    3.500 
#    0.000    0.667    0.000    7.000    0.000    5.167 
#
# Total GULP energy -267858.349214 kJ/mol
# GULP energy per Si atom -5580.382275 kJ/mol
# Density = 1.864179 g / cm^3
# Si number density = 18.684313 Si / 1000 Ang^3
#
#
#
# Elastic Constant Matrix: (Units=GPa)
#
#
# Indices 1 2 3 4 5 6 
#
# 1 37.8569 49.1830 25.0670 0.0000 0.0000 0.0000
# 2 49.1830 226.2370 95.1959 0.0000 0.0000 0.0000
# 3 25.0670 95.1959 188.7865 0.0000 0.0000 0.0000
# 4 0.0000 0.0000 0.0000 38.2628 0.0000 0.0000
# 5 0.0000 0.0000 0.0000 0.0000 17.4363 0.0000
# 6 0.0000 0.0000 0.0000 0.0000 0.0000 -6.8523
#
#
#
# Elastic Compliance Matrix: (Units=1/GPa)
#
#
# Indices 1 2 3 4 5 6 
#
# 1 0.036987 -0.007583 -0.001087 0.000000 0.000000 0.000000
# 2 -0.007583 0.007165 -0.002606 0.000000 0.000000 0.000000
# 3 -0.001087 -0.002606 0.006756 0.000000 0.000000 0.000000
# 4 0.000000 0.000000 0.000000 0.026135 0.000000 0.000000
# 5 0.000000 0.000000 0.000000 0.000000 0.057352 0.000000
# 6 0.000000 0.000000 0.000000 0.000000 0.000000 -0.145937
#
#
# Mechanical properties :
#
#
# Convention : Reuss Voigt Hill
#
# Bulk Modulus (GPa) = 35.26762 87.97469 61.62116
# Shear Modulus (GPa) = 244.33710 28.66500 136.50105
#
# Velocity S-wave (km/s) = 11.44793 3.92110 8.55658
# Velocity P-wave (km/s) = 13.91606 8.22722 11.43118
#
# Compressibility (1/GPa) = 0.02835462
#
# Stress axis : x y z
#
# Youngs Moduli (GPa) = 27.03617 139.55938 148.02644
#
# Poissons Ratio (x) = 1.05834 0.16094
# Poissons Ratio (y) = 0.20503 0.38579
# Poissons Ratio (z) = 0.02939 0.36373
#
# Static dielectric constant tensor:
#      x y z
#    x 1.589610 0.000000 0.000000 
#    y 0.000000 1.727810 0.000000 
#    z 0.000000 0.000000 1.619210 
# 
# From -- ./inp_files/2078.got.cif
#   From: 2010.05.17/outbox.cif.g08.bks.cpg/sg49_2_cif.got.tgz:2078.got - 2010.06.03 21:02:19.
