data_PCOD9392804
_publ_section_title
;
Structure prediction by ZEFSAII (Michael W. Deem and Ramdas Pophale) SiO2 
 PCOD9392804
Probable space group: P C C M
;
_chemical_formula_sum "Si O2"
_cell_formula_units_Z 40
_cell_length_a 5.258460
_cell_length_b 19.850179
_cell_length_c 19.400160
_cell_angle_alpha 90.000000
_cell_angle_beta 90.000000
_cell_angle_gamma 90.000000
_cell_volume 2025.015323
_symmetry_space_group_name_H-M "P C C M"
_symmetry_group_IT_number 49
_symmetry_cell_setting 'orthorhombic'
loop_
_space_group_symop_operation_xyz
x,y,z
-x,-y,z
x,-y,1/2-z
-x,y,1/2-z
-x,-y,-z
x,y,-z
-x,y,1/2+z
x,-y,1/2+z
loop_
_atom_site_type_symbol
_atom_site_label
_atom_site_fract_x
_atom_site_fract_y
_atom_site_fract_z
Si Si1 0.998433 0.659498 0.666945
Si Si2 0.493813 0.577092 0.333663
Si Si3 0.392575 0.119709 0.577073
Si Si4 0.744903 0.075277 0.780246
Si Si5 0.111002 0.789642 0.422089
O O1 0.730781 0.624880 0.646270
O O2 0.000000 0.667789 0.750000
O O3 0.226239 0.609517 0.647304
O O4 0.066497 0.729552 0.630777
O O5 0.500000 0.500000 0.358444
O O6 0.500000 0.574648 0.250000
O O7 0.419546 0.090225 0.500000
O O8 0.305190 0.070954 0.638554
O O9 0.654355 0.159542 0.593546
O O10 0.155279 0.170752 0.575728
O O11 0.500000 0.112414 0.750000
O O12 0.000000 0.107842 0.750000
O O13 0.748295 0.000000 0.750000
O O14 0.163406 0.764033 0.500000
#
# Coordination Sequence:
#
# PCOD9392804 Si02
#       5
#     8   8   8   8   8
#     4  10  19  31  50  77 103 134 179 226 275 326
#     4   9  17  30  49  73 103 138 178 224 272 326
#     4  10  21  38  58  80 109 149 189 220 269 341
#     4  10  21  38  58  85 115 143 178 226 279 323
#     4  10  21  36  55  79 109 145 182 226 276 326
#
# _framework density 19.752936999999999
#
# number of rings (size 3 to 8) (size 9 to 14) (size 15 to 20)
#    0.000    2.200    0.000    3.000    0.000    4.800 
#    0.000    4.000    0.000    3.600    0.000    0.000 
#    0.000    0.000    0.000    0.000    0.000    0.000 
#
# Total GULP energy -222923.678135 kJ/mol
# GULP energy per Si atom -5573.091953 kJ/mol
# Density = 1.970798 g / cm^3
# Si number density = 19.752937 Si / 1000 Ang^3
#
#
#
# Elastic Constant Matrix: (Units=GPa)
#
#
# Indices 1 2 3 4 5 6 
#
# 1 145.7513 12.2584 17.7665 0.0000 0.0000 0.0000
# 2 12.2584 57.9138 41.8631 0.0000 0.0000 0.0000
# 3 17.7665 41.8631 90.4638 0.0000 0.0000 0.0000
# 4 0.0000 0.0000 0.0000 -17.2750 0.0000 0.0000
# 5 0.0000 0.0000 0.0000 0.0000 31.9019 0.0000
# 6 0.0000 0.0000 0.0000 0.0000 0.0000 13.6088
#
#
#
# Elastic Compliance Matrix: (Units=1/GPa)
#
#
# Indices 1 2 3 4 5 6 
#
# 1 0.007050 -0.000738 -0.001043 0.000000 0.000000 0.000000
# 2 -0.000738 0.026024 -0.011898 0.000000 0.000000 0.000000
# 3 -0.001043 -0.011898 0.016765 0.000000 0.000000 0.000000
# 4 0.000000 0.000000 0.000000 -0.057887 0.000000 0.000000
# 5 0.000000 0.000000 0.000000 0.000000 0.031346 0.000000
# 6 0.000000 0.000000 0.000000 0.000000 0.000000 0.073482
#
#
# Mechanical properties :
#
#
# Convention : Reuss Voigt Hill
#
# Bulk Modulus (GPa) = 44.48291 48.65611 46.56951
# Shear Modulus (GPa) = 37.98499 20.46321 29.22410
#
# Velocity S-wave (km/s) = 4.38997 3.22212 3.85058
# Velocity P-wave (km/s) = 6.94725 6.20714 6.58760
#
# Compressibility (1/GPa) = 0.02248055
#
# Stress axis : x y z
#
# Youngs Moduli (GPa) = 141.83931 38.42665 59.64902
#
# Poissons Ratio (x) = 0.02838 0.06221
# Poissons Ratio (y) = 0.10474 0.70968
# Poissons Ratio (z) = 0.14792 0.45719
#
# Static dielectric constant tensor:
#      x y z
#    x 1.803980 0.000000 0.000000 
#    y 0.000000 1.665300 0.000000 
#    z 0.000000 0.000000 1.744860 
# 
# From -- ./inp_files/15277.got.cif
#   From: 2010.05.17/outbox.cif.g08.bks.cpg/sg49_8_cif.got.tgz:15277.got - 2010.06.03 21:02:19.
