data_PCOD9392262
_publ_section_title
;
Structure prediction by ZEFSAII (Michael W. Deem and Ramdas Pophale) SiO2 
 PCOD9392262
Probable space group: P C C M
;
_chemical_formula_sum "Si O2"
_cell_formula_units_Z 48
_cell_length_a 13.937088
_cell_length_b 18.761310
_cell_length_c 9.276923
_cell_angle_alpha 90.000000
_cell_angle_beta 90.000000
_cell_angle_gamma 90.000000
_cell_volume 2425.711536
_symmetry_space_group_name_H-M "P C C M"
_symmetry_group_IT_number 49
_symmetry_cell_setting 'orthorhombic'
loop_
_space_group_symop_operation_xyz
x,y,z
-x,-y,z
x,-y,1/2-z
-x,y,1/2-z
-x,-y,-z
x,y,-z
-x,y,1/2+z
x,-y,1/2+z
loop_
_atom_site_type_symbol
_atom_site_label
_atom_site_fract_x
_atom_site_fract_y
_atom_site_fract_z
Si Si1 0.874823 0.905493 0.000000
Si Si2 0.773054 0.681853 0.337624
Si Si3 0.902108 0.423178 0.673947
Si Si4 0.607542 0.928574 0.177725
Si Si5 0.886433 0.822293 0.727505
Si Si6 0.398244 0.214704 0.326794
Si Si7 0.893499 0.061104 0.000000
O O1 0.849211 0.853026 0.125618
O O2 0.988676 0.929036 0.000000
O O3 0.838969 0.986121 0.000000
O O4 0.776899 0.651140 0.500000
O O5 0.814784 0.627188 0.221792
O O6 0.840845 0.751402 0.332089
O O7 0.669259 0.716312 0.310592
O O8 0.888462 0.500000 0.750000
O O9 0.912381 0.428006 0.500000
O O10 0.000000 0.394474 0.750000
O O11 0.500000 0.927528 0.250000
O O12 0.645776 0.854124 0.243921
O O13 0.651814 0.000000 0.250000
O O14 0.605420 0.930142 0.000000
O O15 0.867054 0.891129 0.632635
O O16 0.000000 0.810686 0.750000
O O17 0.500000 0.227759 0.250000
O O18 0.407468 0.200149 0.500000
#
# Coordination Sequence:
#
# PCOD9392262 Si02
#       7
#     4   8   8   8   8   8   4
#     4   9  18  28  48  74 100 146 202 235 288 344
#     4  11  23  39  60  86 123 157 196 246 304 362
#     4  11  23  41  68  99 135 169 201 235 283 347
#     4  10  17  29  51  76 104 140 189 248 311 375
#     4  10  19  32  52  77 110 147 189 241 290 347
#     4  10  21  38  59  82 113 154 201 257 314 370
#     4   9  16  32  48  66 104 152 192 239 288 342
#
# _framework density 19.788007
#
# number of rings (size 3 to 8) (size 9 to 14) (size 15 to 20)
#    0.000    1.833    0.833    6.500    1.167    3.333 
#    0.000    1.667    0.000    0.500    0.000    3.500 
#    0.000    0.000    0.000    0.000    0.000    0.000 
#
# Total GULP energy -267380.657162 kJ/mol
# GULP energy per Si atom -5570.430358 kJ/mol
# Density = 1.974297 g / cm^3
# Si number density = 19.788007 Si / 1000 Ang^3
#
#
#
# Elastic Constant Matrix: (Units=GPa)
#
#
# Indices 1 2 3 4 5 6 
#
# 1 86.4823 30.8213 47.4911 0.0000 0.0000 0.0000
# 2 30.8213 59.1013 33.8062 0.0000 0.0000 0.0000
# 3 47.4911 33.8062 186.3248 0.0000 0.0000 0.0000
# 4 0.0000 0.0000 0.0000 35.9811 0.0000 0.0000
# 5 0.0000 0.0000 0.0000 0.0000 18.9538 0.0000
# 6 0.0000 0.0000 0.0000 0.0000 0.0000 76.5738
#
#
#
# Elastic Compliance Matrix: (Units=1/GPa)
#
#
# Indices 1 2 3 4 5 6 
#
# 1 0.015368 -0.006443 -0.002748 0.000000 0.000000 0.000000
# 2 -0.006443 0.021580 -0.002273 0.000000 0.000000 0.000000
# 3 -0.002748 -0.002273 0.006480 0.000000 0.000000 0.000000
# 4 0.000000 0.000000 0.000000 0.027792 0.000000 0.000000
# 5 0.000000 0.000000 0.000000 0.000000 0.052760 0.000000
# 6 0.000000 0.000000 0.000000 0.000000 0.000000 0.013059
#
#
# Mechanical properties :
#
#
# Convention : Reuss Voigt Hill
#
# Bulk Modulus (GPa) = 48.78000 61.79396 55.28698
# Shear Modulus (GPa) = 29.97571 40.95438 35.46505
#
# Velocity S-wave (km/s) = 3.89632 4.55428 4.23809
# Velocity P-wave (km/s) = 6.70422 7.67796 7.20755
#
# Compressibility (1/GPa) = 0.02050021
#
# Stress axis : x y z
#
# Youngs Moduli (GPa) = 65.06911 46.33864 154.32305
#
# Poissons Ratio (x) = 0.29854 0.42411
# Poissons Ratio (y) = 0.41921 0.35083
# Poissons Ratio (z) = 0.17882 0.10534
#
# Static dielectric constant tensor:
#      x y z
#    x 1.813250 0.000000 0.000000 
#    y 0.000000 1.705490 0.000000 
#    z 0.000000 0.000000 1.683900 
# 
# From -- ./inp_files/3763.got.cif
#   From: 2010.05.17/outbox.cif.g08.bks.cpg/sg49_2_cif.got.tgz:3763.got - 2010.06.03 21:02:19.
