data_PCOD9392447
_publ_section_title
;
Structure prediction by ZEFSAII (Michael W. Deem and Ramdas Pophale) SiO2 
 PCOD9392447
Probable space group: P C C M
;
_chemical_formula_sum "Si O2"
_cell_formula_units_Z 48
_cell_length_a 19.483356
_cell_length_b 7.999510
_cell_length_c 15.751112
_cell_angle_alpha 90.000000
_cell_angle_beta 90.000000
_cell_angle_gamma 90.000000
_cell_volume 2454.925807
_symmetry_space_group_name_H-M "P C C M"
_symmetry_group_IT_number 49
_symmetry_cell_setting 'orthorhombic'
loop_
_space_group_symop_operation_xyz
x,y,z
-x,-y,z
x,-y,1/2-z
-x,y,1/2-z
-x,-y,-z
x,y,-z
-x,y,1/2+z
x,-y,1/2+z
loop_
_atom_site_type_symbol
_atom_site_label
_atom_site_fract_x
_atom_site_fract_y
_atom_site_fract_z
Si Si1 0.829553 0.676183 0.103400
Si Si2 0.172168 0.698425 0.897217
Si Si3 0.698099 0.118485 0.831614
Si Si4 0.421272 0.300289 0.757040
Si Si5 0.921686 0.987681 0.896479
Si Si6 0.320861 0.217753 0.094657
O O1 0.850417 0.488424 0.126993
O O2 0.878916 0.825388 0.133661
O O3 0.750284 0.703953 0.129050
O O4 0.829408 0.686474 0.000000
O O5 0.242995 0.750718 0.853076
O O6 0.118596 0.843348 0.874832
O O7 0.181243 0.700513 0.000000
O O8 0.627186 0.211828 0.812120
O O9 0.713967 0.000000 0.750000
O O10 0.691867 0.981094 0.904916
O O11 0.418942 0.500000 0.750000
O O12 0.500000 0.245229 0.750000
O O13 0.384737 0.253465 0.845257
O O14 0.923160 0.977768 0.000000
O O15 0.000000 0.000000 0.866964
O O16 0.332276 0.281119 0.000000
#
# Coordination Sequence:
#
# PCOD9392447 Si02
#       6
#     8   8   8   8   8   8
#     4   9  17  29  50  79 109 142 184 230 271 322
#     4  10  18  31  52  77 108 145 189 233 274 327
#     4  10  20  33  55  80 107 142 184 230 284 337
#     4  10  22  40  57  80 116 150 185 231 284 343
#     4   9  17  29  47  75 112 145 177 226 282 330
#     4  10  19  35  58  83 112 146 190 238 278 328
#
# _framework density 19.552526
#
# number of rings (size 3 to 8) (size 9 to 14) (size 15 to 20)
#    0.000    2.333    1.667    1.500    0.000    3.667 
#    0.000    8.333    0.000    0.500    0.000    0.000 
#   10.000    0.000    0.000    0.000    0.000    0.000 
#
# Total GULP energy -267835.680460 kJ/mol
# GULP energy per Si atom -5579.910010 kJ/mol
# Density = 1.950802 g / cm^3
# Si number density = 19.552526 Si / 1000 Ang^3
#
#
#
# Elastic Constant Matrix: (Units=GPa)
#
#
# Indices 1 2 3 4 5 6 
#
# 1 166.8358 78.6657 27.0996 0.0000 0.0000 0.0000
# 2 78.6657 151.1288 16.0468 0.0000 0.0000 0.0000
# 3 27.0996 16.0468 34.6580 0.0000 0.0000 0.0000
# 4 0.0000 0.0000 0.0000 13.9688 0.0000 0.0000
# 5 0.0000 0.0000 0.0000 0.0000 -67.8325 0.0000
# 6 0.0000 0.0000 0.0000 0.0000 0.0000 2.3082
#
#
#
# Elastic Compliance Matrix: (Units=1/GPa)
#
#
# Indices 1 2 3 4 5 6 
#
# 1 0.008679 -0.003993 -0.004937 0.000000 0.000000 0.000000
# 2 -0.003993 0.008796 -0.000950 0.000000 0.000000 0.000000
# 3 -0.004937 -0.000950 0.033154 0.000000 0.000000 0.000000
# 4 0.000000 0.000000 0.000000 0.071588 0.000000 0.000000
# 5 0.000000 0.000000 0.000000 0.000000 -0.014742 0.000000
# 6 0.000000 0.000000 0.000000 0.000000 0.000000 0.433229
#
#
# Mechanical properties :
#
#
# Convention : Reuss Voigt Hill
#
# Bulk Modulus (GPa) = 32.39668 66.24965 49.32317
# Shear Modulus (GPa) = 8.76033 5.07628 6.91830
#
# Velocity S-wave (km/s) = 2.11899 1.61303 1.88308
# Velocity P-wave (km/s) = 4.75309 6.11765 5.47802
#
# Compressibility (1/GPa) = 0.03086736
#
# Stress axis : x y z
#
# Youngs Moduli (GPa) = 115.22398 113.68343 30.16247
#
# Poissons Ratio (x) = 0.45397 0.14892
# Poissons Ratio (y) = 0.46012 0.02867
# Poissons Ratio (z) = 0.56888 0.10804
#
# Static dielectric constant tensor:
#      x y z
#    x 1.655850 0.000000 0.000000 
#    y 0.000000 1.693150 0.000000 
#    z 0.000000 0.000000 1.731740 
# 
# From -- ./inp_files/18126.got.cif
#   From: 2010.05.17/outbox.cif.g08.bks.cpg/sg49_10_cif.got.tgz:18126.got - 2010.06.03 21:02:19.
