data_PCOD9392912
_publ_section_title
;
Structure prediction by ZEFSAII (Michael W. Deem and Ramdas Pophale) SiO2 
 PCOD9392912
Probable space group: P C C M
;
_chemical_formula_sum "Si O2"
_cell_formula_units_Z 64
_cell_length_a 23.964440
_cell_length_b 19.373826
_cell_length_c 8.686436
_cell_angle_alpha 90.000000
_cell_angle_beta 90.000000
_cell_angle_gamma 90.000000
_cell_volume 4032.963616
_symmetry_space_group_name_H-M "P C C M"
_symmetry_group_IT_number 49
_symmetry_cell_setting 'orthorhombic'
loop_
_space_group_symop_operation_xyz
x,y,z
-x,-y,z
x,-y,1/2-z
-x,y,1/2-z
-x,-y,-z
x,y,-z
-x,y,1/2+z
x,-y,1/2+z
loop_
_atom_site_type_symbol
_atom_site_label
_atom_site_fract_x
_atom_site_fract_y
_atom_site_fract_z
Si Si1 0.061282 0.575728 0.815944
Si Si2 0.225034 0.788071 0.816572
Si Si3 0.559603 0.787765 0.816680
Si Si4 0.837533 0.660572 0.815708
Si Si5 0.661210 0.297017 0.816903
Si Si6 0.724926 0.576590 0.184174
Si Si7 0.263668 0.927030 0.683916
Si Si8 0.389230 0.073637 0.315502
O O1 0.076381 0.500000 0.750000
O O2 0.107231 0.629804 0.759936
O O3 0.000000 0.592235 0.750000
O O4 0.059177 0.572283 0.000000
O O5 0.179956 0.735266 0.748319
O O6 0.285362 0.752369 0.786719
O O7 0.227030 0.862445 0.737580
O O8 0.218521 0.794550 0.000000
O O9 0.500000 0.766122 0.750000
O O10 0.607935 0.735124 0.765946
O O11 0.575491 0.862197 0.745611
O O12 0.557551 0.793199 0.000000
O O13 0.785449 0.609791 0.778064
O O14 0.843192 0.662881 0.000000
O O15 0.679394 0.371810 0.755952
O O16 0.652053 0.298393 0.000000
O O17 0.720928 0.500000 0.250000
O O18 0.719441 0.575951 0.000000
O O19 0.268186 0.929927 0.500000
O O20 0.325753 0.917419 0.754880
O O21 0.242882 0.000000 0.750000
O O22 0.388883 0.072534 0.500000
O O23 0.409168 0.000000 0.250000
#
# Coordination Sequence:
#
# PCOD9392912 Si02
#       8
#     8   8   8   8   8   8   8   8
#     4  11  21  34  51  72 102 142 184 221 259 300
#     4  10  19  32  51  74 102 133 168 208 254 301
#     4  12  24  38  55  74  97 126 162 202 246 296
#     4  10  20  33  50  75 106 138 175 214 255 298
#     4  10  20  35  54  74  99 127 160 200 247 299
#     4  10  20  33  52  77 104 132 164 203 250 298
#     4  11  20  31  49  72 100 134 169 205 249 301
#     4  11  21  35  52  73  98 128 164 202 245 293
#
# _framework density 15.869224000000001
#
# number of rings (size 3 to 8) (size 9 to 14) (size 15 to 20)
#    0.000    1.375    1.250    7.500    0.000    3.750 
#    0.000    1.250    0.000    0.375    0.000    2.625 
#    0.000    0.500    0.000    5.000    0.000    3.000 
#
# Total GULP energy -357644.623510 kJ/mol
# GULP energy per Si atom -5588.197242 kJ/mol
# Density = 1.583310 g / cm^3
# Si number density = 15.869224 Si / 1000 Ang^3
#
#
#
# Elastic Constant Matrix: (Units=GPa)
#
#
# Indices 1 2 3 4 5 6 
#
# 1 78.9822 46.6368 53.3300 0.0000 0.0000 0.0000
# 2 46.6368 112.0364 61.4738 0.0000 0.0000 0.0000
# 3 53.3300 61.4738 131.2688 0.0000 0.0000 0.0000
# 4 0.0000 0.0000 0.0000 31.3774 0.0000 0.0000
# 5 0.0000 0.0000 0.0000 0.0000 14.4980 0.0000
# 6 0.0000 0.0000 0.0000 0.0000 0.0000 22.9665
#
#
#
# Elastic Compliance Matrix: (Units=1/GPa)
#
#
# Indices 1 2 3 4 5 6 
#
# 1 0.019350 -0.005035 -0.005503 0.000000 0.000000 0.000000
# 2 -0.005035 0.013323 -0.004193 0.000000 0.000000 0.000000
# 3 -0.005503 -0.004193 0.011818 0.000000 0.000000 0.000000
# 4 0.000000 0.000000 0.000000 0.031870 0.000000 0.000000
# 5 0.000000 0.000000 0.000000 0.000000 0.068975 0.000000
# 6 0.000000 0.000000 0.000000 0.000000 0.000000 0.043542
#
#
# Mechanical properties :
#
#
# Convention : Reuss Voigt Hill
#
# Bulk Modulus (GPa) = 66.54909 71.68540 69.11725
# Shear Modulus (GPa) = 22.38646 24.49149 23.43897
#
# Velocity S-wave (km/s) = 3.75998 3.93279 3.84736
# Velocity P-wave (km/s) = 7.80237 8.11746 7.96147
#
# Compressibility (1/GPa) = 0.01502650
#
# Stress axis : x y z
#
# Youngs Moduli (GPa) = 51.67932 75.06086 84.61994
#
# Poissons Ratio (x) = 0.37794 0.46569
# Poissons Ratio (y) = 0.26021 0.35485
# Poissons Ratio (z) = 0.28441 0.31476
#
# Static dielectric constant tensor:
#      x y z
#    x 1.510370 0.000000 0.000000 
#    y 0.000000 1.525340 0.000000 
#    z 0.000000 0.000000 1.524260 
# 
# From -- ./inp_files/5278.got.cif
#   From: 2010.05.17/outbox.cif.g08.bks.cpg/sg49_3_cif.got.tgz:5278.got - 2010.06.03 21:02:19.
