data_PCOD9392240
_publ_section_title
;
Structure prediction by ZEFSAII (Michael W. Deem and Ramdas Pophale) SiO2 
 PCOD9392240
Probable space group: P C C M
;
_chemical_formula_sum "Si O2"
_cell_formula_units_Z 64
_cell_length_a 19.641397
_cell_length_b 19.767059
_cell_length_c 8.996773
_cell_angle_alpha 90.000000
_cell_angle_beta 90.000000
_cell_angle_gamma 90.000000
_cell_volume 3493.020989
_symmetry_space_group_name_H-M "P C C M"
_symmetry_group_IT_number 49
_symmetry_cell_setting 'orthorhombic'
loop_
_space_group_symop_operation_xyz
x,y,z
-x,-y,z
x,-y,1/2-z
-x,y,1/2-z
-x,-y,-z
x,y,-z
-x,y,1/2+z
x,-y,1/2+z
loop_
_atom_site_type_symbol
_atom_site_label
_atom_site_fract_x
_atom_site_fract_y
_atom_site_fract_z
Si Si1 0.073048 0.202873 0.324055
Si Si2 0.792644 0.281004 0.175362
Si Si3 0.316984 0.188670 0.829303
Si Si4 0.923856 0.933221 0.178754
Si Si5 0.573941 0.925526 0.181613
Si Si6 0.562089 0.294736 0.668883
Si Si7 0.761701 0.569292 0.329627
Si Si8 0.402703 0.432294 0.668231
O O1 0.063534 0.187626 0.500000
O O2 0.128414 0.261463 0.309379
O O3 0.103909 0.137392 0.239638
O O4 0.000000 0.218112 0.250000
O O5 0.746677 0.220811 0.242913
O O6 0.780187 0.356909 0.236716
O O7 0.775250 0.283826 0.000000
O O8 0.362989 0.124502 0.778828
O O9 0.371225 0.249710 0.826816
O O10 0.296391 0.175113 0.000000
O O11 0.000000 0.931989 0.250000
O O12 0.890464 0.000000 0.250000
O O13 0.926242 0.936804 0.000000
O O14 0.500000 0.904901 0.250000
O O15 0.586850 0.000000 0.250000
O O16 0.568816 0.927007 0.000000
O O17 0.500000 0.258510 0.750000
O O18 0.542880 0.306617 0.500000
O O19 0.574966 0.365207 0.748907
O O20 0.784334 0.500000 0.250000
O O21 0.786434 0.567377 0.500000
O O22 0.679586 0.567829 0.332383
O O23 0.424376 0.500000 0.750000
O O24 0.427230 0.432035 0.500000
#
# Coordination Sequence:
#
# PCOD9392240 Si02
#       8
#     8   8   8   8   8   8   8   8
#     4  10  20  35  55  81 112 145 183 225 273 331
#     4  10  21  37  58  83 111 143 179 221 274 328
#     4  10  22  37  55  80 109 138 178 225 271 324
#     4  10  17  28  48  74 105 140 178 215 254 302
#     4  10  20  36  57  83 110 145 188 232 278 326
#     4  11  22  35  51  74 103 138 176 217 265 315
#     4   9  18  33  54  80 106 137 176 219 265 320
#     4  10  19  33  52  73 102 136 174 216 262 312
#
# _framework density 18.322247999999998
#
# number of rings (size 3 to 8) (size 9 to 14) (size 15 to 20)
#    0.000    2.000    1.250    4.500    0.000    3.750 
#    0.000    1.875    0.000    1.875    0.000    2.625 
#    0.000    0.000    0.000    0.000    0.000    0.000 
#
# Total GULP energy -356737.613303 kJ/mol
# GULP energy per Si atom -5574.025208 kJ/mol
# Density = 1.828055 g / cm^3
# Si number density = 18.322248 Si / 1000 Ang^3
#
#
#
# Elastic Constant Matrix: (Units=GPa)
#
#
# Indices 1 2 3 4 5 6 
#
# 1 61.1578 37.9309 33.8995 0.0000 0.0000 0.0000
# 2 37.9309 127.1123 44.8202 0.0000 0.0000 0.0000
# 3 33.8995 44.8202 111.7993 0.0000 0.0000 0.0000
# 4 0.0000 0.0000 0.0000 23.2508 0.0000 0.0000
# 5 0.0000 0.0000 0.0000 0.0000 13.8481 0.0000
# 6 0.0000 0.0000 0.0000 0.0000 0.0000 25.4073
#
#
#
# Elastic Compliance Matrix: (Units=1/GPa)
#
#
# Indices 1 2 3 4 5 6 
#
# 1 0.022002 -0.004907 -0.004704 0.000000 0.000000 0.000000
# 2 -0.004907 0.010256 -0.002624 0.000000 0.000000 0.000000
# 3 -0.004704 -0.002624 0.011423 0.000000 0.000000 0.000000
# 4 0.000000 0.000000 0.000000 0.043009 0.000000 0.000000
# 5 0.000000 0.000000 0.000000 0.000000 0.072212 0.000000
# 6 0.000000 0.000000 0.000000 0.000000 0.000000 0.039359
#
#
# Mechanical properties :
#
#
# Convention : Reuss Voigt Hill
#
# Bulk Modulus (GPa) = 52.05250 59.26340 55.65795
# Shear Modulus (GPa) = 21.82118 24.72915 23.27516
#
# Velocity S-wave (km/s) = 3.45478 3.67778 3.56803
# Velocity P-wave (km/s) = 6.66222 7.10282 6.88604
#
# Compressibility (1/GPa) = 0.01921137
#
# Stress axis : x y z
#
# Youngs Moduli (GPa) = 45.45059 97.49928 87.54281
#
# Poissons Ratio (x) = 0.47840 0.41182
# Poissons Ratio (y) = 0.22301 0.22971
# Poissons Ratio (z) = 0.21381 0.25584
#
# Static dielectric constant tensor:
#      x y z
#    x 1.639330 0.000000 0.000000 
#    y 0.000000 1.668030 0.000000 
#    z 0.000000 0.000000 1.640450 
# 
# From -- ./inp_files/5308.got.cif
#   From: 2010.05.17/outbox.cif.g08.bks.cpg/sg49_3_cif.got.tgz:5308.got - 2010.06.03 21:02:19.
