data_PCOD9392815
_publ_section_title
;
Structure prediction by ZEFSAII (Michael W. Deem and Ramdas Pophale) SiO2 
 PCOD9392815
Probable space group: P C C M
;
_chemical_formula_sum "Si O2"
_cell_formula_units_Z 58
_cell_length_a 31.630047
_cell_length_b 5.495231
_cell_length_c 14.606496
_cell_angle_alpha 90.000000
_cell_angle_beta 90.000000
_cell_angle_gamma 90.000000
_cell_volume 2538.819555
_symmetry_space_group_name_H-M "P C C M"
_symmetry_group_IT_number 49
_symmetry_cell_setting 'orthorhombic'
loop_
_space_group_symop_operation_xyz
x,y,z
-x,-y,z
x,-y,1/2-z
-x,y,1/2-z
-x,-y,-z
x,y,-z
-x,y,1/2+z
x,-y,1/2+z
loop_
_atom_site_type_symbol
_atom_site_label
_atom_site_fract_x
_atom_site_fract_y
_atom_site_fract_z
Si Si1 0.000000 0.000000 0.750000
Si Si2 0.043102 0.389746 0.148064
Si Si3 0.412415 0.425440 0.107730
Si Si4 0.828571 0.912325 0.392988
Si Si5 0.452110 0.071967 0.388300
Si Si6 0.862126 0.410727 0.395666
Si Si7 0.686467 0.504278 0.139957
Si Si8 0.269807 0.005706 0.360694
O O1 0.031985 0.117977 0.823559
O O2 0.046470 0.500000 0.250000
O O3 0.087334 0.431723 0.101482
O O4 0.000000 0.500000 0.106539
O O5 0.424029 0.157252 0.144016
O O6 0.362709 0.471213 0.116843
O O7 0.437170 0.662280 0.145306
O O8 0.423423 0.414802 0.000000
O O9 0.842126 0.899063 0.500000
O O10 0.842108 0.652301 0.352633
O O11 0.850239 0.152369 0.352110
O O12 0.778672 0.955228 0.387711
O O13 0.449357 0.084139 0.500000
O O14 0.500000 0.000000 0.365241
O O15 0.845203 0.398078 0.500000
O O16 0.690205 0.500000 0.250000
O O17 0.711395 0.746128 0.107766
O O18 0.704563 0.244701 0.107675
O O19 0.271567 0.000000 0.250000
#
# Coordination Sequence:
#
# PCOD9392815 Si02
#       8
#     2   8   8   8   8   8   8   8
#     4   8  18  36  54  78 112 136 186 226 266 304
#     4   9  20  35  56  81 109 144 181 226 265 306
#     4  10  19  31  51  78 101 131 177 214 254 311
#     4  10  22  38  56  80 110 140 173 219 266 315
#     4   9  17  30  49  74 105 136 170 216 260 300
#     4  10  22  38  56  81 112 143 177 215 266 322
#     4  10  21  36  54  76 106 137 168 216 266 310
#     4  10  21  37  56  77 102 136 177 212 259 318
#
# _framework density 22.845264
#
# number of rings (size 3 to 8) (size 9 to 14) (size 15 to 20)
#    0.000    2.483    0.000    2.069    3.862    4.138 
#    0.000    0.345    0.000    2.483    0.000    0.000 
#    0.000    0.000    0.000    0.000    0.000    0.000 
#
# Total GULP energy -323631.001946 kJ/mol
# GULP energy per Si atom -5579.844861 kJ/mol
# Density = 2.279327 g / cm^3
# Si number density = 22.845264 Si / 1000 Ang^3
#
#
#
# Elastic Constant Matrix: (Units=GPa)
#
#
# Indices 1 2 3 4 5 6 
#
# 1 97.2988 50.6697 -31.5121 0.0000 0.0000 0.0000
# 2 50.6697 178.7821 1.5336 0.0000 0.0000 0.0000
# 3 -31.5121 1.5336 61.7184 0.0000 0.0000 0.0000
# 4 0.0000 0.0000 0.0000 -0.2635 0.0000 0.0000
# 5 0.0000 0.0000 0.0000 0.0000 30.1347 0.0000
# 6 0.0000 0.0000 0.0000 0.0000 0.0000 59.2810
#
#
#
# Elastic Compliance Matrix: (Units=1/GPa)
#
#
# Indices 1 2 3 4 5 6 
#
# 1 0.015061 -0.004335 0.007797 0.000000 0.000000 0.000000
# 2 -0.004335 0.006843 -0.002384 0.000000 0.000000 0.000000
# 3 0.007797 -0.002384 0.020243 0.000000 0.000000 0.000000
# 4 0.000000 0.000000 0.000000 -3.794432 0.000000 0.000000
# 5 0.000000 0.000000 0.000000 0.000000 0.033184 0.000000
# 6 0.000000 0.000000 0.000000 0.000000 0.000000 0.016869
#
#
# Mechanical properties :
#
#
# Convention : Reuss Voigt Hill
#
# Bulk Modulus (GPa) = 22.57175 42.13131 32.35153
# Shear Modulus (GPa) = -1.35515 38.97098 18.80791
#
# Velocity S-wave (km/s) = -0.77102 4.13469 2.87239
# Velocity P-wave (km/s) = 3.01813 6.42467 5.01923
#
# Compressibility (1/GPa) = 0.04430316
#
# Stress axis : x y z
#
# Youngs Moduli (GPa) = 66.39840 146.14455 49.39979
#
# Poissons Ratio (x) = 0.63358 -0.38519
# Poissons Ratio (y) = 0.28786 0.11775
# Poissons Ratio (z) = -0.51773 0.34834
#
# Static dielectric constant tensor:
#      x y z
#    x 1.770260 0.000000 0.000000 
#    y 0.000000 1.925650 0.000000 
#    z 0.000000 0.000000 1.855840 
# 
# From -- ./inp_files/18401.got.cif
#   From: 2010.05.17/outbox.cif.g08.bks.cpg/sg49_10_cif.got.tgz:18401.got - 2010.06.03 21:02:19.
