data_PCOD9392493
_publ_section_title
;
Structure prediction by ZEFSAII (Michael W. Deem and Ramdas Pophale) SiO2 
 PCOD9392493
Probable space group: P C C M
;
_chemical_formula_sum "Si O2"
_cell_formula_units_Z 64
_cell_length_a 26.780685
_cell_length_b 14.474321
_cell_length_c 8.610277
_cell_angle_alpha 90.000000
_cell_angle_beta 90.000000
_cell_angle_gamma 90.000000
_cell_volume 3337.620886
_symmetry_space_group_name_H-M "P C C M"
_symmetry_group_IT_number 49
_symmetry_cell_setting 'orthorhombic'
loop_
_space_group_symop_operation_xyz
x,y,z
-x,-y,z
x,-y,1/2-z
-x,y,1/2-z
-x,-y,-z
x,y,-z
-x,y,1/2+z
x,-y,1/2+z
loop_
_atom_site_type_symbol
_atom_site_label
_atom_site_fract_x
_atom_site_fract_y
_atom_site_fract_z
Si Si1 0.149628 0.223142 0.813828
Si Si2 0.354424 0.104410 0.686831
Si Si3 0.053764 0.102916 0.814012
Si Si4 0.298697 0.604920 0.314004
Si Si5 0.193982 0.396896 0.684556
Si Si6 0.596023 0.396117 0.814910
Si Si7 0.241972 0.895342 0.812877
Si Si8 0.551911 0.218029 0.684799
O O1 0.099287 0.169185 0.769809
O O2 0.152861 0.323915 0.737398
O O3 0.197247 0.164330 0.756753
O O4 0.151620 0.231713 0.000000
O O5 0.357801 0.104952 0.500000
O O6 0.298230 0.137915 0.729494
O O7 0.400016 0.162173 0.755646
O O8 0.358067 0.000000 0.750000
O O9 0.000000 0.133523 0.750000
O O10 0.063111 0.000000 0.750000
O O11 0.051287 0.098109 0.000000
O O12 0.297478 0.500000 0.250000
O O13 0.301467 0.606534 0.500000
O O14 0.246086 0.642243 0.254846
O O15 0.349675 0.641114 0.240608
O O16 0.185925 0.500000 0.750000
O O17 0.198736 0.401883 0.500000
O O18 0.589400 0.500000 0.750000
O O19 0.557660 0.322379 0.748128
O O20 0.594511 0.399286 0.000000
O O21 0.237545 0.000000 0.750000
O O22 0.238343 0.895217 0.000000
O O23 0.500000 0.178581 0.750000
O O24 0.551117 0.218448 0.500000
#
# Coordination Sequence:
#
# PCOD9392493 Si02
#       8
#     8   8   8   8   8   8   8   8
#     4  11  23  37  57  88 123 161 205 249 299 355
#     4  10  22  42  65  90 119 152 192 239 293 354
#     4  10  21  37  60  88 122 162 204 253 301 355
#     4  10  18  32  53  79 110 147 189 235 284 341
#     4  11  22  37  56  81 117 159 202 249 299 351
#     4  11  22  39  61  87 118 152 192 237 290 352
#     4  10  21  37  59  88 123 158 194 236 292 354
#     4  12  26  44  64  88 115 149 193 243 297 352
#
# _framework density 19.175335
#
# number of rings (size 3 to 8) (size 9 to 14) (size 15 to 20)
#    0.000    1.375    0.000    8.250    1.750    5.000 
#    0.000    2.500    0.000    0.375    0.000    2.625 
#    0.000    0.000    0.000    0.000    0.000    0.000 
#
# Total GULP energy -357772.963133 kJ/mol
# GULP energy per Si atom -5590.202549 kJ/mol
# Density = 1.913169 g / cm^3
# Si number density = 19.175335 Si / 1000 Ang^3
#
#
#
# Elastic Constant Matrix: (Units=GPa)
#
#
# Indices 1 2 3 4 5 6 
#
# 1 144.8839 75.8204 59.9464 0.0000 0.0000 0.0000
# 2 75.8204 89.7771 36.1905 0.0000 0.0000 0.0000
# 3 59.9464 36.1905 139.7248 0.0000 0.0000 0.0000
# 4 0.0000 0.0000 0.0000 35.4632 0.0000 0.0000
# 5 0.0000 0.0000 0.0000 0.0000 26.7023 0.0000
# 6 0.0000 0.0000 0.0000 0.0000 0.0000 34.6942
#
#
#
# Elastic Compliance Matrix: (Units=1/GPa)
#
#
# Indices 1 2 3 4 5 6 
#
# 1 0.013522 -0.010140 -0.003175 0.000000 0.000000 0.000000
# 2 -0.010140 0.020041 -0.000840 0.000000 0.000000 0.000000
# 3 -0.003175 -0.000840 0.008737 0.000000 0.000000 0.000000
# 4 0.000000 0.000000 0.000000 0.028198 0.000000 0.000000
# 5 0.000000 0.000000 0.000000 0.000000 0.037450 0.000000
# 6 0.000000 0.000000 0.000000 0.000000 0.000000 0.028823
#
#
# Mechanical properties :
#
#
# Convention : Reuss Voigt Hill
#
# Bulk Modulus (GPa) = 71.48499 79.81114 75.64807
# Shear Modulus (GPa) = 29.45567 32.86718 31.16142
#
# Velocity S-wave (km/s) = 3.92359 4.14458 4.03560
# Velocity P-wave (km/s) = 7.60833 8.03838 7.82631
#
# Compressibility (1/GPa) = 0.01398895
#
# Stress axis : x y z
#
# Youngs Moduli (GPa) = 73.95161 49.89680 114.45806
#
# Poissons Ratio (x) = 0.50597 0.36341
# Poissons Ratio (y) = 0.74989 0.09620
# Poissons Ratio (z) = 0.23480 0.04194
#
# Static dielectric constant tensor:
#      x y z
#    x 1.704350 0.000000 0.000000 
#    y 0.000000 1.647880 0.000000 
#    z 0.000000 0.000000 1.635310 
# 
# From -- ./inp_files/6509.got.cif
#   From: 2010.05.17/outbox.cif.g08.bks.cpg/sg49_4_cif.got.tgz:6509.got - 2010.06.03 21:02:19.
