data_PCOD9392024
_publ_section_title
;
Structure prediction by ZEFSAII (Michael W. Deem and Ramdas Pophale) SiO2 
 PCOD9392024
Probable space group: P C C M
;
_chemical_formula_sum "Si O2"
_cell_formula_units_Z 38
_cell_length_a 21.326111
_cell_length_b 7.407842
_cell_length_c 10.613956
_cell_angle_alpha 90.000000
_cell_angle_beta 90.000000
_cell_angle_gamma 90.000000
_cell_volume 1676.797659
_symmetry_space_group_name_H-M "P C C M"
_symmetry_group_IT_number 49
_symmetry_cell_setting 'orthorhombic'
loop_
_space_group_symop_operation_xyz
x,y,z
-x,-y,z
x,-y,1/2-z
-x,y,1/2-z
-x,-y,-z
x,y,-z
-x,y,1/2+z
x,-y,1/2+z
loop_
_atom_site_type_symbol
_atom_site_label
_atom_site_fract_x
_atom_site_fract_y
_atom_site_fract_z
Si Si1 0.000000 0.000000 0.500000
Si Si2 0.572563 0.720786 0.247696
Si Si3 0.213558 0.195491 0.500000
Si Si4 0.861928 0.224273 0.755520
Si Si5 0.640279 0.270139 0.000000
Si Si6 0.000000 0.239295 0.750000
Si Si7 0.795519 0.231508 0.500000
Si Si8 0.353320 0.702940 0.500000
O O1 0.984675 0.143587 0.614820
O O2 0.572979 0.500000 0.250000
O O3 0.500000 0.775465 0.250000
O O4 0.606096 0.789345 0.373226
O O5 0.611821 0.774126 0.124445
O O6 0.182551 0.268153 0.626892
O O7 0.287567 0.217141 0.500000
O O8 0.198112 0.984357 0.500000
O O9 0.829728 0.289956 0.627536
O O10 0.930225 0.307181 0.779743
O O11 0.868695 0.000000 0.750000
O O12 0.637536 0.487442 0.000000
O O13 0.721272 0.268530 0.500000
#
# Coordination Sequence:
#
# PCOD9392024 Si02
#       8
#     2   8   4   8   4   4   4   4
#     4  10  16  22  40  62  92 118 150 194 246 290
#     4   9  17  30  52  78  98 119 156 205 245 277
#     4  10  21  32  47  70  99 132 159 194 237 292
#     4  10  18  29  45  67  97 126 162 195 248 285
#     4  10  19  33  52  73  98 127 161 196 237 284
#     4  11  18  26  44  68  95 124 159 208 249 284
#     4  10  21  32  47  70  99 132 159 194 237 292
#     4  10  19  33  52  73  98 127 161 196 237 284
#
# _framework density 22.662247000000001
#
# number of rings (size 3 to 8) (size 9 to 14) (size 15 to 20)
#    0.000    2.105    2.105    3.158    2.947    2.526 
#    0.000    0.000    0.000    3.789    0.000    4.421 
#    0.000    0.000    0.000    0.000    0.000    0.000 
#
# Total GULP energy -211541.917915 kJ/mol
# GULP energy per Si atom -5566.892577 kJ/mol
# Density = 2.261067 g / cm^3
# Si number density = 22.662247 Si / 1000 Ang^3
#
#
#
# Elastic Constant Matrix: (Units=GPa)
#
#
# Indices 1 2 3 4 5 6 
#
# 1 208.8229 -33.4967 85.5726 0.0000 0.0000 0.0000
# 2 -33.4967 50.3003 -18.5883 0.0000 0.0000 0.0000
# 3 85.5726 -18.5883 203.9492 0.0000 0.0000 0.0000
# 4 0.0000 0.0000 0.0000 -12.3637 0.0000 0.0000
# 5 0.0000 0.0000 0.0000 0.0000 29.0407 0.0000
# 6 0.0000 0.0000 0.0000 0.0000 0.0000 40.9403
#
#
#
# Elastic Compliance Matrix: (Units=1/GPa)
#
#
# Indices 1 2 3 4 5 6 
#
# 1 0.006276 0.003318 -0.002331 0.000000 0.000000 0.000000
# 2 0.003318 0.022328 0.000643 0.000000 0.000000 0.000000
# 3 -0.002331 0.000643 0.005940 0.000000 0.000000 0.000000
# 4 0.000000 0.000000 0.000000 -0.080882 0.000000 0.000000
# 5 0.000000 0.000000 0.000000 0.000000 0.034434 0.000000
# 6 0.000000 0.000000 0.000000 0.000000 0.000000 0.024426
#
#
# Mechanical properties :
#
#
# Convention : Reuss Voigt Hill
#
# Bulk Modulus (GPa) = 26.45243 58.89419 42.67331
# Shear Modulus (GPa) = 228.69139 40.16245 134.42692
#
# Velocity S-wave (km/s) = 10.05644 4.21434 7.71014
# Velocity P-wave (km/s) = 12.10539 7.05160 9.90620
#
# Compressibility (1/GPa) = 0.03780370
#
# Stress axis : x y z
#
# Youngs Moduli (GPa) = 159.33262 44.78725 168.35672
#
# Poissons Ratio (x) = -0.14861 0.39243
# Poissons Ratio (y) = -0.52869 -0.10822
# Poissons Ratio (z) = 0.37139 -0.02879
#
# Static dielectric constant tensor:
#      x y z
#    x 1.810670 0.000000 0.000000 
#    y 0.000000 2.047100 0.000000 
#    z 0.000000 0.000000 1.837160 
# 
# From -- ./inp_files/6283.got.cif
#   From: 2010.05.17/outbox.cif.g08.bks.cpg/sg49_4_cif.got.tgz:6283.got - 2010.06.03 21:02:19.
