data_PCOD9392374
_publ_section_title
;
Structure prediction by ZEFSAII (Michael W. Deem and Ramdas Pophale) SiO2 
 PCOD9392374
Probable space group: P C C M
;
_chemical_formula_sum "Si O2"
_cell_formula_units_Z 48
_cell_length_a 18.351013
_cell_length_b 18.549199
_cell_length_c 8.515184
_cell_angle_alpha 90.000000
_cell_angle_beta 90.000000
_cell_angle_gamma 90.000000
_cell_volume 2898.539614
_symmetry_space_group_name_H-M "P C C M"
_symmetry_group_IT_number 49
_symmetry_cell_setting 'orthorhombic'
loop_
_space_group_symop_operation_xyz
x,y,z
-x,-y,z
x,-y,1/2-z
-x,y,1/2-z
-x,-y,-z
x,y,-z
-x,y,1/2+z
x,-y,1/2+z
loop_
_atom_site_type_symbol
_atom_site_label
_atom_site_fract_x
_atom_site_fract_y
_atom_site_fract_z
Si Si1 0.196749 0.312615 0.686405
Si Si2 0.314978 0.420706 0.816768
Si Si3 0.917646 0.577384 0.813201
Si Si4 0.420378 0.918124 0.809662
Si Si5 0.575454 0.321159 0.819622
Si Si6 0.695636 0.804635 0.317706
O O1 0.185593 0.305313 0.500000
O O2 0.259236 0.371423 0.720170
O O3 0.126936 0.351777 0.760894
O O4 0.232086 0.236623 0.747062
O O5 0.312511 0.500000 0.750000
O O6 0.393403 0.385516 0.785604
O O7 0.295917 0.418346 0.000000
O O8 0.887231 0.500000 0.750000
O O9 0.000000 0.582400 0.750000
O O10 0.917851 0.572872 0.000000
O O11 0.500000 0.891356 0.750000
O O12 0.349708 0.872602 0.752135
O O13 0.414066 0.000000 0.750000
O O14 0.421665 0.915552 0.000000
O O15 0.500000 0.295163 0.750000
O O16 0.633813 0.257073 0.815758
O O17 0.568099 0.344550 0.000000
O O18 0.712677 0.821679 0.500000
#
# Coordination Sequence:
#
# PCOD9392374 Si02
#       6
#     8   8   8   8   8   8
#     4  10  19  34  51  69  92 121 153 191 232 278
#     4  11  21  33  46  62  82 110 146 187 229 274
#     4  11  21  34  51  74 100 130 162 197 236 281
#     4  10  18  30  46  69  96 127 160 196 237 282
#     4  10  19  32  46  62  81 108 144 187 232 276
#     4   8  17  31  48  66  90 120 153 188 230 277
#
# _framework density 16.560065000000002
#
# number of rings (size 3 to 8) (size 9 to 14) (size 15 to 20)
#    0.000    2.000    0.000    7.500    0.000    0.333 
#    0.000   10.833    0.000    0.000    0.000    0.000 
#    0.000    0.667    0.000    7.667    0.000    2.333 
#
# Total GULP energy -267374.867782 kJ/mol
# GULP energy per Si atom -5570.309745 kJ/mol
# Density = 1.652237 g / cm^3
# Si number density = 16.560065 Si / 1000 Ang^3
#
#
#
# Elastic Constant Matrix: (Units=GPa)
#
#
# Indices 1 2 3 4 5 6 
#
# 1 67.4182 32.3982 21.6225 0.0000 0.0000 0.0000
# 2 32.3982 78.0397 12.2034 0.0000 0.0000 0.0000
# 3 21.6225 12.2034 56.0415 0.0000 0.0000 0.0000
# 4 0.0000 0.0000 0.0000 14.1963 0.0000 0.0000
# 5 0.0000 0.0000 0.0000 0.0000 21.9001 0.0000
# 6 0.0000 0.0000 0.0000 0.0000 0.0000 -16.7164
#
#
#
# Elastic Compliance Matrix: (Units=1/GPa)
#
#
# Indices 1 2 3 4 5 6 
#
# 1 0.020448 -0.007511 -0.006254 0.000000 0.000000 0.000000
# 2 -0.007511 0.016025 -0.000591 0.000000 0.000000 0.000000
# 3 -0.006254 -0.000591 0.020386 0.000000 0.000000 0.000000
# 4 0.000000 0.000000 0.000000 0.070441 0.000000 0.000000
# 5 0.000000 0.000000 0.000000 0.000000 0.045662 0.000000
# 6 0.000000 0.000000 0.000000 0.000000 0.000000 -0.059821
#
#
# Mechanical properties :
#
#
# Convention : Reuss Voigt Hill
#
# Bulk Modulus (GPa) = 35.52962 37.10529 36.31746
# Shear Modulus (GPa) = 33.06129 12.89436 22.97783
#
# Velocity S-wave (km/s) = 4.47301 2.79344 3.72902
# Velocity P-wave (km/s) = 6.94109 5.73233 6.36546
#
# Compressibility (1/GPa) = 0.02814553
#
# Stress axis : x y z
#
# Youngs Moduli (GPa) = 48.90444 62.40367 49.05406
#
# Poissons Ratio (x) = 0.46872 0.30678
# Poissons Ratio (y) = 0.36732 0.02901
# Poissons Ratio (z) = 0.30584 0.03691
#
# Static dielectric constant tensor:
#      x y z
#    x 1.597040 0.000000 0.000000 
#    y 0.000000 1.571020 0.000000 
#    z 0.000000 0.000000 1.607640 
# 
# From -- ./inp_files/4963.got.cif
#   From: 2010.05.17/outbox.cif.g08.bks.cpg/sg49_3_cif.got.tgz:4963.got - 2010.06.03 21:02:19.
