data_PCOD9392940
_publ_section_title
;
Structure prediction by ZEFSAII (Michael W. Deem and Ramdas Pophale) SiO2 
 PCOD9392940
Probable space group: P C C M
;
_chemical_formula_sum "Si O2"
_cell_formula_units_Z 56
_cell_length_a 10.395278
_cell_length_b 18.779298
_cell_length_c 15.821408
_cell_angle_alpha 90.000000
_cell_angle_beta 90.000000
_cell_angle_gamma 90.000000
_cell_volume 3088.592354
_symmetry_space_group_name_H-M "P C C M"
_symmetry_group_IT_number 49
_symmetry_cell_setting 'orthorhombic'
loop_
_space_group_symop_operation_xyz
x,y,z
-x,-y,z
x,-y,1/2-z
-x,y,1/2-z
-x,-y,-z
x,y,-z
-x,y,1/2+z
x,-y,1/2+z
loop_
_atom_site_type_symbol
_atom_site_label
_atom_site_fract_x
_atom_site_fract_y
_atom_site_fract_z
Si Si1 0.494871 0.917224 0.100610
Si Si2 0.656259 0.418782 0.250539
Si Si3 0.652409 0.682802 0.096004
Si Si4 0.260425 0.167549 0.841975
Si Si5 0.239728 0.169184 0.642015
Si Si6 0.990470 0.081846 0.353162
Si Si7 0.345274 0.680390 0.905473
O O1 0.606750 0.874624 0.147265
O O2 0.357886 0.882882 0.121074
O O3 0.500000 0.000000 0.124207
O O4 0.517661 0.911027 0.000000
O O5 0.702913 0.500000 0.250000
O O6 0.500000 0.421339 0.250000
O O7 0.692135 0.374896 0.334296
O O8 0.694338 0.374175 0.167641
O O9 0.723739 0.757078 0.112264
O O10 0.498248 0.696348 0.106734
O O11 0.672267 0.658442 0.000000
O O12 0.237106 0.180851 0.742918
O O13 0.144108 0.118913 0.875174
O O14 0.108589 0.130207 0.616124
O O15 0.269597 0.245574 0.601962
O O16 0.000000 0.080173 0.250000
O O17 0.000000 0.000000 0.382026
O O18 0.330487 0.650774 0.000000
#
# Coordination Sequence:
#
# PCOD9392940 Si02
#       7
#     8   8   8   8   8   8   8
#     4  11  23  35  49  75 107 140 185 235 281 333
#     4   9  18  32  52  81 114 147 181 217 271 335
#     4  10  19  32  52  80 113 146 183 227 272 325
#     4  11  20  34  56  78 105 144 189 232 281 334
#     4  11  20  34  56  78 105 144 189 232 281 334
#     4   9  20  36  53  77 109 143 187 242 289 332
#     4  10  19  32  52  80 113 146 183 227 272 325
#
# _framework density 18.131236999999999
#
# number of rings (size 3 to 8) (size 9 to 14) (size 15 to 20)
#    0.000    1.857    2.857    2.143    0.000    2.857 
#    0.000    5.714    0.000    5.143    0.000    2.000 
#    0.000    2.286    0.000    0.000    0.000    0.000 
#
# Total GULP energy -312691.545640 kJ/mol
# GULP energy per Si atom -5583.777601 kJ/mol
# Density = 1.808997 g / cm^3
# Si number density = 18.131237 Si / 1000 Ang^3
#
#
#
# Elastic Constant Matrix: (Units=GPa)
#
#
# Indices 1 2 3 4 5 6 
#
# 1 44.3998 16.5380 6.0928 0.0000 0.0000 0.0000
# 2 16.5380 131.5994 51.7726 0.0000 0.0000 0.0000
# 3 6.0928 51.7726 92.3277 0.0000 0.0000 0.0000
# 4 0.0000 0.0000 0.0000 6.9540 0.0000 0.0000
# 5 0.0000 0.0000 0.0000 0.0000 -9.1266 0.0000
# 6 0.0000 0.0000 0.0000 0.0000 0.0000 12.3394
#
#
#
# Elastic Compliance Matrix: (Units=1/GPa)
#
#
# Indices 1 2 3 4 5 6 
#
# 1 0.023630 -0.003023 0.000136 0.000000 0.000000 0.000000
# 2 -0.003023 0.010136 -0.005484 0.000000 0.000000 0.000000
# 3 0.000136 -0.005484 0.013897 0.000000 0.000000 0.000000
# 4 0.000000 0.000000 0.000000 0.143801 0.000000 0.000000
# 5 0.000000 0.000000 0.000000 0.000000 -0.109570 0.000000
# 6 0.000000 0.000000 0.000000 0.000000 0.000000 0.081041
#
#
# Mechanical properties :
#
#
# Convention : Reuss Voigt Hill
#
# Bulk Modulus (GPa) = 32.34109 46.34821 39.34465
# Shear Modulus (GPa) = 26.31765 14.96160 20.63963
#
# Velocity S-wave (km/s) = 3.81400 2.87572 3.37760
# Velocity P-wave (km/s) = 6.10503 6.05347 6.07930
#
# Compressibility (1/GPa) = 0.03092041
#
# Stress axis : x y z
#
# Youngs Moduli (GPa) = 42.31912 98.65473 71.95577
#
# Poissons Ratio (x) = 0.29823 -0.00977
# Poissons Ratio (y) = 0.12793 0.39464
# Poissons Ratio (z) = -0.00575 0.54107
#
# Static dielectric constant tensor:
#      x y z
#    x 1.597510 0.000000 0.000000 
#    y 0.000000 1.601310 0.000000 
#    z 0.000000 0.000000 1.656450 
# 
# From -- ./inp_files/12036.got.cif
#   From: 2010.05.17/outbox.cif.g08.bks.cpg/sg49_7_cif.got.tgz:12036.got - 2010.06.03 21:02:19.
