data_PCOD9392351
_publ_section_title
;
Structure prediction by ZEFSAII (Michael W. Deem and Ramdas Pophale) SiO2 
 PCOD9392351
Probable space group: P C C M
;
_chemical_formula_sum "Si O2"
_cell_formula_units_Z 64
_cell_length_a 16.779029
_cell_length_b 13.290497
_cell_length_c 17.552828
_cell_angle_alpha 90.000000
_cell_angle_beta 90.000000
_cell_angle_gamma 90.000000
_cell_volume 3914.309336
_symmetry_space_group_name_H-M "P C C M"
_symmetry_group_IT_number 49
_symmetry_cell_setting 'orthorhombic'
loop_
_space_group_symop_operation_xyz
x,y,z
-x,-y,z
x,-y,1/2-z
-x,y,1/2-z
-x,-y,-z
x,y,-z
-x,y,1/2+z
x,-y,1/2+z
loop_
_atom_site_type_symbol
_atom_site_label
_atom_site_fract_x
_atom_site_fract_y
_atom_site_fract_z
Si Si1 0.441817 0.728797 0.685281
Si Si2 0.341611 0.109447 0.719362
Si Si3 0.700015 0.587477 0.190996
Si Si4 0.844355 0.525866 0.911686
Si Si5 0.104952 0.292646 0.586801
Si Si6 0.049888 0.686653 0.675013
Si Si7 0.539983 0.889996 0.590493
Si Si8 0.807114 0.765753 0.263288
O O1 0.500000 0.682952 0.750000
O O2 0.393352 0.812336 0.732453
O O3 0.377222 0.646302 0.659359
O O4 0.488771 0.795168 0.622728
O O5 0.375318 0.115249 0.633774
O O6 0.250920 0.139610 0.735065
O O7 0.358599 0.000000 0.750000
O O8 0.677106 0.500000 0.250000
O O9 0.757995 0.540547 0.126995
O O10 0.753702 0.669773 0.236976
O O11 0.876029 0.412029 0.909350
O O12 0.904275 0.594442 0.863316
O O13 0.842621 0.557785 0.000000
O O14 0.117615 0.259616 0.500000
O O15 0.160908 0.246618 0.651320
O O16 0.014568 0.274297 0.614680
O O17 0.117142 0.763235 0.706501
O O18 0.000000 0.654735 0.750000
O O19 0.547152 0.883302 0.500000
O O20 0.500000 0.000000 0.608356
#
# Coordination Sequence:
#
# PCOD9392351 Si02
#       8
#     8   8   8   8   8   8   8   8
#     4   9  19  32  52  77  97 132 173 208 251 299
#     4  10  18  33  55  74  99 128 162 213 255 300
#     4  10  18  32  49  68 103 140 171 207 245 294
#     4  10  19  29  44  70 100 132 167 204 253 302
#     4  10  18  29  46  69  98 131 166 205 249 296
#     4   9  18  29  46  67  96 127 168 215 252 293
#     4  10  19  32  53  81 108 130 161 213 271 316
#     4   9  19  31  47  74  94 129 173 204 251 301
#
# _framework density 16.350266000000001
#
# number of rings (size 3 to 8) (size 9 to 14) (size 15 to 20)
#    0.000    2.375    2.500    0.750    0.000    3.750 
#    0.000    0.000    0.000    4.125    0.000    4.375 
#    0.000    0.000    0.000    0.000    0.000    0.000 
#
# Total GULP energy -356353.872920 kJ/mol
# GULP energy per Si atom -5568.029264 kJ/mol
# Density = 1.631305 g / cm^3
# Si number density = 16.350266 Si / 1000 Ang^3
#
#
#
# Elastic Constant Matrix: (Units=GPa)
#
#
# Indices 1 2 3 4 5 6 
#
# 1 82.4952 19.8473 31.3732 0.0000 0.0000 0.0000
# 2 19.8473 22.2651 11.1819 0.0000 0.0000 0.0000
# 3 31.3732 11.1819 81.4483 0.0000 0.0000 0.0000
# 4 0.0000 0.0000 0.0000 11.6385 0.0000 0.0000
# 5 0.0000 0.0000 0.0000 0.0000 9.7217 0.0000
# 6 0.0000 0.0000 0.0000 0.0000 0.0000 10.8130
#
#
#
# Elastic Compliance Matrix: (Units=1/GPa)
#
#
# Indices 1 2 3 4 5 6 
#
# 1 0.017018 -0.012758 -0.004804 0.000000 0.000000 0.000000
# 2 -0.012758 0.057803 -0.003022 0.000000 0.000000 0.000000
# 3 -0.004804 -0.003022 0.014543 0.000000 0.000000 0.000000
# 4 0.000000 0.000000 0.000000 0.085922 0.000000 0.000000
# 5 0.000000 0.000000 0.000000 0.000000 0.102863 0.000000
# 6 0.000000 0.000000 0.000000 0.000000 0.000000 0.092481
#
#
# Mechanical properties :
#
#
# Convention : Reuss Voigt Hill
#
# Bulk Modulus (GPa) = 20.74761 34.55703 27.65232
# Shear Modulus (GPa) = 11.68602 14.68839 13.18720
#
# Velocity S-wave (km/s) = 2.67634 3.00051 2.84305
# Velocity P-wave (km/s) = 4.71884 5.76068 5.26559
#
# Compressibility (1/GPa) = 0.04819832
#
# Stress axis : x y z
#
# Youngs Moduli (GPa) = 58.76094 17.30011 68.76197
#
# Poissons Ratio (x) = 0.22071 0.33032
# Poissons Ratio (y) = 0.74965 0.20777
# Poissons Ratio (z) = 0.28227 0.05227
#
# Static dielectric constant tensor:
#      x y z
#    x 1.583530 0.000000 0.000000 
#    y 0.000000 1.525150 0.000000 
#    z 0.000000 0.000000 1.539130 
# 
# From -- ./inp_files/18023.got.cif
#   From: 2010.05.17/outbox.cif.g08.bks.cpg/sg49_10_cif.got.tgz:18023.got - 2010.06.03 21:02:19.
