data_PCOD9392655
_publ_section_title
;
Structure prediction by ZEFSAII (Michael W. Deem and Ramdas Pophale) SiO2 
 PCOD9392655
Probable space group: P C C M
;
_chemical_formula_sum "Si O2"
_cell_formula_units_Z 56
_cell_length_a 18.668403
_cell_length_b 21.915203
_cell_length_c 8.848008
_cell_angle_alpha 90.000000
_cell_angle_beta 90.000000
_cell_angle_gamma 90.000000
_cell_volume 3619.913326
_symmetry_space_group_name_H-M "P C C M"
_symmetry_group_IT_number 49
_symmetry_cell_setting 'orthorhombic'
loop_
_space_group_symop_operation_xyz
x,y,z
-x,-y,z
x,-y,1/2-z
-x,y,1/2-z
-x,-y,-z
x,y,-z
-x,y,1/2+z
x,-y,1/2+z
loop_
_atom_site_type_symbol
_atom_site_label
_atom_site_fract_x
_atom_site_fract_y
_atom_site_fract_z
Si Si1 0.157642 0.311334 0.182391
Si Si2 0.654685 0.064613 0.317612
Si Si3 0.796763 0.127000 0.326798
Si Si4 0.701784 0.748904 0.826506
Si Si5 0.422645 0.817238 0.179544
Si Si6 0.077875 0.194498 0.320671
Si Si7 0.079127 0.436269 0.818657
O O1 0.240858 0.301464 0.225172
O O2 0.110211 0.258249 0.257573
O O3 0.127177 0.377714 0.218843
O O4 0.153739 0.302704 0.000000
O O5 0.650026 0.065674 0.500000
O O6 0.738145 0.077655 0.275706
O O7 0.608112 0.119914 0.250762
O O8 0.632042 0.000000 0.250000
O O9 0.818230 0.114523 0.500000
O O10 0.750013 0.189446 0.327992
O O11 0.865965 0.142004 0.228451
O O12 0.633770 0.764654 0.725738
O O13 0.679518 0.737357 0.000000
O O14 0.500000 0.805127 0.250000
O O15 0.426780 0.823286 0.000000
O O16 0.072892 0.197883 0.500000
O O17 0.000000 0.184545 0.250000
O O18 0.106261 0.500000 0.750000
O O19 0.000000 0.426598 0.750000
O O20 0.073835 0.441341 0.000000
#
# Coordination Sequence:
#
# PCOD9392655 Si02
#       7
#     8   8   8   8   8   8   8
#     4   9  18  31  46  64  89 119 152 188 227 268
#     4  10  20  34  51  70  91 117 148 181 215 258
#     4   8  16  31  47  63  87 114 141 177 222 266
#     4   8  15  30  48  66  89 116 145 181 223 266
#     4  11  21  33  49  70  96 123 149 178 216 262
#     4  11  20  28  43  65  88 113 145 185 229 271
#     4  10  19  30  43  61  88 125 162 196 231 266
#
# _framework density 15.469982999999999
#
# number of rings (size 3 to 8) (size 9 to 14) (size 15 to 20)
#    0.000    2.429    0.000    6.000    0.000    8.286 
#    0.000    1.429    0.000    0.429    0.000    3.000 
#    0.000    0.571    0.000    6.571    0.000    2.000 
#
# Total GULP energy -312156.722107 kJ/mol
# GULP energy per Si atom -5574.227180 kJ/mol
# Density = 1.543477 g / cm^3
# Si number density = 15.469983 Si / 1000 Ang^3
#
#
#
# Elastic Constant Matrix: (Units=GPa)
#
#
# Indices 1 2 3 4 5 6 
#
# 1 104.6529 25.7520 50.5386 0.0000 0.0000 0.0000
# 2 25.7520 38.9696 15.1035 0.0000 0.0000 0.0000
# 3 50.5386 15.1035 74.8111 0.0000 0.0000 0.0000
# 4 0.0000 0.0000 0.0000 -88.9610 0.0000 0.0000
# 5 0.0000 0.0000 0.0000 0.0000 24.4510 0.0000
# 6 0.0000 0.0000 0.0000 0.0000 0.0000 18.9268
#
#
#
# Elastic Compliance Matrix: (Units=1/GPa)
#
#
# Indices 1 2 3 4 5 6 
#
# 1 0.015679 -0.006787 -0.009222 0.000000 0.000000 0.000000
# 2 -0.006787 0.030777 -0.001629 0.000000 0.000000 0.000000
# 3 -0.009222 -0.001629 0.019925 0.000000 0.000000 0.000000
# 4 0.000000 0.000000 0.000000 -0.011241 0.000000 0.000000
# 5 0.000000 0.000000 0.000000 0.000000 0.040898 0.000000
# 6 0.000000 0.000000 0.000000 0.000000 0.000000 0.052835
#
#
# Mechanical properties :
#
#
# Convention : Reuss Voigt Hill
#
# Bulk Modulus (GPa) = 32.14697 44.58019 38.36358
# Shear Modulus (GPa) = 25.70472 -0.64733 12.52869
#
# Velocity S-wave (km/s) = 4.08068 -0.64757 2.84891
# Velocity P-wave (km/s) = 6.55957 5.32171 5.97280
#
# Compressibility (1/GPa) = 0.03110713
#
# Stress axis : x y z
#
# Youngs Moduli (GPa) = 63.78093 32.49161 50.18709
#
# Poissons Ratio (x) = 0.22051 0.46280
# Poissons Ratio (y) = 0.43287 0.08174
# Poissons Ratio (z) = 0.58816 0.05292
#
# Static dielectric constant tensor:
#      x y z
#    x 1.521850 0.000000 0.000000 
#    y 0.000000 1.511980 0.000000 
#    z 0.000000 0.000000 1.516280 
# 
# From -- ./inp_files/5349.got.cif
#   From: 2010.05.17/outbox.cif.g08.bks.cpg/sg49_3_cif.got.tgz:5349.got - 2010.06.03 21:02:19.
