data_PCOD9392712
_publ_section_title
;
Structure prediction by ZEFSAII (Michael W. Deem and Ramdas Pophale) SiO2 
 PCOD9392712
Probable space group: P C C M
;
_chemical_formula_sum "Si O2"
_cell_formula_units_Z 56
_cell_length_a 23.763059
_cell_length_b 14.632356
_cell_length_c 8.582692
_cell_angle_alpha 90.000000
_cell_angle_beta 90.000000
_cell_angle_gamma 90.000000
_cell_volume 2984.283878
_symmetry_space_group_name_H-M "P C C M"
_symmetry_group_IT_number 49
_symmetry_cell_setting 'orthorhombic'
loop_
_space_group_symop_operation_xyz
x,y,z
-x,-y,z
x,-y,1/2-z
-x,y,1/2-z
-x,-y,-z
x,y,-z
-x,y,1/2+z
x,-y,1/2+z
loop_
_atom_site_type_symbol
_atom_site_label
_atom_site_fract_x
_atom_site_fract_y
_atom_site_fract_z
Si Si1 0.061211 0.602176 0.185987
Si Si2 0.798516 0.904427 0.682176
Si Si3 0.320140 0.169405 0.317255
Si Si4 0.284400 0.355321 0.180610
Si Si5 0.557923 0.209848 0.815720
Si Si6 0.167579 0.707659 0.687551
Si Si7 0.404539 0.405899 0.187638
O O1 0.072021 0.500000 0.250000
O O2 0.110383 0.668070 0.244419
O O3 0.000000 0.630285 0.250000
O O4 0.059644 0.599320 0.000000
O O5 0.811757 0.898588 0.500000
O O6 0.730249 0.901773 0.697646
O O7 0.821519 0.812377 0.762234
O O8 0.819566 0.000000 0.750000
O O9 0.317656 0.201534 0.500000
O O10 0.302621 0.249913 0.200532
O O11 0.385565 0.150831 0.284854
O O12 0.221085 0.353994 0.245768
O O13 0.339447 0.403417 0.249428
O O14 0.280823 0.382163 0.000000
O O15 0.500000 0.171447 0.750000
O O16 0.568110 0.311419 0.745194
O O17 0.552397 0.220258 0.000000
O O18 0.167117 0.703079 0.500000
O O19 0.430353 0.500000 0.250000
O O20 0.404653 0.405659 0.000000
#
# Coordination Sequence:
#
# PCOD9392712 Si02
#       7
#     8   8   8   8   8   8   8
#     4  11  22  38  58  82 112 150 193 236 275 316
#     4  10  19  33  54  83 113 144 178 218 267 323
#     4   8  16  30  48  68  94 124 158 198 247 302
#     4   8  16  29  46  67  93 123 159 200 249 304
#     4  10  19  32  48  66  86 116 157 204 253 308
#     4  10  19  34  55  82 113 146 182 224 270 321
#     4  10  19  31  44  62  88 120 156 200 251 307
#
# _framework density 18.764970999999999
#
# number of rings (size 3 to 8) (size 9 to 14) (size 15 to 20)
#    0.000    2.429    0.000    3.429    0.000    3.143 
#    0.000    2.857    0.000    0.857    0.000    6.000 
#    0.000    0.000    0.000    0.000    0.000    0.000 
#
# Total GULP energy -311922.769288 kJ/mol
# GULP energy per Si atom -5570.049452 kJ/mol
# Density = 1.872226 g / cm^3
# Si number density = 18.764971 Si / 1000 Ang^3
#
#
#
# Elastic Constant Matrix: (Units=GPa)
#
#
# Indices 1 2 3 4 5 6 
#
# 1 138.6406 32.5325 40.8367 0.0000 0.0000 0.0000
# 2 32.5325 34.5212 19.7417 0.0000 0.0000 0.0000
# 3 40.8367 19.7417 73.5512 0.0000 0.0000 0.0000
# 4 0.0000 0.0000 0.0000 16.9194 0.0000 0.0000
# 5 0.0000 0.0000 0.0000 0.0000 24.8581 0.0000
# 6 0.0000 0.0000 0.0000 0.0000 0.0000 8.0436
#
#
#
# Elastic Compliance Matrix: (Units=1/GPa)
#
#
# Indices 1 2 3 4 5 6 
#
# 1 0.009996 -0.007379 -0.003569 0.000000 0.000000 0.000000
# 2 -0.007379 0.039667 -0.006550 0.000000 0.000000 0.000000
# 3 -0.003569 -0.006550 0.017336 0.000000 0.000000 0.000000
# 4 0.000000 0.000000 0.000000 0.059104 0.000000 0.000000
# 5 0.000000 0.000000 0.000000 0.000000 0.040228 0.000000
# 6 0.000000 0.000000 0.000000 0.000000 0.000000 0.124323
#
#
# Mechanical properties :
#
#
# Convention : Reuss Voigt Hill
#
# Bulk Modulus (GPa) = 31.24770 48.10387 39.67579
# Shear Modulus (GPa) = 14.86691 20.20436 17.53563
#
# Velocity S-wave (km/s) = 2.81778 3.28488 3.06026
# Velocity P-wave (km/s) = 5.22253 6.33071 5.80313
#
# Compressibility (1/GPa) = 0.03200235
#
# Stress axis : x y z
#
# Youngs Moduli (GPa) = 100.04362 25.20975 57.68410
#
# Poissons Ratio (x) = 0.18601 0.20589
# Poissons Ratio (y) = 0.73819 0.37785
# Poissons Ratio (z) = 0.35708 0.16513
#
# Static dielectric constant tensor:
#      x y z
#    x 1.693470 0.000000 0.000000 
#    y 0.000000 1.627000 0.000000 
#    z 0.000000 0.000000 1.646300 
# 
# From -- ./inp_files/5819.got.cif
#   From: 2010.05.17/outbox.cif.g08.bks.cpg/sg49_3_cif.got.tgz:5819.got - 2010.06.03 21:02:19.
