data_PCOD9392267
_publ_section_title
;
Structure prediction by ZEFSAII (Michael W. Deem and Ramdas Pophale) SiO2 
 PCOD9392267
Probable space group: P C C M
;
_chemical_formula_sum "Si O2"
_cell_formula_units_Z 64
_cell_length_a 15.673393
_cell_length_b 12.378241
_cell_length_c 14.671116
_cell_angle_alpha 90.000000
_cell_angle_beta 90.000000
_cell_angle_gamma 90.000000
_cell_volume 2846.329070
_symmetry_space_group_name_H-M "P C C M"
_symmetry_group_IT_number 49
_symmetry_cell_setting 'orthorhombic'
loop_
_space_group_symop_operation_xyz
x,y,z
-x,-y,z
x,-y,1/2-z
-x,y,1/2-z
-x,-y,-z
x,y,-z
-x,y,1/2+z
x,-y,1/2+z
loop_
_atom_site_type_symbol
_atom_site_label
_atom_site_fract_x
_atom_site_fract_y
_atom_site_fract_z
Si Si1 0.173760 0.993716 0.360250
Si Si2 0.416034 0.214090 0.611552
Si Si3 0.368834 0.014571 0.104647
Si Si4 0.899051 0.764262 0.146229
Si Si5 0.088637 0.211370 0.363748
Si Si6 0.744202 0.349168 0.894463
Si Si7 0.244861 0.591755 0.610253
Si Si8 0.397601 0.255845 0.111156
O O1 0.110092 0.088292 0.390481
O O2 0.176909 0.000000 0.250000
O O3 0.269015 0.016076 0.393957
O O4 0.144906 0.874292 0.389072
O O5 0.412193 0.207679 0.500000
O O6 0.331995 0.276136 0.645084
O O7 0.503758 0.273545 0.635394
O O8 0.416975 0.089389 0.643780
O O9 0.375402 0.134607 0.144263
O O10 0.397813 0.025790 0.000000
O O11 0.908855 0.783134 0.254111
O O12 0.838274 0.662085 0.133496
O O13 0.994336 0.753269 0.107454
O O14 0.166608 0.286415 0.393096
O O15 0.754869 0.468952 0.855167
O O16 0.719638 0.364362 0.000000
O O17 0.246802 0.588573 0.500000
O O18 0.328230 0.657613 0.642040
O O19 0.392431 0.256004 0.000000
#
# Coordination Sequence:
#
# PCOD9392267 Si02
#       8
#     8   8   8   8   8   8   8   8
#     4  10  19  33  55  80 106 134 167 213 265 314
#     4   9  17  30  51  79 108 137 171 213 260 310
#     4  10  17  29  53  80 106 136 171 211 259 316
#     4  10  21  37  57  79 104 137 175 214 261 318
#     4  10  21  37  57  79 104 137 175 214 261 318
#     4  10  21  36  54  78 107 139 178 222 261 299
#     4  10  21  36  54  78 107 139 178 222 261 299
#     4   9  17  30  51  79 108 137 171 213 260 310
#
# _framework density 22.485102000000001
#
# number of rings (size 3 to 8) (size 9 to 14) (size 15 to 20)
#    0.000    2.250    2.500    0.750    0.000    5.000 
#    0.000    5.000    0.000    6.000    0.000    1.750 
#    0.000    0.000    0.000    0.000    0.000    0.000 
#
# Total GULP energy -357604.783755 kJ/mol
# GULP energy per Si atom -5587.574746 kJ/mol
# Density = 2.243392 g / cm^3
# Si number density = 22.485102 Si / 1000 Ang^3
#
#
#
# Elastic Constant Matrix: (Units=GPa)
#
#
# Indices 1 2 3 4 5 6 
#
# 1 125.5350 44.4709 -25.8337 0.0000 0.0000 0.0000
# 2 44.4709 141.1591 -9.0350 0.0000 0.0000 0.0000
# 3 -25.8337 -9.0350 64.0603 0.0000 0.0000 0.0000
# 4 0.0000 0.0000 0.0000 13.4139 0.0000 0.0000
# 5 0.0000 0.0000 0.0000 0.0000 21.9190 0.0000
# 6 0.0000 0.0000 0.0000 0.0000 0.0000 8.7256
#
#
#
# Elastic Compliance Matrix: (Units=1/GPa)
#
#
# Indices 1 2 3 4 5 6 
#
# 1 0.009690 -0.002828 0.003509 0.000000 0.000000 0.000000
# 2 -0.002828 0.007974 -0.000016 0.000000 0.000000 0.000000
# 3 0.003509 -0.000016 0.017023 0.000000 0.000000 0.000000
# 4 0.000000 0.000000 0.000000 0.074550 0.000000 0.000000
# 5 0.000000 0.000000 0.000000 0.000000 0.045623 0.000000
# 6 0.000000 0.000000 0.000000 0.000000 0.000000 0.114606
#
#
# Mechanical properties :
#
#
# Convention : Reuss Voigt Hill
#
# Bulk Modulus (GPa) = 27.76491 38.88431 33.32461
# Shear Modulus (GPa) = 17.84815 30.22182 24.03499
#
# Velocity S-wave (km/s) = 2.82046 3.67015 3.27300
# Velocity P-wave (km/s) = 4.79391 5.94062 5.39780
#
# Compressibility (1/GPa) = 0.03601668
#
# Stress axis : x y z
#
# Youngs Moduli (GPa) = 103.20092 125.40496 58.74388
#
# Poissons Ratio (x) = 0.35466 -0.20612
# Poissons Ratio (y) = 0.29186 0.00093
# Poissons Ratio (z) = -0.36211 0.00199
#
# Static dielectric constant tensor:
#      x y z
#    x 1.802200 0.000000 0.000000 
#    y 0.000000 1.801860 0.000000 
#    z 0.000000 0.000000 1.950930 
# 
# From -- ./inp_files/17935.got.cif
#   From: 2010.05.17/outbox.cif.g08.bks.cpg/sg49_9_cif.got.tgz:17935.got - 2010.06.03 21:02:19.
