data_PCOD9392950
_publ_section_title
;
Structure prediction by ZEFSAII (Michael W. Deem and Ramdas Pophale) SiO2 
 PCOD9392950
Probable space group: P C C M
;
_chemical_formula_sum "Si O2"
_cell_formula_units_Z 48
_cell_length_a 14.829210
_cell_length_b 21.109383
_cell_length_c 8.657866
_cell_angle_alpha 90.000000
_cell_angle_beta 90.000000
_cell_angle_gamma 90.000000
_cell_volume 2710.219183
_symmetry_space_group_name_H-M "P C C M"
_symmetry_group_IT_number 49
_symmetry_cell_setting 'orthorhombic'
loop_
_space_group_symop_operation_xyz
x,y,z
-x,-y,z
x,-y,1/2-z
-x,y,1/2-z
-x,-y,-z
x,y,-z
-x,y,1/2+z
x,-y,1/2+z
loop_
_atom_site_type_symbol
_atom_site_label
_atom_site_fract_x
_atom_site_fract_y
_atom_site_fract_z
Si Si1 0.905542 0.259802 0.185284
Si Si2 0.600731 0.809167 0.814597
Si Si3 0.712799 0.309074 0.813793
Si Si4 0.712124 0.066937 0.314061
Si Si5 0.094986 0.117038 0.814555
Si Si6 0.400187 0.568957 0.185659
O O1 0.817455 0.299928 0.228513
O O2 0.894805 0.189023 0.253706
O O3 0.000000 0.285253 0.250000
O O4 0.910763 0.255011 0.000000
O O5 0.500000 0.807405 0.750000
O O6 0.656406 0.748704 0.756587
O O7 0.651962 0.873341 0.764128
O O8 0.598361 0.808320 0.000000
O O9 0.668392 0.375620 0.767870
O O10 0.595236 0.433945 0.000000
O O11 0.710692 0.065166 0.500000
O O12 0.815786 0.079469 0.265233
O O13 0.680030 0.000000 0.250000
O O14 0.000000 0.092145 0.750000
O O15 0.091044 0.118340 0.000000
O O16 0.374682 0.500000 0.250000
O O17 0.500000 0.583763 0.250000
O O18 0.293224 0.695448 0.000000
#
# Coordination Sequence:
#
# PCOD9392950 Si02
#       6
#     8   8   8   8   8   8
#     4  10  19  32  53  81 110 141 176 218 267 317
#     4  11  23  39  57  80 107 137 179 226 271 323
#     4  10  21  36  57  84 112 144 181 222 267 317
#     4  10  23  39  55  75 104 139 178 222 270 325
#     4  10  19  34  53  78 106 136 174 217 268 323
#     4  10  20  35  54  81 114 147 183 219 263 316
#
# _framework density 17.710744999999999
#
# number of rings (size 3 to 8) (size 9 to 14) (size 15 to 20)
#    0.000    1.833    1.667    4.000    0.000    6.667 
#    0.000    3.333    0.000    0.500    0.000    3.500 
#    0.000    0.000    0.000    0.000    0.000    0.000 
#
# Total GULP energy -268058.276444 kJ/mol
# GULP energy per Si atom -5584.547426 kJ/mol
# Density = 1.767043 g / cm^3
# Si number density = 17.710745 Si / 1000 Ang^3
#
#
#
# Elastic Constant Matrix: (Units=GPa)
#
#
# Indices 1 2 3 4 5 6 
#
# 1 143.1258 80.5808 33.8205 0.0000 0.0000 0.0000
# 2 80.5808 119.2620 28.8358 0.0000 0.0000 0.0000
# 3 33.8205 28.8358 33.1925 0.0000 0.0000 0.0000
# 4 0.0000 0.0000 0.0000 16.6098 0.0000 0.0000
# 5 0.0000 0.0000 0.0000 0.0000 28.4037 0.0000
# 6 0.0000 0.0000 0.0000 0.0000 0.0000 9.3784
#
#
#
# Elastic Compliance Matrix: (Units=1/GPa)
#
#
# Indices 1 2 3 4 5 6 
#
# 1 0.012370 -0.006723 -0.006764 0.000000 0.000000 0.000000
# 2 -0.006723 0.014268 -0.005545 0.000000 0.000000 0.000000
# 3 -0.006764 -0.005545 0.041837 0.000000 0.000000 0.000000
# 4 0.000000 0.000000 0.000000 0.060205 0.000000 0.000000
# 5 0.000000 0.000000 0.000000 0.000000 0.035207 0.000000
# 6 0.000000 0.000000 0.000000 0.000000 0.000000 0.106628
#
#
# Mechanical properties :
#
#
# Convention : Reuss Voigt Hill
#
# Bulk Modulus (GPa) = 32.88295 64.67275 48.77785
# Shear Modulus (GPa) = 15.68798 21.03459 18.36128
#
# Velocity S-wave (km/s) = 2.97945 3.45000 3.22332
# Velocity P-wave (km/s) = 5.51753 7.24330 6.43850
#
# Compressibility (1/GPa) = 0.03041090
#
# Stress axis : x y z
#
# Youngs Moduli (GPa) = 80.84083 70.08759 23.90247
#
# Poissons Ratio (x) = 0.47117 0.16167
# Poissons Ratio (y) = 0.54345 0.13255
# Poissons Ratio (z) = 0.54680 0.38866
#
# Static dielectric constant tensor:
#      x y z
#    x 1.610100 0.000000 0.000000 
#    y 0.000000 1.582490 0.000000 
#    z 0.000000 0.000000 1.600720 
# 
# From -- ./inp_files/3732.got.cif
#   From: 2010.05.17/outbox.cif.g08.bks.cpg/sg49_2_cif.got.tgz:3732.got - 2010.06.03 21:02:19.
