data_PCOD9392567
_publ_section_title
;
Structure prediction by ZEFSAII (Michael W. Deem and Ramdas Pophale) SiO2 
 PCOD9392567
Probable space group: P C C M
;
_chemical_formula_sum "Si O2"
_cell_formula_units_Z 64
_cell_length_a 10.173753
_cell_length_b 19.824593
_cell_length_c 14.662750
_cell_angle_alpha 90.000000
_cell_angle_beta 90.000000
_cell_angle_gamma 90.000000
_cell_volume 2957.337562
_symmetry_space_group_name_H-M "P C C M"
_symmetry_group_IT_number 49
_symmetry_cell_setting 'orthorhombic'
loop_
_space_group_symop_operation_xyz
x,y,z
-x,-y,z
x,-y,1/2-z
-x,y,1/2-z
-x,-y,-z
x,y,-z
-x,y,1/2+z
x,-y,1/2+z
loop_
_atom_site_type_symbol
_atom_site_label
_atom_site_fract_x
_atom_site_fract_y
_atom_site_fract_z
Si Si1 0.016779 0.708510 0.606108
Si Si2 0.279650 0.793675 0.364869
Si Si3 0.757641 0.780241 0.347261
Si Si4 0.510552 0.699401 0.639714
Si Si5 0.097780 0.439912 0.111666
Si Si6 0.843338 0.928585 0.861145
Si Si7 0.396357 0.447251 0.894076
Si Si8 0.851610 0.920945 0.639019
O O1 0.975894 0.705894 0.500000
O O2 0.901423 0.747279 0.657291
O O3 0.152641 0.749084 0.611440
O O4 0.042012 0.632824 0.639464
O O5 0.289131 0.794425 0.255280
O O6 0.408839 0.755372 0.395811
O O7 0.250783 0.869586 0.394882
O O8 0.654952 0.726034 0.386035
O O9 0.774734 0.854191 0.391326
O O10 0.500000 0.695424 0.750000
O O11 0.462083 0.626427 0.608065
O O12 0.248449 0.446878 0.145196
O O13 0.000000 0.500000 0.138438
O O14 0.101389 0.438641 0.000000
O O15 0.846364 0.923863 0.750128
O O16 0.994924 0.914798 0.887872
O O17 0.806862 0.004390 0.889408
O O18 0.500000 0.500000 0.853621
O O19 0.377953 0.466940 0.000000
#
# Coordination Sequence:
#
# PCOD9392567 Si02
#       8
#     8   8   8   8   8   8   8   8
#     4  11  21  33  55  81 103 132 174 220 262 303
#     4  10  18  35  54  74 105 143 175 210 259 312
#     4  10  20  33  52  77 108 141 171 215 262 308
#     4  10  22  36  53  78 110 143 173 209 262 318
#     4   9  19  35  54  78 103 126 164 218 259 297
#     4   8  13  23  47  73  98 133 174 215 253 303
#     4  10  21  37  58  78 101 138 177 210 255 309
#     4   8  13  24  44  75 101 129 174 216 256 297
#
# _framework density 21.641086999999999
#
# number of rings (size 3 to 8) (size 9 to 14) (size 15 to 20)
#    0.000    2.500    2.500    1.125    1.750    0.750 
#    0.000    0.625    0.000    6.750    0.000    0.000 
#    0.000    3.000    0.000    0.000    0.000    0.000 
#
# Total GULP energy -357279.511361 kJ/mol
# GULP energy per Si atom -5582.492365 kJ/mol
# Density = 2.159183 g / cm^3
# Si number density = 21.641087 Si / 1000 Ang^3
#
#
#
# Elastic Constant Matrix: (Units=GPa)
#
#
# Indices 1 2 3 4 5 6 
#
# 1 90.3331 49.8857 -9.5485 0.0000 0.0000 0.0000
# 2 49.8857 162.6004 -10.4411 0.0000 0.0000 0.0000
# 3 -9.5485 -10.4411 62.5450 0.0000 0.0000 0.0000
# 4 0.0000 0.0000 0.0000 11.3935 0.0000 0.0000
# 5 0.0000 0.0000 0.0000 0.0000 -4.6766 0.0000
# 6 0.0000 0.0000 0.0000 0.0000 0.0000 31.6355
#
#
#
# Elastic Compliance Matrix: (Units=1/GPa)
#
#
# Indices 1 2 3 4 5 6 
#
# 1 0.013445 -0.004036 0.001379 0.000000 0.000000 0.000000
# 2 -0.004036 0.007428 0.000624 0.000000 0.000000 0.000000
# 3 0.001379 0.000624 0.016303 0.000000 0.000000 0.000000
# 4 0.000000 0.000000 0.000000 0.087769 0.000000 0.000000
# 5 0.000000 0.000000 0.000000 0.000000 -0.213831 0.000000
# 6 0.000000 0.000000 0.000000 0.000000 0.000000 0.031610
#
#
# Mechanical properties :
#
#
# Convention : Reuss Voigt Hill
#
# Bulk Modulus (GPa) = 30.20321 41.69674 35.94997
# Shear Modulus (GPa) = -118.56354 26.70931 -45.92712
#
# Velocity S-wave (km/s) = -7.40981 3.51692 -4.61175
# Velocity P-wave (km/s) = 7.69547 5.98338 3.42194
#
# Compressibility (1/GPa) = 0.03310907
#
# Stress axis : x y z
#
# Youngs Moduli (GPa) = 74.37750 134.61749 61.33795
#
# Poissons Ratio (x) = 0.54336 -0.08457
# Poissons Ratio (y) = 0.30021 -0.03827
# Poissons Ratio (z) = -0.10255 -0.08398
#
# Static dielectric constant tensor:
#      x y z
#    x 1.748270 0.000000 0.000000 
#    y 0.000000 1.775120 0.000000 
#    z 0.000000 0.000000 1.902380 
# 
# From -- ./inp_files/19998.got.cif
#   From: 2010.05.17/outbox.cif.g08.bks.cpg/sg49_10_cif.got.tgz:19998.got - 2010.06.03 21:02:19.
