data_PCOD9392297
_publ_section_title
;
Structure prediction by ZEFSAII (Michael W. Deem and Ramdas Pophale) SiO2 
 PCOD9392297
Probable space group: P C C M
;
_chemical_formula_sum "Si O2"
_cell_formula_units_Z 56
_cell_length_a 21.904589
_cell_length_b 18.865279
_cell_length_c 9.020037
_cell_angle_alpha 90.000000
_cell_angle_beta 90.000000
_cell_angle_gamma 90.000000
_cell_volume 3727.405659
_symmetry_space_group_name_H-M "P C C M"
_symmetry_group_IT_number 49
_symmetry_cell_setting 'orthorhombic'
loop_
_space_group_symop_operation_xyz
x,y,z
-x,-y,z
x,-y,1/2-z
-x,y,1/2-z
-x,-y,-z
x,y,-z
-x,y,1/2+z
x,-y,1/2+z
loop_
_atom_site_type_symbol
_atom_site_label
_atom_site_fract_x
_atom_site_fract_y
_atom_site_fract_z
Si Si1 0.936510 0.422331 0.820642
Si Si2 0.692035 0.423516 0.822670
Si Si3 0.243400 0.211406 0.170196
Si Si4 0.628581 0.701872 0.170874
Si Si5 0.814420 0.660713 0.322706
Si Si6 0.686891 0.076470 0.320370
Si Si7 0.436572 0.158857 0.821141
O O1 0.926307 0.500000 0.750000
O O2 0.878912 0.373482 0.781448
O O3 0.000000 0.396121 0.750000
O O4 0.941237 0.427646 0.000000
O O5 0.684172 0.500000 0.750000
O O6 0.641544 0.367244 0.767423
O O7 0.757951 0.390273 0.776525
O O8 0.690988 0.429111 0.000000
O O9 0.308009 0.253613 0.170298
O O10 0.197746 0.261460 0.258541
O O11 0.261635 0.133583 0.226769
O O12 0.223184 0.205741 0.000000
O O13 0.579705 0.760024 0.223671
O O14 0.615681 0.682176 0.000000
O O15 0.811827 0.664642 0.500000
O O16 0.688535 0.073168 0.500000
O O17 0.620662 0.109217 0.279055
O O18 0.695136 0.000000 0.250000
O O19 0.500000 0.136187 0.750000
O O20 0.440291 0.158223 0.000000
#
# Coordination Sequence:
#
# PCOD9392297 Si02
#       7
#     8   8   8   8   8   8   8
#     4  10  19  30  42  59  86 120 155 187 217 251
#     4  10  18  27  41  62  84 106 134 171 214 257
#     4   8  15  28  45  62  82 109 141 173 209 251
#     4   8  15  29  44  58  79 106 134 170 211 250
#     4   9  18  29  42  62  86 111 144 181 213 248
#     4   9  18  31  45  65  91 117 141 169 206 249
#     4   9  18  31  46  63  84 110 142 173 204 245
#
# _framework density 15.023854
#
# number of rings (size 3 to 8) (size 9 to 14) (size 15 to 20)
#    0.000    3.000    0.000    3.429    0.000    3.714 
#    0.000    4.286    0.000    0.429    0.000    3.000 
#    0.000    0.571    0.000    6.286    0.000    4.571 
#
# Total GULP energy -311817.059735 kJ/mol
# GULP energy per Si atom -5568.161781 kJ/mol
# Density = 1.498966 g / cm^3
# Si number density = 15.023854 Si / 1000 Ang^3
#
#
#
# Elastic Constant Matrix: (Units=GPa)
#
#
# Indices 1 2 3 4 5 6 
#
# 1 38.1088 28.6886 11.0061 0.0000 0.0000 0.0000
# 2 28.6886 117.0550 31.7477 0.0000 0.0000 0.0000
# 3 11.0061 31.7477 24.6410 0.0000 0.0000 0.0000
# 4 0.0000 0.0000 0.0000 27.6111 0.0000 0.0000
# 5 0.0000 0.0000 0.0000 0.0000 15.1039 0.0000
# 6 0.0000 0.0000 0.0000 0.0000 0.0000 19.4901
#
#
#
# Elastic Compliance Matrix: (Units=1/GPa)
#
#
# Indices 1 2 3 4 5 6 
#
# 1 0.032864 -0.006261 -0.006612 0.000000 0.000000 0.000000
# 2 -0.006261 0.014325 -0.015659 0.000000 0.000000 0.000000
# 3 -0.006612 -0.015659 0.063712 0.000000 0.000000 0.000000
# 4 0.000000 0.000000 0.000000 0.036217 0.000000 0.000000
# 5 0.000000 0.000000 0.000000 0.000000 0.066208 0.000000
# 6 0.000000 0.000000 0.000000 0.000000 0.000000 0.051308
#
#
# Mechanical properties :
#
#
# Convention : Reuss Voigt Hill
#
# Bulk Modulus (GPa) = 18.57520 35.85441 27.21480
# Shear Modulus (GPa) = 14.72132 19.66519 17.19326
#
# Velocity S-wave (km/s) = 3.13367 3.62184 3.38656
# Velocity P-wave (km/s) = 5.04815 6.43483 5.78321
#
# Compressibility (1/GPa) = 0.05383522
#
# Stress axis : x y z
#
# Youngs Moduli (GPa) = 30.42874 69.80950 15.69569
#
# Poissons Ratio (x) = 0.43709 0.10378
# Poissons Ratio (y) = 0.19052 0.24579
# Poissons Ratio (z) = 0.20119 1.09318
#
# Static dielectric constant tensor:
#      x y z
#    x 1.493430 0.000000 0.000000 
#    y 0.000000 1.496030 0.000000 
#    z 0.000000 0.000000 1.505560 
# 
# From -- ./inp_files/5215.got.cif
#   From: 2010.05.17/outbox.cif.g08.bks.cpg/sg49_3_cif.got.tgz:5215.got - 2010.06.03 21:02:19.
