data_PCOD9392213
_publ_section_title
;
Structure prediction by ZEFSAII (Michael W. Deem and Ramdas Pophale) SiO2 
 PCOD9392213
Probable space group: P C C M
;
_chemical_formula_sum "Si O2"
_cell_formula_units_Z 58
_cell_length_a 26.192315
_cell_length_b 15.188824
_cell_length_c 8.424045
_cell_angle_alpha 90.000000
_cell_angle_beta 90.000000
_cell_angle_gamma 90.000000
_cell_volume 3351.341720
_symmetry_space_group_name_H-M "P C C M"
_symmetry_group_IT_number 49
_symmetry_cell_setting 'orthorhombic'
loop_
_space_group_symop_operation_xyz
x,y,z
-x,-y,z
x,-y,1/2-z
-x,y,1/2-z
-x,-y,-z
x,y,-z
-x,y,1/2+z
x,-y,1/2+z
loop_
_atom_site_type_symbol
_atom_site_label
_atom_site_fract_x
_atom_site_fract_y
_atom_site_fract_z
Si Si1 0.301370 0.902906 0.809301
Si Si2 0.747717 0.274230 0.192046
Si Si3 0.052989 0.399260 0.688668
Si Si4 0.555017 0.660033 0.310673
Si Si5 0.660577 0.408159 0.809300
Si Si6 0.162342 0.399299 0.811538
Si Si7 0.419920 0.864178 0.193145
Si Si8 0.500000 0.000000 0.750000
O O1 0.263202 0.825616 0.753843
O O2 0.360593 0.880974 0.768453
O O3 0.288724 0.000000 0.750000
O O4 0.299854 0.902207 0.000000
O O5 0.696723 0.328056 0.236174
O O6 0.794595 0.330591 0.257867
O O7 0.751885 0.274193 0.000000
O O8 0.052684 0.500000 0.750000
O O9 0.052551 0.399403 0.500000
O O10 0.107261 0.365449 0.750179
O O11 0.000000 0.357897 0.750000
O O12 0.500000 0.632726 0.250000
O O13 0.554956 0.651117 0.500000
O O14 0.603458 0.606765 0.246082
O O15 0.565469 0.763147 0.277279
O O16 0.682231 0.500000 0.750000
O O17 0.658911 0.409614 0.000000
O O18 0.171077 0.500000 0.750000
O O19 0.160973 0.405122 0.000000
O O20 0.456923 0.926786 0.295997
O O21 0.427697 0.881718 0.000000
#
# Coordination Sequence:
#
# PCOD9392213 Si02
#       8
#     8   8   8   8   8   8   8   2
#     4  10  20  36  55  74  99 129 162 201 252 312
#     4  10  20  36  55  73  99 135 170 212 262 308
#     4  10  17  28  46  71 106 148 190 227 266 307
#     4  10  20  36  52  68  91 120 150 189 241 299
#     4  10  21  36  54  71  93 123 160 201 249 302
#     4  11  21  33  50  76 109 144 185 227 265 310
#     4  10  19  31  47  70  96 121 146 185 243 304
#     4  12  18  28  52  74  98 112 158 192 248 304
#
# _framework density 17.306501999999998
#
# number of rings (size 3 to 8) (size 9 to 14) (size 15 to 20)
#    0.000    1.793    2.759    4.345    0.000    3.034 
#    0.000    2.069    0.000    0.000    0.000    0.000 
#    0.000    0.552    0.000    5.793    0.000    3.172 
#
# Total GULP energy -323253.788341 kJ/mol
# GULP energy per Si atom -5573.341178 kJ/mol
# Density = 1.726711 g / cm^3
# Si number density = 17.306502 Si / 1000 Ang^3
#
#
#
# Elastic Constant Matrix: (Units=GPa)
#
#
# Indices 1 2 3 4 5 6 
#
# 1 131.3335 47.8469 37.8850 0.0000 0.0000 0.0000
# 2 47.8469 80.1085 23.9565 0.0000 0.0000 0.0000
# 3 37.8850 23.9565 51.6159 0.0000 0.0000 0.0000
# 4 0.0000 0.0000 0.0000 16.3699 0.0000 0.0000
# 5 0.0000 0.0000 0.0000 0.0000 236.2761 0.0000
# 6 0.0000 0.0000 0.0000 0.0000 0.0000 33.0369
#
#
#
# Elastic Compliance Matrix: (Units=1/GPa)
#
#
# Indices 1 2 3 4 5 6 
#
# 1 0.011080 -0.004860 -0.005877 0.000000 0.000000 0.000000
# 2 -0.004860 0.016627 -0.004150 0.000000 0.000000 0.000000
# 3 -0.005877 -0.004150 0.025613 0.000000 0.000000 0.000000
# 4 0.000000 0.000000 0.000000 0.061088 0.000000 0.000000
# 5 0.000000 0.000000 0.000000 0.000000 0.004232 0.000000
# 6 0.000000 0.000000 0.000000 0.000000 0.000000 0.030269
#
#
# Mechanical properties :
#
#
# Convention : Reuss Voigt Hill
#
# Bulk Modulus (GPa) = 42.46860 53.60384 48.03622
# Shear Modulus (GPa) = 26.80500 67.36122 47.08311
#
# Velocity S-wave (km/s) = 3.93980 6.24556 5.22154
# Velocity P-wave (km/s) = 6.72967 9.11317 8.01056
#
# Compressibility (1/GPa) = 0.02354681
#
# Stress axis : x y z
#
# Youngs Moduli (GPa) = 90.25120 60.14284 39.04234
#
# Poissons Ratio (x) = 0.29232 0.22944
# Poissons Ratio (y) = 0.43867 0.16201
# Poissons Ratio (z) = 0.53038 0.24957
#
# Static dielectric constant tensor:
#      x y z
#    x 1.615840 0.000000 0.000000 
#    y 0.000000 1.581190 0.000000 
#    z 0.000000 0.000000 1.595460 
# 
# From -- ./inp_files/6450.got.cif
#   From: 2010.05.17/outbox.cif.g08.bks.cpg/sg49_4_cif.got.tgz:6450.got - 2010.06.03 21:02:19.
