data_PCOD9392110
_publ_section_title
;
Structure prediction by ZEFSAII (Michael W. Deem and Ramdas Pophale) SiO2 
 PCOD9392110
Probable space group: P C C M
;
_chemical_formula_sum "Si O2"
_cell_formula_units_Z 48
_cell_length_a 24.577663
_cell_length_b 13.753249
_cell_length_c 8.705244
_cell_angle_alpha 90.000000
_cell_angle_beta 90.000000
_cell_angle_gamma 90.000000
_cell_volume 2942.570247
_symmetry_space_group_name_H-M "P C C M"
_symmetry_group_IT_number 49
_symmetry_cell_setting 'orthorhombic'
loop_
_space_group_symop_operation_xyz
x,y,z
-x,-y,z
x,-y,1/2-z
-x,y,1/2-z
-x,-y,-z
x,y,-z
-x,y,1/2+z
x,-y,1/2+z
loop_
_atom_site_type_symbol
_atom_site_label
_atom_site_fract_x
_atom_site_fract_y
_atom_site_fract_z
Si Si1 0.385381 0.897299 0.816002
Si Si2 0.665666 0.398106 0.682897
Si Si3 0.441168 0.304992 0.683375
Si Si4 0.944193 0.110383 0.684119
Si Si5 0.168550 0.109362 0.316364
Si Si6 0.722463 0.196141 0.684108
O O1 0.424008 0.806107 0.775865
O O2 0.326387 0.871849 0.745254
O O3 0.404616 0.000000 0.750000
O O4 0.380981 0.902396 0.000000
O O5 0.685138 0.500000 0.750000
O O6 0.661554 0.404382 0.500000
O O7 0.606456 0.372416 0.750647
O O8 0.703932 0.306224 0.720575
O O9 0.500000 0.328134 0.750000
O O10 0.441760 0.312957 0.500000
O O11 0.945384 0.107980 0.500000
O O12 0.887332 0.152160 0.745761
O O13 0.000000 0.155196 0.750000
O O14 0.943488 0.000000 0.750000
O O15 0.164252 0.104498 0.500000
O O16 0.221348 0.167986 0.263457
O O17 0.174848 0.000000 0.250000
O O18 0.726825 0.185361 0.500000
#
# Coordination Sequence:
#
# PCOD9392110 Si02
#       6
#     8   8   8   8   8   8
#     4  10  20  33  49  69  94 126 158 192 230 274
#     4  10  21  37  57  76  96 120 149 187 236 287
#     4  10  21  36  53  73  97 122 154 191 230 275
#     4  10  17  27  41  60  89 126 167 205 239 276
#     4  11  20  30  45  67  96 131 167 202 237 276
#     4  10  20  34  50  70  95 123 155 194 235 280
#
# _framework density 16.312270999999999
#
# number of rings (size 3 to 8) (size 9 to 14) (size 15 to 20)
#    0.000    1.833    0.000    7.000    0.000    4.667 
#    0.000    3.333    0.000    0.000    0.000    0.000 
#    0.000    0.667    0.000    7.000    0.000    3.833 
#
# Total GULP energy -267978.253640 kJ/mol
# GULP energy per Si atom -5582.880284 kJ/mol
# Density = 1.627514 g / cm^3
# Si number density = 16.312271 Si / 1000 Ang^3
#
#
#
# Elastic Constant Matrix: (Units=GPa)
#
#
# Indices 1 2 3 4 5 6 
#
# 1 108.8022 9.7522 43.3244 0.0000 0.0000 0.0000
# 2 9.7522 54.9090 24.3706 0.0000 0.0000 0.0000
# 3 43.3244 24.3706 98.5996 0.0000 0.0000 0.0000
# 4 0.0000 0.0000 0.0000 24.1168 0.0000 0.0000
# 5 0.0000 0.0000 0.0000 0.0000 33.9145 0.0000
# 6 0.0000 0.0000 0.0000 0.0000 0.0000 8.3369
#
#
#
# Elastic Compliance Matrix: (Units=1/GPa)
#
#
# Indices 1 2 3 4 5 6 
#
# 1 0.011142 0.000218 -0.004950 0.000000 0.000000 0.000000
# 2 0.000218 0.020460 -0.005153 0.000000 0.000000 0.000000
# 3 -0.004950 -0.005153 0.013591 0.000000 0.000000 0.000000
# 4 0.000000 0.000000 0.000000 0.041465 0.000000 0.000000
# 5 0.000000 0.000000 0.000000 0.000000 0.029486 0.000000
# 6 0.000000 0.000000 0.000000 0.000000 0.000000 0.119948
#
#
# Mechanical properties :
#
#
# Convention : Reuss Voigt Hill
#
# Bulk Modulus (GPa) = 39.33326 46.35616 42.84471
# Shear Modulus (GPa) = 18.91529 25.59788 22.25659
#
# Velocity S-wave (km/s) = 3.40895 3.96566 3.69780
# Velocity P-wave (km/s) = 6.29759 7.03195 6.67487
#
# Compressibility (1/GPa) = 0.02542377
#
# Stress axis : x y z
#
# Youngs Moduli (GPa) = 89.74686 48.87522 73.58026
#
# Poissons Ratio (x) = -0.01065 0.36421
# Poissons Ratio (y) = -0.01956 0.37915
# Poissons Ratio (z) = 0.44423 0.25185
#
# Static dielectric constant tensor:
#      x y z
#    x 1.563030 0.000000 0.000000 
#    y 0.000000 1.539440 0.000000 
#    z 0.000000 0.000000 1.541160 
# 
# From -- ./inp_files/2913.got.cif
#   From: 2010.05.17/outbox.cif.g08.bks.cpg/sg49_2_cif.got.tgz:2913.got - 2010.06.03 21:02:19.
