data_PCOD9392704
_publ_section_title
;
Structure prediction by ZEFSAII (Michael W. Deem and Ramdas Pophale) SiO2 
 PCOD9392704
Probable space group: P C C M
;
_chemical_formula_sum "Si O2"
_cell_formula_units_Z 34
_cell_length_a 9.236605
_cell_length_b 10.556871
_cell_length_c 20.975350
_cell_angle_alpha 90.000000
_cell_angle_beta 90.000000
_cell_angle_gamma 90.000000
_cell_volume 2045.298984
_symmetry_space_group_name_H-M "P C C M"
_symmetry_group_IT_number 49
_symmetry_cell_setting 'orthorhombic'
loop_
_space_group_symop_operation_xyz
x,y,z
-x,-y,z
x,-y,1/2-z
-x,y,1/2-z
-x,-y,-z
x,y,-z
-x,y,1/2+z
x,-y,1/2+z
loop_
_atom_site_type_symbol
_atom_site_label
_atom_site_fract_x
_atom_site_fract_y
_atom_site_fract_z
Si Si1 0.423549 0.865953 0.923103
Si Si2 0.913105 0.124307 0.922424
Si Si3 0.500000 0.500000 0.250000
Si Si4 0.915105 0.374326 0.577007
Si Si5 0.589331 0.620596 0.873812
O O1 0.255079 0.872640 0.903811
O O2 0.504904 0.748867 0.890382
O O3 0.500000 0.000000 0.909374
O O4 0.430676 0.846812 0.000000
O O5 0.997684 0.249988 0.901975
O O6 0.913693 0.122225 0.000000
O O7 0.000000 0.000000 0.900947
O O8 0.410502 0.412046 0.201524
O O9 0.912283 0.373628 0.500000
O O10 0.751001 0.373821 0.600423
O O11 0.000000 0.500000 0.597701
O O12 0.500000 0.500000 0.902019
#
# Coordination Sequence:
#
# PCOD9392704 Si02
#       5
#     8   8   2   8   8
#     4  10  19  31  54  87 112 140 176 213 275 343
#     4   9  17  29  45  73 115 143 162 200 256 329
#     4   8  24  40  54  72 100 140 212 230 256 296
#     4  10  19  30  50  82 110 137 169 213 278 336
#     4  10  20  37  55  71 108 141 188 231 264 305
#
# _framework density 16.623486
#
# number of rings (size 3 to 8) (size 9 to 14) (size 15 to 20)
#    0.706    1.647    0.000    3.529    0.000    7.529 
#    0.000    1.176    0.000    0.000    0.000    0.000 
#    0.000    0.000    0.000    0.000    0.000    0.000 
#
# Total GULP energy -189417.124998 kJ/mol
# GULP energy per Si atom -5571.091912 kJ/mol
# Density = 1.658565 g / cm^3
# Si number density = 16.623486 Si / 1000 Ang^3
#
#
#
# Elastic Constant Matrix: (Units=GPa)
#
#
# Indices 1 2 3 4 5 6 
#
# 1 193.4693 116.0998 27.4712 0.0000 0.0000 0.0000
# 2 116.0998 191.6215 39.1036 0.0000 0.0000 0.0000
# 3 27.4712 39.1036 26.6193 0.0000 0.0000 0.0000
# 4 0.0000 0.0000 0.0000 19.3983 0.0000 0.0000
# 5 0.0000 0.0000 0.0000 0.0000 2.1545 0.0000
# 6 0.0000 0.0000 0.0000 0.0000 0.0000 35.8075
#
#
#
# Elastic Compliance Matrix: (Units=1/GPa)
#
#
# Indices 1 2 3 4 5 6 
#
# 1 0.008173 -0.004613 -0.001657 0.000000 0.000000 0.000000
# 2 -0.004613 0.010057 -0.010013 0.000000 0.000000 0.000000
# 3 -0.001657 -0.010013 0.053985 0.000000 0.000000 0.000000
# 4 0.000000 0.000000 0.000000 0.051551 0.000000 0.000000
# 5 0.000000 0.000000 0.000000 0.000000 0.464144 0.000000
# 6 0.000000 0.000000 0.000000 0.000000 0.000000 0.027927
#
#
# Mechanical properties :
#
#
# Convention : Reuss Voigt Hill
#
# Bulk Modulus (GPa) = 25.22156 86.33993 55.78074
# Shear Modulus (GPa) = 7.55722 26.74109 17.14915
#
# Velocity S-wave (km/s) = 2.13447 4.01513 3.21537
# Velocity P-wave (km/s) = 4.61301 8.57591 6.88571
#
# Compressibility (1/GPa) = 0.03964862
#
# Stress axis : x y z
#
# Youngs Moduli (GPa) = 122.36038 99.43233 18.52362
#
# Poissons Ratio (x) = 0.45873 0.03069
# Poissons Ratio (y) = 0.56451 0.18547
# Poissons Ratio (z) = 0.20275 0.99558
#
# Static dielectric constant tensor:
#      x y z
#    x 1.545210 0.000000 0.000000 
#    y 0.000000 1.595840 0.000000 
#    z 0.000000 0.000000 1.542260 
# 
# From -- ./inp_files/24265.got.cif
#   From: 2010.05.17/outbox.cif.g08.bks.cpg/sg49_13_cif.got.tgz:24265.got - 2010.06.03 21:02:19.
