data_PCOD9392653
_publ_section_title
;
Structure prediction by ZEFSAII (Michael W. Deem and Ramdas Pophale) SiO2 
 PCOD9392653
Probable space group: P C C M
;
_chemical_formula_sum "Si O2"
_cell_formula_units_Z 56
_cell_length_a 23.921789
_cell_length_b 14.717964
_cell_length_c 8.529040
_cell_angle_alpha 90.000000
_cell_angle_beta 90.000000
_cell_angle_gamma 90.000000
_cell_volume 3002.904653
_symmetry_space_group_name_H-M "P C C M"
_symmetry_group_IT_number 49
_symmetry_cell_setting 'orthorhombic'
loop_
_space_group_symop_operation_xyz
x,y,z
-x,-y,z
x,-y,1/2-z
-x,y,1/2-z
-x,-y,-z
x,y,-z
-x,y,1/2+z
x,-y,1/2+z
loop_
_atom_site_type_symbol
_atom_site_label
_atom_site_fract_x
_atom_site_fract_y
_atom_site_fract_z
Si Si1 0.060427 0.602297 0.688300
Si Si2 0.829510 0.708276 0.189726
Si Si3 0.678902 0.830425 0.685492
Si Si4 0.203679 0.095211 0.683820
Si Si5 0.557908 0.789185 0.685611
Si Si6 0.714421 0.643664 0.181639
Si Si7 0.404807 0.593728 0.688629
O O1 0.069313 0.500000 0.750000
O O2 0.059003 0.599865 0.500000
O O3 0.111676 0.665920 0.739218
O O4 0.000000 0.633228 0.750000
O O5 0.820335 0.812047 0.242498
O O6 0.777172 0.645938 0.248744
O O7 0.826827 0.706759 0.000000
O O8 0.681712 0.801601 0.500000
O O9 0.728765 0.901123 0.705841
O O10 0.613849 0.847870 0.719067
O O11 0.696301 0.748508 0.799225
O O12 0.192559 0.099059 0.500000
O O13 0.182247 0.000000 0.750000
O O14 0.500000 0.826856 0.750000
O O15 0.553164 0.779701 0.500000
O O16 0.567849 0.687733 0.754659
O O17 0.659746 0.596094 0.251664
O O18 0.717988 0.616157 0.000000
O O19 0.430605 0.500000 0.750000
O O20 0.404539 0.594082 0.500000
#
# Coordination Sequence:
#
# PCOD9392653 Si02
#       7
#     8   8   8   8   8   8   8
#     4  10  20  34  53  76 106 143 184 224 261 299
#     4   9  18  33  52  76 105 138 174 214 257 304
#     4   8  16  30  47  67  92 120 151 188 233 285
#     4  10  19  32  53  81 109 137 167 204 252 308
#     4  10  19  32  48  65  85 113 153 198 242 292
#     4   8  15  28  45  64  88 117 152 192 238 290
#     4  10  19  30  43  61  86 117 151 192 243 297
#
# _framework density 18.648610999999999
#
# number of rings (size 3 to 8) (size 9 to 14) (size 15 to 20)
#    0.000    2.714    0.000    2.143    0.000    3.714 
#    0.000    1.429    0.000    0.857    0.000    6.000 
#    0.000    0.000    0.000    0.000    0.000    0.000 
#
# Total GULP energy -311746.374959 kJ/mol
# GULP energy per Si atom -5566.899553 kJ/mol
# Density = 1.860617 g / cm^3
# Si number density = 18.648611 Si / 1000 Ang^3
#
#
#
# Elastic Constant Matrix: (Units=GPa)
#
#
# Indices 1 2 3 4 5 6 
#
# 1 144.8003 28.5881 26.5634 0.0000 0.0000 0.0000
# 2 28.5881 36.5469 11.7792 0.0000 0.0000 0.0000
# 3 26.5634 11.7792 27.6916 0.0000 0.0000 0.0000
# 4 0.0000 0.0000 0.0000 13.0439 0.0000 0.0000
# 5 0.0000 0.0000 0.0000 0.0000 33.5682 0.0000
# 6 0.0000 0.0000 0.0000 0.0000 0.0000 8.4703
#
#
#
# Elastic Compliance Matrix: (Units=1/GPa)
#
#
# Indices 1 2 3 4 5 6 
#
# 1 0.009104 -0.004991 -0.006610 0.000000 0.000000 0.000000
# 2 -0.004991 0.034446 -0.009864 0.000000 0.000000 0.000000
# 3 -0.006610 -0.009864 0.046649 0.000000 0.000000 0.000000
# 4 0.000000 0.000000 0.000000 0.076664 0.000000 0.000000
# 5 0.000000 0.000000 0.000000 0.000000 0.029790 0.000000
# 6 0.000000 0.000000 0.000000 0.000000 0.000000 0.118059
#
#
# Mechanical properties :
#
#
# Convention : Reuss Voigt Hill
#
# Bulk Modulus (GPa) = 21.15624 38.10003 29.62813
# Shear Modulus (GPa) = 13.39048 20.49035 16.94042
#
# Velocity S-wave (km/s) = 2.68254 3.31835 3.01724
# Velocity P-wave (km/s) = 4.57864 5.92932 5.29720
#
# Compressibility (1/GPa) = 0.04726739
#
# Stress axis : x y z
#
# Youngs Moduli (GPa) = 109.84103 29.03128 21.43669
#
# Poissons Ratio (x) = 0.14490 0.14170
# Poissons Ratio (y) = 0.54822 0.21146
# Poissons Ratio (z) = 0.72606 0.28638
#
# Static dielectric constant tensor:
#      x y z
#    x 1.700000 0.000000 0.000000 
#    y 0.000000 1.621430 0.000000 
#    z 0.000000 0.000000 1.646160 
# 
# From -- ./inp_files/5806.got.cif
#   From: 2010.05.17/outbox.cif.g08.bks.cpg/sg49_3_cif.got.tgz:5806.got - 2010.06.03 21:02:19.
