data_PCOD9392071
_publ_section_title
;
Structure prediction by ZEFSAII (Michael W. Deem and Ramdas Pophale) SiO2 
 PCOD9392071
Probable space group: P C C M
;
_chemical_formula_sum "Si O2"
_cell_formula_units_Z 64
_cell_length_a 7.966489
_cell_length_b 23.732932
_cell_length_c 14.632062
_cell_angle_alpha 90.000000
_cell_angle_beta 90.000000
_cell_angle_gamma 90.000000
_cell_volume 2766.456772
_symmetry_space_group_name_H-M "P C C M"
_symmetry_group_IT_number 49
_symmetry_cell_setting 'orthorhombic'
loop_
_space_group_symop_operation_xyz
x,y,z
-x,-y,z
x,-y,1/2-z
-x,y,1/2-z
-x,-y,-z
x,y,-z
-x,y,1/2+z
x,-y,1/2+z
loop_
_atom_site_type_symbol
_atom_site_label
_atom_site_fract_x
_atom_site_fract_y
_atom_site_fract_z
Si Si1 0.796966 0.090898 0.246157
Si Si2 0.736723 0.487760 0.895966
Si Si3 0.056105 0.411686 0.852492
Si Si4 0.739432 0.779100 0.718616
Si Si5 0.412279 0.379649 0.389875
Si Si6 0.582763 0.270366 0.388923
Si Si7 0.915519 0.696687 0.603975
Si Si8 0.795061 0.004022 0.603946
O O1 0.740690 0.154117 0.229146
O O2 0.745009 0.060048 0.340197
O O3 0.000000 0.091630 0.250000
O O4 0.741553 0.049505 0.164378
O O5 0.785810 0.546766 0.852016
O O6 0.605073 0.443204 0.855144
O O7 0.907349 0.449226 0.897793
O O8 0.692998 0.501721 0.000000
O O9 0.000000 0.403352 0.750000
O O10 0.064466 0.349278 0.893330
O O11 0.583678 0.760941 0.652109
O O12 0.720968 0.753996 0.820695
O O13 0.896611 0.750275 0.668030
O O14 0.417144 0.384922 0.500000
O O15 0.557052 0.336463 0.364583
O O16 0.243261 0.343727 0.370220
O O17 0.598120 0.264065 0.500000
O O18 0.895684 0.715418 0.500000
O O19 0.736176 0.003445 0.500000
O O20 0.000000 0.000000 0.602712
#
# Coordination Sequence:
#
# PCOD9392071 Si02
#       8
#     8   8   8   8   8   8   8   8
#     4   9  18  31  49  78 111 137 176 230 275 328
#     4   9  14  23  41  64  90 124 167 208 250 304
#     4  10  17  24  38  64 100 135 164 200 254 323
#     4  10  19  31  53  79 104 143 186 224 272 332
#     4   7  12  24  43  65  88 118 162 215 260 298
#     4   9  18  33  51  74 105 141 185 231 271 318
#     4   9  17  30  45  64  96 135 174 213 258 320
#     4   8  15  30  51  73 101 141 183 226 277 324
#
# _framework density 23.134283
#
# number of rings (size 3 to 8) (size 9 to 14) (size 15 to 20)
#    0.000    3.125    0.000    4.875    0.000    2.000 
#    0.000    0.000    0.000    9.750    0.000    7.875 
#    0.000   16.000    0.000   41.375    0.000    1.125 
#
# Total GULP energy -357146.083591 kJ/mol
# GULP energy per Si atom -5580.407556 kJ/mol
# Density = 2.308163 g / cm^3
# Si number density = 23.134283 Si / 1000 Ang^3
#
#
#
# Elastic Constant Matrix: (Units=GPa)
#
#
# Indices 1 2 3 4 5 6 
#
# 1 71.0481 27.1141 20.6122 0.0000 0.0000 0.0000
# 2 27.1141 211.4190 76.7486 0.0000 0.0000 0.0000
# 3 20.6122 76.7486 181.7445 0.0000 0.0000 0.0000
# 4 0.0000 0.0000 0.0000 54.6588 0.0000 0.0000
# 5 0.0000 0.0000 0.0000 0.0000 13.2055 0.0000
# 6 0.0000 0.0000 0.0000 0.0000 0.0000 19.7448
#
#
#
# Elastic Compliance Matrix: (Units=1/GPa)
#
#
# Indices 1 2 3 4 5 6 
#
# 1 0.014966 -0.001539 -0.001047 0.000000 0.000000 0.000000
# 2 -0.001539 0.005745 -0.002251 0.000000 0.000000 0.000000
# 3 -0.001047 -0.002251 0.006572 0.000000 0.000000 0.000000
# 4 0.000000 0.000000 0.000000 0.018295 0.000000 0.000000
# 5 0.000000 0.000000 0.000000 0.000000 0.075726 0.000000
# 6 0.000000 0.000000 0.000000 0.000000 0.000000 0.050646
#
#
# Mechanical properties :
#
#
# Convention : Reuss Voigt Hill
#
# Bulk Modulus (GPa) = 56.79624 79.24013 68.01818
# Shear Modulus (GPa) = 26.66745 40.17096 33.41920
#
# Velocity S-wave (km/s) = 3.39886 4.17156 3.80488
# Velocity P-wave (km/s) = 6.32511 7.58480 6.98342
#
# Compressibility (1/GPa) = 0.01760680
#
# Stress axis : x y z
#
# Youngs Moduli (GPa) = 66.81712 174.07636 152.16710
#
# Poissons Ratio (x) = 0.26793 0.15938
# Poissons Ratio (y) = 0.10284 0.34258
# Poissons Ratio (z) = 0.06998 0.39190
#
# Static dielectric constant tensor:
#      x y z
#    x 2.066570 0.000000 0.000000 
#    y 0.000000 1.853880 0.000000 
#    z 0.000000 0.000000 1.843100 
# 
# From -- ./inp_files/12139.got.cif
#   From: 2010.05.17/outbox.cif.g08.bks.cpg/sg49_7_cif.got.tgz:12139.got - 2010.06.03 21:02:19.
