data_PCOD9392529
_publ_section_title
;
Structure prediction by ZEFSAII (Michael W. Deem and Ramdas Pophale) SiO2 
 PCOD9392529
Probable space group: P C C M
;
_chemical_formula_sum "Si O2"
_cell_formula_units_Z 64
_cell_length_a 14.972758
_cell_length_b 12.832995
_cell_length_c 15.608078
_cell_angle_alpha 90.000000
_cell_angle_beta 90.000000
_cell_angle_gamma 90.000000
_cell_volume 2999.019275
_symmetry_space_group_name_H-M "P C C M"
_symmetry_group_IT_number 49
_symmetry_cell_setting 'orthorhombic'
loop_
_space_group_symop_operation_xyz
x,y,z
-x,-y,z
x,-y,1/2-z
-x,y,1/2-z
-x,-y,-z
x,y,-z
-x,y,1/2+z
x,-y,1/2+z
loop_
_atom_site_type_symbol
_atom_site_label
_atom_site_fract_x
_atom_site_fract_y
_atom_site_fract_z
Si Si1 0.341751 0.293355 0.846452
Si Si2 0.961810 0.386523 0.397258
Si Si3 0.778725 0.470711 0.400001
Si Si4 0.487139 0.383360 0.401079
Si Si5 0.707300 0.682077 0.648996
Si Si6 0.997538 0.834812 0.151332
Si Si7 0.190898 0.886357 0.143881
Si Si8 0.202983 0.118110 0.853343
O O1 0.308568 0.401625 0.887919
O O2 0.447752 0.297494 0.859318
O O3 0.320230 0.299125 0.746561
O O4 0.279510 0.199576 0.880813
O O5 0.967648 0.369674 0.500000
O O6 0.858927 0.396661 0.369777
O O7 0.008309 0.289878 0.353028
O O8 0.000000 0.500000 0.378390
O O9 0.794743 0.492861 0.500000
O O10 0.771231 0.581330 0.354763
O O11 0.500000 0.500000 0.362818
O O12 0.514080 0.389014 0.500000
O O13 0.384139 0.350655 0.396617
O O14 0.754902 0.785311 0.613510
O O15 0.898426 0.857188 0.115494
O O16 0.000000 0.869964 0.250000
O O17 0.087813 0.882031 0.113282
O O18 0.194367 0.878537 0.248751
O O19 0.227219 0.000231 0.121705
#
# Coordination Sequence:
#
# PCOD9392529 Si02
#       8
#     8   8   8   8   8   8   8   8
#     4  11  21  36  59  88 114 143 191 239 281 330
#     4  10  21  35  49  73 113 158 193 228 281 338
#     4  11  21  35  55  78 116 158 186 225 285 345
#     4  11  23  39  60  84 112 153 189 224 289 354
#     4  11  22  36  58  88 117 145 189 242 284 331
#     4  10  18  33  56  86 112 148 193 236 276 327
#     4   9  19  34  57  85 118 150 187 235 286 333
#     4   9  18  35  57  86 117 150 188 232 285 335
#
# _framework density 21.340309999999999
#
# number of rings (size 3 to 8) (size 9 to 14) (size 15 to 20)
#    0.000    1.750    2.500    2.625    0.000    2.250 
#    2.250    1.250    0.000   11.250    0.000    0.000 
#    0.000    0.000    0.000    0.000    0.000    0.000 
#
# Total GULP energy -357351.768441 kJ/mol
# GULP energy per Si atom -5583.621382 kJ/mol
# Density = 2.129174 g / cm^3
# Si number density = 21.340310 Si / 1000 Ang^3
#
#
#
# Elastic Constant Matrix: (Units=GPa)
#
#
# Indices 1 2 3 4 5 6 
#
# 1 82.3014 41.9082 2.8396 0.0000 0.0000 0.0000
# 2 41.9082 144.2412 1.1784 0.0000 0.0000 0.0000
# 3 2.8396 1.1784 33.3122 0.0000 0.0000 0.0000
# 4 0.0000 0.0000 0.0000 -17.3204 0.0000 0.0000
# 5 0.0000 0.0000 0.0000 0.0000 12.8468 0.0000
# 6 0.0000 0.0000 0.0000 0.0000 0.0000 21.7647
#
#
#
# Elastic Compliance Matrix: (Units=1/GPa)
#
#
# Indices 1 2 3 4 5 6 
#
# 1 0.014298 -0.004146 -0.001072 0.000000 0.000000 0.000000
# 2 -0.004146 0.008137 0.000066 0.000000 0.000000 0.000000
# 3 -0.001072 0.000066 0.030108 0.000000 0.000000 0.000000
# 4 0.000000 0.000000 0.000000 -0.057735 0.000000 0.000000
# 5 0.000000 0.000000 0.000000 0.000000 0.077840 0.000000
# 6 0.000000 0.000000 0.000000 0.000000 0.000000 0.045946
#
#
# Mechanical properties :
#
#
# Convention : Reuss Voigt Hill
#
# Bulk Modulus (GPa) = 23.67487 39.07857 31.37672
# Shear Modulus (GPa) = 34.97038 17.72013 26.34526
#
# Velocity S-wave (km/s) = 4.05248 2.88472 3.51740
# Velocity P-wave (km/s) = 5.74585 5.42654 5.58848
#
# Compressibility (1/GPa) = 0.04223888
#
# Stress axis : x y z
#
# Youngs Moduli (GPa) = 69.93800 122.89920 33.21368
#
# Poissons Ratio (x) = 0.50948 0.03561
# Poissons Ratio (y) = 0.28993 -0.00218
# Poissons Ratio (z) = 0.07499 -0.00806
#
# Static dielectric constant tensor:
#      x y z
#    x 1.830570 0.000000 0.000000 
#    y 0.000000 1.765670 0.000000 
#    z 0.000000 0.000000 1.795010 
# 
# From -- ./inp_files/17931.got.cif
#   From: 2010.05.17/outbox.cif.g08.bks.cpg/sg49_9_cif.got.tgz:17931.got - 2010.06.03 21:02:19.
