data_PCOD9392588
_publ_section_title
;
Structure prediction by ZEFSAII (Michael W. Deem and Ramdas Pophale) SiO2 
 PCOD9392588
Probable space group: P C C M
;
_chemical_formula_sum "Si O2"
_cell_formula_units_Z 30
_cell_length_a 8.460163
_cell_length_b 6.892559
_cell_length_c 19.068870
_cell_angle_alpha 90.000000
_cell_angle_beta 90.000000
_cell_angle_gamma 90.000000
_cell_volume 1111.947239
_symmetry_space_group_name_H-M "P C C M"
_symmetry_group_IT_number 49
_symmetry_cell_setting 'orthorhombic'
loop_
_space_group_symop_operation_xyz
x,y,z
-x,-y,z
x,-y,1/2-z
-x,y,1/2-z
-x,-y,-z
x,y,-z
-x,y,1/2+z
x,-y,1/2+z
loop_
_atom_site_type_symbol
_atom_site_label
_atom_site_fract_x
_atom_site_fract_y
_atom_site_fract_z
Si Si1 0.934281 0.701859 0.132379
Si Si2 0.725485 0.500000 0.750000
Si Si3 0.633268 0.260289 0.000000
Si Si4 0.733169 0.716151 0.000000
Si Si5 0.500000 0.000000 0.250000
Si Si6 0.724860 0.843139 0.345866
O O1 0.832303 0.625064 0.197333
O O2 0.829642 0.781292 0.068889
O O3 0.000000 0.500000 0.100526
O O4 0.913518 0.180421 0.159328
O O5 0.645710 0.661338 0.699047
O O6 0.692550 0.179177 0.926930
O O7 0.696517 0.483412 0.000000
O O8 0.553040 0.781250 0.000000
O O9 0.638350 0.023186 0.310544
#
# Coordination Sequence:
#
# PCOD9392588 Si02
#       6
#     8   4   4   4   2   8
#     4  10  18  37  64 100 133 169 219 286 351 416
#     4  10  21  39  74 107 128 171 232 303 348 407
#     4  11  23  37  66 101 142 176 224 295 347 418
#     4  11  20  33  65 115 132 164 226 293 371 402
#     4  12  32  44  66 100 140 200 230 284 356 420
#     4  11  24  45  68  97 141 183 231 288 353 420
#
# _framework density 26.979696000000001
#
# number of rings (size 3 to 8) (size 9 to 14) (size 15 to 20)
#    0.000    1.333    5.333    4.800    3.733    1.067 
#    0.000    2.667    0.000    1.600    0.000    0.000 
#    0.000    0.000    0.000    0.000    0.000    0.000 
#
# Total GULP energy -167524.077010 kJ/mol
# GULP energy per Si atom -5584.135900 kJ/mol
# Density = 2.691829 g / cm^3
# Si number density = 26.979696 Si / 1000 Ang^3
#
#
#
# Elastic Constant Matrix: (Units=GPa)
#
#
# Indices 1 2 3 4 5 6 
#
# 1 123.2138 60.3788 51.3159 0.0000 0.0000 0.0000
# 2 60.3788 92.1187 35.8500 0.0000 0.0000 0.0000
# 3 51.3159 35.8500 227.3468 0.0000 0.0000 0.0000
# 4 0.0000 0.0000 0.0000 9.0350 0.0000 0.0000
# 5 0.0000 0.0000 0.0000 0.0000 35.7671 0.0000
# 6 0.0000 0.0000 0.0000 0.0000 0.0000 24.0882
#
#
#
# Elastic Compliance Matrix: (Units=1/GPa)
#
#
# Indices 1 2 3 4 5 6 
#
# 1 0.012498 -0.007558 -0.001629 0.000000 0.000000 0.000000
# 2 -0.007558 0.016136 -0.000838 0.000000 0.000000 0.000000
# 3 -0.001629 -0.000838 0.004899 0.000000 0.000000 0.000000
# 4 0.000000 0.000000 0.000000 0.110681 0.000000 0.000000
# 5 0.000000 0.000000 0.000000 0.000000 0.027959 0.000000
# 6 0.000000 0.000000 0.000000 0.000000 0.000000 0.041514
#
#
# Mechanical properties :
#
#
# Convention : Reuss Voigt Hill
#
# Bulk Modulus (GPa) = 74.17737 81.97430 78.07583
# Shear Modulus (GPa) = 20.98805 33.45369 27.22087
#
# Velocity S-wave (km/s) = 2.79215 3.52512 3.17983
# Velocity P-wave (km/s) = 6.16021 6.85699 6.51792
#
# Compressibility (1/GPa) = 0.01348120
#
# Stress axis : x y z
#
# Youngs Moduli (GPa) = 80.01236 61.97492 204.14270
#
# Poissons Ratio (x) = 0.46839 0.33260
# Poissons Ratio (y) = 0.60471 0.17117
# Poissons Ratio (z) = 0.13036 0.05197
#
# Static dielectric constant tensor:
#      x y z
#    x 2.098970 0.000000 0.000000 
#    y 0.000000 2.591140 0.000000 
#    z 0.000000 0.000000 1.963150 
# 
# From -- ./inp_files/18699.got.cif
#   From: 2010.05.17/outbox.cif.g08.bks.cpg/sg49_10_cif.got.tgz:18699.got - 2010.06.03 21:02:19.
