data_PCOD9392726
_publ_section_title
;
Structure prediction by ZEFSAII (Michael W. Deem and Ramdas Pophale) SiO2 
 PCOD9392726
Probable space group: P C C M
;
_chemical_formula_sum "Si O2"
_cell_formula_units_Z 64
_cell_length_a 15.665513
_cell_length_b 26.631400
_cell_length_c 8.766375
_cell_angle_alpha 90.000000
_cell_angle_beta 90.000000
_cell_angle_gamma 90.000000
_cell_volume 3657.283811
_symmetry_space_group_name_H-M "P C C M"
_symmetry_group_IT_number 49
_symmetry_cell_setting 'orthorhombic'
loop_
_space_group_symop_operation_xyz
x,y,z
-x,-y,z
x,-y,1/2-z
-x,y,1/2-z
-x,-y,-z
x,y,-z
-x,y,1/2+z
x,-y,1/2+z
loop_
_atom_site_type_symbol
_atom_site_label
_atom_site_fract_x
_atom_site_fract_y
_atom_site_fract_z
Si Si1 0.685599 0.450312 0.669509
Si Si2 0.090156 0.337359 0.683247
Si Si3 0.904493 0.837989 0.182917
Si Si4 0.904286 0.050236 0.681877
Si Si5 0.584771 0.639907 0.183676
Si Si6 0.215402 0.247982 0.315759
Si Si7 0.110938 0.447525 0.828073
Si Si8 0.410145 0.249452 0.681905
O O1 0.653995 0.500000 0.750000
O O2 0.649058 0.450684 0.500000
O O3 0.660403 0.396553 0.733447
O O4 0.786999 0.452177 0.661817
O O5 0.086367 0.337243 0.500000
O O6 0.169876 0.301208 0.730799
O O7 0.096032 0.395049 0.741167
O O8 0.000000 0.317121 0.750000
O O9 0.869357 0.894291 0.217721
O O10 0.845647 0.795439 0.253913
O O11 0.000000 0.834143 0.250000
O O12 0.908864 0.832891 0.000000
O O13 0.909154 0.045037 0.500000
O O14 0.000000 0.051479 0.750000
O O15 0.862137 0.000000 0.750000
O O16 0.500000 0.614312 0.250000
O O17 0.589731 0.692311 0.269661
O O18 0.582354 0.648324 0.000000
O O19 0.215986 0.248356 0.500000
O O20 0.313316 0.235632 0.266812
O O21 0.085150 0.500000 0.750000
O O22 0.075348 0.443846 0.000000
O O23 0.500000 0.228250 0.750000
O O24 0.415062 0.243840 0.500000
#
# Coordination Sequence:
#
# PCOD9392726 Si02
#       8
#     8   8   8   8   8   8   8   8
#     4   9  19  32  47  66  88 113 143 178 222 276
#     4  11  23  38  54  75 100 128 162 201 243 294
#     4  10  20  32  49  74 107 145 185 222 259 301
#     4   9  16  26  42  67  98 138 183 224 260 296
#     4  10  19  31  46  66  89 115 146 182 228 285
#     4  10  22  37  54  76 104 136 171 209 254 304
#     4  10  20  36  55  73  91 116 151 194 241 289
#     4  10  20  35  54  76  98 124 159 201 247 298
#
# _framework density 17.499324999999999
#
# number of rings (size 3 to 8) (size 9 to 14) (size 15 to 20)
#    0.000    2.125    0.000    4.500    0.000    6.500 
#    0.000    2.500    0.000    0.000    0.000    0.000 
#    0.000    0.500    0.000    5.500    0.000    4.000 
#
# Total GULP energy -356369.604808 kJ/mol
# GULP energy per Si atom -5568.275075 kJ/mol
# Density = 1.745950 g / cm^3
# Si number density = 17.499325 Si / 1000 Ang^3
#
#
#
# Elastic Constant Matrix: (Units=GPa)
#
#
# Indices 1 2 3 4 5 6 
#
# 1 89.2319 40.1317 21.1895 0.0000 0.0000 0.0000
# 2 40.1317 96.2840 23.1753 0.0000 0.0000 0.0000
# 3 21.1895 23.1753 36.5432 0.0000 0.0000 0.0000
# 4 0.0000 0.0000 0.0000 26.4054 0.0000 0.0000
# 5 0.0000 0.0000 0.0000 0.0000 25.6097 0.0000
# 6 0.0000 0.0000 0.0000 0.0000 0.0000 15.6673
#
#
#
# Elastic Compliance Matrix: (Units=1/GPa)
#
#
# Indices 1 2 3 4 5 6 
#
# 1 0.014660 -0.004797 -0.005459 0.000000 0.000000 0.000000
# 2 -0.004797 0.013826 -0.005987 0.000000 0.000000 0.000000
# 3 -0.005459 -0.005987 0.034327 0.000000 0.000000 0.000000
# 4 0.000000 0.000000 0.000000 0.037871 0.000000 0.000000
# 5 0.000000 0.000000 0.000000 0.000000 0.039048 0.000000
# 6 0.000000 0.000000 0.000000 0.000000 0.000000 0.063827
#
#
# Mechanical properties :
#
#
# Convention : Reuss Voigt Hill
#
# Bulk Modulus (GPa) = 32.97220 43.45025 38.21123
# Shear Modulus (GPa) = 20.31246 22.70732 21.50989
#
# Velocity S-wave (km/s) = 3.41068 3.60615 3.50978
# Velocity P-wave (km/s) = 5.86458 6.49789 6.18934
#
# Compressibility (1/GPa) = 0.03032858
#
# Stress axis : x y z
#
# Youngs Moduli (GPa) = 68.21152 72.32601 29.13145
#
# Poissons Ratio (x) = 0.34692 0.15902
# Poissons Ratio (y) = 0.32718 0.17442
# Poissons Ratio (z) = 0.37235 0.43303
#
# Static dielectric constant tensor:
#      x y z
#    x 1.670920 0.000000 0.000000 
#    y 0.000000 1.621910 0.000000 
#    z 0.000000 0.000000 1.638550 
# 
# From -- ./inp_files/4391.got.cif
#   From: 2010.05.17/outbox.cif.g08.bks.cpg/sg49_3_cif.got.tgz:4391.got - 2010.06.03 21:02:19.
