data_PCOD9392075
_publ_section_title
;
Structure prediction by ZEFSAII (Michael W. Deem and Ramdas Pophale) SiO2 
 PCOD9392075
Probable space group: P C C M
;
_chemical_formula_sum "Si O2"
_cell_formula_units_Z 32
_cell_length_a 5.319173
_cell_length_b 7.069116
_cell_length_c 35.228066
_cell_angle_alpha 90.000000
_cell_angle_beta 90.000000
_cell_angle_gamma 90.000000
_cell_volume 1324.640487
_symmetry_space_group_name_H-M "P C C M"
_symmetry_group_IT_number 49
_symmetry_cell_setting 'orthorhombic'
loop_
_space_group_symop_operation_xyz
x,y,z
-x,-y,z
x,-y,1/2-z
-x,y,1/2-z
-x,-y,-z
x,y,-z
-x,y,1/2+z
x,-y,1/2+z
loop_
_atom_site_type_symbol
_atom_site_label
_atom_site_fract_x
_atom_site_fract_y
_atom_site_fract_z
Si Si1 0.251065 0.627903 0.542018
Si Si2 0.420224 0.216034 0.352691
Si Si3 0.078841 0.216104 0.118483
Si Si4 0.747744 0.785467 0.266666
O O1 0.500000 0.500000 0.547406
O O2 0.274195 0.717821 0.500000
O O3 0.203199 0.767110 0.577104
O O4 0.000000 0.500000 0.541434
O O5 0.703609 0.299363 0.353923
O O6 0.290757 0.211748 0.311581
O O7 0.202532 0.303566 0.379302
O O8 0.500000 0.000000 0.363277
O O9 0.000000 0.000000 0.127855
O O10 0.500000 0.695761 0.250000
O O11 0.000000 0.701581 0.250000
O O12 0.749127 0.000000 0.250000
#
# Coordination Sequence:
#
# PCOD9392075 Si02
#       4
#     8   8   8   8
#     4  10  21  39  61  82 107 143 190 234 273 333
#     4  10  18  30  44  72 113 150 174 216 282 329
#     4  10  21  33  53  80 115 148 173 231 283 340
#     4  10  17  24  41  64 100 151 177 213 256 330
#
# _framework density 24.157499999999999
#
# number of rings (size 3 to 8) (size 9 to 14) (size 15 to 20)
#    0.000    2.000    2.500    3.000    7.000    0.500 
#    0.000    0.000    0.000    9.000    0.000    0.000 
#    0.000   70.000    0.000    0.000    0.000    0.000 
#
# Total GULP energy -178430.173197 kJ/mol
# GULP energy per Si atom -5575.942912 kJ/mol
# Density = 2.410252 g / cm^3
# Si number density = 24.157500 Si / 1000 Ang^3
#
#
#
# Elastic Constant Matrix: (Units=GPa)
#
#
# Indices 1 2 3 4 5 6 
#
# 1 287.2588 22.7911 73.9324 0.0000 0.0000 0.0000
# 2 22.7911 68.7121 8.7981 0.0000 0.0000 0.0000
# 3 73.9324 8.7981 173.9653 0.0000 0.0000 0.0000
# 4 0.0000 0.0000 0.0000 -661.0465 0.0000 0.0000
# 5 0.0000 0.0000 0.0000 0.0000 42.3584 0.0000
# 6 0.0000 0.0000 0.0000 0.0000 0.0000 -2.3067
#
#
#
# Elastic Compliance Matrix: (Units=1/GPa)
#
#
# Indices 1 2 3 4 5 6 
#
# 1 0.003992 -0.001114 -0.001640 0.000000 0.000000 0.000000
# 2 -0.001114 0.014959 -0.000283 0.000000 0.000000 0.000000
# 3 -0.001640 -0.000283 0.006460 0.000000 0.000000 0.000000
# 4 0.000000 0.000000 0.000000 -0.001513 0.000000 0.000000
# 5 0.000000 0.000000 0.000000 0.000000 0.023608 0.000000
# 6 0.000000 0.000000 0.000000 0.000000 0.000000 -0.433524
#
#
# Mechanical properties :
#
#
# Convention : Reuss Voigt Hill
#
# Bulk Modulus (GPa) = 51.71658 82.33105 67.02381
# Shear Modulus (GPa) = -13.38694 -95.90465 -54.64580
#
# Velocity S-wave (km/s) = -2.35660 -6.30761 -4.76128
# Velocity P-wave (km/s) = 3.74831 4.34660 1.55614
#
# Compressibility (1/GPa) = 0.01933616
#
# Stress axis : x y z
#
# Youngs Moduli (GPa) = 250.52165 66.84832 154.80860
#
# Poissons Ratio (x) = 0.07447 0.25389
# Poissons Ratio (y) = 0.27908 0.04383
# Poissons Ratio (z) = 0.41087 0.01893
#
# Static dielectric constant tensor:
#      x y z
#    x 1.996450 0.000000 0.000000 
#    y 0.000000 1.978620 0.000000 
#    z 0.000000 0.000000 1.964290 
# 
# From -- ./inp_files/25551.got.cif
#   From: 2010.05.17/outbox.cif.g08.bks.cpg/sg49_13_cif.got.tgz:25551.got - 2010.06.03 21:02:19.
