data_PCOD9392827
_publ_section_title
;
Structure prediction by ZEFSAII (Michael W. Deem and Ramdas Pophale) SiO2 
 PCOD9392827
Probable space group: P C C M
;
_chemical_formula_sum "Si O2"
_cell_formula_units_Z 60
_cell_length_a 23.310071
_cell_length_b 14.264315
_cell_length_c 9.750102
_cell_angle_alpha 90.000000
_cell_angle_beta 90.000000
_cell_angle_gamma 90.000000
_cell_volume 3241.930321
_symmetry_space_group_name_H-M "P C C M"
_symmetry_group_IT_number 49
_symmetry_cell_setting 'orthorhombic'
loop_
_space_group_symop_operation_xyz
x,y,z
-x,-y,z
x,-y,1/2-z
-x,y,1/2-z
-x,-y,-z
x,y,-z
-x,y,1/2+z
x,-y,1/2+z
loop_
_atom_site_type_symbol
_atom_site_label
_atom_site_fract_x
_atom_site_fract_y
_atom_site_fract_z
Si Si1 0.411040 0.912376 0.660113
Si Si2 0.054456 0.096605 0.165505
Si Si3 0.301983 0.352594 0.349750
Si Si4 0.707968 0.822689 0.163273
Si Si5 0.832984 0.777151 0.161865
Si Si6 0.500000 0.755623 0.250000
Si Si7 0.175729 0.588335 0.839696
Si Si8 0.429854 0.581623 0.851686
O O1 0.409188 0.937970 0.500000
O O2 0.346186 0.885254 0.708661
O O3 0.454347 0.824599 0.677161
O O4 0.430817 0.000000 0.750000
O O5 0.110113 0.161524 0.176551
O O6 0.000000 0.137683 0.250000
O O7 0.065080 0.000000 0.250000
O O8 0.043604 0.083256 0.000000
O O9 0.299371 0.303540 0.500000
O O10 0.301517 0.278529 0.228672
O O11 0.245250 0.414868 0.343302
O O12 0.361732 0.404291 0.342683
O O13 0.775514 0.838421 0.195662
O O14 0.703114 0.820086 0.000000
O O15 0.836318 0.686071 0.259803
O O16 0.827701 0.748943 0.000000
O O17 0.460776 0.681671 0.166966
O O18 0.154617 0.500000 0.750000
O O19 0.156595 0.588247 0.000000
O O20 0.444446 0.500000 0.750000
O O21 0.443492 0.545302 0.000000
#
# Coordination Sequence:
#
# PCOD9392827 Si02
#       8
#     8   8   8   8   8   4   8   8
#     4  11  25  42  62  85 106 139 183 230 287 342
#     4  10  20  35  57  86 119 156 193 234 279 332
#     4   9  18  34  54  79 107 141 179 221 273 329
#     4   9  18  36  58  81 109 142 180 226 277 329
#     4   9  19  35  57  84 116 152 191 232 279 328
#     4  12  24  42  62  78 104 142 186 234 278 336
#     4  10  19  31  52  81 115 151 191 232 278 330
#     4  11  24  39  58  82 109 139 177 224 278 339
#
# _framework density 18.507491999999999
#
# number of rings (size 3 to 8) (size 9 to 14) (size 15 to 20)
#    0.000    2.000    1.333    2.400    0.000    6.400 
#    0.000    0.000    0.000    0.400    0.000    2.800 
#    0.000    0.000    0.000    0.000    0.000    0.000 
#
# Total GULP energy -334059.083955 kJ/mol
# GULP energy per Si atom -5567.651399 kJ/mol
# Density = 1.846537 g / cm^3
# Si number density = 18.507492 Si / 1000 Ang^3
#
#
#
# Elastic Constant Matrix: (Units=GPa)
#
#
# Indices 1 2 3 4 5 6 
#
# 1 107.2351 40.6491 47.3979 0.0000 0.0000 0.0000
# 2 40.6491 74.5432 50.1686 0.0000 0.0000 0.0000
# 3 47.3979 50.1686 94.6482 0.0000 0.0000 0.0000
# 4 0.0000 0.0000 0.0000 24.1733 0.0000 0.0000
# 5 0.0000 0.0000 0.0000 0.0000 35.4830 0.0000
# 6 0.0000 0.0000 0.0000 0.0000 0.0000 18.3254
#
#
#
# Elastic Compliance Matrix: (Units=1/GPa)
#
#
# Indices 1 2 3 4 5 6 
#
# 1 0.012743 -0.004126 -0.004195 0.000000 0.000000 0.000000
# 2 -0.004126 0.022191 -0.009696 0.000000 0.000000 0.000000
# 3 -0.004195 -0.009696 0.017805 0.000000 0.000000 0.000000
# 4 0.000000 0.000000 0.000000 0.041368 0.000000 0.000000
# 5 0.000000 0.000000 0.000000 0.000000 0.028183 0.000000
# 6 0.000000 0.000000 0.000000 0.000000 0.000000 0.054569
#
#
# Mechanical properties :
#
#
# Convention : Reuss Voigt Hill
#
# Bulk Modulus (GPa) = 59.85830 61.42861 60.64346
# Shear Modulus (GPa) = 22.88741 24.81039 23.84890
#
# Velocity S-wave (km/s) = 3.52043 3.66534 3.59361
# Velocity P-wave (km/s) = 6.99553 7.15375 7.07509
#
# Compressibility (1/GPa) = 0.01670612
#
# Stress axis : x y z
#
# Youngs Moduli (GPa) = 78.47228 45.06427 56.16284
#
# Poissons Ratio (x) = 0.18594 0.23558
# Poissons Ratio (y) = 0.32378 0.54455
# Poissons Ratio (z) = 0.32916 0.43694
#
# Static dielectric constant tensor:
#      x y z
#    x 1.682480 0.000000 0.000000 
#    y 0.000000 1.603950 0.000000 
#    z 0.000000 0.000000 1.657810 
# 
# From -- ./inp_files/6427.got.cif
#   From: 2010.05.17/outbox.cif.g08.bks.cpg/sg49_4_cif.got.tgz:6427.got - 2010.06.03 21:02:19.
