data_PCOD9392135
_publ_section_title
;
Structure prediction by ZEFSAII (Michael W. Deem and Ramdas Pophale) SiO2 
 PCOD9392135
Probable space group: P C C M
;
_chemical_formula_sum "Si O2"
_cell_formula_units_Z 32
_cell_length_a 22.087549
_cell_length_b 9.337329
_cell_length_c 8.590495
_cell_angle_alpha 90.000000
_cell_angle_beta 90.000000
_cell_angle_gamma 90.000000
_cell_volume 1771.692623
_symmetry_space_group_name_H-M "P C C M"
_symmetry_group_IT_number 49
_symmetry_cell_setting 'orthorhombic'
loop_
_space_group_symop_operation_xyz
x,y,z
-x,-y,z
x,-y,1/2-z
-x,y,1/2-z
-x,-y,-z
x,y,-z
-x,y,1/2+z
x,-y,1/2+z
loop_
_atom_site_type_symbol
_atom_site_label
_atom_site_fract_x
_atom_site_fract_y
_atom_site_fract_z
Si Si1 0.811508 0.338366 0.312607
Si Si2 0.561881 0.163179 0.313708
Si Si3 0.694255 0.161229 0.687703
Si Si4 0.062467 0.663654 0.185864
O O1 0.806502 0.500000 0.250000
O O2 0.814875 0.341173 0.500000
O O3 0.752046 0.252240 0.261718
O O4 0.874264 0.273671 0.247031
O O5 0.500000 0.231459 0.250000
O O6 0.558102 0.159146 0.500000
O O7 0.627918 0.222789 0.267070
O O8 0.562809 0.000000 0.250000
O O9 0.695071 0.155931 0.500000
O O10 0.698869 0.000000 0.750000
O O11 0.063143 0.500000 0.250000
O O12 0.000000 0.729446 0.250000
O O13 0.061389 0.660510 0.000000
#
# Coordination Sequence:
#
# PCOD9392135 Si02
#       4
#     8   8   8   8
#     4  10  19  32  48  70  96 124 155 192 231 275
#     4   9  15  25  41  64  89 116 148 188 229 269
#     4   9  19  32  48  69  96 124 155 191 232 277
#     4  10  17  27  44  67  92 120 152 191 231 271
#
# _framework density 18.061823
#
# number of rings (size 3 to 8) (size 9 to 14) (size 15 to 20)
#    0.000    2.500    0.000    6.750    0.000    3.000 
#    0.000    0.000    0.000    1.500    0.000   10.500 
#    0.000    0.000    0.000    0.000    0.000    0.000 
#
# Total GULP energy -178217.886919 kJ/mol
# GULP energy per Si atom -5569.308966 kJ/mol
# Density = 1.802071 g / cm^3
# Si number density = 18.061823 Si / 1000 Ang^3
#
#
#
# Elastic Constant Matrix: (Units=GPa)
#
#
# Indices 1 2 3 4 5 6 
#
# 1 247.5756 43.7819 57.9919 0.0000 0.0000 0.0000
# 2 43.7819 18.4748 8.2163 0.0000 0.0000 0.0000
# 3 57.9919 8.2163 82.4868 0.0000 0.0000 0.0000
# 4 0.0000 0.0000 0.0000 5.2000 0.0000 0.0000
# 5 0.0000 0.0000 0.0000 0.0000 33.4024 0.0000
# 6 0.0000 0.0000 0.0000 0.0000 0.0000 20.2035
#
#
#
# Elastic Compliance Matrix: (Units=1/GPa)
#
#
# Indices 1 2 3 4 5 6 
#
# 1 0.008000 -0.017220 -0.003909 0.000000 0.000000 0.000000
# 2 -0.017220 0.093703 0.002773 0.000000 0.000000 0.000000
# 3 -0.003909 0.002773 0.014595 0.000000 0.000000 0.000000
# 4 0.000000 0.000000 0.000000 0.192307 0.000000 0.000000
# 5 0.000000 0.000000 0.000000 0.000000 0.029938 0.000000
# 6 0.000000 0.000000 0.000000 0.000000 0.000000 0.049496
#
#
# Mechanical properties :
#
#
# Convention : Reuss Voigt Hill
#
# Bulk Modulus (GPa) = 12.56504 63.16860 37.86682
# Shear Modulus (GPa) = 11.07956 27.66433 19.37195
#
# Velocity S-wave (km/s) = 2.47943 3.91787 3.27851
# Velocity P-wave (km/s) = 3.89468 7.45089 5.94493
#
# Compressibility (1/GPa) = 0.07958592
#
# Stress axis : x y z
#
# Youngs Moduli (GPa) = 124.99790 10.67199 68.51544
#
# Poissons Ratio (x) = 0.18377 0.26784
# Poissons Ratio (y) = 2.15250 -0.19000
# Poissons Ratio (z) = 0.48864 -0.02959
#
# Static dielectric constant tensor:
#      x y z
#    x 1.724310 0.000000 0.000000 
#    y 0.000000 1.592340 0.000000 
#    z 0.000000 0.000000 1.606490 
# 
# From -- ./inp_files/1411.got.cif
#   From: 2010.05.17/outbox.cif.g08.bks.cpg/sg49_1_cif.got.tgz:1411.got - 2010.06.03 21:02:19.
