data_PCOD9392822
_publ_section_title
;
Structure prediction by ZEFSAII (Michael W. Deem and Ramdas Pophale) SiO2 
 PCOD9392822
Probable space group: P C C M
;
_chemical_formula_sum "Si O2"
_cell_formula_units_Z 58
_cell_length_a 19.191490
_cell_length_b 18.866707
_cell_length_c 8.563132
_cell_angle_alpha 90.000000
_cell_angle_beta 90.000000
_cell_angle_gamma 90.000000
_cell_volume 3100.540708
_symmetry_space_group_name_H-M "P C C M"
_symmetry_group_IT_number 49
_symmetry_cell_setting 'orthorhombic'
loop_
_space_group_symop_operation_xyz
x,y,z
-x,-y,z
x,-y,1/2-z
-x,y,1/2-z
-x,-y,-z
x,y,-z
-x,y,1/2+z
x,-y,1/2+z
loop_
_atom_site_type_symbol
_atom_site_label
_atom_site_fract_x
_atom_site_fract_y
_atom_site_fract_z
Si Si1 0.500000 0.500000 0.750000
Si Si2 0.331985 0.921688 0.312056
Si Si3 0.238429 0.576022 0.819746
Si Si4 0.599512 0.617279 0.682583
Si Si5 0.169807 0.075341 0.814292
Si Si6 0.348904 0.229555 0.687667
Si Si7 0.923376 0.800159 0.316580
Si Si8 0.200326 0.717743 0.319418
O O1 0.557289 0.562089 0.790857
O O2 0.335867 0.922643 0.500000
O O3 0.250338 0.913660 0.262219
O O4 0.367908 0.849054 0.250465
O O5 0.354701 0.000000 0.250000
O O6 0.223844 0.500000 0.750000
O O7 0.321188 0.590945 0.819418
O O8 0.207774 0.634742 0.706025
O O9 0.215335 0.584270 0.000000
O O10 0.574262 0.610871 0.500000
O O11 0.603465 0.700945 0.728471
O O12 0.115450 0.132048 0.754552
O O13 0.147877 0.000000 0.750000
O O14 0.171064 0.075597 0.000000
O O15 0.346450 0.227695 0.500000
O O16 0.271328 0.247951 0.751006
O O17 0.928524 0.808359 0.500000
O O18 0.868399 0.739986 0.271775
O O19 0.000000 0.789158 0.250000
O O20 0.194933 0.738802 0.500000
#
# Coordination Sequence:
#
# PCOD9392822 Si02
#       8
#     2   8   8   8   8   8   8   8
#     4  12  18  36  56  82 122 168 196 228 262 320
#     4  10  19  31  52  80 110 142 181 231 287 340
#     4  10  19  35  55  82 110 141 182 226 272 321
#     4   9  20  33  50  78 114 155 194 229 268 318
#     4  10  20  34  51  74 104 138 179 225 274 334
#     4  10  19  34  53  77 110 147 189 235 281 329
#     4  12  24  38  55  75 102 139 180 227 278 336
#     4  11  21  35  54  78 105 139 179 228 278 331
#
# _framework density 18.706413999999999
#
# number of rings (size 3 to 8) (size 9 to 14) (size 15 to 20)
#    0.000    1.655    2.069    5.172    0.000    1.379 
#    0.000    3.448    0.000    0.414    0.000    3.379 
#    0.000    3.310    0.000    0.000    0.000    0.000 
#
# Total GULP energy -323092.475300 kJ/mol
# GULP energy per Si atom -5570.559919 kJ/mol
# Density = 1.866384 g / cm^3
# Si number density = 18.706414 Si / 1000 Ang^3
#
#
#
# Elastic Constant Matrix: (Units=GPa)
#
#
# Indices 1 2 3 4 5 6 
#
# 1 26.7264 17.9213 -5.9354 0.0000 0.0000 0.0000
# 2 17.9213 149.7762 3.1668 0.0000 0.0000 0.0000
# 3 -5.9354 3.1668 38.1338 0.0000 0.0000 0.0000
# 4 0.0000 0.0000 0.0000 23.9814 0.0000 0.0000
# 5 0.0000 0.0000 0.0000 0.0000 10.0852 0.0000
# 6 0.0000 0.0000 0.0000 0.0000 0.0000 11.7135
#
#
#
# Elastic Compliance Matrix: (Units=1/GPa)
#
#
# Indices 1 2 3 4 5 6 
#
# 1 0.042490 -0.005233 0.007048 0.000000 0.000000 0.000000
# 2 -0.005233 0.007333 -0.001423 0.000000 0.000000 0.000000
# 3 0.007048 -0.001423 0.027439 0.000000 0.000000 0.000000
# 4 0.000000 0.000000 0.000000 0.041699 0.000000 0.000000
# 5 0.000000 0.000000 0.000000 0.000000 0.099155 0.000000
# 6 0.000000 0.000000 0.000000 0.000000 0.000000 0.085372
#
#
# Mechanical properties :
#
#
# Convention : Reuss Voigt Hill
#
# Bulk Modulus (GPa) = 12.81311 27.21573 20.01442
# Shear Modulus (GPa) = 15.21051 22.45492 18.83272
#
# Velocity S-wave (km/s) = 2.85461 3.46842 3.17638
# Velocity P-wave (km/s) = 4.21065 5.53357 4.91680
#
# Compressibility (1/GPa) = 0.07804507
#
# Stress axis : x y z
#
# Youngs Moduli (GPa) = 23.53468 136.37181 36.44485
#
# Poissons Ratio (x) = 0.71366 -0.25687
# Poissons Ratio (y) = 0.12316 0.05188
# Poissons Ratio (z) = -0.16588 0.19412
#
# Static dielectric constant tensor:
#      x y z
#    x 2.076470 0.000000 0.000000 
#    y 0.000000 1.690830 0.000000 
#    z 0.000000 0.000000 1.659230 
# 
# From -- ./inp_files/5108.got.cif
#   From: 2010.05.17/outbox.cif.g08.bks.cpg/sg49_3_cif.got.tgz:5108.got - 2010.06.03 21:02:19.
