data_PCOD9392546
_publ_section_title
;
Structure prediction by ZEFSAII (Michael W. Deem and Ramdas Pophale) SiO2 
 PCOD9392546
Probable space group: P C C M
;
_chemical_formula_sum "Si O2"
_cell_formula_units_Z 64
_cell_length_a 17.950617
_cell_length_b 11.634994
_cell_length_c 14.300963
_cell_angle_alpha 90.000000
_cell_angle_beta 90.000000
_cell_angle_gamma 90.000000
_cell_volume 2986.832219
_symmetry_space_group_name_H-M "P C C M"
_symmetry_group_IT_number 49
_symmetry_cell_setting 'orthorhombic'
loop_
_space_group_symop_operation_xyz
x,y,z
-x,-y,z
x,-y,1/2-z
-x,y,1/2-z
-x,-y,-z
x,y,-z
-x,y,1/2+z
x,-y,1/2+z
loop_
_atom_site_type_symbol
_atom_site_label
_atom_site_fract_x
_atom_site_fract_y
_atom_site_fract_z
Si Si1 0.969274 0.879136 0.856420
Si Si2 0.029767 0.379887 0.141338
Si Si3 0.202690 0.409448 0.163891
Si Si4 0.661878 0.116580 0.274902
Si Si5 0.551422 0.269778 0.607660
Si Si6 0.382657 0.244276 0.395294
Si Si7 0.204314 0.154656 0.886547
Si Si8 0.641608 0.507155 0.137542
O O1 0.988813 0.749748 0.893643
O O2 0.879704 0.884072 0.864899
O O3 0.000000 0.877105 0.750000
O O4 0.000000 0.000000 0.896270
O O5 0.118190 0.399099 0.128861
O O6 0.000000 0.500000 0.102033
O O7 0.000000 0.377987 0.250000
O O8 0.197816 0.500000 0.250000
O O9 0.218552 0.273418 0.171086
O O10 0.275801 0.450860 0.108897
O O11 0.612730 0.200637 0.336706
O O12 0.671788 0.183341 0.177273
O O13 0.732565 0.078560 0.337622
O O14 0.619337 0.000000 0.250000
O O15 0.554096 0.235437 0.500000
O O16 0.468122 0.241742 0.640448
O O17 0.577018 0.403013 0.612223
O O18 0.377561 0.196174 0.500000
O O19 0.368117 0.379857 0.398781
O O20 0.212670 0.168174 0.000000
O O21 0.641264 0.500000 0.250000
#
# Coordination Sequence:
#
# PCOD9392546 Si02
#       8
#     8   8   8   8   8   8   8   8
#     4   9  20  37  64  98 133 171 228 281 341 401
#     4   9  15  29  54  89 121 171 215 268 328 404
#     4  10  18  33  60  94 129 171 217 267 332 399
#     4  12  26  44  68  93 129 177 231 280 338 404
#     4  11  23  42  68  96 130 173 221 277 344 414
#     4  11  25  43  65  97 134 172 220 282 346 408
#     4  11  24  43  69 101 136 180 233 281 339 416
#     4  11  20  35  62  99 135 173 219 274 346 414
#
# _framework density 21.427384
#
# number of rings (size 3 to 8) (size 9 to 14) (size 15 to 20)
#    0.000    1.500    3.750    2.250    1.750    4.250 
#    0.000    1.250    0.000    6.000    0.000    0.000 
#    0.000    0.000    0.000    0.000    0.000    0.000 
#
# Total GULP energy -356392.508127 kJ/mol
# GULP energy per Si atom -5568.632939 kJ/mol
# Density = 2.137861 g / cm^3
# Si number density = 21.427384 Si / 1000 Ang^3
#
#
#
# Elastic Constant Matrix: (Units=GPa)
#
#
# Indices 1 2 3 4 5 6 
#
# 1 100.3716 22.2225 34.3210 0.0000 0.0000 0.0000
# 2 22.2225 130.2230 26.1709 0.0000 0.0000 0.0000
# 3 34.3210 26.1709 118.2654 0.0000 0.0000 0.0000
# 4 0.0000 0.0000 0.0000 -74.1790 0.0000 0.0000
# 5 0.0000 0.0000 0.0000 0.0000 2.3529 0.0000
# 6 0.0000 0.0000 0.0000 0.0000 0.0000 -0.7810
#
#
#
# Elastic Compliance Matrix: (Units=1/GPa)
#
#
# Indices 1 2 3 4 5 6 
#
# 1 0.011275 -0.001325 -0.002979 0.000000 0.000000 0.000000
# 2 -0.001325 0.008192 -0.001428 0.000000 0.000000 0.000000
# 3 -0.002979 -0.001428 0.009636 0.000000 0.000000 0.000000
# 4 0.000000 0.000000 0.000000 -0.013481 0.000000 0.000000
# 5 0.000000 0.000000 0.000000 0.000000 0.425014 0.000000
# 6 0.000000 0.000000 0.000000 0.000000 0.000000 -1.280460
#
#
# Mechanical properties :
#
#
# Convention : Reuss Voigt Hill
#
# Bulk Modulus (GPa) = 56.69392 57.14320 56.91856
# Shear Modulus (GPa) = -6.07918 3.22162 -1.42878
#
# Velocity S-wave (km/s) = -1.68620 1.22751 -0.81747
# Velocity P-wave (km/s) = 4.76708 5.36052 5.07249
#
# Compressibility (1/GPa) = 0.01763858
#
# Stress axis : x y z
#
# Youngs Moduli (GPa) = 88.69202 122.06500 103.77695
#
# Poissons Ratio (x) = 0.16179 0.30912
# Poissons Ratio (y) = 0.11756 0.14822
# Poissons Ratio (z) = 0.26419 0.17434
#
# Static dielectric constant tensor:
#      x y z
#    x 1.819270 0.000000 0.000000 
#    y 0.000000 1.819970 0.000000 
#    z 0.000000 0.000000 1.769080 
# 
# From -- ./inp_files/14220.got.cif
#   From: 2010.05.17/outbox.cif.g08.bks.cpg/sg49_8_cif.got.tgz:14220.got - 2010.06.03 21:02:19.
