data_PCOD9392527
_publ_section_title
;
Structure prediction by ZEFSAII (Michael W. Deem and Ramdas Pophale) SiO2 
 PCOD9392527
Probable space group: P C C M
;
_chemical_formula_sum "Si O2"
_cell_formula_units_Z 64
_cell_length_a 9.208399
_cell_length_b 21.045852
_cell_length_c 17.069847
_cell_angle_alpha 90.000000
_cell_angle_beta 90.000000
_cell_angle_gamma 90.000000
_cell_volume 3308.112494
_symmetry_space_group_name_H-M "P C C M"
_symmetry_group_IT_number 49
_symmetry_cell_setting 'orthorhombic'
loop_
_space_group_symop_operation_xyz
x,y,z
-x,-y,z
x,-y,1/2-z
-x,y,1/2-z
-x,-y,-z
x,y,-z
-x,y,1/2+z
x,-y,1/2+z
loop_
_atom_site_type_symbol
_atom_site_label
_atom_site_fract_x
_atom_site_fract_y
_atom_site_fract_z
Si Si1 0.737793 0.104362 0.585642
Si Si2 0.398332 0.141795 0.586444
Si Si3 0.623124 0.740247 0.685509
Si Si4 0.672091 0.981730 0.664146
Si Si5 0.660836 0.598424 0.720613
Si Si6 0.096339 0.655662 0.671346
Si Si7 0.862153 0.793176 0.798446
Si Si8 0.110134 0.441056 0.408153
O O1 0.798323 0.118640 0.500000
O O2 0.566229 0.120719 0.585268
O O3 0.802884 0.149278 0.651452
O O4 0.748136 0.029703 0.604421
O O5 0.336909 0.133276 0.500000
O O6 0.397387 0.214773 0.611928
O O7 0.319601 0.092532 0.644491
O O8 0.500000 0.752077 0.750000
O O9 0.632714 0.665077 0.674890
O O10 0.762286 0.765983 0.729647
O O11 0.500000 0.000000 0.662029
O O12 0.724847 0.000000 0.750000
O O13 0.500000 0.575949 0.750000
O O14 0.759322 0.618486 0.796990
O O15 0.761184 0.558965 0.658482
O O16 0.121660 0.729051 0.648872
O O17 0.000000 0.658812 0.750000
O O18 0.995894 0.618586 0.610166
O O19 0.000000 0.814553 0.750000
O O20 0.158811 0.440770 0.500000
O O21 0.000000 0.500000 0.396613
#
# Coordination Sequence:
#
# PCOD9392527 Si02
#       8
#     8   8   8   8   8   8   8   8
#     4  10  19  31  48  75 108 140 182 235 288 337
#     4  10  19  30  49  80 110 141 182 235 295 347
#     4  10  18  33  56  80 112 144 182 232 286 341
#     4   9  17  28  48  73 102 138 184 234 282 336
#     4   9  19  35  59  90 118 150 192 247 297 343
#     4   8  17  34  55  82 112 151 205 240 274 340
#     4  10  19  33  53  79 108 147 191 231 277 342
#     4  10  21  39  62  87 121 162 200 240 286 345
#
# _framework density 19.34638
#
# number of rings (size 3 to 8) (size 9 to 14) (size 15 to 20)
#    0.000    2.500    1.250    1.875    1.750    4.750 
#    0.000    2.500    0.000    4.875    0.000    4.375 
#    0.000    0.000    0.000    0.000    0.000    0.000 
#
# Total GULP energy -356308.405989 kJ/mol
# GULP energy per Si atom -5567.318844 kJ/mol
# Density = 1.930235 g / cm^3
# Si number density = 19.346380 Si / 1000 Ang^3
#
#
#
# Elastic Constant Matrix: (Units=GPa)
#
#
# Indices 1 2 3 4 5 6 
#
# 1 63.4740 7.1099 23.4292 0.0000 0.0000 0.0000
# 2 7.1099 73.1263 25.0760 0.0000 0.0000 0.0000
# 3 23.4292 25.0760 79.2699 0.0000 0.0000 0.0000
# 4 0.0000 0.0000 0.0000 -634.1353 0.0000 0.0000
# 5 0.0000 0.0000 0.0000 0.0000 17.7374 0.0000
# 6 0.0000 0.0000 0.0000 0.0000 0.0000 17.0860
#
#
#
# Elastic Compliance Matrix: (Units=1/GPa)
#
#
# Indices 1 2 3 4 5 6 
#
# 1 0.017684 0.000082 -0.005253 0.000000 0.000000 0.000000
# 2 0.000082 0.015339 -0.004877 0.000000 0.000000 0.000000
# 3 -0.005253 -0.004877 0.015710 0.000000 0.000000 0.000000
# 4 0.000000 0.000000 0.000000 -0.001577 0.000000 0.000000
# 5 0.000000 0.000000 0.000000 0.000000 0.056378 0.000000
# 6 0.000000 0.000000 0.000000 0.000000 0.000000 0.058527
#
#
# Mechanical properties :
#
#
# Convention : Reuss Voigt Hill
#
# Bulk Modulus (GPa) = 34.91760 36.34452 35.63106
# Shear Modulus (GPa) = 26.08196 -109.17871 -41.54837
#
# Velocity S-wave (km/s) = 3.67571 -7.52038 -4.63925
# Velocity P-wave (km/s) = 6.00852 7.52205 3.19992
#
# Compressibility (1/GPa) = 0.02863885
#
# Stress axis : x y z
#
# Youngs Moduli (GPa) = 56.54778 65.19223 63.65262
#
# Poissons Ratio (x) = -0.00533 0.33435
# Poissons Ratio (y) = -0.00463 0.31041
# Poissons Ratio (z) = 0.29703 0.31791
#
# Static dielectric constant tensor:
#      x y z
#    x 1.706820 0.000000 0.000000 
#    y 0.000000 1.756780 0.000000 
#    z 0.000000 0.000000 1.678650 
# 
# From -- ./inp_files/16546.got.cif
#   From: 2010.05.17/outbox.cif.g08.bks.cpg/sg49_9_cif.got.tgz:16546.got - 2010.06.03 21:02:19.
