data_PCOD9392497
_publ_section_title
;
Structure prediction by ZEFSAII (Michael W. Deem and Ramdas Pophale) SiO2 
 PCOD9392497
Probable space group: P C C M
;
_chemical_formula_sum "Si O2"
_cell_formula_units_Z 64
_cell_length_a 15.571806
_cell_length_b 25.141260
_cell_length_c 8.791415
_cell_angle_alpha 90.000000
_cell_angle_beta 90.000000
_cell_angle_gamma 90.000000
_cell_volume 3441.793462
_symmetry_space_group_name_H-M "P C C M"
_symmetry_group_IT_number 49
_symmetry_cell_setting 'orthorhombic'
loop_
_space_group_symop_operation_xyz
x,y,z
-x,-y,z
x,-y,1/2-z
-x,y,1/2-z
-x,-y,-z
x,y,-z
-x,y,1/2+z
x,-y,1/2+z
loop_
_atom_site_type_symbol
_atom_site_label
_atom_site_fract_x
_atom_site_fract_y
_atom_site_fract_z
Si Si1 0.591433 0.360472 0.183026
Si Si2 0.126784 0.714174 0.823803
Si Si3 0.087429 0.827842 0.318287
Si Si4 0.087775 0.399619 0.181409
Si Si5 0.676031 0.253261 0.823798
Si Si6 0.720820 0.142635 0.681010
Si Si7 0.591502 0.941236 0.318270
Si Si8 0.273175 0.443042 0.817244
O O1 0.500000 0.376768 0.250000
O O2 0.610911 0.299077 0.226004
O O3 0.665325 0.397845 0.250150
O O4 0.592430 0.363578 0.000000
O O5 0.094473 0.767566 0.743342
O O6 0.098393 0.660638 0.741788
O O7 0.230075 0.719222 0.820068
O O8 0.098998 0.713380 0.000000
O O9 0.082171 0.827110 0.500000
O O10 0.177994 0.855296 0.275142
O O11 0.000000 0.851608 0.250000
O O12 0.174526 0.430221 0.226093
O O13 0.000000 0.422162 0.250000
O O14 0.081904 0.399031 0.000000
O O15 0.682140 0.200294 0.724751
O O16 0.659080 0.238372 0.000000
O O17 0.715303 0.134680 0.500000
O O18 0.666822 0.097962 0.766581
O O19 0.500000 0.922498 0.250000
O O20 0.585520 0.944108 0.500000
O O21 0.606158 0.000000 0.250000
O O22 0.297888 0.500000 0.750000
O O23 0.279170 0.443140 0.000000
#
# Coordination Sequence:
#
# PCOD9392497 Si02
#       8
#     8   8   8   8   8   8   8   8
#     4  11  23  41  64  90 118 149 188 233 287 347
#     4  10  18  32  54  79 111 150 191 233 280 336
#     4  10  20  33  51  79 117 159 200 243 288 339
#     4  11  23  37  57  84 113 146 185 229 282 342
#     4   9  19  35  56  83 117 156 191 232 285 341
#     4  10  21  36  57  87 122 160 201 245 292 345
#     4  11  22  39  63  89 120 156 199 248 298 350
#     4  11  25  44  65  86 111 145 186 236 288 343
#
# _framework density 18.594956
#
# number of rings (size 3 to 8) (size 9 to 14) (size 15 to 20)
#    0.000    1.625    1.250    4.125    0.000    5.500 
#    0.000    3.750    0.000    0.375    0.000    2.625 
#    0.000    0.000    0.000    0.000    0.000    0.000 
#
# Total GULP energy -357599.574687 kJ/mol
# GULP energy per Si atom -5587.493354 kJ/mol
# Density = 1.855263 g / cm^3
# Si number density = 18.594956 Si / 1000 Ang^3
#
#
#
# Elastic Constant Matrix: (Units=GPa)
#
#
# Indices 1 2 3 4 5 6 
#
# 1 116.3150 49.4747 49.9891 0.0000 0.0000 0.0000
# 2 49.4747 64.3334 35.1261 0.0000 0.0000 0.0000
# 3 49.9891 35.1261 83.2341 0.0000 0.0000 0.0000
# 4 0.0000 0.0000 0.0000 23.8365 0.0000 0.0000
# 5 0.0000 0.0000 0.0000 0.0000 70.0202 0.0000
# 6 0.0000 0.0000 0.0000 0.0000 0.0000 2.3680
#
#
#
# Elastic Compliance Matrix: (Units=1/GPa)
#
#
# Indices 1 2 3 4 5 6 
#
# 1 0.014280 -0.008185 -0.005122 0.000000 0.000000 0.000000
# 2 -0.008185 0.024890 -0.005588 0.000000 0.000000 0.000000
# 3 -0.005122 -0.005588 0.017449 0.000000 0.000000 0.000000
# 4 0.000000 0.000000 0.000000 0.041953 0.000000 0.000000
# 5 0.000000 0.000000 0.000000 0.000000 0.014282 0.000000
# 6 0.000000 0.000000 0.000000 0.000000 0.000000 0.422295
#
#
# Mechanical properties :
#
#
# Convention : Reuss Voigt Hill
#
# Bulk Modulus (GPa) = 53.11223 59.22915 56.17069
# Shear Modulus (GPa) = 8.63237 27.86444 18.24841
#
# Velocity S-wave (km/s) = 2.15694 3.87524 3.13607
# Velocity P-wave (km/s) = 5.90152 7.20727 6.58683
#
# Compressibility (1/GPa) = 0.01882806
#
# Stress axis : x y z
#
# Youngs Moduli (GPa) = 70.02597 40.17693 57.31044
#
# Poissons Ratio (x) = 0.32886 0.29356
# Poissons Ratio (y) = 0.57319 0.32025
# Poissons Ratio (z) = 0.35869 0.22451
#
# Static dielectric constant tensor:
#      x y z
#    x 1.673100 0.000000 0.000000 
#    y 0.000000 1.603880 0.000000 
#    z 0.000000 0.000000 1.623820 
# 
# From -- ./inp_files/4358.got.cif
#   From: 2010.05.17/outbox.cif.g08.bks.cpg/sg49_3_cif.got.tgz:4358.got - 2010.06.03 21:02:19.
