data_PCOD9392214
_publ_section_title
;
Structure prediction by ZEFSAII (Michael W. Deem and Ramdas Pophale) SiO2 
 PCOD9392214
Probable space group: P C C M
;
_chemical_formula_sum "Si O2"
_cell_formula_units_Z 48
_cell_length_a 9.596893
_cell_length_b 31.584423
_cell_length_c 8.561453
_cell_angle_alpha 90.000000
_cell_angle_beta 90.000000
_cell_angle_gamma 90.000000
_cell_volume 2595.081950
_symmetry_space_group_name_H-M "P C C M"
_symmetry_group_IT_number 49
_symmetry_cell_setting 'orthorhombic'
loop_
_space_group_symop_operation_xyz
x,y,z
-x,-y,z
x,-y,1/2-z
-x,y,1/2-z
-x,-y,-z
x,y,-z
-x,y,1/2+z
x,-y,1/2+z
loop_
_atom_site_type_symbol
_atom_site_label
_atom_site_fract_x
_atom_site_fract_y
_atom_site_fract_z
Si Si1 0.656765 0.698654 0.187238
Si Si2 0.841954 0.867357 0.813065
Si Si3 0.656432 0.209007 0.812754
Si Si4 0.346134 0.452837 0.812771
Si Si5 0.843222 0.622192 0.686980
Si Si6 0.159356 0.956181 0.813274
O O1 0.500000 0.691101 0.250000
O O2 0.700559 0.744966 0.248619
O O3 0.758072 0.662592 0.250649
O O4 0.654393 0.698461 0.000000
O O5 0.754195 0.828040 0.750314
O O6 0.781116 0.912026 0.750149
O O7 0.000000 0.863751 0.750000
O O8 0.844327 0.868151 0.000000
O O9 0.500000 0.202044 0.750000
O O10 0.655892 0.209703 0.000000
O O11 0.316396 0.500000 0.750000
O O12 0.500000 0.441105 0.750000
O O13 0.235401 0.419353 0.750101
O O14 0.348333 0.453088 0.000000
O O15 0.842793 0.622060 0.500000
O O16 0.000000 0.623352 0.750000
O O17 0.000000 0.955995 0.750000
O O18 0.223413 0.000000 0.750000
O O19 0.157499 0.956406 0.000000
#
# Coordination Sequence:
#
# PCOD9392214 Si02
#       6
#     8   8   8   8   8   8
#     4  11  22  40  63  88 114 149 191 235 280 334
#     4  11  21  35  54  81 112 146 185 232 282 335
#     4  11  22  39  60  85 113 148 188 232 281 337
#     4  11  22  40  64  92 121 157 199 243 286 336
#     4  12  25  42  61  88 121 156 193 238 290 344
#     4  10  17  28  46  72 104 141 181 227 276 330
#
# _framework density 18.496524000000001
#
# number of rings (size 3 to 8) (size 9 to 14) (size 15 to 20)
#    0.000    1.000    0.000   12.500    0.000    1.000 
#    0.000    5.000    0.000    0.500    0.000    3.500 
#    0.000    0.000    0.000    0.000    0.000    0.000 
#
# Total GULP energy -268406.719928 kJ/mol
# GULP energy per Si atom -5591.806665 kJ/mol
# Density = 1.845443 g / cm^3
# Si number density = 18.496524 Si / 1000 Ang^3
#
#
#
# Elastic Constant Matrix: (Units=GPa)
#
#
# Indices 1 2 3 4 5 6 
#
# 1 87.0969 106.1538 61.6712 0.0000 0.0000 0.0000
# 2 106.1538 172.3024 89.2652 0.0000 0.0000 0.0000
# 3 61.6712 89.2652 251.1849 0.0000 0.0000 0.0000
# 4 0.0000 0.0000 0.0000 38.5756 0.0000 0.0000
# 5 0.0000 0.0000 0.0000 0.0000 30.9086 0.0000
# 6 0.0000 0.0000 0.0000 0.0000 0.0000 34.5501
#
#
#
# Elastic Compliance Matrix: (Units=1/GPa)
#
#
# Indices 1 2 3 4 5 6 
#
# 1 0.046557 -0.027898 -0.001517 0.000000 0.000000 0.000000
# 2 -0.027898 0.023830 -0.001619 0.000000 0.000000 0.000000
# 3 -0.001517 -0.001619 0.004929 0.000000 0.000000 0.000000
# 4 0.000000 0.000000 0.000000 0.025923 0.000000 0.000000
# 5 0.000000 0.000000 0.000000 0.000000 0.032353 0.000000
# 6 0.000000 0.000000 0.000000 0.000000 0.000000 0.028944
#
#
# Mechanical properties :
#
#
# Convention : Reuss Voigt Hill
#
# Bulk Modulus (GPa) = 75.47629 113.86271 94.66950
# Shear Modulus (GPa) = 21.83228 37.70646 29.76937
#
# Velocity S-wave (km/s) = 3.43934 4.51995 4.01616
# Velocity P-wave (km/s) = 7.52770 9.43041 8.53226
#
# Compressibility (1/GPa) = 0.01324919
#
# Stress axis : x y z
#
# Youngs Moduli (GPa) = 21.47912 41.96394 202.88495
#
# Poissons Ratio (x) = 1.17069 0.30769
# Poissons Ratio (y) = 0.59921 0.32851
# Poissons Ratio (z) = 0.03257 0.06795
#
# Static dielectric constant tensor:
#      x y z
#    x 1.618500 0.000000 0.000000 
#    y 0.000000 1.653840 0.000000 
#    z 0.000000 0.000000 1.611370 
# 
# From -- ./inp_files/2124.got.cif
#   From: 2010.05.17/outbox.cif.g08.bks.cpg/sg49_2_cif.got.tgz:2124.got - 2010.06.03 21:02:19.
