data_PCOD9392534
_publ_section_title
;
Structure prediction by ZEFSAII (Michael W. Deem and Ramdas Pophale) SiO2 
 PCOD9392534
Probable space group: P C C M
;
_chemical_formula_sum "Si O2"
_cell_formula_units_Z 64
_cell_length_a 15.622151
_cell_length_b 12.801238
_cell_length_c 15.325028
_cell_angle_alpha 90.000000
_cell_angle_beta 90.000000
_cell_angle_gamma 90.000000
_cell_volume 3064.743129
_symmetry_space_group_name_H-M "P C C M"
_symmetry_group_IT_number 49
_symmetry_cell_setting 'orthorhombic'
loop_
_space_group_symop_operation_xyz
x,y,z
-x,-y,z
x,-y,1/2-z
-x,y,1/2-z
-x,-y,-z
x,y,-z
-x,y,1/2+z
x,-y,1/2+z
loop_
_atom_site_type_symbol
_atom_site_label
_atom_site_fract_x
_atom_site_fract_y
_atom_site_fract_z
Si Si1 0.647200 0.274764 0.647470
Si Si2 0.897951 0.881960 0.250000
Si Si3 0.361411 0.500000 0.395393
Si Si4 0.157372 0.728174 0.599448
Si Si5 0.500000 0.119952 0.356729
Si Si6 0.647201 0.274763 0.852532
Si Si7 0.842629 0.728174 0.400553
Si Si8 0.837185 0.500000 0.894018
O O1 0.604515 0.388922 0.636280
O O2 0.738853 0.275892 0.600530
O O3 0.583629 0.184807 0.615896
O O4 0.664498 0.258536 0.750001
O O5 0.869818 0.817662 0.165144
O O6 0.869818 0.817663 0.334856
O O7 0.000000 0.887159 0.250000
O O8 0.862870 0.000000 0.250000
O O9 0.364576 0.500002 0.500000
O O10 0.395485 0.388921 0.363723
O O11 0.261887 0.500000 0.364903
O O12 0.128374 0.744648 0.500000
O O13 0.126286 0.612852 0.631062
O O14 0.500000 0.121283 0.250000
O O15 0.416371 0.184807 0.384105
O O16 0.500000 0.000000 0.384968
O O17 0.738854 0.275891 0.899471
O O18 0.871627 0.744648 0.500000
O O19 0.873714 0.612852 0.368937
O O20 0.836657 0.499999 0.000000
#
# Coordination Sequence:
#
# PCOD9392534 Si02
#       8
#     8   8   8   8   8   8   8   8
#     4  10  18  33  57  87 116 154 198 242 295 358
#     4  11  26  45  63  88 120 158 206 251 292 348
#     4   9  17  30  50  79 116 152 191 241 294 350
#     4  10  20  39  65  93 123 157 196 244 303 363
#     4   9  20  35  51  76 114 156 200 255 303 340
#     4  10  18  33  57  87 116 154 198 242 295 358
#     4  10  20  39  65  93 123 157 196 244 303 363
#     4   7  14  30  57  90 122 150 183 233 294 359
#
# _framework density 20.882663999999998
#
# number of rings (size 3 to 8) (size 9 to 14) (size 15 to 20)
#    0.000    2.500    1.250    2.625    0.000    3.000 
#    0.000    7.500    0.000    7.500    0.000    0.000 
#    0.000    0.000    0.000    0.000    0.000    0.000 
#
# Total GULP energy -357172.189901 kJ/mol
# GULP energy per Si atom -5580.815467 kJ/mol
# Density = 2.083513 g / cm^3
# Si number density = 20.882664 Si / 1000 Ang^3
#
#
#
# Elastic Constant Matrix: (Units=GPa)
#
#
# Indices 1 2 3 4 5 6 
#
# 1 32.4514 31.3638 6.4786 0.0000 0.0000 0.0000
# 2 31.3638 219.2730 50.6285 0.0000 0.0000 0.0000
# 3 6.4786 50.6285 94.0538 0.0000 0.0000 0.0000
# 4 0.0000 0.0000 0.0000 -24.6554 0.0000 0.0000
# 5 0.0000 0.0000 0.0000 0.0000 -52.8748 0.0000
# 6 0.0000 0.0000 0.0000 0.0000 0.0000 36.2329
#
#
#
# Elastic Compliance Matrix: (Units=1/GPa)
#
#
# Indices 1 2 3 4 5 6 
#
# 1 0.035768 -0.005193 0.000331 0.000000 0.000000 0.000000
# 2 -0.005193 0.005962 -0.002851 0.000000 0.000000 0.000000
# 3 0.000331 -0.002851 0.012144 0.000000 0.000000 0.000000
# 4 0.000000 0.000000 0.000000 -0.040559 0.000000 0.000000
# 5 0.000000 0.000000 0.000000 0.000000 -0.018913 0.000000
# 6 0.000000 0.000000 0.000000 0.000000 0.000000 0.027599
#
#
# Mechanical properties :
#
#
# Convention : Reuss Voigt Hill
#
# Bulk Modulus (GPa) = 26.00887 58.07998 42.04443
# Shear Modulus (GPa) = 99.51712 8.89435 54.20573
#
# Velocity S-wave (km/s) = 6.91078 2.06602 5.10036
# Velocity P-wave (km/s) = 8.72698 5.79346 7.40690
#
# Compressibility (1/GPa) = 0.03844842
#
# Stress axis : x y z
#
# Youngs Moduli (GPa) = 27.95817 167.73969 82.34326
#
# Poissons Ratio (x) = 0.87100 -0.02729
# Poissons Ratio (y) = 0.14517 0.23480
# Poissons Ratio (z) = -0.00926 0.47830
#
# Static dielectric constant tensor:
#      x y z
#    x 1.753610 0.000000 0.000000 
#    y 0.000000 1.770810 0.000000 
#    z 0.000000 0.000000 1.769890 
# 
# From -- ./inp_files/14216.got.cif
#   From: 2010.05.17/outbox.cif.g08.bks.cpg/sg49_8_cif.got.tgz:14216.got - 2010.06.03 21:02:19.
