data_PCOD9392330
_publ_section_title
;
Structure prediction by ZEFSAII (Michael W. Deem and Ramdas Pophale) SiO2 
 PCOD9392330
Probable space group: P C C M
;
_chemical_formula_sum "Si O2"
_cell_formula_units_Z 56
_cell_length_a 21.785207
_cell_length_b 18.960389
_cell_length_c 8.873024
_cell_angle_alpha 90.000000
_cell_angle_beta 90.000000
_cell_angle_gamma 90.000000
_cell_volume 3665.055794
_symmetry_space_group_name_H-M "P C C M"
_symmetry_group_IT_number 49
_symmetry_cell_setting 'orthorhombic'
loop_
_space_group_symop_operation_xyz
x,y,z
-x,-y,z
x,-y,1/2-z
-x,y,1/2-z
-x,-y,-z
x,y,-z
-x,y,1/2+z
x,-y,1/2+z
loop_
_atom_site_type_symbol
_atom_site_label
_atom_site_fract_x
_atom_site_fract_y
_atom_site_fract_z
Si Si1 0.194194 0.923459 0.820015
Si Si2 0.864734 0.784203 0.681369
Si Si3 0.747405 0.706849 0.821114
Si Si4 0.191989 0.422932 0.681223
Si Si5 0.314943 0.833512 0.180976
Si Si6 0.435051 0.077197 0.680871
Si Si7 0.063734 0.651754 0.820475
O O1 0.140299 0.866966 0.783470
O O2 0.258506 0.885657 0.774718
O O3 0.187199 0.000000 0.750000
O O4 0.196064 0.931230 0.000000
O O5 0.853491 0.776993 0.500000
O O6 0.808561 0.748596 0.769058
O O7 0.922183 0.734220 0.716633
O O8 0.757070 0.631013 0.744468
O O9 0.694385 0.757977 0.758805
O O10 0.744343 0.700213 0.000000
O O11 0.199204 0.500000 0.750000
O O12 0.194543 0.424032 0.500000
O O13 0.124426 0.392077 0.725247
O O14 0.378979 0.870964 0.216678
O O15 0.310353 0.824254 0.000000
O O16 0.500000 0.100743 0.750000
O O17 0.440099 0.071167 0.500000
O O18 0.422258 0.000000 0.750000
O O19 0.000000 0.628078 0.750000
O O20 0.058916 0.645946 0.000000
#
# Coordination Sequence:
#
# PCOD9392330 Si02
#       7
#     8   8   8   8   8   8   8
#     4   9  16  26  41  60  82 106 138 179 224 268
#     4   8  16  31  44  57  83 115 140 172 221 268
#     4  10  18  28  46  69  88 111 145 183 219 260
#     4  10  20  34  49  67  94 122 144 172 213 260
#     4   9  18  31  44  60  87 122 152 184 225 267
#     4  10  19  30  44  62  90 127 164 199 235 270
#     4   9  18  31  47  64  84 112 145 179 213 254
#
# _framework density 15.279439999999999
#
# number of rings (size 3 to 8) (size 9 to 14) (size 15 to 20)
#    0.000    2.714    0.000    4.714    0.000    6.571 
#    0.000    1.429    0.000    0.429    0.000    3.000 
#    0.000    0.571    0.000    6.000    0.000    3.286 
#
# Total GULP energy -311819.758456 kJ/mol
# GULP energy per Si atom -5568.209972 kJ/mol
# Density = 1.524466 g / cm^3
# Si number density = 15.279440 Si / 1000 Ang^3
#
#
#
# Elastic Constant Matrix: (Units=GPa)
#
#
# Indices 1 2 3 4 5 6 
#
# 1 41.9746 30.1777 21.0431 0.0000 0.0000 0.0000
# 2 30.1777 126.4029 40.6332 0.0000 0.0000 0.0000
# 3 21.0431 40.6332 40.0748 0.0000 0.0000 0.0000
# 4 0.0000 0.0000 0.0000 27.9041 0.0000 0.0000
# 5 0.0000 0.0000 0.0000 0.0000 9.8713 0.0000
# 6 0.0000 0.0000 0.0000 0.0000 0.0000 17.5904
#
#
#
# Elastic Compliance Matrix: (Units=1/GPa)
#
#
# Indices 1 2 3 4 5 6 
#
# 1 0.033325 -0.003458 -0.013993 0.000000 0.000000 0.000000
# 2 -0.003458 0.012095 -0.010448 0.000000 0.000000 0.000000
# 3 -0.013993 -0.010448 0.042894 0.000000 0.000000 0.000000
# 4 0.000000 0.000000 0.000000 0.035837 0.000000 0.000000
# 5 0.000000 0.000000 0.000000 0.000000 0.101303 0.000000
# 6 0.000000 0.000000 0.000000 0.000000 0.000000 0.056849
#
#
# Mechanical properties :
#
#
# Convention : Reuss Voigt Hill
#
# Bulk Modulus (GPa) = 30.75278 43.57336 37.16307
# Shear Modulus (GPa) = 14.32907 18.84640 16.58773
#
# Velocity S-wave (km/s) = 3.06567 3.51586 3.29846
# Velocity P-wave (km/s) = 5.71854 6.71277 6.23550
#
# Compressibility (1/GPa) = 0.03251738
#
# Stress axis : x y z
#
# Youngs Moduli (GPa) = 30.00748 82.67579 23.31301
#
# Poissons Ratio (x) = 0.28590 0.32621
# Poissons Ratio (y) = 0.10377 0.24358
# Poissons Ratio (z) = 0.41988 0.86381
#
# Static dielectric constant tensor:
#      x y z
#    x 1.503070 0.000000 0.000000 
#    y 0.000000 1.526860 0.000000 
#    z 0.000000 0.000000 1.511390 
# 
# From -- ./inp_files/5887.got.cif
#   From: 2010.05.17/outbox.cif.g08.bks.cpg/sg49_3_cif.got.tgz:5887.got - 2010.06.03 21:02:19.
