data_PCOD9392430
_publ_section_title
;
Structure prediction by ZEFSAII (Michael W. Deem and Ramdas Pophale) SiO2 
 PCOD9392430
Probable space group: P C C M
;
_chemical_formula_sum "Si O2"
_cell_formula_units_Z 64
_cell_length_a 24.679908
_cell_length_b 14.451853
_cell_length_c 9.253861
_cell_angle_alpha 90.000000
_cell_angle_beta 90.000000
_cell_angle_gamma 90.000000
_cell_volume 3300.578327
_symmetry_space_group_name_H-M "P C C M"
_symmetry_group_IT_number 49
_symmetry_cell_setting 'orthorhombic'
loop_
_space_group_symop_operation_xyz
x,y,z
-x,-y,z
x,-y,1/2-z
-x,y,1/2-z
-x,-y,-z
x,y,-z
-x,y,1/2+z
x,-y,1/2+z
loop_
_atom_site_type_symbol
_atom_site_label
_atom_site_fract_x
_atom_site_fract_y
_atom_site_fract_z
Si Si1 0.787422 0.904418 0.826171
Si Si2 0.446880 0.362050 0.664363
Si Si3 0.554660 0.135889 0.165098
Si Si4 0.340713 0.364700 0.835076
Si Si5 0.941861 0.403007 0.824089
Si Si6 0.336732 0.859017 0.665543
Si Si7 0.765873 0.418620 0.835967
Si Si8 0.149922 0.253581 0.664862
O O1 0.724097 0.884293 0.784316
O O2 0.828776 0.826519 0.769204
O O3 0.802202 0.000000 0.750000
O O4 0.788896 0.909051 0.000000
O O5 0.500000 0.390129 0.750000
O O6 0.447098 0.394282 0.500000
O O7 0.446118 0.248895 0.662141
O O8 0.394135 0.392156 0.749993
O O9 0.500000 0.108335 0.250000
O O10 0.611552 0.109809 0.240712
O O11 0.552938 0.103115 0.000000
O O12 0.338671 0.252753 0.836601
O O13 0.288693 0.398693 0.749923
O O14 0.341590 0.396695 0.000000
O O15 0.923654 0.500000 0.750000
O O16 0.901944 0.316518 0.795387
O O17 0.000000 0.384677 0.750000
O O18 0.945246 0.414132 0.000000
O O19 0.343317 0.891787 0.500000
O O20 0.795277 0.500000 0.750000
O O21 0.801423 0.327379 0.837750
O O22 0.755374 0.446829 0.000000
O O23 0.142294 0.218507 0.500000
#
# Coordination Sequence:
#
# PCOD9392430 Si02
#       8
#     8   8   8   8   8   8   8   8
#     4  11  23  39  60  86 116 154 198 248 302 355
#     4   9  16  26  41  65  93 127 171 219 274 333
#     4   9  16  25  42  68  98 132 172 222 281 348
#     4  10  18  31  49  71 101 136 177 225 278 338
#     4  10  20  36  60  94 133 173 211 249 291 340
#     4   9  18  32  50  73 103 139 181 230 287 350
#     4  11  22  35  53  79 112 149 187 230 280 338
#     4  10  22  39  60  87 121 159 201 245 289 341
#
# _framework density 19.390543000000001
#
# number of rings (size 3 to 8) (size 9 to 14) (size 15 to 20)
#    0.000    2.125    1.250    3.000    0.000    6.000 
#    0.000    0.000    0.000    1.125    0.000    7.875 
#    0.000    0.000    0.000    0.000    0.000    0.000 
#
# Total GULP energy -357410.638718 kJ/mol
# GULP energy per Si atom -5584.541230 kJ/mol
# Density = 1.934641 g / cm^3
# Si number density = 19.390543 Si / 1000 Ang^3
#
#
#
# Elastic Constant Matrix: (Units=GPa)
#
#
# Indices 1 2 3 4 5 6 
#
# 1 141.2387 41.7645 74.7396 0.0000 0.0000 0.0000
# 2 41.7645 86.0060 50.7749 0.0000 0.0000 0.0000
# 3 74.7396 50.7749 151.4155 0.0000 0.0000 0.0000
# 4 0.0000 0.0000 0.0000 17.2456 0.0000 0.0000
# 5 0.0000 0.0000 0.0000 0.0000 23.8996 0.0000
# 6 0.0000 0.0000 0.0000 0.0000 0.0000 273.7877
#
#
#
# Elastic Compliance Matrix: (Units=1/GPa)
#
#
# Indices 1 2 3 4 5 6 
#
# 1 0.009970 -0.002414 -0.004112 0.000000 0.000000 0.000000
# 2 -0.002414 0.015082 -0.003866 0.000000 0.000000 0.000000
# 3 -0.004112 -0.003866 0.009930 0.000000 0.000000 0.000000
# 4 0.000000 0.000000 0.000000 0.057986 0.000000 0.000000
# 5 0.000000 0.000000 0.000000 0.000000 0.041842 0.000000
# 6 0.000000 0.000000 0.000000 0.000000 0.000000 0.003652
#
#
# Mechanical properties :
#
#
# Convention : Reuss Voigt Hill
#
# Bulk Modulus (GPa) = 70.42904 79.24648 74.83776
# Shear Modulus (GPa) = 30.49198 77.07864 53.78531
#
# Velocity S-wave (km/s) = 3.96980 6.31165 5.27239
# Velocity P-wave (km/s) = 7.57711 9.69914 8.70304
#
# Compressibility (1/GPa) = 0.01419869
#
# Stress axis : x y z
#
# Youngs Moduli (GPa) = 100.30283 66.30613 100.70247
#
# Poissons Ratio (x) = 0.16006 0.41406
# Poissons Ratio (y) = 0.24213 0.38930
# Poissons Ratio (z) = 0.41241 0.25633
#
# Static dielectric constant tensor:
#      x y z
#    x 1.715060 0.000000 0.000000 
#    y 0.000000 1.723790 0.000000 
#    z 0.000000 0.000000 1.665340 
# 
# From -- ./inp_files/6541.got.cif
#   From: 2010.05.17/outbox.cif.g08.bks.cpg/sg49_4_cif.got.tgz:6541.got - 2010.06.03 21:02:19.
