data_PCOD9392480
_publ_section_title
;
Structure prediction by ZEFSAII (Michael W. Deem and Ramdas Pophale) SiO2 
 PCOD9392480
Probable space group: P C C M
;
_chemical_formula_sum "Si O2"
_cell_formula_units_Z 64
_cell_length_a 20.135044
_cell_length_b 20.475489
_cell_length_c 8.951744
_cell_angle_alpha 90.000000
_cell_angle_beta 90.000000
_cell_angle_gamma 90.000000
_cell_volume 3690.579111
_symmetry_space_group_name_H-M "P C C M"
_symmetry_group_IT_number 49
_symmetry_cell_setting 'orthorhombic'
loop_
_space_group_symop_operation_xyz
x,y,z
-x,-y,z
x,-y,1/2-z
-x,y,1/2-z
-x,-y,-z
x,y,-z
-x,y,1/2+z
x,-y,1/2+z
loop_
_atom_site_type_symbol
_atom_site_label
_atom_site_fract_x
_atom_site_fract_y
_atom_site_fract_z
Si Si1 0.345549 0.314868 0.819495
Si Si2 0.656369 0.064336 0.176825
Si Si3 0.203067 0.259638 0.177390
Si Si4 0.429332 0.428135 0.680571
Si Si5 0.068523 0.098636 0.672465
Si Si6 0.427383 0.195582 0.679114
Si Si7 0.793487 0.895566 0.177864
Si Si8 0.067282 0.257952 0.329220
O O1 0.269198 0.298506 0.780353
O O2 0.373461 0.379045 0.739446
O O3 0.389006 0.254632 0.758774
O O4 0.351259 0.319710 0.000000
O O5 0.613495 0.129031 0.205628
O O6 0.729315 0.073373 0.246789
O O7 0.625343 0.000000 0.250000
O O8 0.662330 0.055660 0.000000
O O9 0.212120 0.182376 0.209755
O O10 0.135168 0.281001 0.254375
O O11 0.194656 0.264945 0.000000
O O12 0.418539 0.500000 0.750000
O O13 0.500000 0.405248 0.750000
O O14 0.432860 0.430381 0.500000
O O15 0.070378 0.078044 0.500000
O O16 0.136280 0.080309 0.756699
O O17 0.067716 0.178325 0.676389
O O18 0.000000 0.077298 0.750000
O O19 0.500000 0.190289 0.750000
O O20 0.431017 0.206710 0.500000
O O21 0.792349 0.905047 0.000000
O O22 0.065836 0.277645 0.500000
O O23 0.000000 0.279642 0.250000
#
# Coordination Sequence:
#
# PCOD9392480 Si02
#       8
#     8   8   8   8   8   8   8   8
#     4  11  21  36  57  83 114 147 181 222 268 318
#     4  11  24  40  58  78 101 132 172 219 270 326
#     4   9  18  30  48  73 103 138 174 215 264 314
#     4  11  22  38  58  82 112 149 188 227 267 317
#     4   9  16  26  42  68  98 131 168 210 256 309
#     4  11  24  40  59  82 107 136 173 218 268 323
#     4  10  18  32  52  74 100 133 170 214 264 317
#     4   9  16  25  40  63  97 136 174 215 259 310
#
# _framework density 17.341450999999999
#
# number of rings (size 3 to 8) (size 9 to 14) (size 15 to 20)
#    0.000    1.875    1.250    4.125    0.000    6.250 
#    0.000    1.250    0.000    0.375    0.000    2.625 
#    0.000    0.500    0.000    5.250    0.000    2.500 
#
# Total GULP energy -357462.577444 kJ/mol
# GULP energy per Si atom -5585.352773 kJ/mol
# Density = 1.730198 g / cm^3
# Si number density = 17.341451 Si / 1000 Ang^3
#
#
#
# Elastic Constant Matrix: (Units=GPa)
#
#
# Indices 1 2 3 4 5 6 
#
# 1 148.8336 47.9352 66.8990 0.0000 0.0000 0.0000
# 2 47.9352 56.3527 45.2910 0.0000 0.0000 0.0000
# 3 66.8990 45.2910 84.6570 0.0000 0.0000 0.0000
# 4 0.0000 0.0000 0.0000 20.8924 0.0000 0.0000
# 5 0.0000 0.0000 0.0000 0.0000 31.8229 0.0000
# 6 0.0000 0.0000 0.0000 0.0000 0.0000 28.2616
#
#
#
# Elastic Compliance Matrix: (Units=1/GPa)
#
#
# Indices 1 2 3 4 5 6 
#
# 1 0.010944 -0.004138 -0.006435 0.000000 0.000000 0.000000
# 2 -0.004138 0.032695 -0.014222 0.000000 0.000000 0.000000
# 3 -0.006435 -0.014222 0.024506 0.000000 0.000000 0.000000
# 4 0.000000 0.000000 0.000000 0.047864 0.000000 0.000000
# 5 0.000000 0.000000 0.000000 0.000000 0.031424 0.000000
# 6 0.000000 0.000000 0.000000 0.000000 0.000000 0.035384
#
#
# Mechanical properties :
#
#
# Convention : Reuss Voigt Hill
#
# Bulk Modulus (GPa) = 53.88956 67.78819 60.83887
# Shear Modulus (GPa) = 20.95632 24.84324 22.89978
#
# Velocity S-wave (km/s) = 3.48005 3.78907 3.63784
# Velocity P-wave (km/s) = 6.87683 7.63661 7.26666
#
# Compressibility (1/GPa) = 0.01855647
#
# Stress axis : x y z
#
# Youngs Moduli (GPa) = 91.37610 30.58534 40.80632
#
# Poissons Ratio (x) = 0.12655 0.26257
# Poissons Ratio (y) = 0.37807 0.58036
# Poissons Ratio (z) = 0.58797 0.43499
#
# Static dielectric constant tensor:
#      x y z
#    x 1.595720 0.000000 0.000000 
#    y 0.000000 1.600370 0.000000 
#    z 0.000000 0.000000 1.577480 
# 
# From -- ./inp_files/5286.got.cif
#   From: 2010.05.17/outbox.cif.g08.bks.cpg/sg49_3_cif.got.tgz:5286.got - 2010.06.03 21:02:19.
