data_PCOD9392423
_publ_section_title
;
Structure prediction by ZEFSAII (Michael W. Deem and Ramdas Pophale) SiO2 
 PCOD9392423
Probable space group: P C C M
;
_chemical_formula_sum "Si O2"
_cell_formula_units_Z 56
_cell_length_a 22.148843
_cell_length_b 19.014458
_cell_length_c 8.593556
_cell_angle_alpha 90.000000
_cell_angle_beta 90.000000
_cell_angle_gamma 90.000000
_cell_volume 3619.161027
_symmetry_space_group_name_H-M "P C C M"
_symmetry_group_IT_number 49
_symmetry_cell_setting 'orthorhombic'
loop_
_space_group_symop_operation_xyz
x,y,z
-x,-y,z
x,-y,1/2-z
-x,y,1/2-z
-x,-y,-z
x,y,-z
-x,y,1/2+z
x,-y,1/2+z
loop_
_atom_site_type_symbol
_atom_site_label
_atom_site_fract_x
_atom_site_fract_y
_atom_site_fract_z
Si Si1 0.297225 0.422658 0.315930
Si Si2 0.367641 0.298792 0.179493
Si Si3 0.434886 0.164367 0.812024
Si Si4 0.683795 0.078356 0.310952
Si Si5 0.065746 0.421349 0.686043
Si Si6 0.244058 0.793074 0.320551
Si Si7 0.180591 0.658591 0.311934
O O1 0.308710 0.500000 0.250000
O O2 0.288941 0.425689 0.500000
O O3 0.350625 0.368140 0.273528
O O4 0.236030 0.391163 0.240406
O O5 0.417479 0.243895 0.239654
O O6 0.306539 0.251484 0.177215
O O7 0.380678 0.317751 0.000000
O O8 0.500000 0.143441 0.750000
O O9 0.380814 0.112102 0.763950
O O10 0.435187 0.165552 0.000000
O O11 0.685209 0.078914 0.500000
O O12 0.736161 0.131910 0.253156
O O13 0.690347 0.000000 0.250000
O O14 0.077599 0.500000 0.750000
O O15 0.064529 0.423563 0.500000
O O16 0.118685 0.371321 0.745939
O O17 0.000000 0.400193 0.750000
O O18 0.226257 0.805508 0.500000
O O19 0.196259 0.737718 0.253456
O O20 0.179444 0.659196 0.500000
#
# Coordination Sequence:
#
# PCOD9392423 Si02
#       7
#     8   8   8   8   8   8   8
#     4  11  20  29  43  65  88 111 140 179 222 267
#     4   8  15  30  46  60  80 109 140 177 220 263
#     4   9  18  31  47  64  86 114 147 179 214 259
#     4   9  17  30  45  65  91 120 146 175 214 259
#     4  11  21  33  46  64  91 125 161 194 226 263
#     4   7  13  27  46  62  82 112 145 176 216 262
#     4  10  18  31  48  65  87 118 152 188 223 260
#
# _framework density 15.473198999999999
#
# number of rings (size 3 to 8) (size 9 to 14) (size 15 to 20)
#    0.000    2.714    0.000    6.429    0.000    1.429 
#    0.000    7.857    0.000    0.429    0.000    3.000 
#    0.000    0.571    0.000    6.571    0.000    2.000 
#
# Total GULP energy -311881.482649 kJ/mol
# GULP energy per Si atom -5569.312190 kJ/mol
# Density = 1.543798 g / cm^3
# Si number density = 15.473199 Si / 1000 Ang^3
#
#
#
# Elastic Constant Matrix: (Units=GPa)
#
#
# Indices 1 2 3 4 5 6 
#
# 1 48.4220 45.3216 13.9104 0.0000 0.0000 0.0000
# 2 45.3216 129.9481 30.3785 0.0000 0.0000 0.0000
# 3 13.9104 30.3785 60.5785 0.0000 0.0000 0.0000
# 4 0.0000 0.0000 0.0000 23.1987 0.0000 0.0000
# 5 0.0000 0.0000 0.0000 0.0000 81.3103 0.0000
# 6 0.0000 0.0000 0.0000 0.0000 0.0000 20.7987
#
#
#
# Elastic Compliance Matrix: (Units=1/GPa)
#
#
# Indices 1 2 3 4 5 6 
#
# 1 0.030855 -0.010314 -0.001913 0.000000 0.000000 0.000000
# 2 -0.010314 0.012165 -0.003732 0.000000 0.000000 0.000000
# 3 -0.001913 -0.003732 0.018818 0.000000 0.000000 0.000000
# 4 0.000000 0.000000 0.000000 0.043106 0.000000 0.000000
# 5 0.000000 0.000000 0.000000 0.000000 0.012299 0.000000
# 6 0.000000 0.000000 0.000000 0.000000 0.000000 0.048080
#
#
# Mechanical properties :
#
#
# Convention : Reuss Voigt Hill
#
# Bulk Modulus (GPa) = 33.42212 46.46329 39.94270
# Shear Modulus (GPa) = 24.12966 35.01741 29.57353
#
# Velocity S-wave (km/s) = 3.95327 4.76237 4.37656
# Velocity P-wave (km/s) = 6.51803 7.76747 7.17002
#
# Compressibility (1/GPa) = 0.02992031
#
# Stress axis : x y z
#
# Youngs Moduli (GPa) = 32.40979 82.20290 53.13981
#
# Poissons Ratio (x) = 0.84784 0.10165
# Poissons Ratio (y) = 0.33427 0.19832
# Poissons Ratio (z) = 0.06200 0.30679
#
# Static dielectric constant tensor:
#      x y z
#    x 1.507460 0.000000 0.000000 
#    y 0.000000 1.530890 0.000000 
#    z 0.000000 0.000000 1.529510 
# 
# From -- ./inp_files/5898.got.cif
#   From: 2010.05.17/outbox.cif.g08.bks.cpg/sg49_3_cif.got.tgz:5898.got - 2010.06.03 21:02:19.
