data_PCOD9392201
_publ_section_title
;
Structure prediction by ZEFSAII (Michael W. Deem and Ramdas Pophale) SiO2 
 PCOD9392201
Probable space group: P C C M
;
_chemical_formula_sum "Si O2"
_cell_formula_units_Z 48
_cell_length_a 9.434443
_cell_length_b 32.433217
_cell_length_c 8.615770
_cell_angle_alpha 90.000000
_cell_angle_beta 90.000000
_cell_angle_gamma 90.000000
_cell_volume 2636.333751
_symmetry_space_group_name_H-M "P C C M"
_symmetry_group_IT_number 49
_symmetry_cell_setting 'orthorhombic'
loop_
_space_group_symop_operation_xyz
x,y,z
-x,-y,z
x,-y,1/2-z
-x,y,1/2-z
-x,-y,-z
x,y,-z
-x,y,1/2+z
x,-y,1/2+z
loop_
_atom_site_type_symbol
_atom_site_label
_atom_site_fract_x
_atom_site_fract_y
_atom_site_fract_z
Si Si1 0.838355 0.457555 0.314578
Si Si2 0.159706 0.371758 0.314875
Si Si3 0.159515 0.043916 0.185740
Si Si4 0.660472 0.880370 0.685295
Si Si5 0.660603 0.204936 0.685832
Si Si6 0.339667 0.296334 0.186460
O O1 0.772908 0.500000 0.250000
O O2 0.841429 0.458393 0.500000
O O3 0.777018 0.414411 0.253784
O O4 0.000000 0.457088 0.250000
O O5 0.154447 0.374862 0.500000
O O6 0.248819 0.332530 0.261045
O O7 0.000000 0.367541 0.250000
O O8 0.252290 0.081728 0.246050
O O9 0.000000 0.048542 0.250000
O O10 0.213860 0.000000 0.250000
O O11 0.156900 0.042870 0.000000
O O12 0.500000 0.882479 0.750000
O O13 0.657399 0.882059 0.500000
O O14 0.724060 0.836241 0.739470
O O15 0.500000 0.206347 0.750000
O O16 0.657505 0.200164 0.500000
O O17 0.719944 0.250355 0.722965
O O18 0.500000 0.298556 0.250000
O O19 0.341998 0.300489 0.000000
#
# Coordination Sequence:
#
# PCOD9392201 Si02
#       6
#     8   8   8   8   8   8
#     4  10  17  28  46  70  99 131 169 211 257 309
#     4  11  21  34  52  76 106 138 173 217 266 311
#     4  11  22  39  59  81 109 143 180 216 260 314
#     4  11  21  35  56  83 111 140 176 220 266 309
#     4   9  17  31  52  77 105 137 174 216 261 310
#     4  10  20  35  55  79 106 139 178 216 258 312
#
# _framework density 18.207103
#
# number of rings (size 3 to 8) (size 9 to 14) (size 15 to 20)
#    0.000    1.667    0.000   10.000    0.000    2.333 
#    0.000    2.500    0.000    4.500    0.000    3.500 
#    0.000    0.000    0.000    0.000    0.000    0.000 
#
# Total GULP energy -267885.524613 kJ/mol
# GULP energy per Si atom -5580.948429 kJ/mol
# Density = 1.816566 g / cm^3
# Si number density = 18.207103 Si / 1000 Ang^3
#
#
#
# Elastic Constant Matrix: (Units=GPa)
#
#
# Indices 1 2 3 4 5 6 
#
# 1 32.5359 55.8205 28.7709 0.0000 0.0000 0.0000
# 2 55.8205 221.1135 95.9598 0.0000 0.0000 0.0000
# 3 28.7709 95.9598 189.2740 0.0000 0.0000 0.0000
# 4 0.0000 0.0000 0.0000 36.2397 0.0000 0.0000
# 5 0.0000 0.0000 0.0000 0.0000 23.6417 0.0000
# 6 0.0000 0.0000 0.0000 0.0000 0.0000 29.6895
#
#
#
# Elastic Compliance Matrix: (Units=1/GPa)
#
#
# Indices 1 2 3 4 5 6 
#
# 1 0.054633 -0.013062 -0.001682 0.000000 0.000000 0.000000
# 2 -0.013062 0.008921 -0.002537 0.000000 0.000000 0.000000
# 3 -0.001682 -0.002537 0.006826 0.000000 0.000000 0.000000
# 4 0.000000 0.000000 0.000000 0.027594 0.000000 0.000000
# 5 0.000000 0.000000 0.000000 0.000000 0.042298 0.000000
# 6 0.000000 0.000000 0.000000 0.000000 0.000000 0.033682
#
#
# Mechanical properties :
#
#
# Convention : Reuss Voigt Hill
#
# Bulk Modulus (GPa) = 27.92026 89.33619 58.62823
# Shear Modulus (GPa) = 22.68018 35.40566 29.04292
#
# Velocity S-wave (km/s) = 3.53325 4.41455 3.99826
# Velocity P-wave (km/s) = 5.65802 8.66935 7.32020
#
# Compressibility (1/GPa) = 0.03581628
#
# Stress axis : x y z
#
# Youngs Moduli (GPa) = 18.30389 112.09033 146.50867
#
# Poissons Ratio (x) = 1.46415 0.24646
# Poissons Ratio (y) = 0.23909 0.37177
# Poissons Ratio (z) = 0.03079 0.28443
#
# Static dielectric constant tensor:
#      x y z
#    x 1.603450 0.000000 0.000000 
#    y 0.000000 1.682530 0.000000 
#    z 0.000000 0.000000 1.603360 
# 
# From -- ./inp_files/2963.got.cif
#   From: 2010.05.17/outbox.cif.g08.bks.cpg/sg49_2_cif.got.tgz:2963.got - 2010.06.03 21:02:19.
