data_PCOD9392278
_publ_section_title
;
Structure prediction by ZEFSAII (Michael W. Deem and Ramdas Pophale) SiO2 
 PCOD9392278
Probable space group: P C C M
;
_chemical_formula_sum "Si O2"
_cell_formula_units_Z 64
_cell_length_a 20.929473
_cell_length_b 8.667030
_cell_length_c 18.992353
_cell_angle_alpha 90.000000
_cell_angle_beta 90.000000
_cell_angle_gamma 90.000000
_cell_volume 3445.143899
_symmetry_space_group_name_H-M "P C C M"
_symmetry_group_IT_number 49
_symmetry_cell_setting 'orthorhombic'
loop_
_space_group_symop_operation_xyz
x,y,z
-x,-y,z
x,-y,1/2-z
-x,y,1/2-z
-x,-y,-z
x,y,-z
-x,y,1/2+z
x,-y,1/2+z
loop_
_atom_site_type_symbol
_atom_site_label
_atom_site_fract_x
_atom_site_fract_y
_atom_site_fract_z
Si Si1 0.751399 0.341603 0.706428
Si Si2 0.377706 0.836008 0.846164
Si Si3 0.385160 0.201411 0.184390
Si Si4 0.758725 0.193901 0.081236
Si Si5 0.071339 0.432038 0.677182
Si Si6 0.824476 0.530230 0.921778
Si Si7 0.503578 0.811693 0.080268
Si Si8 0.847859 0.860615 0.300303
O O1 0.742421 0.500000 0.750000
O O2 0.683420 0.281002 0.679282
O O3 0.792288 0.366319 0.636767
O O4 0.791816 0.229221 0.757130
O O5 0.397274 0.782338 0.767840
O O6 0.308247 0.798635 0.877123
O O7 0.431808 0.770290 0.897561
O O8 0.377503 0.021623 0.836766
O O9 0.443594 0.251733 0.134574
O O10 0.787423 0.366642 0.079072
O O11 0.810747 0.098389 0.127113
O O12 0.750320 0.141555 0.000000
O O13 0.100533 0.500000 0.750000
O O14 0.105713 0.494038 0.607962
O O15 0.092337 0.252772 0.683386
O O16 0.000000 0.500000 0.676048
O O17 0.823921 0.593517 0.000000
O O18 0.500000 0.000000 0.084789
O O19 0.518821 0.770346 0.000000
O O20 0.867491 0.000000 0.250000
#
# Coordination Sequence:
#
# PCOD9392278 Si02
#       8
#     8   8   8   8   8   8   8   8
#     4  12  19  36  57  82 114 156 190 240 290 349
#     4  10  17  32  50  77 104 146 186 243 297 357
#     4  10  20  29  51  76 105 139 197 240 289 349
#     4  10  19  32  54  84 114 149 193 237 291 354
#     4  10  19  37  63  85 115 154 195 231 267 339
#     4  10  20  35  56  84 114 150 192 232 282 341
#     4   9  18  31  46  69 107 145 184 238 300 355
#     4  11  20  36  60  90 122 151 190 241 289 334
#
# _framework density 18.576872999999999
#
# number of rings (size 3 to 8) (size 9 to 14) (size 15 to 20)
#    0.000    1.750    5.000    1.500    0.000    2.750 
#    0.000    3.125    0.000    5.250    0.000    6.125 
#    0.000    0.000    0.000    0.000    0.000    0.000 
#
# Total GULP energy -356450.888240 kJ/mol
# GULP energy per Si atom -5569.545129 kJ/mol
# Density = 1.853459 g / cm^3
# Si number density = 18.576873 Si / 1000 Ang^3
#
#
#
# Elastic Constant Matrix: (Units=GPa)
#
#
# Indices 1 2 3 4 5 6 
#
# 1 126.4976 28.3421 54.9348 0.0000 0.0000 0.0000
# 2 28.3421 18.8618 23.3446 0.0000 0.0000 0.0000
# 3 54.9348 23.3446 141.0072 0.0000 0.0000 0.0000
# 4 0.0000 0.0000 0.0000 11.5097 0.0000 0.0000
# 5 0.0000 0.0000 0.0000 0.0000 -16.2546 0.0000
# 6 0.0000 0.0000 0.0000 0.0000 0.0000 16.9866
#
#
#
# Elastic Compliance Matrix: (Units=1/GPa)
#
#
# Indices 1 2 3 4 5 6 
#
# 1 0.012439 -0.015964 -0.002203 0.000000 0.000000 0.000000
# 2 -0.015964 0.087169 -0.008212 0.000000 0.000000 0.000000
# 3 -0.002203 -0.008212 0.009310 0.000000 0.000000 0.000000
# 4 0.000000 0.000000 0.000000 0.086883 0.000000 0.000000
# 5 0.000000 0.000000 0.000000 0.000000 -0.061521 0.000000
# 6 0.000000 0.000000 0.000000 0.000000 0.000000 0.058870
#
#
# Mechanical properties :
#
#
# Convention : Reuss Voigt Hill
#
# Bulk Modulus (GPa) = 17.80651 55.51219 36.65935
# Shear Modulus (GPa) = 18.89445 14.43134 16.66290
#
# Velocity S-wave (km/s) = 3.19265 2.79022 2.99820
# Velocity P-wave (km/s) = 4.81631 6.35041 5.63580
#
# Compressibility (1/GPa) = 0.05615922
#
# Stress axis : x y z
#
# Youngs Moduli (GPa) = 80.39324 11.47195 107.41538
#
# Poissons Ratio (x) = 0.18314 0.23664
# Poissons Ratio (y) = 1.28342 0.88209
# Poissons Ratio (z) = 0.17711 0.09421
#
# Static dielectric constant tensor:
#      x y z
#    x 1.665730 0.000000 0.000000 
#    y 0.000000 1.667690 0.000000 
#    z 0.000000 0.000000 1.674170 
# 
# From -- ./inp_files/21206.got.cif
#   From: 2010.05.17/outbox.cif.g08.bks.cpg/sg49_11_cif.got.tgz:21206.got - 2010.06.03 21:02:19.
