data_PCOD9392191
_publ_section_title
;
Structure prediction by ZEFSAII (Michael W. Deem and Ramdas Pophale) SiO2 
 PCOD9392191
Probable space group: P C C M
;
_chemical_formula_sum "Si O2"
_cell_formula_units_Z 58
_cell_length_a 13.512370
_cell_length_b 27.642195
_cell_length_c 8.722287
_cell_angle_alpha 90.000000
_cell_angle_beta 90.000000
_cell_angle_gamma 90.000000
_cell_volume 3257.875080
_symmetry_space_group_name_H-M "P C C M"
_symmetry_group_IT_number 49
_symmetry_cell_setting 'orthorhombic'
loop_
_space_group_symop_operation_xyz
x,y,z
-x,-y,z
x,-y,1/2-z
-x,y,1/2-z
-x,-y,-z
x,y,-z
-x,y,1/2+z
x,-y,1/2+z
loop_
_atom_site_type_symbol
_atom_site_label
_atom_site_fract_x
_atom_site_fract_y
_atom_site_fract_z
Si Si1 0.388146 0.849055 0.683753
Si Si2 0.612094 0.049484 0.184096
Si Si3 0.105996 0.579093 0.317740
Si Si4 0.395176 0.337768 0.683216
Si Si5 0.894031 0.306836 0.684369
Si Si6 0.693292 0.564700 0.322093
Si Si7 0.283227 0.243501 0.684290
Si Si8 0.500000 0.500000 0.750000
O O1 0.500000 0.841166 0.750000
O O2 0.394960 0.851988 0.500000
O O3 0.348147 0.899719 0.752670
O O4 0.316926 0.805815 0.736682
O O5 0.500000 0.049705 0.250000
O O6 0.658514 0.000000 0.250000
O O7 0.610363 0.048606 0.000000
O O8 0.098688 0.577054 0.500000
O O9 0.117491 0.636239 0.271313
O O10 0.206261 0.551532 0.267291
O O11 0.000000 0.562584 0.250000
O O12 0.500000 0.348503 0.750000
O O13 0.394836 0.340473 0.500000
O O14 0.327633 0.381364 0.738892
O O15 0.364221 0.284145 0.726183
O O16 0.889565 0.304203 0.500000
O O17 0.815091 0.270222 0.757077
O O18 0.000000 0.292349 0.750000
O O19 0.720851 0.565236 0.500000
O O20 0.586361 0.536576 0.315657
O O21 0.280118 0.237493 0.500000
#
# Coordination Sequence:
#
# PCOD9392191 Si02
#       8
#     8   8   8   8   8   8   8   2
#     4  11  21  33  47  69 103 143 185 230 276 326
#     4  10  17  28  45  66  93 132 181 231 279 327
#     4  10  21  38  64  92 118 147 182 226 276 332
#     4  10  21  35  53  76 106 143 181 220 262 319
#     4  10  20  34  54  81 109 140 175 217 265 322
#     4  11  23  41  62  87 116 148 185 228 276 330
#     4  11  21  34  51  75 106 143 180 222 271 324
#     4  12  26  44  66  90 118 152 188 236 280 332
#
# _framework density 17.803016
#
# number of rings (size 3 to 8) (size 9 to 14) (size 15 to 20)
#    0.000    1.517    2.069    5.586    0.000    4.966 
#    0.000    0.345    0.000    1.655    0.000    0.000 
#    0.000    0.552    0.000    5.517    0.000    3.310 
#
# Total GULP energy -323092.077158 kJ/mol
# GULP energy per Si atom -5570.553054 kJ/mol
# Density = 1.776250 g / cm^3
# Si number density = 17.803016 Si / 1000 Ang^3
#
#
#
# Elastic Constant Matrix: (Units=GPa)
#
#
# Indices 1 2 3 4 5 6 
#
# 1 109.4907 27.9635 31.5885 0.0000 0.0000 0.0000
# 2 27.9635 123.0543 42.9814 0.0000 0.0000 0.0000
# 3 31.5885 42.9814 84.2267 0.0000 0.0000 0.0000
# 4 0.0000 0.0000 0.0000 30.3236 0.0000 0.0000
# 5 0.0000 0.0000 0.0000 0.0000 26.5414 0.0000
# 6 0.0000 0.0000 0.0000 0.0000 0.0000 581.8259
#
#
#
# Elastic Compliance Matrix: (Units=1/GPa)
#
#
# Indices 1 2 3 4 5 6 
#
# 1 0.010389 -0.001217 -0.003275 0.000000 0.000000 0.000000
# 2 -0.001217 0.010032 -0.004663 0.000000 0.000000 0.000000
# 3 -0.003275 -0.004663 0.015481 0.000000 0.000000 0.000000
# 4 0.000000 0.000000 0.000000 0.032978 0.000000 0.000000
# 5 0.000000 0.000000 0.000000 0.000000 0.037677 0.000000
# 6 0.000000 0.000000 0.000000 0.000000 0.000000 0.001719
#
#
# Mechanical properties :
#
#
# Convention : Reuss Voigt Hill
#
# Bulk Modulus (GPa) = 56.84665 57.98203 57.41434
# Shear Modulus (GPa) = 37.75057 142.02072 89.88565
#
# Velocity S-wave (km/s) = 4.60984 8.94129 7.11327
# Velocity P-wave (km/s) = 7.76752 11.79978 9.98922
#
# Compressibility (1/GPa) = 0.01759119
#
# Stress axis : x y z
#
# Youngs Moduli (GPa) = 96.25651 99.68404 64.59701
#
# Poissons Ratio (x) = 0.12130 0.21158
# Poissons Ratio (y) = 0.11712 0.30121
# Poissons Ratio (z) = 0.31527 0.46481
#
# Static dielectric constant tensor:
#      x y z
#    x 1.638060 0.000000 0.000000 
#    y 0.000000 1.654690 0.000000 
#    z 0.000000 0.000000 1.600260 
# 
# From -- ./inp_files/3068.got.cif
#   From: 2010.05.17/outbox.cif.g08.bks.cpg/sg49_2_cif.got.tgz:3068.got - 2010.06.03 21:02:19.
