data_PCOD9392152
_publ_section_title
;
Structure prediction by ZEFSAII (Michael W. Deem and Ramdas Pophale) SiO2 
 PCOD9392152
Probable space group: P C C M
;
_chemical_formula_sum "Si O2"
_cell_formula_units_Z 48
_cell_length_a 9.597993
_cell_length_b 31.751277
_cell_length_c 8.678992
_cell_angle_alpha 90.000000
_cell_angle_beta 90.000000
_cell_angle_gamma 90.000000
_cell_volume 2644.910092
_symmetry_space_group_name_H-M "P C C M"
_symmetry_group_IT_number 49
_symmetry_cell_setting 'orthorhombic'
loop_
_space_group_symop_operation_xyz
x,y,z
-x,-y,z
x,-y,1/2-z
-x,y,1/2-z
-x,-y,-z
x,y,-z
-x,y,1/2+z
x,-y,1/2+z
loop_
_atom_site_type_symbol
_atom_site_label
_atom_site_fract_x
_atom_site_fract_y
_atom_site_fract_z
Si Si1 0.844130 0.199386 0.184141
Si Si2 0.153871 0.289775 0.184584
Si Si3 0.344254 0.630112 0.315593
Si Si4 0.344496 0.875202 0.685074
Si Si5 0.341659 0.543103 0.184016
Si Si6 0.153238 0.954219 0.684604
O O1 0.798739 0.245662 0.241737
O O2 0.741706 0.163841 0.247182
O O3 0.000000 0.192425 0.250000
O O4 0.849467 0.198473 0.000000
O O5 0.253835 0.328799 0.220399
O O6 0.000000 0.298166 0.250000
O O7 0.146493 0.284732 0.000000
O O8 0.500000 0.635551 0.250000
O O9 0.351904 0.624862 0.500000
O O10 0.281385 0.587351 0.242882
O O11 0.500000 0.875767 0.750000
O O12 0.347492 0.872028 0.500000
O O13 0.262171 0.917991 0.726876
O O14 0.277019 0.500000 0.250000
O O15 0.500000 0.543865 0.250000
O O16 0.345706 0.541630 0.000000
O O17 0.144065 0.956730 0.500000
O O18 0.000000 0.943819 0.750000
O O19 0.192426 0.000000 0.750000
#
# Coordination Sequence:
#
# PCOD9392152 Si02
#       6
#     8   8   8   8   8   8
#     4  11  22  38  61  84 109 143 184 228 271 323
#     4  10  21  37  57  80 108 141 180 223 268 323
#     4  10  20  33  51  77 106 137 174 217 265 317
#     4  11  24  40  58  84 116 150 186 227 279 331
#     4  10  17  27  45  69 100 135 172 215 261 311
#     4  10  21  37  60  86 113 147 188 231 273 323
#
# _framework density 18.148064999999999
#
# number of rings (size 3 to 8) (size 9 to 14) (size 15 to 20)
#    0.000    1.667    0.000    8.500    0.000    7.667 
#    0.000    3.333    0.000    0.500    0.000    3.500 
#    0.000    0.000    0.000    0.000    0.000    0.000 
#
# Total GULP energy -268114.979324 kJ/mol
# GULP energy per Si atom -5585.728736 kJ/mol
# Density = 1.810676 g / cm^3
# Si number density = 18.148065 Si / 1000 Ang^3
#
#
#
# Elastic Constant Matrix: (Units=GPa)
#
#
# Indices 1 2 3 4 5 6 
#
# 1 81.4708 109.6346 55.2176 0.0000 0.0000 0.0000
# 2 109.6346 197.1498 93.4668 0.0000 0.0000 0.0000
# 3 55.2176 93.4668 119.9910 0.0000 0.0000 0.0000
# 4 0.0000 0.0000 0.0000 33.2987 0.0000 0.0000
# 5 0.0000 0.0000 0.0000 0.0000 8.1172 0.0000
# 6 0.0000 0.0000 0.0000 0.0000 0.0000 26.9702
#
#
#
# Elastic Compliance Matrix: (Units=1/GPa)
#
#
# Indices 1 2 3 4 5 6 
#
# 1 0.049105 -0.026310 -0.002103 0.000000 0.000000 0.000000
# 2 -0.026310 0.022139 -0.005138 0.000000 0.000000 0.000000
# 3 -0.002103 -0.005138 0.013304 0.000000 0.000000 0.000000
# 4 0.000000 0.000000 0.000000 0.030031 0.000000 0.000000
# 5 0.000000 0.000000 0.000000 0.000000 0.123195 0.000000
# 6 0.000000 0.000000 0.000000 0.000000 0.000000 0.037078
#
#
# Mechanical properties :
#
#
# Convention : Reuss Voigt Hill
#
# Bulk Modulus (GPa) = 57.31926 101.69442 79.50684
# Shear Modulus (GPa) = 14.37730 23.03004 18.70367
#
# Velocity S-wave (km/s) = 2.81770 3.56618 3.21380
# Velocity P-wave (km/s) = 6.49913 8.55070 7.59451
#
# Compressibility (1/GPa) = 0.01744614
#
# Stress axis : x y z
#
# Youngs Moduli (GPa) = 20.36437 45.16865 75.16699
#
# Poissons Ratio (x) = 1.18841 0.15807
# Poissons Ratio (y) = 0.53580 0.38619
# Poissons Ratio (z) = 0.04282 0.23207
#
# Static dielectric constant tensor:
#      x y z
#    x 1.592690 0.000000 0.000000 
#    y 0.000000 1.645480 0.000000 
#    z 0.000000 0.000000 1.607420 
# 
# From -- ./inp_files/2079.got.cif
#   From: 2010.05.17/outbox.cif.g08.bks.cpg/sg49_2_cif.got.tgz:2079.got - 2010.06.03 21:02:19.
