data_PCOD9392295
_publ_section_title
;
Structure prediction by ZEFSAII (Michael W. Deem and Ramdas Pophale) SiO2 
 PCOD9392295
Probable space group: P C C M
;
_chemical_formula_sum "Si O2"
_cell_formula_units_Z 56
_cell_length_a 30.605264
_cell_length_b 13.882691
_cell_length_c 8.705938
_cell_angle_alpha 90.000000
_cell_angle_beta 90.000000
_cell_angle_gamma 90.000000
_cell_volume 3699.008739
_symmetry_space_group_name_H-M "P C C M"
_symmetry_group_IT_number 49
_symmetry_cell_setting 'orthorhombic'
loop_
_space_group_symop_operation_xyz
x,y,z
-x,-y,z
x,-y,1/2-z
-x,y,1/2-z
-x,-y,-z
x,y,-z
-x,y,1/2+z
x,-y,1/2+z
loop_
_atom_site_type_symbol
_atom_site_label
_atom_site_fract_x
_atom_site_fract_y
_atom_site_fract_z
Si Si1 0.180198 0.203262 0.316118
Si Si2 0.734498 0.108145 0.316200
Si Si3 0.544469 0.890686 0.184423
Si Si4 0.868476 0.603057 0.315615
Si Si5 0.089125 0.104951 0.684697
Si Si6 0.360952 0.108398 0.815000
Si Si7 0.953015 0.704227 0.816442
O O1 0.184983 0.198825 0.500000
O O2 0.224847 0.169845 0.240768
O O3 0.164843 0.310906 0.274259
O O4 0.139255 0.134047 0.275415
O O5 0.735670 0.101994 0.500000
O O6 0.686507 0.148834 0.269054
O O7 0.738493 0.000000 0.250000
O O8 0.500000 0.845299 0.250000
O O9 0.591931 0.847360 0.229214
O O10 0.545424 0.000000 0.250000
O O11 0.541325 0.894572 0.000000
O O12 0.855491 0.500000 0.250000
O O13 0.871885 0.600229 0.500000
O O14 0.915086 0.634781 0.246620
O O15 0.084999 0.106887 0.500000
O O16 0.059435 0.188958 0.755872
O O17 0.078879 0.000000 0.750000
O O18 0.360874 0.000000 0.750000
O O19 0.361303 0.103534 0.000000
O O20 0.000000 0.676867 0.750000
O O21 0.953416 0.703236 0.000000
#
# Coordination Sequence:
#
# PCOD9392295 Si02
#       7
#     8   8   8   8   8   8   8
#     4   9  19  33  48  67  91 114 140 175 212 251
#     4  10  18  27  41  60  84 114 147 179 215 255
#     4   9  14  20  29  41  60  87 125 170 214 251
#     4  10  21  38  57  76  95 115 141 174 212 254
#     4  10  20  34  50  70  95 123 153 183 215 252
#     4   8  15  24  32  46  69  98 132 173 213 250
#     4  11  22  37  55  75  98 122 148 178 212 250
#
# _framework density 15.139192
#
# number of rings (size 3 to 8) (size 9 to 14) (size 15 to 20)
#    0.000    2.429    0.000    4.714    0.000    6.286 
#    0.000    2.857    0.000    0.000    0.000    0.000 
#    0.000    0.000    0.000    0.000    0.000    0.714 
#
# Total GULP energy -312008.159923 kJ/mol
# GULP energy per Si atom -5571.574284 kJ/mol
# Density = 1.510473 g / cm^3
# Si number density = 15.139192 Si / 1000 Ang^3
#
#
#
# Elastic Constant Matrix: (Units=GPa)
#
#
# Indices 1 2 3 4 5 6 
#
# 1 132.0099 17.7093 34.4309 0.0000 0.0000 0.0000
# 2 17.7093 46.1550 16.1687 0.0000 0.0000 0.0000
# 3 34.4309 16.1687 51.6924 0.0000 0.0000 0.0000
# 4 0.0000 0.0000 0.0000 20.0936 0.0000 0.0000
# 5 0.0000 0.0000 0.0000 0.0000 23.0471 0.0000
# 6 0.0000 0.0000 0.0000 0.0000 0.0000 8.4932
#
#
#
# Elastic Compliance Matrix: (Units=1/GPa)
#
#
# Indices 1 2 3 4 5 6 
#
# 1 0.009267 -0.001565 -0.005683 0.000000 0.000000 0.000000
# 2 -0.001565 0.024597 -0.006651 0.000000 0.000000 0.000000
# 3 -0.005683 -0.006651 0.025211 0.000000 0.000000 0.000000
# 4 0.000000 0.000000 0.000000 0.049767 0.000000 0.000000
# 5 0.000000 0.000000 0.000000 0.000000 0.043389 0.000000
# 6 0.000000 0.000000 0.000000 0.000000 0.000000 0.117741
#
#
# Mechanical properties :
#
#
# Convention : Reuss Voigt Hill
#
# Bulk Modulus (GPa) = 31.97302 40.71944 36.34623
# Shear Modulus (GPa) = 16.22338 21.09668 18.66003
#
# Velocity S-wave (km/s) = 3.27710 3.73703 3.51460
# Velocity P-wave (km/s) = 5.95688 6.75097 6.36632
#
# Compressibility (1/GPa) = 0.03127637
#
# Stress axis : x y z
#
# Youngs Moduli (GPa) = 107.90462 40.65613 39.66514
#
# Poissons Ratio (x) = 0.06362 0.22543
# Poissons Ratio (y) = 0.16886 0.26382
# Poissons Ratio (z) = 0.61325 0.27041
#
# Static dielectric constant tensor:
#      x y z
#    x 1.556580 0.000000 0.000000 
#    y 0.000000 1.475500 0.000000 
#    z 0.000000 0.000000 1.508040 
# 
# From -- ./inp_files/7029.got.cif
#   From: 2010.05.17/outbox.cif.g08.bks.cpg/sg49_4_cif.got.tgz:7029.got - 2010.06.03 21:02:19.
