data_PCOD9392369
_publ_section_title
;
Structure prediction by ZEFSAII (Michael W. Deem and Ramdas Pophale) SiO2 
 PCOD9392369
Probable space group: P C C M
;
_chemical_formula_sum "Si O2"
_cell_formula_units_Z 64
_cell_length_a 19.619199
_cell_length_b 24.433125
_cell_length_c 8.599264
_cell_angle_alpha 90.000000
_cell_angle_beta 90.000000
_cell_angle_gamma 90.000000
_cell_volume 4122.128930
_symmetry_space_group_name_H-M "P C C M"
_symmetry_group_IT_number 49
_symmetry_cell_setting 'orthorhombic'
loop_
_space_group_symop_operation_xyz
x,y,z
-x,-y,z
x,-y,1/2-z
-x,y,1/2-z
-x,-y,-z
x,y,-z
-x,y,1/2+z
x,-y,1/2+z
loop_
_atom_site_type_symbol
_atom_site_label
_atom_site_fract_x
_atom_site_fract_y
_atom_site_fract_z
Si Si1 0.703854 0.665752 0.686901
Si Si2 0.424350 0.724189 0.686656
Si Si3 0.213467 0.559702 0.812423
Si Si4 0.423678 0.059533 0.187488
Si Si5 0.214038 0.230281 0.813375
Si Si6 0.927247 0.613440 0.312680
Si Si7 0.655679 0.166403 0.688696
Si Si8 0.073008 0.741335 0.813997
O O1 0.704725 0.668945 0.500000
O O2 0.629023 0.679826 0.749323
O O3 0.733484 0.606969 0.734475
O O4 0.753368 0.713051 0.752152
O O5 0.500000 0.717058 0.750000
O O6 0.424329 0.722420 0.500000
O O7 0.393839 0.783501 0.735665
O O8 0.229800 0.500000 0.750000
O O9 0.138023 0.579015 0.759777
O O10 0.212580 0.558300 0.000000
O O11 0.500000 0.070234 0.250000
O O12 0.374160 0.108468 0.240198
O O13 0.402854 0.000000 0.250000
O O14 0.425899 0.058157 0.000000
O O15 0.267999 0.183516 0.763327
O O16 0.137960 0.226241 0.749302
O O17 0.212608 0.231804 0.000000
O O18 0.928893 0.612407 0.500000
O O19 0.918945 0.677251 0.265201
O O20 0.000000 0.593803 0.250000
O O21 0.655426 0.165638 0.500000
O O22 0.000000 0.760050 0.750000
O O23 0.072693 0.742864 0.000000
#
# Coordination Sequence:
#
# PCOD9392369 Si02
#       8
#     8   8   8   8   8   8   8   8
#     4  10  19  34  50  67  93 120 147 187 231 277
#     4  10  19  32  50  74  96 120 151 185 230 280
#     4  10  21  35  49  66  89 116 150 188 227 273
#     4  10  18  30  45  64  93 130 167 201 230 265
#     4  10  18  30  48  70  93 122 156 192 235 280
#     4   9  18  32  46  64  89 117 149 184 221 265
#     4   8  17  30  45  67  97 126 158 195 229 269
#     4  10  18  30  46  67  94 124 156 189 230 278
#
# _framework density 15.525957999999999
#
# number of rings (size 3 to 8) (size 9 to 14) (size 15 to 20)
#    0.000    2.375    1.250    3.375    0.000    2.250 
#    0.000    8.125    0.000    0.375    0.000    2.625 
#    0.000    0.500    0.000    5.750    0.000    1.750 
#
# Total GULP energy -356900.802204 kJ/mol
# GULP energy per Si atom -5576.575034 kJ/mol
# Density = 1.549062 g / cm^3
# Si number density = 15.525958 Si / 1000 Ang^3
#
#
#
# Elastic Constant Matrix: (Units=GPa)
#
#
# Indices 1 2 3 4 5 6 
#
# 1 147.1553 76.4341 34.6755 0.0000 0.0000 0.0000
# 2 76.4341 112.1822 26.2784 0.0000 0.0000 0.0000
# 3 34.6755 26.2784 40.7662 0.0000 0.0000 0.0000
# 4 0.0000 0.0000 0.0000 14.3091 0.0000 0.0000
# 5 0.0000 0.0000 0.0000 0.0000 27.4375 0.0000
# 6 0.0000 0.0000 0.0000 0.0000 0.0000 25.6179
#
#
#
# Elastic Compliance Matrix: (Units=1/GPa)
#
#
# Indices 1 2 3 4 5 6 
#
# 1 0.011501 -0.006530 -0.005573 0.000000 0.000000 0.000000
# 2 -0.006530 0.014208 -0.003604 0.000000 0.000000 0.000000
# 3 -0.005573 -0.003604 0.031593 0.000000 0.000000 0.000000
# 4 0.000000 0.000000 0.000000 0.069886 0.000000 0.000000
# 5 0.000000 0.000000 0.000000 0.000000 0.036446 0.000000
# 6 0.000000 0.000000 0.000000 0.000000 0.000000 0.039035
#
#
# Mechanical properties :
#
#
# Convention : Reuss Voigt Hill
#
# Bulk Modulus (GPa) = 38.62828 63.87553 51.25190
# Shear Modulus (GPa) = 20.60054 24.32062 22.46058
#
# Velocity S-wave (km/s) = 3.64654 3.96213 3.80761
# Velocity P-wave (km/s) = 6.53173 7.88427 7.23966
#
# Compressibility (1/GPa) = 0.02588777
#
# Stress axis : x y z
#
# Youngs Moduli (GPa) = 86.95123 70.38440 31.65229
#
# Poissons Ratio (x) = 0.45964 0.17639
# Poissons Ratio (y) = 0.56783 0.11407
# Poissons Ratio (z) = 0.48456 0.25364
#
# Static dielectric constant tensor:
#      x y z
#    x 1.520760 0.000000 0.000000 
#    y 0.000000 1.505190 0.000000 
#    z 0.000000 0.000000 1.525780 
# 
# From -- ./inp_files/5409.got.cif
#   From: 2010.05.17/outbox.cif.g08.bks.cpg/sg49_3_cif.got.tgz:5409.got - 2010.06.03 21:02:19.
