data_PCOD9392786
_publ_section_title
;
Structure prediction by ZEFSAII (Michael W. Deem and Ramdas Pophale) SiO2 
 PCOD9392786
Probable space group: P C C M
;
_chemical_formula_sum "Si O2"
_cell_formula_units_Z 40
_cell_length_a 19.236743
_cell_length_b 13.956309
_cell_length_c 8.725162
_cell_angle_alpha 90.000000
_cell_angle_beta 90.000000
_cell_angle_gamma 90.000000
_cell_volume 2342.478527
_symmetry_space_group_name_H-M "P C C M"
_symmetry_group_IT_number 49
_symmetry_cell_setting 'orthorhombic'
loop_
_space_group_symop_operation_xyz
x,y,z
-x,-y,z
x,-y,1/2-z
-x,y,1/2-z
-x,-y,-z
x,y,-z
-x,y,1/2+z
x,-y,1/2+z
loop_
_atom_site_type_symbol
_atom_site_label
_atom_site_fract_x
_atom_site_fract_y
_atom_site_fract_z
Si Si1 0.354234 0.896078 0.683001
Si Si2 0.425657 0.709308 0.184093
Si Si3 0.072702 0.893080 0.183605
Si Si4 0.781560 0.199604 0.814912
Si Si5 0.713820 0.602791 0.683549
O O1 0.358392 0.896929 0.500000
O O2 0.403336 0.812940 0.750696
O O3 0.276371 0.867003 0.736488
O O4 0.371611 0.000000 0.750000
O O5 0.500000 0.681070 0.250000
O O6 0.363843 0.636683 0.229376
O O7 0.427731 0.714323 0.000000
O O8 0.140774 0.832222 0.224260
O O9 0.000000 0.854936 0.250000
O O10 0.081606 0.000000 0.250000
O O11 0.067726 0.898641 0.000000
O O12 0.763693 0.308962 0.771597
O O13 0.772638 0.190985 0.000000
O O14 0.731709 0.500000 0.750000
O O15 0.715086 0.596699 0.500000
#
# Coordination Sequence:
#
# PCOD9392786 Si02
#       5
#     8   8   8   8   8
#     4  11  21  33  51  74 100 133 170 206 246 296
#     4  10  21  37  53  73 101 130 164 207 251 298
#     4  10  19  31  49  74 106 138 169 202 242 289
#     4   9  19  35  52  73 102 134 167 209 251 292
#     4   9  19  35  54  75  99 126 162 207 254 300
#
# _framework density 17.07593
#
# number of rings (size 3 to 8) (size 9 to 14) (size 15 to 20)
#    0.000    2.200    0.000    5.400    0.000    8.000 
#    0.000    4.000    0.000    0.600    0.000    4.200 
#    0.000    0.000    0.000    0.000    0.000    0.000 
#
# Total GULP energy -223270.479043 kJ/mol
# GULP energy per Si atom -5581.761976 kJ/mol
# Density = 1.703706 g / cm^3
# Si number density = 17.075930 Si / 1000 Ang^3
#
#
#
# Elastic Constant Matrix: (Units=GPa)
#
#
# Indices 1 2 3 4 5 6 
#
# 1 104.5384 16.6963 24.8940 0.0000 0.0000 0.0000
# 2 16.6963 64.2396 12.9952 0.0000 0.0000 0.0000
# 3 24.8940 12.9952 50.1960 0.0000 0.0000 0.0000
# 4 0.0000 0.0000 0.0000 27.2863 0.0000 0.0000
# 5 0.0000 0.0000 0.0000 0.0000 42.6280 0.0000
# 6 0.0000 0.0000 0.0000 0.0000 0.0000 8.0727
#
#
#
# Elastic Compliance Matrix: (Units=1/GPa)
#
#
# Indices 1 2 3 4 5 6 
#
# 1 0.011054 -0.001861 -0.005000 0.000000 0.000000 0.000000
# 2 -0.001861 0.016741 -0.003411 0.000000 0.000000 0.000000
# 3 -0.005000 -0.003411 0.023285 0.000000 0.000000 0.000000
# 4 0.000000 0.000000 0.000000 0.036648 0.000000 0.000000
# 5 0.000000 0.000000 0.000000 0.000000 0.023459 0.000000
# 6 0.000000 0.000000 0.000000 0.000000 0.000000 0.123874
#
#
# Mechanical properties :
#
#
# Convention : Reuss Voigt Hill
#
# Bulk Modulus (GPa) = 32.75001 36.46055 34.60528
# Shear Modulus (GPa) = 18.81235 26.55664 22.68450
#
# Velocity S-wave (km/s) = 3.32277 3.94789 3.64874
# Velocity P-wave (km/s) = 5.82596 6.49457 6.16933
#
# Compressibility (1/GPa) = 0.03053434
#
# Stress axis : x y z
#
# Youngs Moduli (GPa) = 90.46616 59.73537 42.94676
#
# Poissons Ratio (x) = 0.11120 0.21474
# Poissons Ratio (y) = 0.16840 0.14648
# Poissons Ratio (z) = 0.45234 0.20374
#
# Static dielectric constant tensor:
#      x y z
#    x 1.579200 0.000000 0.000000 
#    y 0.000000 1.556590 0.000000 
#    z 0.000000 0.000000 1.575560 
# 
# From -- ./inp_files/2672.got.cif
#   From: 2010.05.17/outbox.cif.g08.bks.cpg/sg49_2_cif.got.tgz:2672.got - 2010.06.03 21:02:19.
