data_PCOD9392592
_publ_section_title
;
Structure prediction by ZEFSAII (Michael W. Deem and Ramdas Pophale) SiO2 
 PCOD9392592
Probable space group: P C C M
;
_chemical_formula_sum "Si O2"
_cell_formula_units_Z 48
_cell_length_a 5.855547
_cell_length_b 13.668883
_cell_length_c 26.882615
_cell_angle_alpha 90.000000
_cell_angle_beta 90.000000
_cell_angle_gamma 90.000000
_cell_volume 2151.651892
_symmetry_space_group_name_H-M "P C C M"
_symmetry_group_IT_number 49
_symmetry_cell_setting 'orthorhombic'
loop_
_space_group_symop_operation_xyz
x,y,z
-x,-y,z
x,-y,1/2-z
-x,y,1/2-z
-x,-y,-z
x,y,-z
-x,y,1/2+z
x,-y,1/2+z
loop_
_atom_site_type_symbol
_atom_site_label
_atom_site_fract_x
_atom_site_fract_y
_atom_site_fract_z
Si Si1 0.120595 0.646654 0.556530
Si Si2 0.631518 0.139914 0.555103
Si Si3 0.127254 0.904624 0.348636
Si Si4 0.599941 0.740221 0.195814
Si Si5 0.754310 0.760506 0.392133
Si Si6 0.248783 0.548799 0.345869
O O1 0.113718 0.611788 0.500000
O O2 0.241226 0.753990 0.556408
O O3 0.245355 0.576981 0.595518
O O4 0.872025 0.670943 0.579487
O O5 0.658293 0.098516 0.500000
O O6 0.733226 0.076264 0.600078
O O7 0.374638 0.170278 0.568523
O O8 0.290205 0.847106 0.311201
O O9 0.940365 0.825475 0.364511
O O10 0.000000 0.000000 0.329924
O O11 0.500000 0.730215 0.250000
O O12 0.419818 0.729769 0.150740
O O13 0.766161 0.650336 0.184680
O O14 0.500000 0.500000 0.334156
O O15 0.000000 0.500000 0.336171
#
# Coordination Sequence:
#
# PCOD9392592 Si02
#       6
#     8   8   8   8   8   8
#     4  10  20  38  64  97 138 185 230 284 359 431
#     4   9  18  33  61  95 134 186 232 276 349 433
#     4  10  22  41  67  99 135 180 230 300 361 433
#     4  11  25  47  70  98 135 188 235 302 376 433
#     4  10  18  40  65  93 137 182 229 293 354 431
#     4  12  26  46  71 106 145 184 247 306 360 437
#
# _framework density 22.308439
#
# number of rings (size 3 to 8) (size 9 to 14) (size 15 to 20)
#    0.000    1.667    5.000    1.500    0.000    5.333 
#    0.000    5.833    0.000    0.000    0.000    0.000 
#    0.000    0.000    0.000    0.000    0.000    0.000 
#
# Total GULP energy -268062.491029 kJ/mol
# GULP energy per Si atom -5584.635230 kJ/mol
# Density = 2.225766 g / cm^3
# Si number density = 22.308439 Si / 1000 Ang^3
#
#
#
# Elastic Constant Matrix: (Units=GPa)
#
#
# Indices 1 2 3 4 5 6 
#
# 1 86.5738 25.9523 27.9753 0.0000 0.0000 0.0000
# 2 25.9523 77.6448 41.3653 0.0000 0.0000 0.0000
# 3 27.9753 41.3653 116.4014 0.0000 0.0000 0.0000
# 4 0.0000 0.0000 0.0000 5.6562 0.0000 0.0000
# 5 0.0000 0.0000 0.0000 0.0000 6.1958 0.0000
# 6 0.0000 0.0000 0.0000 0.0000 0.0000 41.0071
#
#
#
# Elastic Compliance Matrix: (Units=1/GPa)
#
#
# Indices 1 2 3 4 5 6 
#
# 1 0.013196 -0.003357 -0.001979 0.000000 0.000000 0.000000
# 2 -0.003357 0.016741 -0.005142 0.000000 0.000000 0.000000
# 3 -0.001979 -0.005142 0.010894 0.000000 0.000000 0.000000
# 4 0.000000 0.000000 0.000000 0.176798 0.000000 0.000000
# 5 0.000000 0.000000 0.000000 0.000000 0.161399 0.000000
# 6 0.000000 0.000000 0.000000 0.000000 0.000000 0.024386
#
#
# Mechanical properties :
#
#
# Convention : Reuss Voigt Hill
#
# Bulk Modulus (GPa) = 50.31298 52.35620 51.33459
# Shear Modulus (GPa) = 11.60108 22.92696 17.26402
#
# Velocity S-wave (km/s) = 2.28289 3.20929 2.78488
# Velocity P-wave (km/s) = 5.43609 6.10352 5.77945
#
# Compressibility (1/GPa) = 0.01987559
#
# Stress axis : x y z
#
# Youngs Moduli (GPa) = 75.77790 59.73462 91.79400
#
# Poissons Ratio (x) = 0.20051 0.18163
# Poissons Ratio (y) = 0.25436 0.47204
# Poissons Ratio (z) = 0.14994 0.30718
#
# Static dielectric constant tensor:
#      x y z
#    x 1.908710 0.000000 0.000000 
#    y 0.000000 1.846340 0.000000 
#    z 0.000000 0.000000 1.775610 
# 
# From -- ./inp_files/23935.got.cif
#   From: 2010.05.17/outbox.cif.g08.bks.cpg/sg49_12_cif.got.tgz:23935.got - 2010.06.03 21:02:19.
