data_PCOD9392106
_publ_section_title
;
Structure prediction by ZEFSAII (Michael W. Deem and Ramdas Pophale) SiO2 
 PCOD9392106
Probable space group: P C C M
;
_chemical_formula_sum "Si O2"
_cell_formula_units_Z 64
_cell_length_a 27.155341
_cell_length_b 18.989603
_cell_length_c 8.660411
_cell_angle_alpha 90.000000
_cell_angle_beta 90.000000
_cell_angle_gamma 90.000000
_cell_volume 4465.906735
_symmetry_space_group_name_H-M "P C C M"
_symmetry_group_IT_number 49
_symmetry_cell_setting 'orthorhombic'
loop_
_space_group_symop_operation_xyz
x,y,z
-x,-y,z
x,-y,1/2-z
-x,y,1/2-z
-x,-y,-z
x,y,-z
-x,y,1/2+z
x,-y,1/2+z
loop_
_atom_site_type_symbol
_atom_site_label
_atom_site_fract_x
_atom_site_fract_y
_atom_site_fract_z
Si Si1 0.796687 0.710455 0.683141
Si Si2 0.155348 0.577720 0.685620
Si Si3 0.252211 0.157955 0.814555
Si Si4 0.051690 0.352109 0.184459
Si Si5 0.150915 0.077519 0.815234
Si Si6 0.550619 0.080058 0.684836
Si Si7 0.894537 0.217095 0.686716
Si Si8 0.346727 0.920614 0.184569
O O1 0.790671 0.708426 0.500000
O O2 0.804286 0.632579 0.750839
O O3 0.756686 0.762113 0.759081
O O4 0.847803 0.748276 0.730410
O O5 0.162770 0.500000 0.750000
O O6 0.156589 0.578674 0.500000
O O7 0.100654 0.605538 0.734462
O O8 0.203687 0.111850 0.769305
O O9 0.300075 0.124128 0.738595
O O10 0.255696 0.155865 0.000000
O O11 0.061018 0.269543 0.225526
O O12 0.000000 0.377476 0.250000
O O13 0.049577 0.356965 0.000000
O O14 0.108730 0.134765 0.772768
O O15 0.144443 0.000000 0.750000
O O16 0.151533 0.072476 0.000000
O O17 0.500000 0.112564 0.750000
O O18 0.549668 0.078535 0.500000
O O19 0.602209 0.109807 0.746595
O O20 0.551146 0.000000 0.750000
O O21 0.886978 0.222270 0.500000
O O22 0.340653 0.000000 0.250000
O O23 0.350046 0.924075 0.000000
#
# Coordination Sequence:
#
# PCOD9392106 Si02
#       8
#     8   8   8   8   8   8   8   8
#     4  10  18  29  46  66  84 107 137 167 197 240
#     4  10  20  34  49  67  90 114 136 163 194 231
#     4  10  19  31  43  58  83 113 139 171 212 253
#     4   9  18  31  47  64  84 107 133 163 199 238
#     4   9  17  27  41  58  78 101 129 164 205 246
#     4  10  17  27  40  54  73 102 140 183 227 269
#     4   8  16  31  44  57  80 109 133 160 198 242
#     4  11  20  29  40  58  82 110 145 186 228 267
#
# _framework density 14.330795
#
# number of rings (size 3 to 8) (size 9 to 14) (size 15 to 20)
#    0.000    2.375    0.000    7.125    0.000    6.250 
#    0.000    1.250    0.000    0.375    0.000    2.625 
#    0.000    0.000    0.000    0.000    0.000    0.625 
#
# Total GULP energy -356464.578528 kJ/mol
# GULP energy per Si atom -5569.759039 kJ/mol
# Density = 1.429818 g / cm^3
# Si number density = 14.330795 Si / 1000 Ang^3
#
#
#
# Elastic Constant Matrix: (Units=GPa)
#
#
# Indices 1 2 3 4 5 6 
#
# 1 47.5005 22.8335 22.1073 0.0000 0.0000 0.0000
# 2 22.8335 96.4446 26.4320 0.0000 0.0000 0.0000
# 3 22.1073 26.4320 67.0607 0.0000 0.0000 0.0000
# 4 0.0000 0.0000 0.0000 21.3475 0.0000 0.0000
# 5 0.0000 0.0000 0.0000 0.0000 22.5174 0.0000
# 6 0.0000 0.0000 0.0000 0.0000 0.0000 9.6530
#
#
#
# Elastic Compliance Matrix: (Units=1/GPa)
#
#
# Indices 1 2 3 4 5 6 
#
# 1 0.026389 -0.004331 -0.006992 0.000000 0.000000 0.000000
# 2 -0.004331 0.012335 -0.003434 0.000000 0.000000 0.000000
# 3 -0.006992 -0.003434 0.018570 0.000000 0.000000 0.000000
# 4 0.000000 0.000000 0.000000 0.046844 0.000000 0.000000
# 5 0.000000 0.000000 0.000000 0.000000 0.044410 0.000000
# 6 0.000000 0.000000 0.000000 0.000000 0.000000 0.103594
#
#
# Mechanical properties :
#
#
# Convention : Reuss Voigt Hill
#
# Bulk Modulus (GPa) = 35.99798 39.30574 37.65186
# Shear Modulus (GPa) = 17.18699 20.01245 18.59972
#
# Velocity S-wave (km/s) = 3.46685 3.74098 3.60652
# Velocity P-wave (km/s) = 6.41867 6.79316 6.60856
#
# Compressibility (1/GPa) = 0.02777933
#
# Stress axis : x y z
#
# Youngs Moduli (GPa) = 37.89497 81.06849 53.84898
#
# Poissons Ratio (x) = 0.35113 0.37652
# Poissons Ratio (y) = 0.16413 0.18492
# Poissons Ratio (z) = 0.26497 0.27840
#
# Static dielectric constant tensor:
#      x y z
#    x 1.489150 0.000000 0.000000 
#    y 0.000000 1.487730 0.000000 
#    z 0.000000 0.000000 1.480220 
# 
# From -- ./inp_files/6629.got.cif
#   From: 2010.05.17/outbox.cif.g08.bks.cpg/sg49_4_cif.got.tgz:6629.got - 2010.06.03 21:02:19.
