data_PCOD9392008
_publ_section_title
;
Structure prediction by ZEFSAII (Michael W. Deem and Ramdas Pophale) SiO2 
 PCOD9392008
Probable space group: P C C M
;
_chemical_formula_sum "Si O2"
_cell_formula_units_Z 64
_cell_length_a 14.670699
_cell_length_b 32.209090
_cell_length_c 8.736421
_cell_angle_alpha 90.000000
_cell_angle_beta 90.000000
_cell_angle_gamma 90.000000
_cell_volume 4128.219831
_symmetry_space_group_name_H-M "P C C M"
_symmetry_group_IT_number 49
_symmetry_cell_setting 'orthorhombic'
loop_
_space_group_symop_operation_xyz
x,y,z
-x,-y,z
x,-y,1/2-z
-x,y,1/2-z
-x,-y,-z
x,y,-z
-x,y,1/2+z
x,-y,1/2+z
loop_
_atom_site_type_symbol
_atom_site_label
_atom_site_fract_x
_atom_site_fract_y
_atom_site_fract_z
Si Si1 0.715828 0.043386 0.316588
Si Si2 0.396511 0.457531 0.816942
Si Si3 0.902316 0.075213 0.817104
Si Si4 0.902286 0.826492 0.682728
Si Si5 0.602381 0.373353 0.183028
Si Si6 0.283022 0.205045 0.183717
Si Si7 0.397520 0.719472 0.816844
Si Si8 0.398893 0.124054 0.184514
O O1 0.717236 0.041823 0.500000
O O2 0.817698 0.051383 0.255554
O O3 0.654000 0.082376 0.267468
O O4 0.681371 0.000000 0.250000
O O5 0.354743 0.500000 0.750000
O O6 0.500000 0.456837 0.750000
O O7 0.353993 0.414151 0.759234
O O8 0.400115 0.459008 0.000000
O O9 0.890406 0.124360 0.780079
O O10 0.000000 0.062205 0.750000
O O11 0.902249 0.070448 0.000000
O O12 0.902825 0.822539 0.500000
O O13 0.818376 0.801520 0.753114
O O14 0.000000 0.813826 0.750000
O O15 0.500000 0.371400 0.250000
O O16 0.639123 0.327228 0.215993
O O17 0.598671 0.379199 0.000000
O O18 0.333026 0.245534 0.247643
O O19 0.341631 0.164556 0.231754
O O20 0.281070 0.206392 0.000000
O O21 0.500000 0.723522 0.750000
O O22 0.403350 0.723856 0.000000
O O23 0.500000 0.125505 0.250000
O O24 0.403288 0.124087 0.000000
#
# Coordination Sequence:
#
# PCOD9392008 Si02
#       8
#     8   8   8   8   8   8   8   8
#     4  11  23  40  57  77 102 127 158 192 229 275
#     4  10  16  22  33  49  71 101 143 191 240 286
#     4  10  20  35  57  82 105 131 154 184 224 270
#     4  10  20  34  55  80 104 128 154 186 226 275
#     4   9  16  26  38  53  78 110 148 193 240 284
#     4  11  21  35  54  76 100 127 158 194 234 278
#     4  10  20  32  46  67  94 126 162 202 245 287
#     4  10  23  39  56  75  98 125 156 195 232 271
#
# _framework density 15.50305
#
# number of rings (size 3 to 8) (size 9 to 14) (size 15 to 20)
#    0.000    1.875    1.250    4.875    0.000    6.000 
#    0.000    2.500    0.000    0.000    0.000    0.000 
#    0.000    0.000    0.000    0.000    0.000    0.625 
#
# Total GULP energy -357128.450302 kJ/mol
# GULP energy per Si atom -5580.132036 kJ/mol
# Density = 1.546776 g / cm^3
# Si number density = 15.503050 Si / 1000 Ang^3
#
#
#
# Elastic Constant Matrix: (Units=GPa)
#
#
# Indices 1 2 3 4 5 6 
#
# 1 78.7498 52.8627 27.1547 0.0000 0.0000 0.0000
# 2 52.8627 143.1393 54.0595 0.0000 0.0000 0.0000
# 3 27.1547 54.0595 67.3839 0.0000 0.0000 0.0000
# 4 0.0000 0.0000 0.0000 27.0596 0.0000 0.0000
# 5 0.0000 0.0000 0.0000 0.0000 24.4370 0.0000
# 6 0.0000 0.0000 0.0000 0.0000 0.0000 -0.0297
#
#
#
# Elastic Compliance Matrix: (Units=1/GPa)
#
#
# Indices 1 2 3 4 5 6 
#
# 1 0.017204 -0.005359 -0.002634 0.000000 0.000000 0.000000
# 2 -0.005359 0.011692 -0.007221 0.000000 0.000000 0.000000
# 3 -0.002634 -0.007221 0.021695 0.000000 0.000000 0.000000
# 4 0.000000 0.000000 0.000000 0.036955 0.000000 0.000000
# 5 0.000000 0.000000 0.000000 0.000000 0.040922 0.000000
# 6 0.000000 0.000000 0.000000 0.000000 0.000000-33.652593
#
#
# Mechanical properties :
#
#
# Convention : Reuss Voigt Hill
#
# Bulk Modulus (GPa) = 49.59290 61.93633 55.76462
# Shear Modulus (GPa) = -0.14931 20.63978 10.24523
#
# Velocity S-wave (km/s) = -0.31068 3.65271 2.57349
# Velocity P-wave (km/s) = 5.65065 7.60444 6.69916
#
# Compressibility (1/GPa) = 0.02016417
#
# Stress axis : x y z
#
# Youngs Moduli (GPa) = 58.12642 85.52582 46.09435
#
# Poissons Ratio (x) = 0.45832 0.12140
# Poissons Ratio (y) = 0.31149 0.33284
# Poissons Ratio (z) = 0.15309 0.61756
#
# Static dielectric constant tensor:
#      x y z
#    x 1.476910 0.000000 0.000000 
#    y 0.000000 1.563980 0.000000 
#    z 0.000000 0.000000 1.514970 
# 
# From -- ./inp_files/4549.got.cif
#   From: 2010.05.17/outbox.cif.g08.bks.cpg/sg49_3_cif.got.tgz:4549.got - 2010.06.03 21:02:19.
