data_PCOD9392350
_publ_section_title
;
Structure prediction by ZEFSAII (Michael W. Deem and Ramdas Pophale) SiO2 
 PCOD9392350
Probable space group: P C C M
;
_chemical_formula_sum "Si O2"
_cell_formula_units_Z 64
_cell_length_a 19.970473
_cell_length_b 21.493673
_cell_length_c 8.682916
_cell_angle_alpha 90.000000
_cell_angle_beta 90.000000
_cell_angle_gamma 90.000000
_cell_volume 3727.044586
_symmetry_space_group_name_H-M "P C C M"
_symmetry_group_IT_number 49
_symmetry_cell_setting 'orthorhombic'
loop_
_space_group_symop_operation_xyz
x,y,z
-x,-y,z
x,-y,1/2-z
-x,y,1/2-z
-x,-y,-z
x,y,-z
-x,y,1/2+z
x,-y,1/2+z
loop_
_atom_site_type_symbol
_atom_site_label
_atom_site_fract_x
_atom_site_fract_y
_atom_site_fract_z
Si Si1 0.359421 0.189823 0.682400
Si Si2 0.925044 0.435829 0.316365
Si Si3 0.924483 0.808343 0.814000
Si Si4 0.566764 0.702253 0.817036
Si Si5 0.312155 0.067064 0.184514
Si Si6 0.713808 0.701596 0.181109
Si Si7 0.854055 0.684958 0.681781
Si Si8 0.844246 0.932421 0.814827
O O1 0.350197 0.193924 0.500000
O O2 0.422940 0.231027 0.733574
O O3 0.357267 0.120172 0.740763
O O4 0.300322 0.226627 0.772608
O O5 0.894813 0.500000 0.250000
O O6 0.926937 0.438995 0.500000
O O7 0.888342 0.374167 0.260453
O O8 0.000000 0.432311 0.250000
O O9 0.883305 0.748945 0.751981
O O10 0.888722 0.873277 0.766528
O O11 0.000000 0.805924 0.750000
O O12 0.925508 0.805733 0.000000
O O13 0.500000 0.671990 0.750000
O O14 0.640181 0.671719 0.788465
O O15 0.561153 0.710240 0.000000
O O16 0.233809 0.077722 0.228665
O O17 0.330568 0.000000 0.250000
O O18 0.316724 0.068666 0.000000
O O19 0.775394 0.679702 0.281023
O O20 0.728876 0.696546 0.000000
O O21 0.866574 0.684550 0.500000
O O22 0.865126 0.000000 0.750000
O O23 0.847015 0.935952 0.000000
#
# Coordination Sequence:
#
# PCOD9392350 Si02
#       8
#     8   8   8   8   8   8   8   8
#     4  10  18  29  46  69  96 128 164 203 251 306
#     4  11  22  39  60  83 113 149 190 231 272 323
#     4  11  23  38  53  73 101 135 173 219 273 326
#     4   9  18  31  50  73 103 136 170 206 251 307
#     4  10  18  30  46  66  89 117 156 203 256 309
#     4   9  19  33  50  75 104 136 168 209 257 302
#     4  12  23  36  56  82 110 142 181 225 272 323
#     4   9  20  35  52  69  92 125 165 215 268 323
#
# _framework density 17.171782
#
# number of rings (size 3 to 8) (size 9 to 14) (size 15 to 20)
#    0.750    1.125    0.000    6.000    0.000    2.750 
#    0.000    1.250    0.000    0.375    0.000    2.625 
#    0.000    0.500    0.000    5.250    0.000    2.875 
#
# Total GULP energy -356652.539182 kJ/mol
# GULP energy per Si atom -5572.695925 kJ/mol
# Density = 1.713270 g / cm^3
# Si number density = 17.171782 Si / 1000 Ang^3
#
#
#
# Elastic Constant Matrix: (Units=GPa)
#
#
# Indices 1 2 3 4 5 6 
#
# 1 48.4953 21.3220 14.8799 0.0000 0.0000 0.0000
# 2 21.3220 76.4888 22.2098 0.0000 0.0000 0.0000
# 3 14.8799 22.2098 85.6126 0.0000 0.0000 0.0000
# 4 0.0000 0.0000 0.0000 29.7423 0.0000 0.0000
# 5 0.0000 0.0000 0.0000 0.0000 28.0876 0.0000
# 6 0.0000 0.0000 0.0000 0.0000 0.0000 12.7693
#
#
#
# Elastic Compliance Matrix: (Units=1/GPa)
#
#
# Indices 1 2 3 4 5 6 
#
# 1 0.024040 -0.005935 -0.002638 0.000000 0.000000 0.000000
# 2 -0.005935 0.015604 -0.003017 0.000000 0.000000 0.000000
# 3 -0.002638 -0.003017 0.012922 0.000000 0.000000 0.000000
# 4 0.000000 0.000000 0.000000 0.033622 0.000000 0.000000
# 5 0.000000 0.000000 0.000000 0.000000 0.035603 0.000000
# 6 0.000000 0.000000 0.000000 0.000000 0.000000 0.078313
#
#
# Mechanical properties :
#
#
# Convention : Reuss Voigt Hill
#
# Bulk Modulus (GPa) = 34.03078 36.38001 35.20539
# Shear Modulus (GPa) = 21.45197 24.26550 22.85874
#
# Velocity S-wave (km/s) = 3.53832 3.76321 3.65249
# Velocity P-wave (km/s) = 6.04597 6.33358 6.19145
#
# Compressibility (1/GPa) = 0.02938516
#
# Stress axis : x y z
#
# Youngs Moduli (GPa) = 41.59797 64.08531 77.38940
#
# Poissons Ratio (x) = 0.38036 0.20419
# Poissons Ratio (y) = 0.24689 0.23345
# Poissons Ratio (z) = 0.10976 0.19331
#
# Static dielectric constant tensor:
#      x y z
#    x 1.629040 0.000000 0.000000 
#    y 0.000000 1.577920 0.000000 
#    z 0.000000 0.000000 1.568640 
# 
# From -- ./inp_files/6084.got.cif
#   From: 2010.05.17/outbox.cif.g08.bks.cpg/sg49_4_cif.got.tgz:6084.got - 2010.06.03 21:02:19.
