data_PCOD9392679
_publ_section_title
;
Structure prediction by ZEFSAII (Michael W. Deem and Ramdas Pophale) SiO2 
 PCOD9392679
Probable space group: P C C M
;
_chemical_formula_sum "Si O2"
_cell_formula_units_Z 64
_cell_length_a 15.309011
_cell_length_b 29.031447
_cell_length_c 8.604728
_cell_angle_alpha 90.000000
_cell_angle_beta 90.000000
_cell_angle_gamma 90.000000
_cell_volume 3824.308902
_symmetry_space_group_name_H-M "P C C M"
_symmetry_group_IT_number 49
_symmetry_cell_setting 'orthorhombic'
loop_
_space_group_symop_operation_xyz
x,y,z
-x,-y,z
x,-y,1/2-z
-x,y,1/2-z
-x,-y,-z
x,y,-z
-x,y,1/2+z
x,-y,1/2+z
loop_
_atom_site_type_symbol
_atom_site_label
_atom_site_fract_x
_atom_site_fract_y
_atom_site_fract_z
Si Si1 0.092839 0.417609 0.687306
Si Si2 0.595248 0.369991 0.812450
Si Si3 0.906664 0.689107 0.687081
Si Si4 0.278174 0.451710 0.687691
Si Si5 0.901128 0.953204 0.814476
Si Si6 0.404768 0.263755 0.687602
Si Si7 0.901086 0.850711 0.186219
Si Si8 0.220586 0.770073 0.811950
O O1 0.090239 0.418430 0.500000
O O2 0.104324 0.363986 0.736626
O O3 0.178077 0.444883 0.740159
O O4 0.000000 0.434275 0.750000
O O5 0.500000 0.382758 0.750000
O O6 0.666024 0.407438 0.761268
O O7 0.612300 0.317096 0.764347
O O8 0.594419 0.370236 0.000000
O O9 0.909406 0.689197 0.500000
O O10 0.829831 0.723226 0.735574
O O11 0.000000 0.705803 0.750000
O O12 0.313119 0.500000 0.750000
O O13 0.279103 0.452465 0.500000
O O14 0.867886 0.902323 0.770955
O O15 0.000000 0.952889 0.750000
O O16 0.858376 0.000000 0.750000
O O17 0.903632 0.956480 0.000000
O O18 0.500000 0.250259 0.750000
O O19 0.407958 0.262992 0.500000
O O20 0.321528 0.233699 0.738047
O O21 0.835280 0.812428 0.248611
O O22 0.000000 0.844455 0.250000
O O23 0.906084 0.848109 0.000000
O O24 0.219247 0.771884 0.000000
#
# Coordination Sequence:
#
# PCOD9392679 Si02
#       8
#     8   8   8   8   8   8   8   8
#     4   9  18  33  50  66  86 114 147 182 218 256
#     4   9  18  34  54  73  93 117 144 177 219 267
#     4   9  17  29  45  65  88 115 148 182 216 259
#     4  10  21  35  50  68  91 117 143 175 218 265
#     4   9  16  26  41  60  84 119 162 203 238 271
#     4   9  18  33  52  72  92 117 151 188 227 272
#     4  10  20  31  43  64  96 131 165 199 235 275
#     4  10  19  30  46  67  93 124 154 187 229 275
#
# _framework density 16.735050000000001
#
# number of rings (size 3 to 8) (size 9 to 14) (size 15 to 20)
#    0.000    2.625    0.000    2.250    0.000    8.000 
#    0.000    2.500    0.000    7.500    0.000    0.000 
#    0.000    0.500    0.000    5.500    0.000    4.000 
#
# Total GULP energy -356744.246464 kJ/mol
# GULP energy per Si atom -5574.128851 kJ/mol
# Density = 1.669696 g / cm^3
# Si number density = 16.735050 Si / 1000 Ang^3
#
#
#
# Elastic Constant Matrix: (Units=GPa)
#
#
# Indices 1 2 3 4 5 6 
#
# 1 104.7468 55.4593 18.6910 0.0000 0.0000 0.0000
# 2 55.4593 75.0435 16.9155 0.0000 0.0000 0.0000
# 3 18.6910 16.9155 10.4902 0.0000 0.0000 0.0000
# 4 0.0000 0.0000 0.0000 25.5122 0.0000 0.0000
# 5 0.0000 0.0000 0.0000 0.0000 22.8816 0.0000
# 6 0.0000 0.0000 0.0000 0.0000 0.0000 14.4071
#
#
#
# Elastic Compliance Matrix: (Units=1/GPa)
#
#
# Indices 1 2 3 4 5 6 
#
# 1 0.017235 -0.009136 -0.015977 0.000000 0.000000 0.000000
# 2 -0.009136 0.025777 -0.025289 0.000000 0.000000 0.000000
# 3 -0.015977 -0.025289 0.164573 0.000000 0.000000 0.000000
# 4 0.000000 0.000000 0.000000 0.039197 0.000000 0.000000
# 5 0.000000 0.000000 0.000000 0.000000 0.043703 0.000000
# 6 0.000000 0.000000 0.000000 0.000000 0.000000 0.069410
#
#
# Mechanical properties :
#
#
# Convention : Reuss Voigt Hill
#
# Bulk Modulus (GPa) = 9.36484 41.37911 25.37198
# Shear Modulus (GPa) = 10.07471 19.17449 14.62460
#
# Velocity S-wave (km/s) = 2.45626 3.38859 2.95937
# Velocity P-wave (km/s) = 3.69491 6.33165 5.18373
#
# Compressibility (1/GPa) = 0.10678239
#
# Stress axis : x y z
#
# Youngs Moduli (GPa) = 58.02248 38.79372 6.07633
#
# Poissons Ratio (x) = 0.35440 0.09708
# Poissons Ratio (y) = 0.53007 0.15366
# Poissons Ratio (z) = 0.92702 0.98104
#
# Static dielectric constant tensor:
#      x y z
#    x 1.551910 0.000000 0.000000 
#    y 0.000000 1.591090 0.000000 
#    z 0.000000 0.000000 1.569620 
# 
# From -- ./inp_files/4509.got.cif
#   From: 2010.05.17/outbox.cif.g08.bks.cpg/sg49_3_cif.got.tgz:4509.got - 2010.06.03 21:02:19.
