data_PCOD9392261
_publ_section_title
;
Structure prediction by ZEFSAII (Michael W. Deem and Ramdas Pophale) SiO2 
 PCOD9392261
Probable space group: P C C M
;
_chemical_formula_sum "Si O2"
_cell_formula_units_Z 48
_cell_length_a 19.499212
_cell_length_b 15.385052
_cell_length_c 8.657900
_cell_angle_alpha 90.000000
_cell_angle_beta 90.000000
_cell_angle_gamma 90.000000
_cell_volume 2597.338750
_symmetry_space_group_name_H-M "P C C M"
_symmetry_group_IT_number 49
_symmetry_cell_setting 'orthorhombic'
loop_
_space_group_symop_operation_xyz
x,y,z
-x,-y,z
x,-y,1/2-z
-x,y,1/2-z
-x,-y,-z
x,y,-z
-x,y,1/2+z
x,-y,1/2+z
loop_
_atom_site_type_symbol
_atom_site_label
_atom_site_fract_x
_atom_site_fract_y
_atom_site_fract_z
Si Si1 0.578125 0.910913 0.184863
Si Si2 0.201959 0.279062 0.683591
Si Si3 0.423112 0.270984 0.315360
Si Si4 0.685988 0.596747 0.183548
Si Si5 0.807683 0.088099 0.182957
Si Si6 0.076079 0.192754 0.184033
O O1 0.500000 0.910424 0.250000
O O2 0.605883 0.819501 0.246412
O O3 0.609914 0.000000 0.250000
O O4 0.577347 0.912786 0.000000
O O5 0.204072 0.294591 0.500000
O O6 0.245763 0.349902 0.771664
O O7 0.229920 0.180280 0.712288
O O8 0.123892 0.268728 0.743017
O O9 0.500000 0.282342 0.250000
O O10 0.425319 0.264626 0.500000
O O11 0.375828 0.349838 0.261450
O O12 0.689180 0.500000 0.250000
O O13 0.677044 0.594912 0.000000
O O14 0.881493 0.107367 0.261979
O O15 0.777555 0.000000 0.250000
O O16 0.815894 0.080093 0.000000
O O17 0.000000 0.193659 0.250000
O O18 0.075874 0.198291 0.000000
#
# Coordination Sequence:
#
# PCOD9392261 Si02
#       6
#     8   8   8   8   8   8
#     4  10  17  29  50  79 113 151 189 225 268 323
#     4   9  20  38  57  82 114 150 192 238 282 336
#     4  11  22  39  61  89 122 153 190 238 289 344
#     4  12  25  43  66  89 112 146 189 235 292 353
#     4   9  18  31  51  79 116 155 197 239 285 337
#     4  10  18  31  52  81 117 157 198 240 287 336
#
# _framework density 18.480454000000002
#
# number of rings (size 3 to 8) (size 9 to 14) (size 15 to 20)
#    1.000    0.833    0.000    8.000    0.000    0.667 
#    0.000    4.167    0.000    2.500    0.000    3.500 
#    0.000    0.000    0.000    0.000    0.000    0.000 
#
# Total GULP energy -267639.553152 kJ/mol
# GULP energy per Si atom -5575.824024 kJ/mol
# Density = 1.843839 g / cm^3
# Si number density = 18.480454 Si / 1000 Ang^3
#
#
#
# Elastic Constant Matrix: (Units=GPa)
#
#
# Indices 1 2 3 4 5 6 
#
# 1 74.7451 38.9515 28.7903 0.0000 0.0000 0.0000
# 2 38.9515 142.6209 64.7144 0.0000 0.0000 0.0000
# 3 28.7903 64.7144 164.9863 0.0000 0.0000 0.0000
# 4 0.0000 0.0000 0.0000 34.0895 0.0000 0.0000
# 5 0.0000 0.0000 0.0000 0.0000 22.9136 0.0000
# 6 0.0000 0.0000 0.0000 0.0000 0.0000 20.0625
#
#
#
# Elastic Compliance Matrix: (Units=1/GPa)
#
#
# Indices 1 2 3 4 5 6 
#
# 1 0.015824 -0.003733 -0.001297 0.000000 0.000000 0.000000
# 2 -0.003733 0.009410 -0.003040 0.000000 0.000000 0.000000
# 3 -0.001297 -0.003040 0.007480 0.000000 0.000000 0.000000
# 4 0.000000 0.000000 0.000000 0.029335 0.000000 0.000000
# 5 0.000000 0.000000 0.000000 0.000000 0.043642 0.000000
# 6 0.000000 0.000000 0.000000 0.000000 0.000000 0.049844
#
#
# Mechanical properties :
#
#
# Convention : Reuss Voigt Hill
#
# Bulk Modulus (GPa) = 60.33448 71.91828 66.12638
# Shear Modulus (GPa) = 28.21679 32.07286 30.14483
#
# Velocity S-wave (km/s) = 3.91173 4.17045 4.04316
# Velocity P-wave (km/s) = 7.28840 7.88610 7.59313
#
# Compressibility (1/GPa) = 0.01657427
#
# Stress axis : x y z
#
# Youngs Moduli (GPa) = 63.19589 106.26488 133.69456
#
# Poissons Ratio (x) = 0.39671 0.17340
# Poissons Ratio (y) = 0.23592 0.40639
# Poissons Ratio (z) = 0.08196 0.32302
#
# Static dielectric constant tensor:
#      x y z
#    x 1.680080 0.000000 0.000000 
#    y 0.000000 1.657350 0.000000 
#    z 0.000000 0.000000 1.606070 
# 
# From -- ./inp_files/5651.got.cif
#   From: 2010.05.17/outbox.cif.g08.bks.cpg/sg49_3_cif.got.tgz:5651.got - 2010.06.03 21:02:19.
