data_PCOD9392392
_publ_section_title
;
Structure prediction by ZEFSAII (Michael W. Deem and Ramdas Pophale) SiO2 
 PCOD9392392
Probable space group: P C C M
;
_chemical_formula_sum "Si O2"
_cell_formula_units_Z 64
_cell_length_a 19.524254
_cell_length_b 24.056748
_cell_length_c 8.702224
_cell_angle_alpha 90.000000
_cell_angle_beta 90.000000
_cell_angle_gamma 90.000000
_cell_volume 4087.348098
_symmetry_space_group_name_H-M "P C C M"
_symmetry_group_IT_number 49
_symmetry_cell_setting 'orthorhombic'
loop_
_space_group_symop_operation_xyz
x,y,z
-x,-y,z
x,-y,1/2-z
-x,y,1/2-z
-x,-y,-z
x,y,-z
-x,y,1/2+z
x,-y,1/2+z
loop_
_atom_site_type_symbol
_atom_site_label
_atom_site_fract_x
_atom_site_fract_y
_atom_site_fract_z
Si Si1 0.300390 0.664872 0.684129
Si Si2 0.657868 0.838705 0.683439
Si Si3 0.217975 0.777113 0.316006
Si Si4 0.927994 0.736951 0.184953
Si Si5 0.073144 0.612012 0.815843
Si Si6 0.574684 0.939009 0.183270
Si Si7 0.789760 0.559806 0.185057
Si Si8 0.575609 0.272738 0.816653
O O1 0.308626 0.664194 0.500000
O O2 0.249986 0.716465 0.721413
O O3 0.264079 0.607824 0.730904
O O4 0.372730 0.679643 0.759269
O O5 0.653672 0.844655 0.500000
O O6 0.734416 0.821823 0.732959
O O7 0.629188 0.893486 0.763474
O O8 0.610136 0.786131 0.730785
O O9 0.223966 0.784596 0.500000
O O10 0.138045 0.773910 0.275575
O O11 0.918273 0.675352 0.255433
O O12 0.000000 0.758367 0.250000
O O13 0.931149 0.731399 0.000000
O O14 0.136377 0.576819 0.752177
O O15 0.000000 0.592334 0.750000
O O16 0.071869 0.611528 0.000000
O O17 0.500000 0.922996 0.250000
O O18 0.590518 0.000000 0.250000
O O19 0.570456 0.941771 0.000000
O O20 0.769934 0.500000 0.250000
O O21 0.793774 0.558854 0.000000
O O22 0.500000 0.277857 0.750000
O O23 0.572730 0.273430 0.000000
#
# Coordination Sequence:
#
# PCOD9392392 Si02
#       8
#     8   8   8   8   8   8   8   8
#     4   9  18  34  52  68  94 123 152 190 237 288
#     4  10  20  32  48  74 103 132 168 208 243 286
#     4   9  17  31  49  69  96 130 162 199 245 291
#     4  10  18  30  47  70  98 130 164 199 242 292
#     4  11  21  33  50  70  94 125 159 197 237 284
#     4  11  21  34  51  71 100 139 178 213 247 286
#     4  11  22  37  53  72  94 121 155 195 239 289
#     4  10  20  32  50  75 100 125 157 194 239 287
#
# _framework density 15.658073999999999
#
# number of rings (size 3 to 8) (size 9 to 14) (size 15 to 20)
#    0.000    1.875    1.250    5.250    0.000    4.750 
#    0.000    1.250    0.000    0.375    0.000    2.625 
#    0.000    0.500    0.000    5.250    0.000    2.875 
#
# Total GULP energy -357265.375278 kJ/mol
# GULP energy per Si atom -5582.271489 kJ/mol
# Density = 1.562244 g / cm^3
# Si number density = 15.658074 Si / 1000 Ang^3
#
#
#
# Elastic Constant Matrix: (Units=GPa)
#
#
# Indices 1 2 3 4 5 6 
#
# 1 114.7232 49.3927 43.3958 0.0000 0.0000 0.0000
# 2 49.3927 77.5029 37.9180 0.0000 0.0000 0.0000
# 3 43.3958 37.9180 76.9753 0.0000 0.0000 0.0000
# 4 0.0000 0.0000 0.0000 267.6546 0.0000 0.0000
# 5 0.0000 0.0000 0.0000 0.0000 25.9555 0.0000
# 6 0.0000 0.0000 0.0000 0.0000 0.0000 24.3127
#
#
#
# Elastic Compliance Matrix: (Units=1/GPa)
#
#
# Indices 1 2 3 4 5 6 
#
# 1 0.013001 -0.006192 -0.004279 0.000000 0.000000 0.000000
# 2 -0.006192 0.019949 -0.006336 0.000000 0.000000 0.000000
# 3 -0.004279 -0.006336 0.018525 0.000000 0.000000 0.000000
# 4 0.000000 0.000000 0.000000 0.003736 0.000000 0.000000
# 5 0.000000 0.000000 0.000000 0.000000 0.038528 0.000000
# 6 0.000000 0.000000 0.000000 0.000000 0.000000 0.041131
#
#
# Mechanical properties :
#
#
# Convention : Reuss Voigt Hill
#
# Bulk Modulus (GPa) = 55.99071 58.95714 57.47393
# Shear Modulus (GPa) = 28.66355 72.81755 50.74055
#
# Velocity S-wave (km/s) = 4.28318 6.82684 5.69875
# Velocity P-wave (km/s) = 7.76511 9.99378 8.94909
#
# Compressibility (1/GPa) = 0.01786010
#
# Stress axis : x y z
#
# Youngs Moduli (GPa) = 76.91531 50.12843 53.98159
#
# Poissons Ratio (x) = 0.31040 0.23101
# Poissons Ratio (y) = 0.47626 0.34202
# Poissons Ratio (z) = 0.32916 0.31761
#
# Static dielectric constant tensor:
#      x y z
#    x 1.521630 0.000000 0.000000 
#    y 0.000000 1.503620 0.000000 
#    z 0.000000 0.000000 1.523580 
# 
# From -- ./inp_files/5304.got.cif
#   From: 2010.05.17/outbox.cif.g08.bks.cpg/sg49_3_cif.got.tgz:5304.got - 2010.06.03 21:02:19.
