data_PCOD9392215
_publ_section_title
;
Structure prediction by ZEFSAII (Michael W. Deem and Ramdas Pophale) SiO2 
 PCOD9392215
Probable space group: P C C M
;
_chemical_formula_sum "Si O2"
_cell_formula_units_Z 58
_cell_length_a 25.858560
_cell_length_b 14.915969
_cell_length_c 8.764785
_cell_angle_alpha 90.000000
_cell_angle_beta 90.000000
_cell_angle_gamma 90.000000
_cell_volume 3380.625600
_symmetry_space_group_name_H-M "P C C M"
_symmetry_group_IT_number 49
_symmetry_cell_setting 'orthorhombic'
loop_
_space_group_symop_operation_xyz
x,y,z
-x,-y,z
x,-y,1/2-z
-x,y,1/2-z
-x,-y,-z
x,y,-z
-x,y,1/2+z
x,-y,1/2+z
loop_
_atom_site_type_symbol
_atom_site_label
_atom_site_fract_x
_atom_site_fract_y
_atom_site_fract_z
Si Si1 0.752287 0.221356 0.817212
Si Si2 0.000000 0.500000 0.750000
Si Si3 0.836472 0.905913 0.816527
Si Si4 0.338740 0.899019 0.683209
Si Si5 0.917923 0.649500 0.673692
Si Si6 0.552753 0.898654 0.683562
Si Si7 0.802264 0.404492 0.816630
Si Si8 0.052891 0.836122 0.319815
O O1 0.804043 0.171138 0.764140
O O2 0.706147 0.168457 0.735044
O O3 0.762986 0.324730 0.774882
O O4 0.745842 0.214888 0.000000
O O5 0.959553 0.568951 0.672367
O O6 0.896262 0.890844 0.775446
O O7 0.817888 0.000000 0.750000
O O8 0.830431 0.902447 0.000000
O O9 0.341729 0.905723 0.500000
O O10 0.392953 0.863179 0.752576
O O11 0.329753 0.000000 0.750000
O O12 0.911056 0.681332 0.500000
O O13 0.861543 0.618176 0.732175
O O14 0.938274 0.733194 0.769498
O O15 0.500000 0.856402 0.750000
O O16 0.551849 0.900152 0.500000
O O17 0.552900 0.000000 0.750000
O O18 0.787426 0.500000 0.750000
O O19 0.803610 0.409664 0.000000
O O20 0.048466 0.838323 0.500000
O O21 0.000000 0.870653 0.250000
#
# Coordination Sequence:
#
# PCOD9392215 Si02
#       8
#     8   2   8   8   8   8   8   8
#     4  11  22  38  57  79 107 142 178 222 269 318
#     4  12  22  32  56  86 108 128 162 204 260 324
#     4  11  24  40  58  80 102 133 170 213 261 315
#     4  11  21  34  52  78 111 150 192 236 276 321
#     4  11  22  36  53  78 105 131 159 198 251 312
#     4  10  17  28  46  72 108 151 194 235 275 321
#     4  10  22  38  57  79 105 136 170 210 262 320
#     4  11  24  39  57  77 100 127 161 203 253 309
#
# _framework density 17.156589
#
# number of rings (size 3 to 8) (size 9 to 14) (size 15 to 20)
#    0.000    1.241    2.759    5.586    0.000    4.138 
#    0.000    1.379    0.000    0.000    0.000    0.000 
#    0.000    0.552    0.000    5.793    0.000    3.172 
#
# Total GULP energy -323776.640219 kJ/mol
# GULP energy per Si atom -5582.355866 kJ/mol
# Density = 1.711754 g / cm^3
# Si number density = 17.156589 Si / 1000 Ang^3
#
#
#
# Elastic Constant Matrix: (Units=GPa)
#
#
# Indices 1 2 3 4 5 6 
#
# 1 111.6151 34.3551 48.9387 0.0000 0.0000 0.0000
# 2 34.3551 75.7264 22.0902 0.0000 0.0000 0.0000
# 3 48.9387 22.0902 79.2080 0.0000 0.0000 0.0000
# 4 0.0000 0.0000 0.0000 14.4794 0.0000 0.0000
# 5 0.0000 0.0000 0.0000 0.0000 32.0389 0.0000
# 6 0.0000 0.0000 0.0000 0.0000 0.0000 -0.4691
#
#
#
# Elastic Compliance Matrix: (Units=1/GPa)
#
#
# Indices 1 2 3 4 5 6 
#
# 1 0.013295 -0.003957 -0.007111 0.000000 0.000000 0.000000
# 2 -0.003957 0.015553 -0.001892 0.000000 0.000000 0.000000
# 3 -0.007111 -0.001892 0.017546 0.000000 0.000000 0.000000
# 4 0.000000 0.000000 0.000000 0.069064 0.000000 0.000000
# 5 0.000000 0.000000 0.000000 0.000000 0.031212 0.000000
# 6 0.000000 0.000000 0.000000 0.000000 0.000000 -2.131746
#
#
# Mechanical properties :
#
#
# Convention : Reuss Voigt Hill
#
# Bulk Modulus (GPa) = 48.84482 53.03528 50.94005
# Shear Modulus (GPa) = -2.56104 19.95421 8.69659
#
# Velocity S-wave (km/s) = -1.22310 3.41407 2.25387
# Velocity P-wave (km/s) = 5.15142 6.82061 6.04392
#
# Compressibility (1/GPa) = 0.02047300
#
# Stress axis : x y z
#
# Youngs Moduli (GPa) = 75.21491 64.29690 56.99250
#
# Poissons Ratio (x) = 0.25445 0.40526
# Poissons Ratio (y) = 0.29766 0.10785
# Poissons Ratio (z) = 0.53484 0.12168
#
# Static dielectric constant tensor:
#      x y z
#    x 1.654280 0.000000 0.000000 
#    y 0.000000 1.581140 0.000000 
#    z 0.000000 0.000000 1.585850 
# 
# From -- ./inp_files/6446.got.cif
#   From: 2010.05.17/outbox.cif.g08.bks.cpg/sg49_4_cif.got.tgz:6446.got - 2010.06.03 21:02:19.
