data_PCOD9392930
_publ_section_title
;
Structure prediction by ZEFSAII (Michael W. Deem and Ramdas Pophale) SiO2 
 PCOD9392930
Probable space group: P C C M
;
_chemical_formula_sum "Si O2"
_cell_formula_units_Z 64
_cell_length_a 29.192995
_cell_length_b 14.470177
_cell_length_c 8.962560
_cell_angle_alpha 90.000000
_cell_angle_beta 90.000000
_cell_angle_gamma 90.000000
_cell_volume 3786.034546
_symmetry_space_group_name_H-M "P C C M"
_symmetry_group_IT_number 49
_symmetry_cell_setting 'orthorhombic'
loop_
_space_group_symop_operation_xyz
x,y,z
-x,-y,z
x,-y,1/2-z
-x,y,1/2-z
-x,-y,-z
x,y,-z
-x,y,1/2+z
x,-y,1/2+z
loop_
_atom_site_type_symbol
_atom_site_label
_atom_site_fract_x
_atom_site_fract_y
_atom_site_fract_z
Si Si1 0.146359 0.398588 0.320905
Si Si2 0.329705 0.642782 0.331336
Si Si3 0.360922 0.856973 0.330767
Si Si4 0.578118 0.591915 0.676788
Si Si5 0.238950 0.702317 0.179750
Si Si6 0.268286 0.908462 0.822552
Si Si7 0.547927 0.200128 0.820901
Si Si8 0.045315 0.397136 0.678954
O O1 0.150549 0.500000 0.250000
O O2 0.147791 0.409143 0.500000
O O3 0.189455 0.336452 0.276438
O O4 0.095834 0.358068 0.285590
O O5 0.329001 0.604971 0.500000
O O6 0.345415 0.749769 0.340349
O O7 0.369291 0.598406 0.231868
O O8 0.279785 0.645061 0.257255
O O9 0.363490 0.893502 0.500000
O O10 0.320375 0.901599 0.236200
O O11 0.409648 0.855677 0.249122
O O12 0.557518 0.500000 0.750000
O O13 0.576286 0.582980 0.500000
O O14 0.555732 0.690651 0.717635
O O15 0.245075 0.810603 0.218690
O O16 0.244262 0.694962 0.000000
O O17 0.247144 0.000000 0.750000
O O18 0.267876 0.916730 0.000000
O O19 0.500000 0.170837 0.750000
O O20 0.547948 0.192355 0.000000
O O21 0.047041 0.500000 0.750000
O O22 0.040116 0.402940 0.500000
O O23 0.000000 0.351928 0.750000
#
# Coordination Sequence:
#
# PCOD9392930 Si02
#       8
#     8   8   8   8   8   8   8   8
#     4   9  18  30  43  62  90 126 164 198 234 277
#     4   9  17  29  45  63  83 110 144 181 221 264
#     4   9  17  31  50  70  91 114 143 177 213 260
#     4  10  20  32  45  61  83 112 148 188 227 269
#     4   9  18  32  47  65  94 128 158 190 231 279
#     4  10  19  32  52  75  98 124 154 189 230 276
#     4  10  20  33  49  68  89 115 146 181 225 273
#     4   9  15  24  39  58  82 114 155 199 239 277
#
# _framework density 16.904230999999999
#
# number of rings (size 3 to 8) (size 9 to 14) (size 15 to 20)
#    0.000    2.625    0.000    2.625    0.000    6.750 
#    0.000    2.500    0.000    0.375    0.000    2.625 
#    0.000    0.500    0.000    6.250    0.000    0.000 
#
# Total GULP energy -356725.656677 kJ/mol
# GULP energy per Si atom -5573.838386 kJ/mol
# Density = 1.686576 g / cm^3
# Si number density = 16.904231 Si / 1000 Ang^3
#
#
#
# Elastic Constant Matrix: (Units=GPa)
#
#
# Indices 1 2 3 4 5 6 
#
# 1 142.7964 20.9383 33.2609 0.0000 0.0000 0.0000
# 2 20.9383 38.6765 12.1204 0.0000 0.0000 0.0000
# 3 33.2609 12.1204 45.4583 0.0000 0.0000 0.0000
# 4 0.0000 0.0000 0.0000 18.6766 0.0000 0.0000
# 5 0.0000 0.0000 0.0000 0.0000 18.9479 0.0000
# 6 0.0000 0.0000 0.0000 0.0000 0.0000 7.7562
#
#
#
# Elastic Compliance Matrix: (Units=1/GPa)
#
#
# Indices 1 2 3 4 5 6 
#
# 1 0.008745 -0.002978 -0.005605 0.000000 0.000000 0.000000
# 2 -0.002978 0.029227 -0.005614 0.000000 0.000000 0.000000
# 3 -0.005605 -0.005614 0.027596 0.000000 0.000000 0.000000
# 4 0.000000 0.000000 0.000000 0.053543 0.000000 0.000000
# 5 0.000000 0.000000 0.000000 0.000000 0.052776 0.000000
# 6 0.000000 0.000000 0.000000 0.000000 0.000000 0.128929
#
#
# Mechanical properties :
#
#
# Convention : Reuss Voigt Hill
#
# Bulk Modulus (GPa) = 26.89977 39.95227 33.42602
# Shear Modulus (GPa) = 14.63700 19.78358 17.21029
#
# Velocity S-wave (km/s) = 2.94577 3.42472 3.19424
# Velocity P-wave (km/s) = 5.24573 6.27089 5.78108
#
# Compressibility (1/GPa) = 0.03717504
#
# Stress axis : x y z
#
# Youngs Moduli (GPa) = 114.34993 34.21508 36.23744
#
# Poissons Ratio (x) = 0.10189 0.20310
# Poissons Ratio (y) = 0.34053 0.20343
# Poissons Ratio (z) = 0.64089 0.19208
#
# Static dielectric constant tensor:
#      x y z
#    x 1.584680 0.000000 0.000000 
#    y 0.000000 1.596390 0.000000 
#    z 0.000000 0.000000 1.574800 
# 
# From -- ./inp_files/7065.got.cif
#   From: 2010.05.17/outbox.cif.g08.bks.cpg/sg49_4_cif.got.tgz:7065.got - 2010.06.03 21:02:19.
