data_PCOD9392187
_publ_section_title
;
Structure prediction by ZEFSAII (Michael W. Deem and Ramdas Pophale) SiO2 
 PCOD9392187
Probable space group: P C C M
;
_chemical_formula_sum "Si O2"
_cell_formula_units_Z 64
_cell_length_a 23.254032
_cell_length_b 18.168058
_cell_length_c 8.800689
_cell_angle_alpha 90.000000
_cell_angle_beta 90.000000
_cell_angle_gamma 90.000000
_cell_volume 3718.120388
_symmetry_space_group_name_H-M "P C C M"
_symmetry_group_IT_number 49
_symmetry_cell_setting 'orthorhombic'
loop_
_space_group_symop_operation_xyz
x,y,z
-x,-y,z
x,-y,1/2-z
-x,y,1/2-z
-x,-y,-z
x,y,-z
-x,y,1/2+z
x,-y,1/2+z
loop_
_atom_site_type_symbol
_atom_site_label
_atom_site_fract_x
_atom_site_fract_y
_atom_site_fract_z
Si Si1 0.157182 0.419701 0.317926
Si Si2 0.668623 0.203991 0.180557
Si Si3 0.762114 0.919423 0.681594
Si Si4 0.244727 0.686783 0.326418
Si Si5 0.563543 0.728431 0.181255
Si Si6 0.062886 0.704495 0.818746
Si Si7 0.147537 0.814505 0.326932
Si Si8 0.435028 0.574421 0.182800
O O1 0.147301 0.500000 0.250000
O O2 0.162017 0.422649 0.500000
O O3 0.214771 0.383767 0.247788
O O4 0.104562 0.364379 0.279539
O O5 0.708473 0.134086 0.221907
O O6 0.705792 0.275452 0.228106
O O7 0.608706 0.209564 0.268982
O O8 0.658879 0.203649 0.000000
O O9 0.764910 0.922706 0.500000
O O10 0.819945 0.880760 0.743712
O O11 0.755046 0.000000 0.750000
O O12 0.263578 0.673247 0.500000
O O13 0.194710 0.748822 0.330355
O O14 0.500000 0.741113 0.250000
O O15 0.587028 0.652009 0.254327
O O16 0.559680 0.721018 0.000000
O O17 0.093392 0.778167 0.756155
O O18 0.000000 0.694931 0.750000
O O19 0.059658 0.708436 0.000000
O O20 0.133454 0.834390 0.500000
O O21 0.407210 0.500000 0.250000
O O22 0.500000 0.574221 0.250000
O O23 0.435933 0.572743 0.000000
#
# Coordination Sequence:
#
# PCOD9392187 Si02
#       8
#     8   8   8   8   8   8   8   8
#     4  10  20  33  49  70  99 136 176 222 270 315
#     4  10  20  35  54  78 106 135 167 207 252 303
#     4  10  20  34  56  84 112 137 166 205 252 303
#     4   9  17  31  51  73  96 127 166 209 257 307
#     4  11  21  34  52  75 103 138 177 215 257 307
#     4  10  20  33  50  73 102 138 181 222 263 308
#     4   9  17  31  52  76 103 133 168 208 252 300
#     4  10  17  28  45  66  92 123 161 204 247 289
#
# _framework density 17.212997999999999
#
# number of rings (size 3 to 8) (size 9 to 14) (size 15 to 20)
#    0.000    2.125    0.000    5.625    0.000    6.250 
#    0.000    1.875    0.000    0.750    0.000    5.250 
#    0.000    0.000    0.000    0.000    0.000    0.000 
#
# Total GULP energy -356948.275893 kJ/mol
# GULP energy per Si atom -5577.316811 kJ/mol
# Density = 1.717382 g / cm^3
# Si number density = 17.212998 Si / 1000 Ang^3
#
#
#
# Elastic Constant Matrix: (Units=GPa)
#
#
# Indices 1 2 3 4 5 6 
#
# 1 69.7052 56.1602 38.4924 0.0000 0.0000 0.0000
# 2 56.1602 115.1044 58.9253 0.0000 0.0000 0.0000
# 3 38.4924 58.9253 110.7683 0.0000 0.0000 0.0000
# 4 0.0000 0.0000 0.0000 -24.2567 0.0000 0.0000
# 5 0.0000 0.0000 0.0000 0.0000 27.3232 0.0000
# 6 0.0000 0.0000 0.0000 0.0000 0.0000 17.1300
#
#
#
# Elastic Compliance Matrix: (Units=1/GPa)
#
#
# Indices 1 2 3 4 5 6 
#
# 1 0.024315 -0.010359 -0.002939 0.000000 0.000000 0.000000
# 2 -0.010359 0.016352 -0.005099 0.000000 0.000000 0.000000
# 3 -0.002939 -0.005099 0.012762 0.000000 0.000000 0.000000
# 4 0.000000 0.000000 0.000000 -0.041226 0.000000 0.000000
# 5 0.000000 0.000000 0.000000 0.000000 0.036599 0.000000
# 6 0.000000 0.000000 0.000000 0.000000 0.000000 0.058377
#
#
# Mechanical properties :
#
#
# Convention : Reuss Voigt Hill
#
# Bulk Modulus (GPa) = 60.11400 66.97042 63.54221
# Shear Modulus (GPa) = 33.44062 13.50597 23.47329
#
# Velocity S-wave (km/s) = 4.41245 2.80418 3.69683
# Velocity P-wave (km/s) = 7.80763 7.03391 7.43085
#
# Compressibility (1/GPa) = 0.01663506
#
# Stress axis : x y z
#
# Youngs Moduli (GPa) = 41.12670 61.15308 78.35909
#
# Poissons Ratio (x) = 0.63348 0.23029
# Poissons Ratio (y) = 0.42603 0.39957
# Poissons Ratio (z) = 0.12087 0.31183
#
# Static dielectric constant tensor:
#      x y z
#    x 1.590730 0.000000 0.000000 
#    y 0.000000 1.591080 0.000000 
#    z 0.000000 0.000000 1.579950 
# 
# From -- ./inp_files/5953.got.cif
#   From: 2010.05.17/outbox.cif.g08.bks.cpg/sg49_3_cif.got.tgz:5953.got - 2010.06.03 21:02:19.
