data_PCOD9392747
_publ_section_title
;
Structure prediction by ZEFSAII (Michael W. Deem and Ramdas Pophale) SiO2 
 PCOD9392747
Probable space group: P C C M
;
_chemical_formula_sum "Si O2"
_cell_formula_units_Z 56
_cell_length_a 31.455203
_cell_length_b 5.301161
_cell_length_c 13.827795
_cell_angle_alpha 90.000000
_cell_angle_beta 90.000000
_cell_angle_gamma 90.000000
_cell_volume 2305.772307
_symmetry_space_group_name_H-M "P C C M"
_symmetry_group_IT_number 49
_symmetry_cell_setting 'orthorhombic'
loop_
_space_group_symop_operation_xyz
x,y,z
-x,-y,z
x,-y,1/2-z
-x,y,1/2-z
-x,-y,-z
x,y,-z
-x,y,1/2+z
x,-y,1/2+z
loop_
_atom_site_type_symbol
_atom_site_label
_atom_site_fract_x
_atom_site_fract_y
_atom_site_fract_z
Si Si1 0.756008 0.376830 0.382104
Si Si2 0.382792 0.318021 0.382911
Si Si3 0.518939 0.750883 0.357206
Si Si4 0.954101 0.390616 0.383093
Si Si5 0.663728 0.815373 0.881785
Si Si6 0.193717 0.875655 0.117706
Si Si7 0.095935 0.109845 0.382394
O O1 0.753587 0.392617 0.500000
O O2 0.709076 0.294770 0.349103
O O3 0.776975 0.640498 0.350134
O O4 0.785991 0.142859 0.357422
O O5 0.381828 0.317882 0.500000
O O6 0.430443 0.250726 0.353869
O O7 0.370204 0.601174 0.353342
O O8 0.350068 0.097148 0.351890
O O9 0.500000 0.500000 0.402159
O O10 0.500000 0.750385 0.250000
O O11 0.500000 0.000000 0.402620
O O12 0.956800 0.366429 0.500000
O O13 0.923026 0.618904 0.358573
O O14 0.000000 0.500000 0.353204
O O15 0.933873 0.124594 0.349696
O O16 0.665314 0.823797 0.000000
O O17 0.144815 0.883108 0.149306
O O18 0.193061 0.858978 0.000000
O O19 0.096320 0.091124 0.500000
#
# Coordination Sequence:
#
# PCOD9392747 Si02
#       7
#     8   8   8   8   8   8   8
#     4   9  15  23  34  48  68  92 115 140 178 227
#     4  10  19  31  48  69  91 115 144 177 211 247
#     4  10  21  36  52  70  93 120 148 178 213 252
#     4   9  15  21  27  33  43  62  89 127 177 226
#     4   9  17  28  42  62  86 109 134 166 202 243
#     4   9  15  21  30  43  59  82 109 138 175 224
#     4   9  15  21  27  36  49  65  93 131 169 218
#
# _framework density 24.286871000000001
#
# number of rings (size 3 to 8) (size 9 to 14) (size 15 to 20)
#    0.000    2.714    0.000    3.000    0.000    9.143 
#    0.000    0.000    0.000    0.000    0.000    0.000 
#    0.000    0.000    0.000    0.000    0.000    0.000 
#
# Total GULP energy -313212.789478 kJ/mol
# GULP energy per Si atom -5593.085526 kJ/mol
# Density = 2.423159 g / cm^3
# Si number density = 24.286871 Si / 1000 Ang^3
#
#
#
# Elastic Constant Matrix: (Units=GPa)
#
#
# Indices 1 2 3 4 5 6 
#
# 1 140.8067 52.4200 -7.9037 0.0000 0.0000 0.0000
# 2 52.4200 179.5268 9.6282 0.0000 0.0000 0.0000
# 3 -7.9037 9.6282 86.1413 0.0000 0.0000 0.0000
# 4 0.0000 0.0000 0.0000 -16.5123 0.0000 0.0000
# 5 0.0000 0.0000 0.0000 0.0000 -22.4724 0.0000
# 6 0.0000 0.0000 0.0000 0.0000 0.0000 35.2589
#
#
#
# Elastic Compliance Matrix: (Units=1/GPa)
#
#
# Indices 1 2 3 4 5 6 
#
# 1 0.008054 -0.002406 0.001008 0.000000 0.000000 0.000000
# 2 -0.002406 0.006322 -0.000927 0.000000 0.000000 0.000000
# 3 0.001008 -0.000927 0.011805 0.000000 0.000000 0.000000
# 4 0.000000 0.000000 0.000000 -0.060561 0.000000 0.000000
# 5 0.000000 0.000000 0.000000 0.000000 -0.044499 0.000000
# 6 0.000000 0.000000 0.000000 0.000000 0.000000 0.028362
#
#
# Mechanical properties :
#
#
# Convention : Reuss Voigt Hill
#
# Bulk Modulus (GPa) = 46.44487 57.19599 51.82043
# Shear Modulus (GPa) = -129.23449 22.74353 -53.24548
#
# Velocity S-wave (km/s) = -7.30255 3.06347 -4.68734
# Velocity P-wave (km/s) = 7.20680 6.00953 2.81278
#
# Compressibility (1/GPa) = 0.02153091
#
# Stress axis : x y z
#
# Youngs Moduli (GPa) = 124.15976 158.16783 84.71012
#
# Poissons Ratio (x) = 0.38052 -0.08538
# Poissons Ratio (y) = 0.29870 0.07856
# Poissons Ratio (z) = -0.12514 0.14669
#
# Static dielectric constant tensor:
#      x y z
#    x 1.888520 0.000000 0.000000 
#    y 0.000000 1.855670 0.000000 
#    z 0.000000 0.000000 1.991350 
# 
# From -- ./inp_files/19097.got.cif
#   From: 2010.05.17/outbox.cif.g08.bks.cpg/sg49_10_cif.got.tgz:19097.got - 2010.06.03 21:02:19.
