data_PCOD9392306
_publ_section_title
;
Structure prediction by ZEFSAII (Michael W. Deem and Ramdas Pophale) SiO2 
 PCOD9392306
Probable space group: P C C M
;
_chemical_formula_sum "Si O2"
_cell_formula_units_Z 64
_cell_length_a 27.223235
_cell_length_b 18.799627
_cell_length_c 8.921973
_cell_angle_alpha 90.000000
_cell_angle_beta 90.000000
_cell_angle_gamma 90.000000
_cell_volume 4566.146796
_symmetry_space_group_name_H-M "P C C M"
_symmetry_group_IT_number 49
_symmetry_cell_setting 'orthorhombic'
loop_
_space_group_symop_operation_xyz
x,y,z
-x,-y,z
x,-y,1/2-z
-x,y,1/2-z
-x,-y,-z
x,y,-z
-x,y,1/2+z
x,-y,1/2+z
loop_
_atom_site_type_symbol
_atom_site_label
_atom_site_fract_x
_atom_site_fract_y
_atom_site_fract_z
Si Si1 0.743790 0.157808 0.819714
Si Si2 0.349743 0.922648 0.318806
Si Si3 0.550536 0.346242 0.177554
Si Si4 0.842898 0.078260 0.179738
Si Si5 0.298784 0.707894 0.327600
Si Si6 0.347698 0.422817 0.320069
Si Si7 0.951226 0.079365 0.820280
Si Si8 0.405264 0.785651 0.671094
O O1 0.700951 0.109145 0.747670
O O2 0.796742 0.126318 0.776962
O O3 0.736179 0.237394 0.758630
O O4 0.738600 0.156572 0.000000
O O5 0.346183 0.925043 0.500000
O O6 0.392772 0.865898 0.280328
O O7 0.358255 0.000000 0.250000
O O8 0.500000 0.371415 0.250000
O O9 0.597953 0.393058 0.222200
O O10 0.561445 0.265318 0.229300
O O11 0.546412 0.348704 0.000000
O O12 0.897052 0.109127 0.216442
O O13 0.837935 0.000000 0.250000
O O14 0.841592 0.069922 0.000000
O O15 0.283830 0.697637 0.500000
O O16 0.309008 0.634028 0.244614
O O17 0.351671 0.747991 0.329478
O O18 0.340621 0.500000 0.250000
O O19 0.344938 0.424916 0.500000
O O20 0.000000 0.114078 0.750000
O O21 0.949505 0.000000 0.750000
O O22 0.956550 0.075191 0.000000
O O23 0.423755 0.785703 0.500000
#
# Coordination Sequence:
#
# PCOD9392306 Si02
#       8
#     8   8   8   8   8   8   8   8
#     4  10  18  28  41  58  81 108 136 168 205 247
#     4  10  19  29  42  61  82 105 131 165 205 244
#     4  10  20  32  48  67  86 108 133 159 192 230
#     4   9  18  27  36  52  76 104 136 176 218 254
#     4   9  17  30  46  63  83 108 135 164 195 234
#     4  10  20  33  49  69  90 113 137 162 190 225
#     4   9  15  24  35  48  66  93 131 173 215 255
#     4   8  16  30  45  60  80 104 131 160 193 233
#
# _framework density 14.016195
#
# number of rings (size 3 to 8) (size 9 to 14) (size 15 to 20)
#    0.000    2.625    0.000    3.750    0.000    7.750 
#    0.000    1.250    0.000    0.375    0.000    2.625 
#    0.000    0.000    0.000    0.000    0.000    0.625 
#
# Total GULP energy -356483.498141 kJ/mol
# GULP energy per Si atom -5570.054658 kJ/mol
# Density = 1.398429 g / cm^3
# Si number density = 14.016195 Si / 1000 Ang^3
#
#
#
# Elastic Constant Matrix: (Units=GPa)
#
#
# Indices 1 2 3 4 5 6 
#
# 1 44.7906 24.3485 18.0404 0.0000 0.0000 0.0000
# 2 24.3485 98.0895 29.7412 0.0000 0.0000 0.0000
# 3 18.0404 29.7412 45.1223 0.0000 0.0000 0.0000
# 4 0.0000 0.0000 0.0000 22.1756 0.0000 0.0000
# 5 0.0000 0.0000 0.0000 0.0000 30.8694 0.0000
# 6 0.0000 0.0000 0.0000 0.0000 0.0000 10.0984
#
#
#
# Elastic Compliance Matrix: (Units=1/GPa)
#
#
# Indices 1 2 3 4 5 6 
#
# 1 0.028089 -0.004458 -0.008292 0.000000 0.000000 0.000000
# 2 -0.004458 0.013449 -0.007082 0.000000 0.000000 0.000000
# 3 -0.008292 -0.007082 0.030145 0.000000 0.000000 0.000000
# 4 0.000000 0.000000 0.000000 0.045095 0.000000 0.000000
# 5 0.000000 0.000000 0.000000 0.000000 0.032395 0.000000
# 6 0.000000 0.000000 0.000000 0.000000 0.000000 0.099026
#
#
# Mechanical properties :
#
#
# Convention : Reuss Voigt Hill
#
# Bulk Modulus (GPa) = 31.23151 36.91807 34.07479
# Shear Modulus (GPa) = 16.74844 20.35351 18.55098
#
# Velocity S-wave (km/s) = 3.46053 3.81483 3.64199
# Velocity P-wave (km/s) = 6.18853 6.76762 6.48454
#
# Compressibility (1/GPa) = 0.03201895
#
# Stress axis : x y z
#
# Youngs Moduli (GPa) = 35.60050 74.35649 33.17301
#
# Poissons Ratio (x) = 0.33152 0.27507
# Poissons Ratio (y) = 0.15872 0.23493
# Poissons Ratio (z) = 0.29519 0.52658
#
# Static dielectric constant tensor:
#      x y z
#    x 1.476860 0.000000 0.000000 
#    y 0.000000 1.448130 0.000000 
#    z 0.000000 0.000000 1.470910 
# 
# From -- ./inp_files/6785.got.cif
#   From: 2010.05.17/outbox.cif.g08.bks.cpg/sg49_4_cif.got.tgz:6785.got - 2010.06.03 21:02:19.
