data_PCOD9392368
_publ_section_title
;
Structure prediction by ZEFSAII (Michael W. Deem and Ramdas Pophale) SiO2 
 PCOD9392368
Probable space group: P C C M
;
_chemical_formula_sum "Si O2"
_cell_formula_units_Z 64
_cell_length_a 11.885160
_cell_length_b 15.489096
_cell_length_c 14.510760
_cell_angle_alpha 90.000000
_cell_angle_beta 90.000000
_cell_angle_gamma 90.000000
_cell_volume 2671.291384
_symmetry_space_group_name_H-M "P C C M"
_symmetry_group_IT_number 49
_symmetry_cell_setting 'orthorhombic'
loop_
_space_group_symop_operation_xyz
x,y,z
-x,-y,z
x,-y,1/2-z
-x,y,1/2-z
-x,-y,-z
x,y,-z
-x,y,1/2+z
x,-y,1/2+z
loop_
_atom_site_type_symbol
_atom_site_label
_atom_site_fract_x
_atom_site_fract_y
_atom_site_fract_z
Si Si1 0.939972 0.345059 0.887303
Si Si2 0.869021 0.006724 0.887357
Si Si3 0.713269 0.849303 0.107222
Si Si4 0.199240 0.667893 0.387036
Si Si5 0.536218 0.407853 0.856079
Si Si6 0.231034 0.478918 0.611051
Si Si7 0.484322 0.780305 0.141488
Si Si8 0.221270 0.809257 0.889917
O O1 0.885150 0.435739 0.858868
O O2 0.857828 0.268290 0.855502
O O3 0.068365 0.332780 0.860250
O O4 0.940541 0.345012 0.000000
O O5 0.821603 0.098517 0.855842
O O6 0.786369 0.929115 0.856414
O O7 0.867132 0.006326 0.000000
O O8 0.000000 0.000000 0.860682
O O9 0.745790 0.755951 0.148655
O O10 0.577600 0.849346 0.110165
O O11 0.745349 0.844761 0.000000
O O12 0.206082 0.667681 0.500000
O O13 0.250262 0.576380 0.354977
O O14 0.500000 0.500000 0.897962
O O15 0.500000 0.409285 0.750000
O O16 0.670284 0.413756 0.862661
O O17 0.494497 0.317086 0.896544
O O18 0.229529 0.483092 0.500000
O O19 0.500000 0.775075 0.250000
O O20 0.354568 0.801135 0.124188
O O21 0.204790 0.808320 0.000000
#
# Coordination Sequence:
#
# PCOD9392368 Si02
#       8
#     8   8   8   8   8   8   8   8
#     4   9  16  28  49  79 112 141 172 216 273 328
#     4   9  18  34  59  89 114 139 177 225 277 329
#     4  10  20  35  56  82 111 142 181 225 269 325
#     4   9  17  29  49  80 114 143 173 221 277 324
#     4  10  21  36  52  73 101 151 191 224 267 319
#     4  10  18  29  49  81 112 138 179 227 272 325
#     4  11  23  38  55  78 109 149 187 229 277 322
#     4  10  19  34  58  84 112 146 183 226 271 328
#
# _framework density 23.958449999999999
#
# number of rings (size 3 to 8) (size 9 to 14) (size 15 to 20)
#    0.000    2.250    1.250    2.250    0.000    5.750 
#    0.000    3.125    0.000    3.750    0.000    3.500 
#    0.000    0.000    0.000    0.000    0.000    0.500 
#
# Total GULP energy -357776.923731 kJ/mol
# GULP energy per Si atom -5590.264433 kJ/mol
# Density = 2.390392 g / cm^3
# Si number density = 23.958450 Si / 1000 Ang^3
#
#
#
# Elastic Constant Matrix: (Units=GPa)
#
#
# Indices 1 2 3 4 5 6 
#
# 1 103.6010 50.5319 -14.5174 0.0000 0.0000 0.0000
# 2 50.5319 144.2763 5.4314 0.0000 0.0000 0.0000
# 3 -14.5174 5.4314 69.2854 0.0000 0.0000 0.0000
# 4 0.0000 0.0000 0.0000 -4.1434 0.0000 0.0000
# 5 0.0000 0.0000 0.0000 0.0000 125.6036 0.0000
# 6 0.0000 0.0000 0.0000 0.0000 0.0000 44.4549
#
#
#
# Elastic Compliance Matrix: (Units=1/GPa)
#
#
# Indices 1 2 3 4 5 6 
#
# 1 0.012195 -0.004380 0.002899 0.000000 0.000000 0.000000
# 2 -0.004380 0.008525 -0.001586 0.000000 0.000000 0.000000
# 3 0.002899 -0.001586 0.015165 0.000000 0.000000 0.000000
# 4 0.000000 0.000000 0.000000 -0.241348 0.000000 0.000000
# 5 0.000000 0.000000 0.000000 0.000000 0.007962 0.000000
# 6 0.000000 0.000000 0.000000 0.000000 0.000000 0.022495
#
#
# Mechanical properties :
#
#
# Convention : Reuss Voigt Hill
#
# Bulk Modulus (GPa) = 33.61433 44.45051 39.03242
# Shear Modulus (GPa) = -31.45562 51.56413 10.05426
#
# Velocity S-wave (km/s) = -3.62736 4.64425 2.05077
# Velocity P-wave (km/s) = 1.86626 6.88129 4.68344
#
# Compressibility (1/GPa) = 0.02974922
#
# Stress axis : x y z
#
# Youngs Moduli (GPa) = 81.99969 117.30110 65.94237
#
# Poissons Ratio (x) = 0.51383 -0.19114
# Poissons Ratio (y) = 0.35919 0.10459
# Poissons Ratio (z) = -0.23769 0.18605
#
# Static dielectric constant tensor:
#      x y z
#    x 1.912450 0.000000 0.000000 
#    y 0.000000 1.915980 0.000000 
#    z 0.000000 0.000000 1.935200 
# 
# From -- ./inp_files/17350.got.cif
#   From: 2010.05.17/outbox.cif.g08.bks.cpg/sg49_9_cif.got.tgz:17350.got - 2010.06.03 21:02:19.
