data_PCOD9392249
_publ_section_title
;
Structure prediction by ZEFSAII (Michael W. Deem and Ramdas Pophale) SiO2 
 PCOD9392249
Probable space group: P C C M
;
_chemical_formula_sum "Si O2"
_cell_formula_units_Z 64
_cell_length_a 14.918581
_cell_length_b 25.871535
_cell_length_c 8.668874
_cell_angle_alpha 90.000000
_cell_angle_beta 90.000000
_cell_angle_gamma 90.000000
_cell_volume 3345.895741
_symmetry_space_group_name_H-M "P C C M"
_symmetry_group_IT_number 49
_symmetry_cell_setting 'orthorhombic'
loop_
_space_group_symop_operation_xyz
x,y,z
-x,-y,z
x,-y,1/2-z
-x,y,1/2-z
-x,-y,-z
x,y,-z
-x,y,1/2+z
x,-y,1/2+z
loop_
_atom_site_type_symbol
_atom_site_label
_atom_site_fract_x
_atom_site_fract_y
_atom_site_fract_z
Si Si1 0.904417 0.405577 0.315298
Si Si2 0.287718 0.750378 0.687065
Si Si3 0.281176 0.554606 0.815469
Si Si4 0.905461 0.716205 0.815008
Si Si5 0.277917 0.057711 0.814671
Si Si6 0.399494 0.653699 0.814643
Si Si7 0.908566 0.058845 0.184514
Si Si8 0.401199 0.150581 0.814380
O O1 0.904415 0.409694 0.500000
O O2 0.818454 0.434194 0.247638
O O3 0.895978 0.344596 0.272571
O O4 0.000000 0.423928 0.250000
O O5 0.288609 0.747975 0.500000
O O6 0.184325 0.745132 0.737456
O O7 0.344242 0.702286 0.750288
O O8 0.335778 0.803140 0.735659
O O9 0.313125 0.500000 0.750000
O O10 0.346068 0.601712 0.769287
O O11 0.277857 0.552612 0.000000
O O12 0.000000 0.735314 0.750000
O O13 0.909624 0.718671 0.000000
O O14 0.184839 0.080437 0.747667
O O15 0.358011 0.095792 0.769986
O O16 0.290566 0.000000 0.750000
O O17 0.270517 0.055185 0.000000
O O18 0.500000 0.653823 0.750000
O O19 0.402293 0.656471 0.000000
O O20 0.000000 0.083160 0.250000
O O21 0.907647 0.000000 0.250000
O O22 0.910322 0.057622 0.000000
O O23 0.500000 0.157781 0.750000
O O24 0.405168 0.151929 0.000000
#
# Coordination Sequence:
#
# PCOD9392249 Si02
#       8
#     8   8   8   8   8   8   8   8
#     4  10  19  34  57  85 116 153 190 233 281 337
#     4  10  20  39  63  88 117 151 188 232 284 339
#     4  11  24  40  58  83 115 151 193 239 287 340
#     4   9  18  32  56  86 117 151 185 224 274 332
#     4  10  20  36  56  82 114 153 194 239 287 341
#     4  11  24  40  61  87 113 146 189 238 289 345
#     4  10  17  28  49  78 110 147 187 231 277 330
#     4  10  23  40  60  84 115 149 190 240 291 342
#
# _framework density 19.127911999999998
#
# number of rings (size 3 to 8) (size 9 to 14) (size 15 to 20)
#    0.000    1.875    1.250    4.125    0.000    5.750 
#    0.000    4.375    0.000    1.500    0.000    0.000 
#    0.000    0.000    0.000    0.000    0.000    0.000 
#
# Total GULP energy -357439.209161 kJ/mol
# GULP energy per Si atom -5584.987643 kJ/mol
# Density = 1.908438 g / cm^3
# Si number density = 19.127912 Si / 1000 Ang^3
#
#
#
# Elastic Constant Matrix: (Units=GPa)
#
#
# Indices 1 2 3 4 5 6 
#
# 1 148.6433 68.7735 29.1897 0.0000 0.0000 0.0000
# 2 68.7735 100.1729 28.4564 0.0000 0.0000 0.0000
# 3 29.1897 28.4564 49.4820 0.0000 0.0000 0.0000
# 4 0.0000 0.0000 0.0000 18.8230 0.0000 0.0000
# 5 0.0000 0.0000 0.0000 0.0000 34.6999 0.0000
# 6 0.0000 0.0000 0.0000 0.0000 0.0000 8.2229
#
#
#
# Elastic Compliance Matrix: (Units=1/GPa)
#
#
# Indices 1 2 3 4 5 6 
#
# 1 0.010083 -0.006255 -0.002351 0.000000 0.000000 0.000000
# 2 -0.006255 0.015812 -0.005404 0.000000 0.000000 0.000000
# 3 -0.002351 -0.005404 0.024704 0.000000 0.000000 0.000000
# 4 0.000000 0.000000 0.000000 0.053127 0.000000 0.000000
# 5 0.000000 0.000000 0.000000 0.000000 0.028819 0.000000
# 6 0.000000 0.000000 0.000000 0.000000 0.000000 0.121611
#
#
# Mechanical properties :
#
#
# Convention : Reuss Voigt Hill
#
# Bulk Modulus (GPa) = 44.28661 61.23750 52.76205
# Shear Modulus (GPa) = 17.25923 23.80774 20.53348
#
# Velocity S-wave (km/s) = 3.00710 3.53180 3.27996
# Velocity P-wave (km/s) = 5.93801 6.97966 6.47980
#
# Compressibility (1/GPa) = 0.02258019
#
# Stress axis : x y z
#
# Youngs Moduli (GPa) = 99.17610 63.24381 40.47957
#
# Poissons Ratio (x) = 0.39557 0.09517
# Poissons Ratio (y) = 0.62031 0.21873
# Poissons Ratio (z) = 0.23318 0.34174
#
# Static dielectric constant tensor:
#      x y z
#    x 1.668280 0.000000 0.000000 
#    y 0.000000 1.670230 0.000000 
#    z 0.000000 0.000000 1.662200 
# 
# From -- ./inp_files/4371.got.cif
#   From: 2010.05.17/outbox.cif.g08.bks.cpg/sg49_3_cif.got.tgz:4371.got - 2010.06.03 21:02:19.
