data_PCOD9392828
_publ_section_title
;
Structure prediction by ZEFSAII (Michael W. Deem and Ramdas Pophale) SiO2 
 PCOD9392828
Probable space group: P C C M
;
_chemical_formula_sum "Si O2"
_cell_formula_units_Z 56
_cell_length_a 12.814919
_cell_length_b 12.912710
_cell_length_c 14.850304
_cell_angle_alpha 90.000000
_cell_angle_beta 90.000000
_cell_angle_gamma 90.000000
_cell_volume 2457.358995
_symmetry_space_group_name_H-M "P C C M"
_symmetry_group_IT_number 49
_symmetry_cell_setting 'orthorhombic'
loop_
_space_group_symop_operation_xyz
x,y,z
-x,-y,z
x,-y,1/2-z
-x,y,1/2-z
-x,-y,-z
x,y,-z
-x,y,1/2+z
x,-y,1/2+z
loop_
_atom_site_type_symbol
_atom_site_label
_atom_site_fract_x
_atom_site_fract_y
_atom_site_fract_z
Si Si1 0.787091 0.109501 0.135827
Si Si2 0.579035 0.280091 0.391570
Si Si3 0.240197 0.883800 0.351488
Si Si4 0.650600 0.691529 0.604630
Si Si5 0.990497 0.830924 0.146434
Si Si6 0.941735 0.395216 0.391187
Si Si7 0.282340 0.468523 0.890180
O O1 0.779267 0.112566 0.244379
O O2 0.727817 0.211985 0.105983
O O3 0.907380 0.117044 0.104610
O O4 0.738092 0.998821 0.111536
O O5 0.576560 0.272554 0.500000
O O6 0.665037 0.194999 0.365008
O O7 0.460859 0.272947 0.356156
O O8 0.622221 0.393673 0.367981
O O9 0.125988 0.851866 0.389319
O O10 0.629924 0.665443 0.500000
O O11 0.699363 0.585485 0.643352
O O12 0.000000 0.865412 0.250000
O O13 0.998745 0.706696 0.143495
O O14 0.942326 0.386446 0.500000
O O15 0.823160 0.411374 0.359214
O O16 0.000000 0.500000 0.366545
O O17 0.272481 0.472193 0.000000
#
# Coordination Sequence:
#
# PCOD9392828 Si02
#       7
#     8   8   8   8   8   8   8
#     4  10  22  38  57  81 111 149 183 228 284 330
#     4  10  20  36  60  84 109 145 189 232 274 326
#     4  10  21  39  59  80 109 145 190 231 275 334
#     4  10  21  37  57  84 114 145 185 231 277 327
#     4  10  20  36  57  81 108 143 185 229 274 329
#     4  10  19  31  52  82 114 146 179 220 272 330
#     4   9  17  33  56  81 111 145 179 219 273 330
#
# _framework density 22.788692000000001
#
# number of rings (size 3 to 8) (size 9 to 14) (size 15 to 20)
#    0.000    2.143    1.429    1.714    0.000    7.143 
#    0.000    3.571    0.000    4.286    0.000    0.000 
#    0.000    0.000    0.000    0.000    0.000    0.000 
#
# Total GULP energy -312724.124763 kJ/mol
# GULP energy per Si atom -5584.359371 kJ/mol
# Density = 2.273682 g / cm^3
# Si number density = 22.788692 Si / 1000 Ang^3
#
#
#
# Elastic Constant Matrix: (Units=GPa)
#
#
# Indices 1 2 3 4 5 6 
#
# 1 77.3810 14.7385 -2.3571 0.0000 0.0000 0.0000
# 2 14.7385 124.3089 -7.0178 0.0000 0.0000 0.0000
# 3 -2.3571 -7.0178 50.9085 0.0000 0.0000 0.0000
# 4 0.0000 0.0000 0.0000 15.1968 0.0000 0.0000
# 5 0.0000 0.0000 0.0000 0.0000 15.5142 0.0000
# 6 0.0000 0.0000 0.0000 0.0000 0.0000 22.3712
#
#
#
# Elastic Compliance Matrix: (Units=1/GPa)
#
#
# Indices 1 2 3 4 5 6 
#
# 1 0.013230 -0.001546 0.000399 0.000000 0.000000 0.000000
# 2 -0.001546 0.008288 0.001071 0.000000 0.000000 0.000000
# 3 0.000399 0.001071 0.019809 0.000000 0.000000 0.000000
# 4 0.000000 0.000000 0.000000 0.065803 0.000000 0.000000
# 5 0.000000 0.000000 0.000000 0.000000 0.064457 0.000000
# 6 0.000000 0.000000 0.000000 0.000000 0.000000 0.044700
#
#
# Mechanical properties :
#
#
# Convention : Reuss Voigt Hill
#
# Bulk Modulus (GPa) = 24.28603 29.25839 26.77221
# Shear Modulus (GPa) = 21.72360 27.09875 24.41118
#
# Velocity S-wave (km/s) = 3.09084 3.45212 3.27647
# Velocity P-wave (km/s) = 4.83921 5.36250 5.10756
#
# Compressibility (1/GPa) = 0.04117593
#
# Stress axis : x y z
#
# Youngs Moduli (GPa) = 75.58748 120.65286 50.48153
#
# Poissons Ratio (x) = 0.18653 -0.02016
# Poissons Ratio (y) = 0.11686 -0.05406
# Poissons Ratio (z) = -0.03019 -0.12921
#
# Static dielectric constant tensor:
#      x y z
#    x 1.853090 0.000000 0.000000 
#    y 0.000000 1.816230 0.000000 
#    z 0.000000 0.000000 1.915800 
# 
# From -- ./inp_files/20478.got.cif
#   From: 2010.05.17/outbox.cif.g08.bks.cpg/sg49_11_cif.got.tgz:20478.got - 2010.06.03 21:02:19.
