data_PCOD9392195
_publ_section_title
;
Structure prediction by ZEFSAII (Michael W. Deem and Ramdas Pophale) SiO2 
 PCOD9392195
Probable space group: P C C M
;
_chemical_formula_sum "Si O2"
_cell_formula_units_Z 64
_cell_length_a 28.778459
_cell_length_b 15.027159
_cell_length_c 8.579438
_cell_angle_alpha 90.000000
_cell_angle_beta 90.000000
_cell_angle_gamma 90.000000
_cell_volume 3710.250710
_symmetry_space_group_name_H-M "P C C M"
_symmetry_group_IT_number 49
_symmetry_cell_setting 'orthorhombic'
loop_
_space_group_symop_operation_xyz
x,y,z
-x,-y,z
x,-y,1/2-z
-x,y,1/2-z
-x,-y,-z
x,y,-z
-x,y,1/2+z
x,-y,1/2+z
loop_
_atom_site_type_symbol
_atom_site_label
_atom_site_fract_x
_atom_site_fract_y
_atom_site_fract_z
Si Si1 0.584863 0.905024 0.185901
Si Si2 0.631334 0.597264 0.687636
Si Si3 0.230179 0.780142 0.313869
Si Si4 0.853809 0.101067 0.186541
Si Si5 0.451722 0.725117 0.187142
Si Si6 0.738494 0.401733 0.187547
Si Si7 0.689453 0.903492 0.686877
Si Si8 0.952019 0.101440 0.686436
O O1 0.554487 0.823520 0.244975
O O2 0.636970 0.891284 0.253011
O O3 0.568324 0.000000 0.250000
O O4 0.586876 0.907699 0.000000
O O5 0.618988 0.500000 0.750000
O O6 0.631055 0.595843 0.500000
O O7 0.593131 0.668383 0.738725
O O8 0.684526 0.615896 0.735807
O O9 0.229239 0.783768 0.500000
O O10 0.187431 0.836317 0.245171
O O11 0.231389 0.678466 0.256004
O O12 0.276607 0.828262 0.250790
O O13 0.903246 0.137346 0.249742
O O14 0.847414 0.000000 0.250000
O O15 0.854728 0.096999 0.000000
O O16 0.500000 0.686340 0.250000
O O17 0.452495 0.728276 0.000000
O O18 0.750546 0.500000 0.250000
O O19 0.740810 0.401100 0.000000
O O20 0.689683 0.903428 0.500000
O O21 0.705372 0.000000 0.750000
O O22 0.952337 0.100519 0.500000
O O23 0.000000 0.142773 0.750000
O O24 0.951970 0.000000 0.750000
#
# Coordination Sequence:
#
# PCOD9392195 Si02
#       8
#     8   8   8   8   8   8   8   8
#     4  11  22  38  58  79 101 131 167 207 248 294
#     4   9  20  37  59  81 105 131 161 199 244 295
#     4  12  23  35  51  75 105 140 176 215 261 312
#     4  11  21  34  49  71 104 143 183 226 270 317
#     4  11  23  39  56  79 106 134 165 203 246 295
#     4  10  20  37  58  81 104 133 169 211 257 307
#     4  11  21  35  53  76 104 136 171 209 249 299
#     4  10  17  28  45  67  95 134 181 227 269 313
#
# _framework density 17.249509
#
# number of rings (size 3 to 8) (size 9 to 14) (size 15 to 20)
#    0.000    1.375    0.000    9.375    0.000    3.000 
#    0.000    2.500    0.000    0.000    0.000    0.000 
#    0.000    0.500    0.000    5.000    0.000    3.000 
#
# Total GULP energy -357647.339377 kJ/mol
# GULP energy per Si atom -5588.239678 kJ/mol
# Density = 1.721025 g / cm^3
# Si number density = 17.249509 Si / 1000 Ang^3
#
#
#
# Elastic Constant Matrix: (Units=GPa)
#
#
# Indices 1 2 3 4 5 6 
#
# 1 68.0068 52.3707 34.4596 0.0000 0.0000 0.0000
# 2 52.3707 91.9750 38.7066 0.0000 0.0000 0.0000
# 3 34.4596 38.7066 144.4538 0.0000 0.0000 0.0000
# 4 0.0000 0.0000 0.0000 25.6364 0.0000 0.0000
# 5 0.0000 0.0000 0.0000 0.0000 28.2565 0.0000
# 6 0.0000 0.0000 0.0000 0.0000 0.0000 14.3731
#
#
#
# Elastic Compliance Matrix: (Units=1/GPa)
#
#
# Indices 1 2 3 4 5 6 
#
# 1 0.027039 -0.014293 -0.002620 0.000000 0.000000 0.000000
# 2 -0.014293 0.019810 -0.001898 0.000000 0.000000 0.000000
# 3 -0.002620 -0.001898 0.008056 0.000000 0.000000 0.000000
# 4 0.000000 0.000000 0.000000 0.039007 0.000000 0.000000
# 5 0.000000 0.000000 0.000000 0.000000 0.035390 0.000000
# 6 0.000000 0.000000 0.000000 0.000000 0.000000 0.069574
#
#
# Mechanical properties :
#
#
# Convention : Reuss Voigt Hill
#
# Bulk Modulus (GPa) = 57.86561 61.72327 59.79444
# Shear Modulus (GPa) = 20.63879 25.57977 23.10928
#
# Velocity S-wave (km/s) = 3.46278 3.85506 3.66417
# Velocity P-wave (km/s) = 7.04321 7.46161 7.25543
#
# Compressibility (1/GPa) = 0.01728142
#
# Stress axis : x y z
#
# Youngs Moduli (GPa) = 36.98325 50.47912 124.12501
#
# Poissons Ratio (x) = 0.72152 0.32524
# Poissons Ratio (y) = 0.52862 0.23564
# Poissons Ratio (z) = 0.09691 0.09583
#
# Static dielectric constant tensor:
#      x y z
#    x 1.622820 0.000000 0.000000 
#    y 0.000000 1.584250 0.000000 
#    z 0.000000 0.000000 1.572160 
# 
# From -- ./inp_files/7079.got.cif
#   From: 2010.05.17/outbox.cif.g08.bks.cpg/sg49_4_cif.got.tgz:7079.got - 2010.06.03 21:02:19.
