data_PCOD9392943
_publ_section_title
;
Structure prediction by ZEFSAII (Michael W. Deem and Ramdas Pophale) SiO2 
 PCOD9392943
Probable space group: P C C M
;
_chemical_formula_sum "Si O2"
_cell_formula_units_Z 24
_cell_length_a 5.272585
_cell_length_b 7.133423
_cell_length_c 25.647145
_cell_angle_alpha 90.000000
_cell_angle_beta 90.000000
_cell_angle_gamma 90.000000
_cell_volume 964.629623
_symmetry_space_group_name_H-M "P C C M"
_symmetry_group_IT_number 49
_symmetry_cell_setting 'orthorhombic'
loop_
_space_group_symop_operation_xyz
x,y,z
-x,-y,z
x,-y,1/2-z
-x,y,1/2-z
-x,-y,-z
x,y,-z
-x,y,1/2+z
x,-y,1/2+z
loop_
_atom_site_type_symbol
_atom_site_label
_atom_site_fract_x
_atom_site_fract_y
_atom_site_fract_z
Si Si1 0.470520 0.726640 0.441176
Si Si2 0.964161 0.726163 0.613103
Si Si3 0.755329 0.210316 0.226468
O O1 0.500000 0.500000 0.437350
O O2 0.391568 0.772467 0.500000
O O3 0.758818 0.786269 0.430090
O O4 0.250167 0.790021 0.400980
O O5 0.820112 0.790074 0.665605
O O6 0.000000 0.500000 0.615787
O O7 0.500000 0.294523 0.250000
O O8 0.000000 0.305888 0.250000
O O9 0.751845 0.000000 0.250000
#
# Coordination Sequence:
#
# PCOD9392943 Si02
#       3
#     8   8   8
#     4   9  17  30  50  79 114 145 173 214 274 337
#     4  10  19  32  52  81 112 141 180 228 271 322
#     4  10  21  37  55  77 104 147 194 231 275 325
#
# _framework density 24.880016000000001
#
# number of rings (size 3 to 8) (size 9 to 14) (size 15 to 20)
#    0.000    2.333    0.000    3.000    0.000    4.667 
#    0.000    1.667    0.000    0.000    0.000   93.333 
#    0.000    0.000    0.000    0.000    0.000    2.000 
#
# Total GULP energy -133857.255370 kJ/mol
# GULP energy per Si atom -5577.385640 kJ/mol
# Density = 2.482339 g / cm^3
# Si number density = 24.880016 Si / 1000 Ang^3
#
#
#
# Elastic Constant Matrix: (Units=GPa)
#
#
# Indices 1 2 3 4 5 6 
#
# 1 242.6434 16.5474 72.5087 0.0000 0.0000 0.0000
# 2 16.5474 130.8327 0.5435 0.0000 0.0000 0.0000
# 3 72.5087 0.5435 129.1903 0.0000 0.0000 0.0000
# 4 0.0000 0.0000 0.0000 13.7765 0.0000 0.0000
# 5 0.0000 0.0000 0.0000 0.0000 40.5533 0.0000
# 6 0.0000 0.0000 0.0000 0.0000 0.0000 -59.3998
#
#
#
# Elastic Compliance Matrix: (Units=1/GPa)
#
#
# Indices 1 2 3 4 5 6 
#
# 1 0.005002 -0.000621 -0.002805 0.000000 0.000000 0.000000
# 2 -0.000621 0.007721 0.000316 0.000000 0.000000 0.000000
# 3 -0.002805 0.000316 0.009313 0.000000 0.000000 0.000000
# 4 0.000000 0.000000 0.000000 0.072587 0.000000 0.000000
# 5 0.000000 0.000000 0.000000 0.000000 0.024659 0.000000
# 6 0.000000 0.000000 0.000000 0.000000 0.000000 -0.016835
#
#
# Mechanical properties :
#
#
# Convention : Reuss Voigt Hill
#
# Bulk Modulus (GPa) = 63.22514 75.76285 69.49399
# Shear Modulus (GPa) = 43.88358 26.52381 35.20370
#
# Velocity S-wave (km/s) = 4.20433 3.26861 3.76565
# Velocity P-wave (km/s) = 7.00255 6.69048 6.84829
#
# Compressibility (1/GPa) = 0.01581649
#
# Stress axis : x y z
#
# Youngs Moduli (GPa) = 199.93115 129.52409 107.37330
#
# Poissons Ratio (x) = 0.08043 0.30114
# Poissons Ratio (y) = 0.12415 -0.03393
# Poissons Ratio (z) = 0.56073 -0.04093
#
# Static dielectric constant tensor:
#      x y z
#    x 1.832830 0.000000 0.000000 
#    y 0.000000 1.975120 0.000000 
#    z 0.000000 0.000000 2.095830 
# 
# From -- ./inp_files/14941.got.cif
#   From: 2010.05.17/outbox.cif.g08.bks.cpg/sg49_8_cif.got.tgz:14941.got - 2010.06.03 21:02:19.
