data_PCOD9392457
_publ_section_title
;
Structure prediction by ZEFSAII (Michael W. Deem and Ramdas Pophale) SiO2 
 PCOD9392457
Probable space group: P C C M
;
_chemical_formula_sum "Si O2"
_cell_formula_units_Z 48
_cell_length_a 11.554104
_cell_length_b 11.435533
_cell_length_c 17.394260
_cell_angle_alpha 90.000000
_cell_angle_beta 90.000000
_cell_angle_gamma 90.000000
_cell_volume 2298.257263
_symmetry_space_group_name_H-M "P C C M"
_symmetry_group_IT_number 49
_symmetry_cell_setting 'orthorhombic'
loop_
_space_group_symop_operation_xyz
x,y,z
-x,-y,z
x,-y,1/2-z
-x,y,1/2-z
-x,-y,-z
x,y,-z
-x,y,1/2+z
x,-y,1/2+z
loop_
_atom_site_type_symbol
_atom_site_label
_atom_site_fract_x
_atom_site_fract_y
_atom_site_fract_z
Si Si1 0.765528 0.296343 0.090818
Si Si2 0.283361 0.250001 0.146681
Si Si3 0.205294 0.888810 0.793871
Si Si4 0.638196 0.989211 0.084015
Si Si5 0.497387 0.359416 0.410906
Si Si6 0.126429 0.459020 0.092463
O O1 0.838648 0.202918 0.141009
O O2 0.626009 0.296532 0.101576
O O3 0.795434 0.429433 0.112064
O O4 0.790887 0.283028 0.000000
O O5 0.250221 0.194290 0.227230
O O6 0.310068 0.141217 0.090181
O O7 0.405471 0.315501 0.146732
O O8 0.183562 0.340551 0.122852
O O9 0.144891 0.000000 0.750000
O O10 0.307213 0.947916 0.843000
O O11 0.500000 0.000000 0.088528
O O12 0.671868 0.038422 0.000000
O O13 0.500000 0.500000 0.406413
O O14 0.530856 0.332370 0.500000
O O15 0.000000 0.500000 0.119463
O O16 0.122365 0.447261 0.000000
#
# Coordination Sequence:
#
# PCOD9392457 Si02
#       6
#     8   8   8   8   8   8
#     4  10  20  37  60  84 115 151 194 241 291 359
#     4  11  21  35  56  88 125 156 191 244 308 361
#     4  10  23  37  53  81 119 157 195 243 295 354
#     4  10  20  35  58  85 119 167 211 247 295 365
#     4  10  18  31  53  82 117 153 185 227 285 352
#     4  10  21  39  64  90 114 148 196 248 302 364
#
# _framework density 20.885390000000001
#
# number of rings (size 3 to 8) (size 9 to 14) (size 15 to 20)
#    0.000    1.833    1.667    3.000    0.000    9.667 
#    0.000    2.500    0.000    7.000    0.000   15.167 
#    0.000    0.000    0.000    0.000    0.000    0.000 
#
# Total GULP energy -267479.813846 kJ/mol
# GULP energy per Si atom -5572.496122 kJ/mol
# Density = 2.083785 g / cm^3
# Si number density = 20.885390 Si / 1000 Ang^3
#
#
#
# Elastic Constant Matrix: (Units=GPa)
#
#
# Indices 1 2 3 4 5 6 
#
# 1 65.5280 35.8021 20.0416 0.0000 0.0000 0.0000
# 2 35.8021 144.6799 51.3886 0.0000 0.0000 0.0000
# 3 20.0416 51.3886 73.7891 0.0000 0.0000 0.0000
# 4 0.0000 0.0000 0.0000 84.8805 0.0000 0.0000
# 5 0.0000 0.0000 0.0000 0.0000 -24.0931 0.0000
# 6 0.0000 0.0000 0.0000 0.0000 0.0000 4.7752
#
#
#
# Elastic Compliance Matrix: (Units=1/GPa)
#
#
# Indices 1 2 3 4 5 6 
#
# 1 0.017953 -0.003601 -0.002368 0.000000 0.000000 0.000000
# 2 -0.003601 0.009906 -0.005921 0.000000 0.000000 0.000000
# 3 -0.002368 -0.005921 0.018318 0.000000 0.000000 0.000000
# 4 0.000000 0.000000 0.000000 0.011781 0.000000 0.000000
# 5 0.000000 0.000000 0.000000 0.000000 -0.041506 0.000000
# 6 0.000000 0.000000 0.000000 0.000000 0.000000 0.209414
#
#
# Mechanical properties :
#
#
# Convention : Reuss Voigt Hill
#
# Bulk Modulus (GPa) = 44.64845 55.38462 50.01653
# Shear Modulus (GPa) = 19.44679 24.89685 22.17182
#
# Velocity S-wave (km/s) = 3.05473 3.45638 3.26175
# Velocity P-wave (km/s) = 5.81946 6.51956 6.17943
#
# Compressibility (1/GPa) = 0.02239720
#
# Stress axis : x y z
#
# Youngs Moduli (GPa) = 55.70237 100.94966 54.58965
#
# Poissons Ratio (x) = 0.36356 0.12926
# Poissons Ratio (y) = 0.20061 0.32320
# Poissons Ratio (z) = 0.13190 0.59768
#
# Static dielectric constant tensor:
#      x y z
#    x 1.753600 0.000000 0.000000 
#    y 0.000000 1.866230 0.000000 
#    z 0.000000 0.000000 1.747220 
# 
# From -- ./inp_files/17115.got.cif
#   From: 2010.05.17/outbox.cif.g08.bks.cpg/sg49_9_cif.got.tgz:17115.got - 2010.06.03 21:02:19.
