data_PCOD9392788
_publ_section_title
;
Structure prediction by ZEFSAII (Michael W. Deem and Ramdas Pophale) SiO2 
 PCOD9392788
Probable space group: P C C M
;
_chemical_formula_sum "Si O2"
_cell_formula_units_Z 64
_cell_length_a 21.509910
_cell_length_b 17.855193
_cell_length_c 8.695993
_cell_angle_alpha 90.000000
_cell_angle_beta 90.000000
_cell_angle_gamma 90.000000
_cell_volume 3339.814329
_symmetry_space_group_name_H-M "P C C M"
_symmetry_group_IT_number 49
_symmetry_cell_setting 'orthorhombic'
loop_
_space_group_symop_operation_xyz
x,y,z
-x,-y,z
x,-y,1/2-z
-x,y,1/2-z
-x,-y,-z
x,y,-z
-x,y,1/2+z
x,-y,1/2+z
loop_
_atom_site_type_symbol
_atom_site_label
_atom_site_fract_x
_atom_site_fract_y
_atom_site_fract_z
Si Si1 0.708184 0.579286 0.815065
Si Si2 0.645816 0.925270 0.816046
Si Si3 0.201145 0.707809 0.183047
Si Si4 0.087266 0.920006 0.678660
Si Si5 0.435496 0.789835 0.315326
Si Si6 0.225933 0.132164 0.820115
Si Si7 0.935567 0.755828 0.316034
Si Si8 0.567066 0.617041 0.185559
O O1 0.731217 0.500000 0.750000
O O2 0.753090 0.646356 0.757786
O O3 0.634852 0.585916 0.766578
O O4 0.708725 0.579940 0.000000
O O5 0.616080 0.847598 0.763592
O O6 0.717231 0.918362 0.768988
O O7 0.616263 0.000000 0.750000
O O8 0.641624 0.929002 0.000000
O O9 0.223925 0.791181 0.225611
O O10 0.127893 0.712685 0.233578
O O11 0.202176 0.696607 0.000000
O O12 0.068012 0.917095 0.500000
O O13 0.161849 0.912308 0.688287
O O14 0.067395 0.842814 0.761119
O O15 0.069066 0.000000 0.750000
O O16 0.500000 0.818352 0.250000
O O17 0.436479 0.788586 0.500000
O O18 0.428192 0.704237 0.265610
O O19 0.235477 0.153200 0.000000
O O20 0.937000 0.755235 0.500000
O O21 0.000000 0.724071 0.250000
O O22 0.500000 0.589164 0.250000
O O23 0.563370 0.611461 0.000000
#
# Coordination Sequence:
#
# PCOD9392788 Si02
#       8
#     8   8   8   8   8   8   8   8
#     4  11  23  39  60  87 120 153 184 220 266 321
#     4  10  20  32  46  66  94 128 170 221 274 324
#     4  10  21  37  59  86 113 143 182 227 272 325
#     4  10  19  31  49  74 107 145 183 226 278 331
#     4   9  18  33  50  67  90 124 168 215 263 315
#     4   9  18  33  52  73 100 136 176 220 271 326
#     4  10  21  37  57  82 111 144 187 234 280 333
#     4   9  19  36  58  82 110 146 185 225 268 319
#
# _framework density 19.162742000000001
#
# number of rings (size 3 to 8) (size 9 to 14) (size 15 to 20)
#    0.000    2.250    0.000    2.625    0.000    6.750 
#    0.000    6.250    0.000    0.375    0.000    2.625 
#    0.000    0.000    0.000    0.000    0.000    0.000 
#
# Total GULP energy -356801.263697 kJ/mol
# GULP energy per Si atom -5575.019745 kJ/mol
# Density = 1.911913 g / cm^3
# Si number density = 19.162742 Si / 1000 Ang^3
#
#
#
# Elastic Constant Matrix: (Units=GPa)
#
#
# Indices 1 2 3 4 5 6 
#
# 1 112.6922 51.8160 32.1872 0.0000 0.0000 0.0000
# 2 51.8160 91.4477 27.9707 0.0000 0.0000 0.0000
# 3 32.1872 27.9707 37.5740 0.0000 0.0000 0.0000
# 4 0.0000 0.0000 0.0000 16.9689 0.0000 0.0000
# 5 0.0000 0.0000 0.0000 0.0000 25.9604 0.0000
# 6 0.0000 0.0000 0.0000 0.0000 0.0000 -12.0800
#
#
#
# Elastic Compliance Matrix: (Units=1/GPa)
#
#
# Indices 1 2 3 4 5 6 
#
# 1 0.013489 -0.005320 -0.007595 0.000000 0.000000 0.000000
# 2 -0.005320 0.016257 -0.007545 0.000000 0.000000 0.000000
# 3 -0.007595 -0.007545 0.038737 0.000000 0.000000 0.000000
# 4 0.000000 0.000000 0.000000 0.058931 0.000000 0.000000
# 5 0.000000 0.000000 0.000000 0.000000 0.038520 0.000000
# 6 0.000000 0.000000 0.000000 0.000000 0.000000 -0.082781
#
#
# Mechanical properties :
#
#
# Convention : Reuss Voigt Hill
#
# Bulk Modulus (GPa) = 36.27983 51.74017 44.01000
# Shear Modulus (GPa) = 37.52018 14.81918 26.16968
#
# Velocity S-wave (km/s) = 4.42970 2.78390 3.69948
# Velocity P-wave (km/s) = 6.71838 6.11494 6.42375
#
# Compressibility (1/GPa) = 0.02756352
#
# Stress axis : x y z
#
# Youngs Moduli (GPa) = 74.13314 61.51017 25.81530
#
# Poissons Ratio (x) = 0.32725 0.19606
# Poissons Ratio (y) = 0.39441 0.19477
# Poissons Ratio (z) = 0.56303 0.46408
#
# Static dielectric constant tensor:
#      x y z
#    x 1.710530 0.000000 0.000000 
#    y 0.000000 1.643970 0.000000 
#    z 0.000000 0.000000 1.642880 
# 
# From -- ./inp_files/5992.got.cif
#   From: 2010.05.17/outbox.cif.g08.bks.cpg/sg49_3_cif.got.tgz:5992.got - 2010.06.03 21:02:19.
