data_PCOD9392649
_publ_section_title
;
Structure prediction by ZEFSAII (Michael W. Deem and Ramdas Pophale) SiO2 
 PCOD9392649
Probable space group: P C C M
;
_chemical_formula_sum "Si O2"
_cell_formula_units_Z 64
_cell_length_a 19.768119
_cell_length_b 19.755432
_cell_length_c 8.991513
_cell_angle_alpha 90.000000
_cell_angle_beta 90.000000
_cell_angle_gamma 90.000000
_cell_volume 3511.435167
_symmetry_space_group_name_H-M "P C C M"
_symmetry_group_IT_number 49
_symmetry_cell_setting 'orthorhombic'
loop_
_space_group_symop_operation_xyz
x,y,z
-x,-y,z
x,-y,1/2-z
-x,y,1/2-z
-x,-y,-z
x,y,-z
-x,y,1/2+z
x,-y,1/2+z
loop_
_atom_site_type_symbol
_atom_site_label
_atom_site_fract_x
_atom_site_fract_y
_atom_site_fract_z
Si Si1 0.697131 0.787718 0.326574
Si Si2 0.777464 0.343436 0.820441
Si Si3 0.854331 0.935237 0.165957
Si Si4 0.430603 0.311938 0.325206
Si Si5 0.343971 0.573606 0.678247
Si Si6 0.931270 0.662157 0.677846
Si Si7 0.307363 0.067971 0.167798
Si Si8 0.067685 0.810209 0.320702
O O1 0.710141 0.802894 0.500000
O O2 0.755951 0.734132 0.276999
O O3 0.628530 0.743871 0.313405
O O4 0.686031 0.858775 0.244432
O O5 0.725448 0.392128 0.736887
O O6 0.855265 0.364148 0.790702
O O7 0.766416 0.347238 0.000000
O O8 0.773818 0.940859 0.160134
O O9 0.873368 0.861533 0.224349
O O10 0.881681 0.000000 0.250000
O O11 0.882180 0.937359 0.000000
O O12 0.500000 0.289111 0.250000
O O13 0.440110 0.326490 0.500000
O O14 0.402987 0.377853 0.239985
O O15 0.350266 0.500000 0.750000
O O16 0.344770 0.570699 0.500000
O O17 0.940028 0.663763 0.500000
O O18 0.926505 0.737761 0.743896
O O19 0.000000 0.631630 0.750000
O O20 0.333395 0.000000 0.250000
O O21 0.334238 0.070322 0.000000
O O22 0.064060 0.801498 0.500000
O O23 0.000000 0.841388 0.250000
#
# Coordination Sequence:
#
# PCOD9392649 Si02
#       8
#     8   8   8   8   8   8   8   8
#     4   9  18  33  53  77 106 138 174 219 267 316
#     4   9  19  35  54  78 108 142 180 223 271 323
#     4   9  19  31  42  58  81 112 151 199 251 308
#     4  10  21  38  59  86 119 151 185 220 258 307
#     4  11  22  37  59  86 117 151 185 220 260 307
#     4  10  19  31  49  72  99 131 168 214 267 318
#     4  10  19  31  48  70  96 127 167 214 266 320
#     4  10  19  30  42  59  84 114 154 201 252 311
#
# _framework density 18.226167
#
# number of rings (size 3 to 8) (size 9 to 14) (size 15 to 20)
#    0.000    2.250    0.000    4.875    0.000    5.500 
#    0.000    2.500    0.000    0.750    0.000    5.250 
#    0.000    0.000    0.000    0.000    0.000    0.000 
#
# Total GULP energy -356519.969735 kJ/mol
# GULP energy per Si atom -5570.624527 kJ/mol
# Density = 1.818468 g / cm^3
# Si number density = 18.226167 Si / 1000 Ang^3
#
#
#
# Elastic Constant Matrix: (Units=GPa)
#
#
# Indices 1 2 3 4 5 6 
#
# 1 55.9067 -18.2337 17.0343 0.0000 0.0000 0.0000
# 2 -18.2337 50.8242 24.6633 0.0000 0.0000 0.0000
# 3 17.0343 24.6633 75.8720 0.0000 0.0000 0.0000
# 4 0.0000 0.0000 0.0000 27.6374 0.0000 0.0000
# 5 0.0000 0.0000 0.0000 0.0000 30.9424 0.0000
# 6 0.0000 0.0000 0.0000 0.0000 0.0000 11.1774
#
#
#
# Elastic Compliance Matrix: (Units=1/GPa)
#
#
# Indices 1 2 3 4 5 6 
#
# 1 0.025719 0.014282 -0.010417 0.000000 0.000000 0.000000
# 2 0.014282 0.031291 -0.013378 0.000000 0.000000 0.000000
# 3 -0.010417 -0.013378 0.019868 0.000000 0.000000 0.000000
# 4 0.000000 0.000000 0.000000 0.036183 0.000000 0.000000
# 5 0.000000 0.000000 0.000000 0.000000 0.032318 0.000000
# 6 0.000000 0.000000 0.000000 0.000000 0.000000 0.089466
#
#
# Mechanical properties :
#
#
# Convention : Reuss Voigt Hill
#
# Bulk Modulus (GPa) = 17.28567 25.50339 21.39453
# Shear Modulus (GPa) = 18.30464 24.56069 21.43267
#
# Velocity S-wave (km/s) = 3.17252 3.67488 3.43290
# Velocity P-wave (km/s) = 4.78794 5.65946 5.24184
#
# Compressibility (1/GPa) = 0.05785138
#
# Stress axis : x y z
#
# Youngs Moduli (GPa) = 38.88222 31.95774 50.33342
#
# Poissons Ratio (x) = -0.45641 0.52431
# Poissons Ratio (y) = -0.55530 0.67337
# Poissons Ratio (z) = 0.40502 0.42753
#
# Static dielectric constant tensor:
#      x y z
#    x 1.665190 0.000000 0.000000 
#    y 0.000000 1.631000 0.000000 
#    z 0.000000 0.000000 1.635270 
# 
# From -- ./inp_files/6004.got.cif
#   From: 2010.05.17/outbox.cif.g08.bks.cpg/sg49_4_cif.got.tgz:6004.got - 2010.06.03 21:02:19.
