data_PCOD9392451
_publ_section_title
;
Structure prediction by ZEFSAII (Michael W. Deem and Ramdas Pophale) SiO2 
 PCOD9392451
Probable space group: P C C M
;
_chemical_formula_sum "Si O2"
_cell_formula_units_Z 52
_cell_length_a 28.514985
_cell_length_b 11.051938
_cell_length_c 8.934172
_cell_angle_alpha 90.000000
_cell_angle_beta 90.000000
_cell_angle_gamma 90.000000
_cell_volume 2815.567196
_symmetry_space_group_name_H-M "P C C M"
_symmetry_group_IT_number 49
_symmetry_cell_setting 'orthorhombic'
loop_
_space_group_symop_operation_xyz
x,y,z
-x,-y,z
x,-y,1/2-z
-x,y,1/2-z
-x,-y,-z
x,y,-z
-x,y,1/2+z
x,-y,1/2+z
loop_
_atom_site_type_symbol
_atom_site_label
_atom_site_fract_x
_atom_site_fract_y
_atom_site_fract_z
Si Si1 0.214351 0.368143 0.317892
Si Si2 0.454005 0.332429 0.166555
Si Si3 0.397244 0.873127 0.820862
Si Si4 0.113102 0.632488 0.319567
Si Si5 0.372478 0.500000 0.750000
Si Si6 0.051832 0.126647 0.180074
Si Si7 0.689502 0.270725 0.173414
O O1 0.224635 0.500000 0.250000
O O2 0.212722 0.372890 0.500000
O O3 0.163723 0.336076 0.251541
O O4 0.258112 0.286043 0.266329
O O5 0.500000 0.378225 0.250000
O O6 0.434495 0.224212 0.266580
O O7 0.410363 0.424748 0.155049
O O8 0.466615 0.293059 0.000000
O O9 0.346448 0.826538 0.761354
O O10 0.408554 0.000000 0.750000
O O11 0.396137 0.877553 0.000000
O O12 0.099382 0.500000 0.250000
O O13 0.116643 0.618092 0.500000
O O14 0.079809 0.748253 0.288551
O O15 0.338418 0.601256 0.819315
O O16 0.000000 0.139318 0.250000
O O17 0.071340 0.000000 0.250000
O O18 0.049325 0.112951 0.000000
O O19 0.695466 0.239658 0.000000
#
# Coordination Sequence:
#
# PCOD9392451 Si02
#       7
#     8   8   8   8   4   8   8
#     4  10  18  31  52  79 111 147 183 223 270 321
#     4  11  23  37  56  80 107 139 171 210 261 314
#     4  10  21  39  58  77 103 134 175 221 265 317
#     4  10  21  36  54  82 116 152 192 237 286 339
#     4  10  19  34  54  80 112 136 169 208 254 314
#     4  10  21  37  59  84 113 149 194 240 289 344
#     4   9  18  32  52  78 107 138 171 213 262 313
#
# _framework density 18.468748000000001
#
# number of rings (size 3 to 8) (size 9 to 14) (size 15 to 20)
#    0.000    2.000    0.769    4.385    0.000    5.538 
#    0.000    6.154    0.000    3.692    0.000    0.000 
#    0.000    0.000    0.000    0.000    0.000    0.000 
#
# Total GULP energy -289594.169579 kJ/mol
# GULP energy per Si atom -5569.118646 kJ/mol
# Density = 1.842671 g / cm^3
# Si number density = 18.468748 Si / 1000 Ang^3
#
#
#
# Elastic Constant Matrix: (Units=GPa)
#
#
# Indices 1 2 3 4 5 6 
#
# 1 96.0407 53.6970 38.2306 0.0000 0.0000 0.0000
# 2 53.6970 111.5554 42.0987 0.0000 0.0000 0.0000
# 3 38.2306 42.0987 93.7822 0.0000 0.0000 0.0000
# 4 0.0000 0.0000 0.0000 26.3179 0.0000 0.0000
# 5 0.0000 0.0000 0.0000 0.0000 29.0098 0.0000
# 6 0.0000 0.0000 0.0000 0.0000 0.0000 16.0146
#
#
#
# Elastic Compliance Matrix: (Units=1/GPa)
#
#
# Indices 1 2 3 4 5 6 
#
# 1 0.015140 -0.005970 -0.003492 0.000000 0.000000 0.000000
# 2 -0.005970 0.013146 -0.003468 0.000000 0.000000 0.000000
# 3 -0.003492 -0.003468 0.013643 0.000000 0.000000 0.000000
# 4 0.000000 0.000000 0.000000 0.037997 0.000000 0.000000
# 5 0.000000 0.000000 0.000000 0.000000 0.034471 0.000000
# 6 0.000000 0.000000 0.000000 0.000000 0.000000 0.062443
#
#
# Mechanical properties :
#
#
# Convention : Reuss Voigt Hill
#
# Bulk Modulus (GPa) = 62.22624 63.27009 62.74817
# Shear Modulus (GPa) = 24.03189 25.42527 24.72858
#
# Velocity S-wave (km/s) = 3.61116 3.71437 3.66313
# Velocity P-wave (km/s) = 7.15214 7.26138 7.20697
#
# Compressibility (1/GPa) = 0.01607039
#
# Stress axis : x y z
#
# Youngs Moduli (GPa) = 66.04975 76.06649 73.29638
#
# Poissons Ratio (x) = 0.45410 0.25596
# Poissons Ratio (y) = 0.39431 0.25418
# Poissons Ratio (z) = 0.23065 0.26378
#
# Static dielectric constant tensor:
#      x y z
#    x 1.652630 0.000000 0.000000 
#    y 0.000000 1.643720 0.000000 
#    z 0.000000 0.000000 1.627510 
# 
# From -- ./inp_files/6721.got.cif
#   From: 2010.05.17/outbox.cif.g08.bks.cpg/sg49_4_cif.got.tgz:6721.got - 2010.06.03 21:02:19.
