data_PCOD9392227
_publ_section_title
;
Structure prediction by ZEFSAII (Michael W. Deem and Ramdas Pophale) SiO2 
 PCOD9392227
Probable space group: P C C M
;
_chemical_formula_sum "Si O2"
_cell_formula_units_Z 48
_cell_length_a 32.354155
_cell_length_b 9.204656
_cell_length_c 8.654789
_cell_angle_alpha 90.000000
_cell_angle_beta 90.000000
_cell_angle_gamma 90.000000
_cell_volume 2577.472906
_symmetry_space_group_name_H-M "P C C M"
_symmetry_group_IT_number 49
_symmetry_cell_setting 'orthorhombic'
loop_
_space_group_symop_operation_xyz
x,y,z
-x,-y,z
x,-y,1/2-z
-x,y,1/2-z
-x,-y,-z
x,y,-z
-x,y,1/2+z
x,-y,1/2+z
loop_
_atom_site_type_symbol
_atom_site_label
_atom_site_fract_x
_atom_site_fract_y
_atom_site_fract_z
Si Si1 0.457512 0.165516 0.814940
Si Si2 0.958131 0.335457 0.184587
Si Si3 0.371369 0.835959 0.815029
Si Si4 0.293374 0.337702 0.185902
Si Si5 0.866866 0.336113 0.814671
Si Si6 0.210540 0.838478 0.684835
O O1 0.500000 0.232685 0.750000
O O2 0.414372 0.227490 0.752387
O O3 0.457117 0.000000 0.750000
O O4 0.458151 0.162669 0.000000
O O5 0.957398 0.500000 0.250000
O O6 0.912754 0.275999 0.226401
O O7 0.000000 0.264936 0.250000
O O8 0.961330 0.341329 0.000000
O O9 0.332564 0.743510 0.758652
O O10 0.366745 0.000000 0.750000
O O11 0.373697 0.841760 0.000000
O O12 0.291036 0.500000 0.250000
O O13 0.251416 0.252449 0.227436
O O14 0.297237 0.338851 0.000000
O O15 0.863332 0.500000 0.750000
O O16 0.830094 0.239847 0.749351
O O17 0.864293 0.342577 0.000000
O O18 0.208110 0.843416 0.500000
O O19 0.213860 0.000000 0.750000
#
# Coordination Sequence:
#
# PCOD9392227 Si02
#       6
#     8   8   8   8   8   8
#     4  10  17  28  47  75 110 146 185 229 274 322
#     4   9  16  26  44  72 105 141 178 221 266 314
#     4  11  21  35  56  83 114 149 187 230 277 326
#     4  11  24  41  60  84 111 143 181 224 273 327
#     4  10  20  34  54  81 113 146 184 226 273 323
#     4  11  24  40  60  83 110 143 181 224 274 328
#
# _framework density 18.622892
#
# number of rings (size 3 to 8) (size 9 to 14) (size 15 to 20)
#    0.000    1.667    0.000    8.000    0.000    7.333 
#    0.000    0.000    0.000    1.000    0.000    7.000 
#    0.000    0.000    0.000    0.000    0.000    0.000 
#
# Total GULP energy -267998.128574 kJ/mol
# GULP energy per Si atom -5583.294345 kJ/mol
# Density = 1.858051 g / cm^3
# Si number density = 18.622892 Si / 1000 Ang^3
#
#
#
# Elastic Constant Matrix: (Units=GPa)
#
#
# Indices 1 2 3 4 5 6 
#
# 1 235.1963 80.5059 91.9055 0.0000 0.0000 0.0000
# 2 80.5059 83.3405 40.2741 0.0000 0.0000 0.0000
# 3 91.9055 40.2741 124.4685 0.0000 0.0000 0.0000
# 4 0.0000 0.0000 0.0000 23.7209 0.0000 0.0000
# 5 0.0000 0.0000 0.0000 0.0000 33.7937 0.0000
# 6 0.0000 0.0000 0.0000 0.0000 0.0000 24.0760
#
#
#
# Elastic Compliance Matrix: (Units=1/GPa)
#
#
# Indices 1 2 3 4 5 6 
#
# 1 0.007652 -0.005526 -0.003863 0.000000 0.000000 0.000000
# 2 -0.005526 0.018213 -0.001813 0.000000 0.000000 0.000000
# 3 -0.003863 -0.001813 0.011473 0.000000 0.000000 0.000000
# 4 0.000000 0.000000 0.000000 0.042157 0.000000 0.000000
# 5 0.000000 0.000000 0.000000 0.000000 0.029591 0.000000
# 6 0.000000 0.000000 0.000000 0.000000 0.000000 0.041535
#
#
# Mechanical properties :
#
#
# Convention : Reuss Voigt Hill
#
# Bulk Modulus (GPa) = 66.95377 96.48626 81.72002
# Shear Modulus (GPa) = 28.08949 31.67277 29.88113
#
# Velocity S-wave (km/s) = 3.88794 4.12848 4.01001
# Velocity P-wave (km/s) = 7.49568 8.63996 8.08808
#
# Compressibility (1/GPa) = 0.01493568
#
# Stress axis : x y z
#
# Youngs Moduli (GPa) = 130.67647 54.90634 87.16224
#
# Poissons Ratio (x) = 0.30339 0.33667
# Poissons Ratio (y) = 0.72207 0.15803
# Poissons Ratio (z) = 0.50474 0.09955
#
# Static dielectric constant tensor:
#      x y z
#    x 1.694050 0.000000 0.000000 
#    y 0.000000 1.618500 0.000000 
#    z 0.000000 0.000000 1.621540 
# 
# From -- ./inp_files/2115.got.cif
#   From: 2010.05.17/outbox.cif.g08.bks.cpg/sg49_2_cif.got.tgz:2115.got - 2010.06.03 21:02:19.
