data_PCOD9392194
_publ_section_title
;
Structure prediction by ZEFSAII (Michael W. Deem and Ramdas Pophale) SiO2 
 PCOD9392194
Probable space group: P C C M
;
_chemical_formula_sum "Si O2"
_cell_formula_units_Z 64
_cell_length_a 28.133528
_cell_length_b 15.052126
_cell_length_c 8.716879
_cell_angle_alpha 90.000000
_cell_angle_beta 90.000000
_cell_angle_gamma 90.000000
_cell_volume 3691.331592
_symmetry_space_group_name_H-M "P C C M"
_symmetry_group_IT_number 49
_symmetry_cell_setting 'orthorhombic'
loop_
_space_group_symop_operation_xyz
x,y,z
-x,-y,z
x,-y,1/2-z
-x,y,1/2-z
-x,-y,-z
x,y,-z
-x,y,1/2+z
x,-y,1/2+z
loop_
_atom_site_type_symbol
_atom_site_label
_atom_site_fract_x
_atom_site_fract_y
_atom_site_fract_z
Si Si1 0.240144 0.403591 0.816030
Si Si2 0.808959 0.095674 0.680343
Si Si3 0.076721 0.094873 0.820012
Si Si4 0.950759 0.278715 0.818748
Si Si5 0.268042 0.779854 0.817377
Si Si6 0.128540 0.404238 0.816839
Si Si7 0.648110 0.099945 0.316089
Si Si8 0.548690 0.899270 0.315772
O O1 0.253824 0.500000 0.750000
O O2 0.267510 0.320848 0.743042
O O3 0.184061 0.390190 0.778121
O O4 0.244916 0.403124 0.000000
O O5 0.796896 0.098808 0.500000
O O6 0.865864 0.103698 0.694649
O O7 0.781133 0.172833 0.767285
O O8 0.795142 0.000000 0.750000
O O9 0.054133 0.176438 0.730849
O O10 0.063253 0.000000 0.750000
O O11 0.064850 0.099306 0.000000
O O12 0.048583 0.286868 0.500000
O O13 0.905745 0.330285 0.751024
O O14 0.000000 0.314610 0.750000
O O15 0.309124 0.838018 0.738470
O O16 0.273070 0.782481 0.000000
O O17 0.114766 0.500000 0.750000
O O18 0.124472 0.404560 0.000000
O O19 0.645448 0.094827 0.500000
O O20 0.598430 0.137114 0.247768
O O21 0.655028 0.000000 0.250000
O O22 0.500000 0.857876 0.250000
O O23 0.547940 0.900871 0.500000
O O24 0.548997 0.000000 0.250000
#
# Coordination Sequence:
#
# PCOD9392194 Si02
#       8
#     8   8   8   8   8   8   8   8
#     4  10  21  38  59  82 106 134 168 208 251 301
#     4  10  20  34  52  75 103 135 170 208 248 297
#     4  10  21  38  58  79 103 132 169 209 249 293
#     4  12  25  40  58  80 106 134 166 203 248 298
#     4  12  23  34  50  74 105 140 175 213 258 309
#     4  10  21  39  62  86 110 134 164 201 246 299
#     4  11  21  34  49  70 103 142 183 226 270 315
#     4  10  17  28  45  67  95 133 180 225 268 312
#
# _framework density 17.337917999999998
#
# number of rings (size 3 to 8) (size 9 to 14) (size 15 to 20)
#    0.000    1.375    0.000    8.250    0.000    6.500 
#    0.000    2.500    0.000    0.000    0.000    0.000 
#    0.000    0.500    0.000    5.000    0.000    3.000 
#
# Total GULP energy -357757.500728 kJ/mol
# GULP energy per Si atom -5589.960949 kJ/mol
# Density = 1.729846 g / cm^3
# Si number density = 17.337918 Si / 1000 Ang^3
#
#
#
# Elastic Constant Matrix: (Units=GPa)
#
#
# Indices 1 2 3 4 5 6 
#
# 1 52.0812 36.8274 39.6461 0.0000 0.0000 0.0000
# 2 36.8274 93.4706 39.0440 0.0000 0.0000 0.0000
# 3 39.6461 39.0440 128.1656 0.0000 0.0000 0.0000
# 4 0.0000 0.0000 0.0000 28.6580 0.0000 0.0000
# 5 0.0000 0.0000 0.0000 0.0000 20.8287 0.0000
# 6 0.0000 0.0000 0.0000 0.0000 0.0000 10.0517
#
#
#
# Elastic Compliance Matrix: (Units=1/GPa)
#
#
# Indices 1 2 3 4 5 6 
#
# 1 0.030952 -0.009391 -0.006714 0.000000 0.000000 0.000000
# 2 -0.009391 0.015107 -0.001697 0.000000 0.000000 0.000000
# 3 -0.006714 -0.001697 0.010396 0.000000 0.000000 0.000000
# 4 0.000000 0.000000 0.000000 0.034894 0.000000 0.000000
# 5 0.000000 0.000000 0.000000 0.000000 0.048011 0.000000
# 6 0.000000 0.000000 0.000000 0.000000 0.000000 0.099486
#
#
# Mechanical properties :
#
#
# Convention : Reuss Voigt Hill
#
# Bulk Modulus (GPa) = 47.95703 56.08359 52.02031
# Shear Modulus (GPa) = 17.76827 22.45434 20.11130
#
# Velocity S-wave (km/s) = 3.20476 3.60265 3.40951
# Velocity P-wave (km/s) = 6.43539 7.05146 6.75045
#
# Compressibility (1/GPa) = 0.02085200
#
# Stress axis : x y z
#
# Youngs Moduli (GPa) = 32.30840 66.19235 96.18801
#
# Poissons Ratio (x) = 0.62158 0.64578
# Poissons Ratio (y) = 0.30339 0.16328
# Poissons Ratio (z) = 0.21691 0.11236
#
# Static dielectric constant tensor:
#      x y z
#    x 1.623410 0.000000 0.000000 
#    y 0.000000 1.566270 0.000000 
#    z 0.000000 0.000000 1.572670 
# 
# From -- ./inp_files/7071.got.cif
#   From: 2010.05.17/outbox.cif.g08.bks.cpg/sg49_4_cif.got.tgz:7071.got - 2010.06.03 21:02:19.
