data_PCOD9392528
_publ_section_title
;
Structure prediction by ZEFSAII (Michael W. Deem and Ramdas Pophale) SiO2 
 PCOD9392528
Probable space group: P C C M
;
_chemical_formula_sum "Si O2"
_cell_formula_units_Z 58
_cell_length_a 17.174407
_cell_length_b 11.801555
_cell_length_c 14.117735
_cell_angle_alpha 90.000000
_cell_angle_beta 90.000000
_cell_angle_gamma 90.000000
_cell_volume 2861.449007
_symmetry_space_group_name_H-M "P C C M"
_symmetry_group_IT_number 49
_symmetry_cell_setting 'orthorhombic'
loop_
_space_group_symop_operation_xyz
x,y,z
-x,-y,z
x,-y,1/2-z
-x,y,1/2-z
-x,-y,-z
x,y,-z
-x,y,1/2+z
x,-y,1/2+z
loop_
_atom_site_type_symbol
_atom_site_label
_atom_site_fract_x
_atom_site_fract_y
_atom_site_fract_z
Si Si1 0.840960 0.211236 0.890218
Si Si2 0.215478 0.454888 0.857050
Si Si3 0.388055 0.478444 0.604714
Si Si4 0.872616 0.055002 0.609154
Si Si5 0.938243 0.415776 0.894828
Si Si6 0.748773 0.788844 0.797846
Si Si7 0.000000 0.000000 0.750000
Si Si8 0.583043 0.305713 0.273733
O O1 0.909014 0.296144 0.855120
O O2 0.773229 0.220188 0.812530
O O3 0.866188 0.081198 0.892504
O O4 0.821189 0.243226 0.000000
O O5 0.217273 0.500000 0.750000
O O6 0.296520 0.493761 0.899981
O O7 0.140140 0.510628 0.900495
O O8 0.215774 0.319950 0.851879
O O9 0.416411 0.450901 0.500000
O O10 0.425525 0.593766 0.647838
O O11 0.395552 0.377876 0.680039
O O12 0.884277 0.093204 0.500000
O O13 0.793634 0.106174 0.654488
O O14 0.944259 0.074204 0.681113
O O15 0.000000 0.500000 0.848930
O O16 0.969270 0.388896 0.000000
O O17 0.655278 0.774338 0.801984
O O18 0.500000 0.250494 0.250000
#
# Coordination Sequence:
#
# PCOD9392528 Si02
#       8
#     8   8   8   8   8   8   2   8
#     4  10  20  40  64  85 114 160 212 255 309 378
#     4  11  19  34  53  82 119 162 208 254 313 387
#     4  10  18  33  56  81 120 170 216 266 323 390
#     4  11  25  43  68  98 125 162 215 271 323 383
#     4  10  21  35  53  82 119 161 207 255 309 377
#     4  11  21  40  61  87 125 170 208 258 328 385
#     4  12  22  44  72  94 124 152 202 268 328 368
#     4  10  21  35  55  89 125 162 217 269 322 395
#
# _framework density 20.269449999999999
#
# number of rings (size 3 to 8) (size 9 to 14) (size 15 to 20)
#    0.000    1.517    5.517    1.448    0.000    6.897 
#    0.000    1.379    0.000    1.655    0.000    1.931 
#    0.000    0.000    0.000    0.000    0.000    0.000 
#
# Total GULP energy -323533.714579 kJ/mol
# GULP energy per Si atom -5578.167493 kJ/mol
# Density = 2.022332 g / cm^3
# Si number density = 20.269450 Si / 1000 Ang^3
#
#
#
# Elastic Constant Matrix: (Units=GPa)
#
#
# Indices 1 2 3 4 5 6 
#
# 1 109.7853 50.7876 25.5799 0.0000 0.0000 0.0000
# 2 50.7876 83.9401 10.1411 0.0000 0.0000 0.0000
# 3 25.5799 10.1411 121.3914 0.0000 0.0000 0.0000
# 4 0.0000 0.0000 0.0000 10.6917 0.0000 0.0000
# 5 0.0000 0.0000 0.0000 0.0000 8.3692 0.0000
# 6 0.0000 0.0000 0.0000 0.0000 0.0000 26.0619
#
#
#
# Elastic Compliance Matrix: (Units=1/GPa)
#
#
# Indices 1 2 3 4 5 6 
#
# 1 0.013173 -0.007713 -0.002132 0.000000 0.000000 0.000000
# 2 -0.007713 0.016551 0.000243 0.000000 0.000000 0.000000
# 3 -0.002132 0.000243 0.008667 0.000000 0.000000 0.000000
# 4 0.000000 0.000000 0.000000 0.093531 0.000000 0.000000
# 5 0.000000 0.000000 0.000000 0.000000 0.119486 0.000000
# 6 0.000000 0.000000 0.000000 0.000000 0.000000 0.038370
#
#
# Mechanical properties :
#
#
# Convention : Reuss Voigt Hill
#
# Bulk Modulus (GPa) = 52.11882 54.23712 53.17797
# Shear Modulus (GPa) = 15.85404 24.26511 20.05957
#
# Velocity S-wave (km/s) = 2.79975 3.46371 3.14928
# Velocity P-wave (km/s) = 6.01833 6.54313 6.28621
#
# Compressibility (1/GPa) = 0.01918693
#
# Stress axis : x y z
#
# Youngs Moduli (GPa) = 75.91022 60.42057 115.38393
#
# Poissons Ratio (x) = 0.46602 0.24595
# Poissons Ratio (y) = 0.58550 -0.02800
# Poissons Ratio (z) = 0.16181 -0.01466
#
# Static dielectric constant tensor:
#      x y z
#    x 1.758570 0.000000 0.000000 
#    y 0.000000 1.726140 0.000000 
#    z 0.000000 0.000000 1.786360 
# 
# From -- ./inp_files/14153.got.cif
#   From: 2010.05.17/outbox.cif.g08.bks.cpg/sg49_8_cif.got.tgz:14153.got - 2010.06.03 21:02:19.
