data_PCOD9392020
_publ_section_title
;
Structure prediction by ZEFSAII (Michael W. Deem and Ramdas Pophale) SiO2 
 PCOD9392020
Probable space group: P C C M
;
_chemical_formula_sum "Si O2"
_cell_formula_units_Z 40
_cell_length_a 26.958114
_cell_length_b 9.314488
_cell_length_c 8.633253
_cell_angle_alpha 90.000000
_cell_angle_beta 90.000000
_cell_angle_gamma 90.000000
_cell_volume 2167.818715
_symmetry_space_group_name_H-M "P C C M"
_symmetry_group_IT_number 49
_symmetry_cell_setting 'orthorhombic'
loop_
_space_group_symop_operation_xyz
x,y,z
-x,-y,z
x,-y,1/2-z
-x,y,1/2-z
-x,-y,-z
x,y,-z
-x,y,1/2+z
x,-y,1/2+z
loop_
_atom_site_type_symbol
_atom_site_label
_atom_site_fract_x
_atom_site_fract_y
_atom_site_fract_z
Si Si1 0.449049 0.336167 0.184537
Si Si2 0.237527 0.662459 0.186054
Si Si3 0.946615 0.660994 0.314462
Si Si4 0.347785 0.337415 0.685096
Si Si5 0.854577 0.839721 0.185054
O O1 0.448268 0.500000 0.250000
O O2 0.500000 0.270239 0.250000
O O3 0.397080 0.269260 0.241202
O O4 0.450758 0.341540 0.000000
O O5 0.234272 0.500000 0.250000
O O6 0.292999 0.721997 0.220806
O O7 0.194464 0.755573 0.261064
O O8 0.231909 0.658763 0.000000
O O9 0.938822 0.500000 0.250000
O O10 0.947789 0.657067 0.500000
O O11 0.902310 0.759491 0.254830
O O12 0.000000 0.710198 0.250000
O O13 0.345714 0.500000 0.750000
O O14 0.353881 0.342440 0.500000
O O15 0.852727 0.000000 0.250000
O O16 0.857719 0.840295 0.000000
#
# Coordination Sequence:
#
# PCOD9392020 Si02
#       5
#     8   8   8   8   8
#     4  10  16  22  33  51  81 119 160 202 252 309
#     4  10  20  35  55  79 106 140 180 224 270 320
#     4  11  22  40  64  91 119 149 185 223 265 313
#     4   9  16  26  41  62  90 123 164 209 256 308
#     4  12  25  41  59  82 112 146 183 225 272 322
#
# _framework density 18.451727999999999
#
# number of rings (size 3 to 8) (size 9 to 14) (size 15 to 20)
#    0.000    1.600    0.000    9.600    0.000    2.800 
#    0.000    2.000    0.000    0.000    0.000    0.000 
#    0.000    0.800    0.000    8.400    0.000    6.200 
#
# Total GULP energy -223296.554385 kJ/mol
# GULP energy per Si atom -5582.413860 kJ/mol
# Density = 1.840973 g / cm^3
# Si number density = 18.451728 Si / 1000 Ang^3
#
#
#
# Elastic Constant Matrix: (Units=GPa)
#
#
# Indices 1 2 3 4 5 6 
#
# 1 217.7955 73.0063 100.6895 0.0000 0.0000 0.0000
# 2 73.0063 46.8032 37.5969 0.0000 0.0000 0.0000
# 3 100.6895 37.5969 183.7733 0.0000 0.0000 0.0000
# 4 0.0000 0.0000 0.0000 20.6441 0.0000 0.0000
# 5 0.0000 0.0000 0.0000 0.0000 38.2537 0.0000
# 6 0.0000 0.0000 0.0000 0.0000 0.0000 -7.7480
#
#
#
# Elastic Compliance Matrix: (Units=1/GPa)
#
#
# Indices 1 2 3 4 5 6 
#
# 1 0.010822 -0.014501 -0.002963 0.000000 0.000000 0.000000
# 2 -0.014501 0.044998 -0.001261 0.000000 0.000000 0.000000
# 3 -0.002963 -0.001261 0.007323 0.000000 0.000000 0.000000
# 4 0.000000 0.000000 0.000000 0.048440 0.000000 0.000000
# 5 0.000000 0.000000 0.000000 0.000000 0.026141 0.000000
# 6 0.000000 0.000000 0.000000 0.000000 0.000000 -0.129066
#
#
# Mechanical properties :
#
#
# Convention : Reuss Voigt Hill
#
# Bulk Modulus (GPa) = 38.91972 96.77306 67.84639
# Shear Modulus (GPa) = 91.45594 26.03524 58.74559
#
# Velocity S-wave (km/s) = 7.04788 3.76039 5.64859
# Velocity P-wave (km/s) = 9.34712 8.45071 8.91020
#
# Compressibility (1/GPa) = 0.02569391
#
# Stress axis : x y z
#
# Youngs Moduli (GPa) = 92.40571 22.22334 136.56117
#
# Poissons Ratio (x) = 0.32225 0.40459
# Poissons Ratio (y) = 1.33994 0.17219
# Poissons Ratio (z) = 0.27377 0.02802
#
# Static dielectric constant tensor:
#      x y z
#    x 1.696190 0.000000 0.000000 
#    y 0.000000 1.575160 0.000000 
#    z 0.000000 0.000000 1.613080 
# 
# From -- ./inp_files/1927.got.cif
#   From: 2010.05.17/outbox.cif.g08.bks.cpg/sg49_1_cif.got.tgz:1927.got - 2010.06.03 21:02:19.
