data_PCOD9392483
_publ_section_title
;
Structure prediction by ZEFSAII (Michael W. Deem and Ramdas Pophale) SiO2 
 PCOD9392483
Probable space group: P C C M
;
_chemical_formula_sum "Si O2"
_cell_formula_units_Z 48
_cell_length_a 12.461522
_cell_length_b 7.657097
_cell_length_c 23.316981
_cell_angle_alpha 90.000000
_cell_angle_beta 90.000000
_cell_angle_gamma 90.000000
_cell_volume 2224.884939
_symmetry_space_group_name_H-M "P C C M"
_symmetry_group_IT_number 49
_symmetry_cell_setting 'orthorhombic'
loop_
_space_group_symop_operation_xyz
x,y,z
-x,-y,z
x,-y,1/2-z
-x,y,1/2-z
-x,-y,-z
x,y,-z
-x,y,1/2+z
x,-y,1/2+z
loop_
_atom_site_type_symbol
_atom_site_label
_atom_site_fract_x
_atom_site_fract_y
_atom_site_fract_z
Si Si1 0.571916 0.336379 0.676886
Si Si2 0.339822 0.504655 0.934827
Si Si3 0.188229 0.271385 0.210638
Si Si4 0.819234 0.090253 0.835301
Si Si5 0.415914 0.129505 0.384008
Si Si6 0.884190 0.554672 0.378522
O O1 0.500000 0.500000 0.694037
O O2 0.608040 0.376474 0.611380
O O3 0.683124 0.303723 0.708133
O O4 0.485890 0.185245 0.671514
O O5 0.384273 0.698098 0.919942
O O6 0.214094 0.503265 0.919379
O O7 0.361378 0.459074 0.000000
O O8 0.174280 0.191635 0.274112
O O9 0.137775 0.446304 0.181866
O O10 0.144498 0.108880 0.172475
O O11 0.698196 0.066039 0.859823
O O12 0.877757 0.235480 0.873200
O O13 0.500000 0.000000 0.414798
O O14 0.000000 0.500000 0.399209
#
# Coordination Sequence:
#
# PCOD9392483 Si02
#       6
#     8   8   8   8   8   8
#     4   9  18  32  52  76 111 150 182 223 265 321
#     4   9  20  37  56  79 104 138 186 234 284 340
#     4  10  20  36  54  80 115 151 185 228 270 325
#     4  10  21  35  55  82 115 149 190 224 265 333
#     4  10  18  32  52  78 115 147 179 221 265 322
#     4  10  22  39  59  80 107 142 183 241 294 334
#
# _framework density 21.574151000000001
#
# number of rings (size 3 to 8) (size 9 to 14) (size 15 to 20)
#    0.000    2.333    1.667    1.500    0.000    6.333 
#    0.000    5.833    0.000    0.000    0.000    4.667 
#    0.000    0.000    0.000    0.000    0.000    0.000 
#
# Total GULP energy -267405.860023 kJ/mol
# GULP energy per Si atom -5570.955417 kJ/mol
# Density = 2.152505 g / cm^3
# Si number density = 21.574151 Si / 1000 Ang^3
#
#
#
# Elastic Constant Matrix: (Units=GPa)
#
#
# Indices 1 2 3 4 5 6 
#
# 1 107.3822 26.0027 -9.3402 0.0000 0.0000 0.0000
# 2 26.0027 111.8747 -5.8114 0.0000 0.0000 0.0000
# 3 -9.3402 -5.8114 41.8569 0.0000 0.0000 0.0000
# 4 0.0000 0.0000 0.0000 89.3636 0.0000 0.0000
# 5 0.0000 0.0000 0.0000 0.0000 -2.8376 0.0000
# 6 0.0000 0.0000 0.0000 0.0000 0.0000 25.6218
#
#
#
# Elastic Compliance Matrix: (Units=1/GPa)
#
#
# Indices 1 2 3 4 5 6 
#
# 1 0.010020 -0.002229 0.001926 0.000000 0.000000 0.000000
# 2 -0.002229 0.009499 0.000822 0.000000 0.000000 0.000000
# 3 0.001926 0.000822 0.024435 0.000000 0.000000 0.000000
# 4 0.000000 0.000000 0.000000 0.011190 0.000000 0.000000
# 5 0.000000 0.000000 0.000000 0.000000 -0.352408 0.000000
# 6 0.000000 0.000000 0.000000 0.000000 0.000000 0.039029
#
#
# Mechanical properties :
#
#
# Convention : Reuss Voigt Hill
#
# Bulk Modulus (GPa) = 22.22603 31.42399 26.82501
# Shear Modulus (GPa) = -20.46868 39.11376 9.32254
#
# Velocity S-wave (km/s) = -3.08354 4.26254 2.08100
# Velocity P-wave (km/s) = 1.53397 6.23080 4.27024
#
# Compressibility (1/GPa) = 0.04499230
#
# Stress axis : x y z
#
# Youngs Moduli (GPa) = 99.80240 105.27116 40.92511
#
# Poissons Ratio (x) = 0.23463 -0.07884
# Poissons Ratio (y) = 0.22244 -0.03362
# Poissons Ratio (z) = -0.19226 -0.08648
#
# Static dielectric constant tensor:
#      x y z
#    x 1.784340 0.000000 0.000000 
#    y 0.000000 1.687060 0.000000 
#    z 0.000000 0.000000 1.829560 
# 
# From -- ./inp_files/22837.got.cif
#   From: 2010.05.17/outbox.cif.g08.bks.cpg/sg49_12_cif.got.tgz:22837.got - 2010.06.03 21:02:19.
