data_PCOD9392715
_publ_section_title
;
Structure prediction by ZEFSAII (Michael W. Deem and Ramdas Pophale) SiO2 
 PCOD9392715
Probable space group: P C C M
;
_chemical_formula_sum "Si O2"
_cell_formula_units_Z 64
_cell_length_a 19.706969
_cell_length_b 19.430829
_cell_length_c 9.191244
_cell_angle_alpha 90.000000
_cell_angle_beta 90.000000
_cell_angle_gamma 90.000000
_cell_volume 3519.536380
_symmetry_space_group_name_H-M "P C C M"
_symmetry_group_IT_number 49
_symmetry_cell_setting 'orthorhombic'
loop_
_space_group_symop_operation_xyz
x,y,z
-x,-y,z
x,-y,1/2-z
-x,y,1/2-z
-x,-y,-z
x,y,-z
-x,y,1/2+z
x,-y,1/2+z
loop_
_atom_site_type_symbol
_atom_site_label
_atom_site_fract_x
_atom_site_fract_y
_atom_site_fract_z
Si Si1 0.432000 0.171093 0.331665
Si Si2 0.931535 0.687135 0.670822
Si Si3 0.645327 0.934552 0.162841
Si Si4 0.195021 0.209147 0.332169
Si Si5 0.431739 0.663252 0.168744
Si Si6 0.721634 0.341937 0.822553
Si Si7 0.807450 0.066768 0.663428
Si Si8 0.842324 0.425734 0.676029
O O1 0.500000 0.148112 0.250000
O O2 0.432876 0.151766 0.500000
O O3 0.371025 0.134003 0.250877
O O4 0.429348 0.253504 0.322491
O O5 0.942375 0.670226 0.500000
O O6 0.873186 0.745126 0.675534
O O7 0.901861 0.622558 0.760338
O O8 0.000000 0.710077 0.750000
O O9 0.726063 0.942566 0.153480
O O10 0.617441 0.000000 0.250000
O O11 0.617521 0.930870 0.000000
O O12 0.208098 0.189574 0.500000
O O13 0.254550 0.263309 0.288960
O O14 0.184966 0.140269 0.240864
O O15 0.500000 0.640011 0.250000
O O16 0.356237 0.642235 0.218236
O O17 0.438208 0.644106 0.000000
O O18 0.773287 0.390924 0.737502
O O19 0.728998 0.349118 0.000000
O O20 0.835192 0.068480 0.500000
O O21 0.833913 0.000000 0.750000
O O22 0.848392 0.500000 0.750000
O O23 0.842873 0.428457 0.500000
#
# Coordination Sequence:
#
# PCOD9392715 Si02
#       8
#     8   8   8   8   8   8   8   8
#     4  10  19  31  45  62  85 116 153 197 249 307
#     4  10  21  38  59  86 118 151 184 219 258 306
#     4  10  20  32  44  61  84 114 153 200 251 308
#     4   9  18  33  54  78 107 140 177 220 268 318
#     4   9  18  31  49  72 100 132 168 213 266 318
#     4   9  18  34  54  78 108 143 180 222 271 323
#     4  10  20  32  49  72  99 130 169 216 267 318
#     4  11  22  37  58  85 116 150 185 221 260 308
#
# _framework density 18.184213
#
# number of rings (size 3 to 8) (size 9 to 14) (size 15 to 20)
#    0.000    2.250    0.000    4.125    0.000    6.500 
#    0.000    2.500    0.000    0.750    0.000    5.250 
#    0.000    0.000    0.000    0.000    0.000    0.000 
#
# Total GULP energy -356854.091228 kJ/mol
# GULP energy per Si atom -5575.845175 kJ/mol
# Density = 1.814282 g / cm^3
# Si number density = 18.184213 Si / 1000 Ang^3
#
#
#
# Elastic Constant Matrix: (Units=GPa)
#
#
# Indices 1 2 3 4 5 6 
#
# 1 51.3292 -23.9453 4.1928 0.0000 0.0000 0.0000
# 2 -23.9453 43.5004 23.7569 0.0000 0.0000 0.0000
# 3 4.1928 23.7569 99.5663 0.0000 0.0000 0.0000
# 4 0.0000 0.0000 0.0000 20.3752 0.0000 0.0000
# 5 0.0000 0.0000 0.0000 0.0000 28.1708 0.0000
# 6 0.0000 0.0000 0.0000 0.0000 0.0000 10.6642
#
#
#
# Elastic Compliance Matrix: (Units=1/GPa)
#
#
# Indices 1 2 3 4 5 6 
#
# 1 0.028815 0.019000 -0.005747 0.000000 0.000000 0.000000
# 2 0.019000 0.038961 -0.010096 0.000000 0.000000 0.000000
# 3 -0.005747 -0.010096 0.012695 0.000000 0.000000 0.000000
# 4 0.000000 0.000000 0.000000 0.049079 0.000000 0.000000
# 5 0.000000 0.000000 0.000000 0.000000 0.035498 0.000000
# 6 0.000000 0.000000 0.000000 0.000000 0.000000 0.093772
#
#
# Mechanical properties :
#
#
# Convention : Reuss Voigt Hill
#
# Bulk Modulus (GPa) = 11.52275 22.48942 17.00608
# Shear Modulus (GPa) = 17.76613 24.53480 21.15046
#
# Velocity S-wave (km/s) = 3.12910 3.67718 3.41416
# Velocity P-wave (km/s) = 4.40517 5.51573 4.99143
#
# Compressibility (1/GPa) = 0.08678487
#
# Stress axis : x y z
#
# Youngs Moduli (GPa) = 34.70385 25.66656 78.77359
#
# Poissons Ratio (x) = -0.48767 0.45271
# Poissons Ratio (y) = -0.65938 0.79533
# Poissons Ratio (z) = 0.19944 0.25914
#
# Static dielectric constant tensor:
#      x y z
#    x 1.648720 0.000000 0.000000 
#    y 0.000000 1.615970 0.000000 
#    z 0.000000 0.000000 1.626830 
# 
# From -- ./inp_files/5289.got.cif
#   From: 2010.05.17/outbox.cif.g08.bks.cpg/sg49_3_cif.got.tgz:5289.got - 2010.06.03 21:02:19.
