data_PCOD9392082
_publ_section_title
;
Structure prediction by ZEFSAII (Michael W. Deem and Ramdas Pophale) SiO2 
 PCOD9392082
Probable space group: P C C M
;
_chemical_formula_sum "Si O2"
_cell_formula_units_Z 48
_cell_length_a 13.917654
_cell_length_b 24.826342
_cell_length_c 8.573298
_cell_angle_alpha 90.000000
_cell_angle_beta 90.000000
_cell_angle_gamma 90.000000
_cell_volume 2962.283974
_symmetry_space_group_name_H-M "P C C M"
_symmetry_group_IT_number 49
_symmetry_cell_setting 'orthorhombic'
loop_
_space_group_symop_operation_xyz
x,y,z
-x,-y,z
x,-y,1/2-z
-x,y,1/2-z
-x,-y,-z
x,y,-z
-x,y,1/2+z
x,-y,1/2+z
loop_
_atom_site_type_symbol
_atom_site_label
_atom_site_fract_x
_atom_site_fract_y
_atom_site_fract_z
Si Si1 0.797344 0.279433 0.310880
Si Si2 0.894952 0.609606 0.812443
Si Si3 0.702620 0.558252 0.314032
Si Si4 0.603938 0.664109 0.187182
Si Si5 0.109699 0.944319 0.186160
Si Si6 0.891029 0.831699 0.811947
O O1 0.798134 0.278549 0.500000
O O2 0.866790 0.328972 0.264879
O O3 0.690058 0.296060 0.262000
O O4 0.833730 0.221309 0.258977
O O5 0.809999 0.572720 0.745307
O O6 0.000000 0.595786 0.750000
O O7 0.892992 0.606423 0.000000
O O8 0.674682 0.500000 0.250000
O O9 0.700799 0.558586 0.500000
O O10 0.634512 0.605359 0.249118
O O11 0.500000 0.679401 0.250000
O O12 0.602860 0.662538 0.000000
O O13 0.151029 0.887906 0.247709
O O14 0.000000 0.943753 0.250000
O O15 0.153718 0.000000 0.250000
O O16 0.107706 0.945191 0.000000
O O17 0.000000 0.826556 0.750000
O O18 0.893286 0.834043 0.000000
#
# Coordination Sequence:
#
# PCOD9392082 Si02
#       6
#     8   8   8   8   8   8
#     4   8  17  31  48  68  95 123 153 190 230 273
#     4  10  19  33  50  71  97 128 160 193 229 273
#     4  11  22  37  54  74  96 122 153 191 232 277
#     4  10  20  37  56  76  97 121 150 187 233 283
#     4  10  17  26  38  56  83 120 160 198 230 265
#     4  10  17  27  42  64  92 126 159 192 227 265
#
# _framework density 16.203713
#
# number of rings (size 3 to 8) (size 9 to 14) (size 15 to 20)
#    0.000    2.167    0.000    7.500    0.000    0.667 
#    0.000   12.500    0.000    0.000    0.000    0.000 
#    0.000    0.667    0.000    7.667    0.000    2.333 
#
# Total GULP energy -267765.553605 kJ/mol
# GULP energy per Si atom -5578.449033 kJ/mol
# Density = 1.616683 g / cm^3
# Si number density = 16.203713 Si / 1000 Ang^3
#
#
#
# Elastic Constant Matrix: (Units=GPa)
#
#
# Indices 1 2 3 4 5 6 
#
# 1 57.3773 17.0623 14.9242 0.0000 0.0000 0.0000
# 2 17.0623 117.2723 28.0689 0.0000 0.0000 0.0000
# 3 14.9242 28.0689 93.9905 0.0000 0.0000 0.0000
# 4 0.0000 0.0000 0.0000 30.8451 0.0000 0.0000
# 5 0.0000 0.0000 0.0000 0.0000 20.9239 0.0000
# 6 0.0000 0.0000 0.0000 0.0000 0.0000 14.3375
#
#
#
# Elastic Compliance Matrix: (Units=1/GPa)
#
#
# Indices 1 2 3 4 5 6 
#
# 1 0.018675 -0.002162 -0.002320 0.000000 0.000000 0.000000
# 2 -0.002162 0.009434 -0.002474 0.000000 0.000000 0.000000
# 3 -0.002320 -0.002474 0.011747 0.000000 0.000000 0.000000
# 4 0.000000 0.000000 0.000000 0.032420 0.000000 0.000000
# 5 0.000000 0.000000 0.000000 0.000000 0.047792 0.000000
# 6 0.000000 0.000000 0.000000 0.000000 0.000000 0.069747
#
#
# Mechanical properties :
#
#
# Convention : Reuss Voigt Hill
#
# Bulk Modulus (GPa) = 38.54444 43.19454 40.86949
# Shear Modulus (GPa) = 23.54341 27.12695 25.33518
#
# Velocity S-wave (km/s) = 3.81591 4.09604 3.95845
# Velocity P-wave (km/s) = 6.57677 7.00608 6.79482
#
# Compressibility (1/GPa) = 0.02594408
#
# Stress axis : x y z
#
# Youngs Moduli (GPa) = 53.54838 106.00135 85.13157
#
# Poissons Ratio (x) = 0.22916 0.19748
# Poissons Ratio (y) = 0.11576 0.21062
# Poissons Ratio (z) = 0.12421 0.26225
#
# Static dielectric constant tensor:
#      x y z
#    x 1.522320 0.000000 0.000000 
#    y 0.000000 1.575790 0.000000 
#    z 0.000000 0.000000 1.542520 
# 
# From -- ./inp_files/4146.got.cif
#   From: 2010.05.17/outbox.cif.g08.bks.cpg/sg49_3_cif.got.tgz:4146.got - 2010.06.03 21:02:19.
