data_PCOD9392029
_publ_section_title
;
Structure prediction by ZEFSAII (Michael W. Deem and Ramdas Pophale) SiO2 
 PCOD9392029
Probable space group: P C C M
;
_chemical_formula_sum "Si O2"
_cell_formula_units_Z 40
_cell_length_a 21.255409
_cell_length_b 15.726367
_cell_length_c 8.617150
_cell_angle_alpha 90.000000
_cell_angle_beta 90.000000
_cell_angle_gamma 90.000000
_cell_volume 2880.457856
_symmetry_space_group_name_H-M "P C C M"
_symmetry_group_IT_number 49
_symmetry_cell_setting 'orthorhombic'
loop_
_space_group_symop_operation_xyz
x,y,z
-x,-y,z
x,-y,1/2-z
-x,y,1/2-z
-x,-y,-z
x,y,-z
-x,y,1/2+z
x,-y,1/2+z
loop_
_atom_site_type_symbol
_atom_site_label
_atom_site_fract_x
_atom_site_fract_y
_atom_site_fract_z
Si Si1 0.826697 0.595841 0.814673
Si Si2 0.694904 0.596796 0.685645
Si Si3 0.071216 0.275457 0.313279
Si Si4 0.565054 0.597122 0.185665
Si Si5 0.071171 0.913770 0.184956
O O1 0.834888 0.500000 0.750000
O O2 0.761181 0.632363 0.745610
O O3 0.884123 0.654136 0.760591
O O4 0.822231 0.591931 0.000000
O O5 0.695967 0.500000 0.750000
O O6 0.692881 0.595463 0.500000
O O7 0.630408 0.635960 0.752331
O O8 0.070147 0.283747 0.500000
O O9 0.096193 0.180030 0.274634
O O10 0.000000 0.282904 0.250000
O O11 0.565404 0.500000 0.250000
O O12 0.500000 0.635746 0.250000
O O13 0.564463 0.594927 0.000000
O O14 0.000000 0.912589 0.250000
O O15 0.101875 0.000000 0.250000
O O16 0.068611 0.920474 0.000000
#
# Coordination Sequence:
#
# PCOD9392029 Si02
#       5
#     8   8   8   8   8
#     4  11  21  33  46  59  76 103 136 172 207 243
#     4  10  17  27  40  54  72  96 126 161 197 236
#     4  10  20  33  46  63  82 103 131 167 204 242
#     4  10  16  23  34  51  72  94 121 155 194 233
#     4   9  16  26  43  63  84 103 123 151 190 237
#
# _framework density 13.886682
#
# number of rings (size 3 to 8) (size 9 to 14) (size 15 to 20)
#    0.000    2.000    0.000   10.200    0.000    2.800 
#    0.000    2.000    0.000    0.000    0.000    0.000 
#    0.000    0.000    0.000    0.000    0.000    1.000 
#
# Total GULP energy -222778.423581 kJ/mol
# GULP energy per Si atom -5569.460590 kJ/mol
# Density = 1.385508 g / cm^3
# Si number density = 13.886682 Si / 1000 Ang^3
#
#
#
# Elastic Constant Matrix: (Units=GPa)
#
#
# Indices 1 2 3 4 5 6 
#
# 1 101.0227 39.5516 45.5490 0.0000 0.0000 0.0000
# 2 39.5516 59.8119 32.9852 0.0000 0.0000 0.0000
# 3 45.5490 32.9852 129.3144 0.0000 0.0000 0.0000
# 4 0.0000 0.0000 0.0000 15.2728 0.0000 0.0000
# 5 0.0000 0.0000 0.0000 0.0000 23.2119 0.0000
# 6 0.0000 0.0000 0.0000 0.0000 0.0000 -0.4829
#
#
#
# Elastic Compliance Matrix: (Units=1/GPa)
#
#
# Indices 1 2 3 4 5 6 
#
# 1 0.014327 -0.007786 -0.003060 0.000000 0.000000 0.000000
# 2 -0.007786 0.023688 -0.003300 0.000000 0.000000 0.000000
# 3 -0.003060 -0.003300 0.009653 0.000000 0.000000 0.000000
# 4 0.000000 0.000000 0.000000 0.065476 0.000000 0.000000
# 5 0.000000 0.000000 0.000000 0.000000 0.043081 0.000000
# 6 0.000000 0.000000 0.000000 0.000000 0.000000 -2.070742
#
#
# Mechanical properties :
#
#
# Convention : Reuss Voigt Hill
#
# Bulk Modulus (GPa) = 51.61325 58.48008 55.04666
# Shear Modulus (GPa) = -2.65990 19.07124 8.20567
#
# Velocity S-wave (km/s) = -1.38549 3.70989 2.43348
# Velocity P-wave (km/s) = 5.88971 7.78170 6.90085
#
# Compressibility (1/GPa) = 0.01937487
#
# Stress axis : x y z
#
# Youngs Moduli (GPa) = 69.79817 42.21630 103.59788
#
# Poissons Ratio (x) = 0.32871 0.31705
# Poissons Ratio (y) = 0.54347 0.34183
# Poissons Ratio (z) = 0.21361 0.13930
#
# Static dielectric constant tensor:
#      x y z
#    x 1.499050 0.000000 0.000000 
#    y 0.000000 1.456920 0.000000 
#    z 0.000000 0.000000 1.460770 
# 
# From -- ./inp_files/3812.got.cif
#   From: 2010.05.17/outbox.cif.g08.bks.cpg/sg49_2_cif.got.tgz:3812.got - 2010.06.03 21:02:19.
