data_PCOD9392038
_publ_section_title
;
Structure prediction by ZEFSAII (Michael W. Deem and Ramdas Pophale) SiO2 
 PCOD9392038
Probable space group: P C C M
;
_chemical_formula_sum "Si O2"
_cell_formula_units_Z 40
_cell_length_a 9.256699
_cell_length_b 27.043523
_cell_length_c 8.600727
_cell_angle_alpha 90.000000
_cell_angle_beta 90.000000
_cell_angle_gamma 90.000000
_cell_volume 2153.052263
_symmetry_space_group_name_H-M "P C C M"
_symmetry_group_IT_number 49
_symmetry_cell_setting 'orthorhombic'
loop_
_space_group_symop_operation_xyz
x,y,z
-x,-y,z
x,-y,1/2-z
-x,y,1/2-z
-x,-y,-z
x,y,-z
-x,y,1/2+z
x,-y,1/2+z
loop_
_atom_site_type_symbol
_atom_site_label
_atom_site_fract_x
_atom_site_fract_y
_atom_site_fract_z
Si Si1 0.335078 0.346762 0.685933
Si Si2 0.662084 0.052495 0.813919
Si Si3 0.838293 0.849675 0.312913
Si Si4 0.663325 0.756467 0.814198
Si Si5 0.334656 0.448878 0.185939
O O1 0.500000 0.345918 0.750000
O O2 0.337543 0.348132 0.500000
O O3 0.273085 0.294927 0.746573
O O4 0.268622 0.397544 0.751995
O O5 0.500000 0.059220 0.750000
O O6 0.758405 0.099307 0.768773
O O7 0.717200 0.000000 0.750000
O O8 0.655578 0.049813 0.000000
O O9 0.837008 0.845762 0.500000
O O10 0.753776 0.803287 0.241688
O O11 0.000000 0.850203 0.250000
O O12 0.500000 0.761818 0.750000
O O13 0.658183 0.753428 0.000000
O O14 0.268817 0.500000 0.250000
O O15 0.500000 0.448628 0.250000
O O16 0.338186 0.449285 0.000000
#
# Coordination Sequence:
#
# PCOD9392038 Si02
#       5
#     8   8   8   8   8
#     4  10  17  27  42  63  91 125 166 212 259 312
#     4  10  21  37  60  86 113 143 180 219 262 311
#     4  11  24  40  57  81 110 144 180 221 269 320
#     4  11  21  35  55  78 104 138 178 223 268 319
#     4  10  16  23  34  53  83 121 162 204 254 312
#
# _framework density 18.578277
#
# number of rings (size 3 to 8) (size 9 to 14) (size 15 to 20)
#    0.000    1.600    0.000   10.800    0.000    5.200 
#    0.000    2.000    0.000    0.000    0.000    0.000 
#    0.000    0.800    0.000    8.000    0.000    7.800 
#
# Total GULP energy -223328.779681 kJ/mol
# GULP energy per Si atom -5583.219492 kJ/mol
# Density = 1.853599 g / cm^3
# Si number density = 18.578277 Si / 1000 Ang^3
#
#
#
# Elastic Constant Matrix: (Units=GPa)
#
#
# Indices 1 2 3 4 5 6 
#
# 1 45.3683 66.9181 30.2325 0.0000 0.0000 0.0000
# 2 66.9181 236.5382 91.1089 0.0000 0.0000 0.0000
# 3 30.2325 91.1089 165.9292 0.0000 0.0000 0.0000
# 4 0.0000 0.0000 0.0000 75.0100 0.0000 0.0000
# 5 0.0000 0.0000 0.0000 0.0000 11.0159 0.0000
# 6 0.0000 0.0000 0.0000 0.0000 0.0000 -7.2187
#
#
#
# Elastic Compliance Matrix: (Units=1/GPa)
#
#
# Indices 1 2 3 4 5 6 
#
# 1 0.038045 -0.010264 -0.001296 0.000000 0.000000 0.000000
# 2 -0.010264 0.008131 -0.002594 0.000000 0.000000 0.000000
# 3 -0.001296 -0.002594 0.007687 0.000000 0.000000 0.000000
# 4 0.000000 0.000000 0.000000 0.013332 0.000000 0.000000
# 5 0.000000 0.000000 0.000000 0.000000 0.090778 0.000000
# 6 0.000000 0.000000 0.000000 0.000000 0.000000 -0.138529
#
#
# Mechanical properties :
#
#
# Convention : Reuss Voigt Hill
#
# Bulk Modulus (GPa) = 39.13260 91.59496 65.36378
# Shear Modulus (GPa) = 88.85854 33.06652 60.96253
#
# Velocity S-wave (km/s) = 6.92337 4.22340 5.73455
# Velocity P-wave (km/s) = 9.22064 8.55523 8.89416
#
# Compressibility (1/GPa) = 0.02555414
#
# Stress axis : x y z
#
# Youngs Moduli (GPa) = 26.28489 122.99197 130.08467
#
# Poissons Ratio (x) = 1.26237 0.16860
# Poissons Ratio (y) = 0.26978 0.33748
# Poissons Ratio (z) = 0.03407 0.31908
#
# Static dielectric constant tensor:
#      x y z
#    x 1.616270 0.000000 0.000000 
#    y 0.000000 1.705350 0.000000 
#    z 0.000000 0.000000 1.615560 
# 
# From -- ./inp_files/1901.got.cif
#   From: 2010.05.17/outbox.cif.g08.bks.cpg/sg49_1_cif.got.tgz:1901.got - 2010.06.03 21:02:19.
