data_PCOD9392843
_publ_section_title
;
Structure prediction by ZEFSAII (Michael W. Deem and Ramdas Pophale) SiO2 
 PCOD9392843
Probable space group: P C C M
;
_chemical_formula_sum "Si O2"
_cell_formula_units_Z 64
_cell_length_a 19.705910
_cell_length_b 24.229710
_cell_length_c 8.574023
_cell_angle_alpha 90.000000
_cell_angle_beta 90.000000
_cell_angle_gamma 90.000000
_cell_volume 4093.825769
_symmetry_space_group_name_H-M "P C C M"
_symmetry_group_IT_number 49
_symmetry_cell_setting 'orthorhombic'
loop_
_space_group_symop_operation_xyz
x,y,z
-x,-y,z
x,-y,1/2-z
-x,y,1/2-z
-x,-y,-z
x,y,-z
-x,y,1/2+z
x,-y,1/2+z
loop_
_atom_site_type_symbol
_atom_site_label
_atom_site_fract_x
_atom_site_fract_y
_atom_site_fract_z
Si Si1 0.786705 0.939483 0.311118
Si Si2 0.927579 0.885712 0.312108
Si Si3 0.424629 0.231474 0.312420
Si Si4 0.782300 0.723124 0.311439
Si Si5 0.655917 0.337391 0.314331
Si Si6 0.072353 0.242951 0.312113
Si Si7 0.296974 0.165157 0.688944
Si Si8 0.425387 0.561276 0.813843
O O1 0.786089 0.939950 0.500000
O O2 0.862230 0.920311 0.261004
O O3 0.734126 0.892387 0.256263
O O4 0.771064 0.000000 0.250000
O O5 0.929065 0.886331 0.500000
O O6 0.919717 0.821430 0.263102
O O7 0.000000 0.905897 0.250000
O O8 0.500000 0.223971 0.250000
O O9 0.425314 0.233917 0.500000
O O10 0.392030 0.288306 0.250439
O O11 0.372391 0.183121 0.262471
O O12 0.778520 0.718433 0.500000
O O13 0.731963 0.678641 0.237811
O O14 0.860864 0.723548 0.262967
O O15 0.751724 0.783441 0.269703
O O16 0.651195 0.338775 0.500000
O O17 0.628831 0.394339 0.244135
O O18 0.070969 0.243161 0.500000
O O19 0.000000 0.262849 0.250000
O O20 0.296896 0.163003 0.500000
O O21 0.411119 0.500000 0.750000
O O22 0.500000 0.577341 0.750000
O O23 0.427970 0.560003 0.000000
#
# Coordination Sequence:
#
# PCOD9392843 Si02
#       8
#     8   8   8   8   8   8   8   8
#     4  10  19  32  47  63  83 112 148 186 227 276
#     4   9  17  29  45  62  85 115 148 184 223 271
#     4  10  19  32  51  72  93 119 148 186 233 281
#     4   9  16  30  49  67  89 123 159 194 238 284
#     4  11  21  32  47  72 102 130 162 200 235 274
#     4   9  16  27  45  66  90 121 155 189 232 285
#     4   8  15  30  49  63  83 115 147 178 228 285
#     4  11  21  35  52  72 100 137 175 207 237 273
#
# _framework density 15.633298
#
# number of rings (size 3 to 8) (size 9 to 14) (size 15 to 20)
#    0.000    2.375    1.250    4.125    0.000    1.250 
#    0.000    4.375    0.000    0.375    0.000    2.625 
#    0.000    0.500    0.000    5.250    0.000    2.875 
#
# Total GULP energy -356878.264332 kJ/mol
# GULP energy per Si atom -5576.222880 kJ/mol
# Density = 1.559772 g / cm^3
# Si number density = 15.633298 Si / 1000 Ang^3
#
#
#
# Elastic Constant Matrix: (Units=GPa)
#
#
# Indices 1 2 3 4 5 6 
#
# 1 134.1328 60.2885 35.2082 0.0000 0.0000 0.0000
# 2 60.2885 84.3149 28.1965 0.0000 0.0000 0.0000
# 3 35.2082 28.1965 57.7850 0.0000 0.0000 0.0000
# 4 0.0000 0.0000 0.0000 -24.9047 0.0000 0.0000
# 5 0.0000 0.0000 0.0000 0.0000 13.1240 0.0000
# 6 0.0000 0.0000 0.0000 0.0000 0.0000 24.2493
#
#
#
# Elastic Compliance Matrix: (Units=1/GPa)
#
#
# Indices 1 2 3 4 5 6 
#
# 1 0.011582 -0.007076 -0.003604 0.000000 0.000000 0.000000
# 2 -0.007076 0.018497 -0.004714 0.000000 0.000000 0.000000
# 3 -0.003604 -0.004714 0.021802 0.000000 0.000000 0.000000
# 4 0.000000 0.000000 0.000000 -0.040153 0.000000 0.000000
# 5 0.000000 0.000000 0.000000 0.000000 0.076196 0.000000
# 6 0.000000 0.000000 0.000000 0.000000 0.000000 0.041238
#
#
# Mechanical properties :
#
#
# Convention : Reuss Voigt Hill
#
# Bulk Modulus (GPa) = 47.41183 58.17989 52.79586
# Shear Modulus (GPa) = 29.94373 12.66304 21.30338
#
# Velocity S-wave (km/s) = 4.38125 2.84914 3.69547
# Velocity P-wave (km/s) = 7.48246 6.93683 7.21480
#
# Compressibility (1/GPa) = 0.02109178
#
# Stress axis : x y z
#
# Youngs Moduli (GPa) = 86.34216 54.06413 45.86827
#
# Poissons Ratio (x) = 0.38257 0.16530
# Poissons Ratio (y) = 0.61098 0.21622
# Poissons Ratio (z) = 0.31117 0.25486
#
# Static dielectric constant tensor:
#      x y z
#    x 1.531130 0.000000 0.000000 
#    y 0.000000 1.501970 0.000000 
#    z 0.000000 0.000000 1.532830 
# 
# From -- ./inp_files/6078.got.cif
#   From: 2010.05.17/outbox.cif.g08.bks.cpg/sg49_4_cif.got.tgz:6078.got - 2010.06.03 21:02:19.
