data_PCOD9392005
_publ_section_title
;
Structure prediction by ZEFSAII (Michael W. Deem and Ramdas Pophale) SiO2 
 PCOD9392005
Probable space group: P C C M
;
_chemical_formula_sum "Si O2"
_cell_formula_units_Z 64
_cell_length_a 32.218936
_cell_length_b 14.708644
_cell_length_c 8.712164
_cell_angle_alpha 90.000000
_cell_angle_beta 90.000000
_cell_angle_gamma 90.000000
_cell_volume 4128.667161
_symmetry_space_group_name_H-M "P C C M"
_symmetry_group_IT_number 49
_symmetry_cell_setting 'orthorhombic'
loop_
_space_group_symop_operation_xyz
x,y,z
-x,-y,z
x,-y,1/2-z
-x,y,1/2-z
-x,-y,-z
x,y,-z
-x,y,1/2+z
x,-y,1/2+z
loop_
_atom_site_type_symbol
_atom_site_label
_atom_site_fract_x
_atom_site_fract_y
_atom_site_fract_z
Si Si1 0.042526 0.896676 0.816523
Si Si2 0.296058 0.211647 0.314772
Si Si3 0.427815 0.597430 0.184103
Si Si4 0.780727 0.897905 0.183350
Si Si5 0.620533 0.101340 0.184543
Si Si6 0.126966 0.897561 0.683892
Si Si7 0.543480 0.785881 0.183009
Si Si8 0.329625 0.596322 0.816045
O O1 0.085896 0.854358 0.758634
O O2 0.000000 0.855049 0.750000
O O3 0.043178 0.000000 0.750000
O O4 0.041139 0.900163 0.000000
O O5 0.292950 0.211590 0.500000
O O6 0.255358 0.165707 0.246569
O O7 0.336729 0.152633 0.274255
O O8 0.304742 0.314983 0.262901
O O9 0.441355 0.500000 0.250000
O O10 0.450485 0.682506 0.259384
O O11 0.378583 0.607542 0.221527
O O12 0.432517 0.599677 0.000000
O O13 0.827092 0.860797 0.220315
O O14 0.776377 0.000000 0.250000
O O15 0.777827 0.904761 0.000000
O O16 0.581819 0.156474 0.252059
O O17 0.621137 0.000000 0.250000
O O18 0.617364 0.100025 0.000000
O O19 0.121730 0.900632 0.500000
O O20 0.128738 0.000000 0.750000
O O21 0.500000 0.820757 0.250000
O O22 0.543028 0.788870 0.000000
O O23 0.315489 0.500000 0.750000
O O24 0.327152 0.592760 0.000000
#
# Coordination Sequence:
#
# PCOD9392005 Si02
#       8
#     8   8   8   8   8   8   8   8
#     4  10  16  22  33  49  70 100 141 188 237 283
#     4  10  20  35  54  75 101 127 155 192 232 274
#     4  10  19  36  58  83 110 133 159 190 228 275
#     4  10  20  31  45  66  92 124 161 200 241 283
#     4  11  23  41  59  79 103 128 160 199 235 277
#     4   9  16  26  37  52  77 108 146 192 237 279
#     4  12  25  41  60  81 103 132 161 193 234 278
#     4   9  18  33  53  78 103 128 152 185 225 269
#
# _framework density 15.501371000000001
#
# number of rings (size 3 to 8) (size 9 to 14) (size 15 to 20)
#    0.000    1.875    1.250    5.250    0.000    5.000 
#    0.000    2.500    0.000    0.000    0.000    0.000 
#    0.000    0.000    0.000    0.000    0.000    0.625 
#
# Total GULP energy -357094.868060 kJ/mol
# GULP energy per Si atom -5579.607313 kJ/mol
# Density = 1.546609 g / cm^3
# Si number density = 15.501371 Si / 1000 Ang^3
#
#
#
# Elastic Constant Matrix: (Units=GPa)
#
#
# Indices 1 2 3 4 5 6 
#
# 1 148.0564 53.2359 56.8391 0.0000 0.0000 0.0000
# 2 53.2359 80.6789 30.4411 0.0000 0.0000 0.0000
# 3 56.8391 30.4411 78.1255 0.0000 0.0000 0.0000
# 4 0.0000 0.0000 0.0000 22.5787 0.0000 0.0000
# 5 0.0000 0.0000 0.0000 0.0000 24.8402 0.0000
# 6 0.0000 0.0000 0.0000 0.0000 0.0000 -9.7703
#
#
#
# Elastic Compliance Matrix: (Units=1/GPa)
#
#
# Indices 1 2 3 4 5 6 
#
# 1 0.010792 -0.004875 -0.005952 0.000000 0.000000 0.000000
# 2 -0.004875 0.016734 -0.002973 0.000000 0.000000 0.000000
# 3 -0.005952 -0.002973 0.018289 0.000000 0.000000 0.000000
# 4 0.000000 0.000000 0.000000 0.044289 0.000000 0.000000
# 5 0.000000 0.000000 0.000000 0.000000 0.040257 0.000000
# 6 0.000000 0.000000 0.000000 0.000000 0.000000 -0.102351
#
#
# Mechanical properties :
#
#
# Convention : Reuss Voigt Hill
#
# Bulk Modulus (GPa) = 54.90465 65.32144 60.11304
# Shear Modulus (GPa) = 81.06051 18.61937 49.83994
#
# Velocity S-wave (km/s) = 7.23920 3.46951 5.67642
# Velocity P-wave (km/s) = 10.26503 7.63418 9.04576
#
# Compressibility (1/GPa) = 0.01821339
#
# Stress axis : x y z
#
# Youngs Moduli (GPa) = 92.65926 59.75970 54.67860
#
# Poissons Ratio (x) = 0.29136 0.32545
# Poissons Ratio (y) = 0.45176 0.16256
# Poissons Ratio (z) = 0.55151 0.17767
#
# Static dielectric constant tensor:
#      x y z
#    x 1.558310 0.000000 0.000000 
#    y 0.000000 1.493200 0.000000 
#    z 0.000000 0.000000 1.517720 
# 
# From -- ./inp_files/7060.got.cif
#   From: 2010.05.17/outbox.cif.g08.bks.cpg/sg49_4_cif.got.tgz:7060.got - 2010.06.03 21:02:19.
