data_PCOD9392176
_publ_section_title
;
Structure prediction by ZEFSAII (Michael W. Deem and Ramdas Pophale) SiO2 
 PCOD9392176
Probable space group: P C C M
;
_chemical_formula_sum "Si O2"
_cell_formula_units_Z 48
_cell_length_a 9.215871
_cell_length_b 31.823278
_cell_length_c 8.695214
_cell_angle_alpha 90.000000
_cell_angle_beta 90.000000
_cell_angle_gamma 90.000000
_cell_volume 2550.125622
_symmetry_space_group_name_H-M "P C C M"
_symmetry_group_IT_number 49
_symmetry_cell_setting 'orthorhombic'
loop_
_space_group_symop_operation_xyz
x,y,z
-x,-y,z
x,-y,1/2-z
-x,y,1/2-z
-x,-y,-z
x,y,-z
-x,y,1/2+z
x,-y,1/2+z
loop_
_atom_site_type_symbol
_atom_site_label
_atom_site_fract_x
_atom_site_fract_y
_atom_site_fract_z
Si Si1 0.338026 0.206776 0.816179
Si Si2 0.161708 0.871979 0.815230
Si Si3 0.661351 0.955276 0.684122
Si Si4 0.161730 0.714524 0.815881
Si Si5 0.664759 0.457086 0.683686
Si Si6 0.662353 0.629711 0.683822
O O1 0.500000 0.207889 0.750000
O O2 0.256459 0.165608 0.754115
O O3 0.251437 0.247548 0.758356
O O4 0.342345 0.206093 0.000000
O O5 0.235571 0.916506 0.774867
O O6 0.000000 0.869698 0.750000
O O7 0.159276 0.868147 0.000000
O O8 0.500000 0.947853 0.750000
O O9 0.651981 0.958128 0.500000
O O10 0.712564 0.000000 0.750000
O O11 0.241689 0.670477 0.782618
O O12 0.000000 0.714294 0.750000
O O13 0.158148 0.720151 0.000000
O O14 0.732356 0.500000 0.750000
O O15 0.500000 0.456281 0.750000
O O16 0.660513 0.458677 0.500000
O O17 0.726775 0.412857 0.742304
O O18 0.500000 0.636064 0.750000
O O19 0.651763 0.624092 0.500000
#
# Coordination Sequence:
#
# PCOD9392176 Si02
#       6
#     8   8   8   8   8   8
#     4  12  25  42  65  90 118 151 191 238 286 341
#     4  11  24  41  61  88 121 158 197 239 291 346
#     4  10  21  37  60  87 117 154 197 244 292 344
#     4  11  24  41  61  85 116 152 190 234 285 342
#     4  10  17  27  46  73 107 143 181 228 279 330
#     4  10  20  34  54  81 111 145 186 231 280 334
#
# _framework density 18.822603000000001
#
# number of rings (size 3 to 8) (size 9 to 14) (size 15 to 20)
#    0.000    1.333    0.000    8.500    0.000    8.333 
#    0.000    1.667    0.000    0.500    0.000    3.500 
#    0.000    0.000    0.000    0.000    0.000    0.000 
#
# Total GULP energy -268353.842918 kJ/mol
# GULP energy per Si atom -5590.705061 kJ/mol
# Density = 1.877976 g / cm^3
# Si number density = 18.822603 Si / 1000 Ang^3
#
#
#
# Elastic Constant Matrix: (Units=GPa)
#
#
# Indices 1 2 3 4 5 6 
#
# 1 128.5232 104.9591 66.3657 0.0000 0.0000 0.0000
# 2 104.9591 202.9118 104.4447 0.0000 0.0000 0.0000
# 3 66.3657 104.4447 131.4286 0.0000 0.0000 0.0000
# 4 0.0000 0.0000 0.0000 21.2456 0.0000 0.0000
# 5 0.0000 0.0000 0.0000 0.0000 29.6329 0.0000
# 6 0.0000 0.0000 0.0000 0.0000 0.0000 -72.0440
#
#
#
# Elastic Compliance Matrix: (Units=1/GPa)
#
#
# Indices 1 2 3 4 5 6 
#
# 1 0.013837 -0.006026 -0.002198 0.000000 0.000000 0.000000
# 2 -0.006026 0.010964 -0.005670 0.000000 0.000000 0.000000
# 3 -0.002198 -0.005670 0.013225 0.000000 0.000000 0.000000
# 4 0.000000 0.000000 0.000000 0.047069 0.000000 0.000000
# 5 0.000000 0.000000 0.000000 0.000000 0.033746 0.000000
# 6 0.000000 0.000000 0.000000 0.000000 0.000000 -0.013880
#
#
# Mechanical properties :
#
#
# Convention : Reuss Voigt Hill
#
# Bulk Modulus (GPa) = 97.68559 112.71139 105.19849
# Shear Modulus (GPa) = 36.72151 8.23984 22.48067
#
# Velocity S-wave (km/s) = 4.42172 2.09455 3.45968
# Velocity P-wave (km/s) = 8.83626 8.11544 8.48351
#
# Compressibility (1/GPa) = 0.01023692
#
# Stress axis : x y z
#
# Youngs Moduli (GPa) = 72.27087 91.21082 75.61642
#
# Poissons Ratio (x) = 0.54961 0.16624
# Poissons Ratio (y) = 0.43548 0.42874
# Poissons Ratio (z) = 0.15888 0.51716
#
# Static dielectric constant tensor:
#      x y z
#    x 1.614850 0.000000 0.000000 
#    y 0.000000 1.668690 0.000000 
#    z 0.000000 0.000000 1.630150 
# 
# From -- ./inp_files/2040.got.cif
#   From: 2010.05.17/outbox.cif.g08.bks.cpg/sg49_2_cif.got.tgz:2040.got - 2010.06.03 21:02:19.
