data_PCOD9392893
_publ_section_title
;
Structure prediction by ZEFSAII (Michael W. Deem and Ramdas Pophale) SiO2 
 PCOD9392893
Probable space group: P C C M
;
_chemical_formula_sum "Si O2"
_cell_formula_units_Z 64
_cell_length_a 20.293568
_cell_length_b 20.295950
_cell_length_c 8.600020
_cell_angle_alpha 90.000000
_cell_angle_beta 90.000000
_cell_angle_gamma 90.000000
_cell_volume 3542.152514
_symmetry_space_group_name_H-M "P C C M"
_symmetry_group_IT_number 49
_symmetry_cell_setting 'orthorhombic'
loop_
_space_group_symop_operation_xyz
x,y,z
-x,-y,z
x,-y,1/2-z
-x,y,1/2-z
-x,-y,-z
x,y,-z
-x,y,1/2+z
x,-y,1/2+z
loop_
_atom_site_type_symbol
_atom_site_label
_atom_site_fract_x
_atom_site_fract_y
_atom_site_fract_z
Si Si1 0.340739 0.068369 0.315735
Si Si2 0.073339 0.678986 0.185439
Si Si3 0.193540 0.067629 0.811990
Si Si4 0.179480 0.426385 0.313382
Si Si5 0.285616 0.676171 0.686138
Si Si6 0.564977 0.171538 0.316977
Si Si7 0.430102 0.682776 0.816943
Si Si8 0.821146 0.781400 0.813076
O O1 0.350560 0.073956 0.500000
O O2 0.264130 0.067666 0.272630
O O3 0.373034 0.127801 0.223290
O O4 0.369167 0.000000 0.250000
O O5 0.111736 0.611592 0.227471
O O6 0.119469 0.737513 0.248541
O O7 0.000000 0.681379 0.250000
O O8 0.071301 0.683521 0.000000
O O9 0.168596 0.141520 0.774028
O O10 0.159618 0.000000 0.750000
O O11 0.200380 0.062936 0.000000
O O12 0.180626 0.500000 0.250000
O O13 0.186403 0.426271 0.500000
O O14 0.237474 0.382129 0.240533
O O15 0.290184 0.678802 0.500000
O O16 0.358936 0.662632 0.749697
O O17 0.247461 0.744285 0.737587
O O18 0.500000 0.136415 0.250000
O O19 0.559613 0.184311 0.500000
O O20 0.569064 0.239775 0.225153
O O21 0.500000 0.655932 0.750000
O O22 0.430609 0.672469 0.000000
O O23 0.821009 0.777483 0.000000
#
# Coordination Sequence:
#
# PCOD9392893 Si02
#       8
#     8   8   8   8   8   8   8   8
#     4  11  21  33  47  65  89 121 160 206 259 319
#     4  10  21  36  57  84 116 149 185 222 263 313
#     4  10  19  32  50  74 102 134 171 218 270 323
#     4  10  21  37  57  85 117 152 188 224 263 313
#     4  10  19  34  56  81 109 144 183 229 277 325
#     4  11  21  34  48  65  89 120 160 207 261 321
#     4  11  21  34  52  76 104 136 175 222 273 326
#     4   9  19  34  54  78 107 142 182 224 272 324
#
# _framework density 18.068109
#
# number of rings (size 3 to 8) (size 9 to 14) (size 15 to 20)
#    0.000    1.750    0.000    7.125    0.000    4.500 
#    0.000    2.500    0.000    0.750    0.000    5.250 
#    0.000    0.000    0.000    0.000    0.000    0.000 
#
# Total GULP energy -356877.295003 kJ/mol
# GULP energy per Si atom -5576.207734 kJ/mol
# Density = 1.802699 g / cm^3
# Si number density = 18.068109 Si / 1000 Ang^3
#
#
#
# Elastic Constant Matrix: (Units=GPa)
#
#
# Indices 1 2 3 4 5 6 
#
# 1 119.4320 43.6827 36.9349 0.0000 0.0000 0.0000
# 2 43.6827 108.1606 29.9011 0.0000 0.0000 0.0000
# 3 36.9349 29.9011 75.2421 0.0000 0.0000 0.0000
# 4 0.0000 0.0000 0.0000 26.7873 0.0000 0.0000
# 5 0.0000 0.0000 0.0000 0.0000 25.4121 0.0000
# 6 0.0000 0.0000 0.0000 0.0000 0.0000 13.9008
#
#
#
# Elastic Compliance Matrix: (Units=1/GPa)
#
#
# Indices 1 2 3 4 5 6 
#
# 1 0.010803 -0.003255 -0.004010 0.000000 0.000000 0.000000
# 2 -0.003255 0.011367 -0.002920 0.000000 0.000000 0.000000
# 3 -0.004010 -0.002920 0.016419 0.000000 0.000000 0.000000
# 4 0.000000 0.000000 0.000000 0.037331 0.000000 0.000000
# 5 0.000000 0.000000 0.000000 0.000000 0.039351 0.000000
# 6 0.000000 0.000000 0.000000 0.000000 0.000000 0.071938
#
#
# Mechanical properties :
#
#
# Convention : Reuss Voigt Hill
#
# Bulk Modulus (GPa) = 54.88057 58.20802 56.54429
# Shear Modulus (GPa) = 23.40255 26.04113 24.72184
#
# Velocity S-wave (km/s) = 3.60285 3.80053 3.70301
# Velocity P-wave (km/s) = 6.90996 7.17945 7.04600
#
# Compressibility (1/GPa) = 0.01822139
#
# Stress axis : x y z
#
# Youngs Moduli (GPa) = 92.56339 87.97321 60.90497
#
# Poissons Ratio (x) = 0.28632 0.24422
# Poissons Ratio (y) = 0.30126 0.17782
# Poissons Ratio (z) = 0.37116 0.25685
#
# Static dielectric constant tensor:
#      x y z
#    x 1.668560 0.000000 0.000000 
#    y 0.000000 1.644560 0.000000 
#    z 0.000000 0.000000 1.605230 
# 
# From -- ./inp_files/5990.got.cif
#   From: 2010.05.17/outbox.cif.g08.bks.cpg/sg49_3_cif.got.tgz:5990.got - 2010.06.03 21:02:19.
