data_PCOD9392757
_publ_section_title
;
Structure prediction by ZEFSAII (Michael W. Deem and Ramdas Pophale) SiO2 
 PCOD9392757
Probable space group: P C C M
;
_chemical_formula_sum "Si O2"
_cell_formula_units_Z 64
_cell_length_a 20.644599
_cell_length_b 20.652916
_cell_length_c 8.520824
_cell_angle_alpha 90.000000
_cell_angle_beta 90.000000
_cell_angle_gamma 90.000000
_cell_volume 3633.033690
_symmetry_space_group_name_H-M "P C C M"
_symmetry_group_IT_number 49
_symmetry_cell_setting 'orthorhombic'
loop_
_space_group_symop_operation_xyz
x,y,z
-x,-y,z
x,-y,1/2-z
-x,y,1/2-z
-x,-y,-z
x,y,-z
-x,y,1/2+z
x,-y,1/2+z
loop_
_atom_site_type_symbol
_atom_site_label
_atom_site_fract_x
_atom_site_fract_y
_atom_site_fract_z
Si Si1 0.432188 0.210636 0.688949
Si Si2 0.603623 0.067489 0.185569
Si Si3 0.740448 0.895685 0.812471
Si Si4 0.114468 0.931647 0.687309
Si Si5 0.070859 0.572739 0.810977
Si Si6 0.832969 0.315597 0.190736
Si Si7 0.931484 0.204400 0.187496
Si Si8 0.709436 0.245848 0.190448
O O1 0.500000 0.237174 0.750000
O O2 0.433734 0.209189 0.500000
O O3 0.424665 0.135802 0.746728
O O4 0.366324 0.247927 0.735651
O O5 0.679654 0.071597 0.228053
O O6 0.577167 0.000000 0.250000
O O7 0.595785 0.067182 0.000000
O O8 0.809849 0.924022 0.765591
O O9 0.736764 0.820641 0.762466
O O10 0.732920 0.901852 0.000000
O O11 0.110782 0.930955 0.500000
O O12 0.079696 0.868098 0.752018
O O13 0.089348 0.000000 0.750000
O O14 0.081434 0.500000 0.750000
O O15 0.127669 0.621207 0.757174
O O16 0.000000 0.594046 0.750000
O O17 0.068857 0.572191 0.000000
O O18 0.874659 0.252779 0.239670
O O19 0.758540 0.302974 0.237551
O O20 0.833601 0.317257 0.000000
O O21 0.000000 0.228915 0.250000
O O22 0.932077 0.203612 0.000000
O O23 0.711556 0.239689 0.000000
#
# Coordination Sequence:
#
# PCOD9392757 Si02
#       8
#     8   8   8   8   8   8   8   8
#     4   9  19  32  48  67  93 125 157 197 248 304
#     4  10  20  32  46  65  88 119 156 198 246 305
#     4  10  19  31  48  71  94 118 152 200 252 304
#     4  11  23  36  50  69  91 119 158 204 257 312
#     4  10  19  33  52  79 113 150 182 210 245 290
#     4   9  18  33  56  79 102 135 173 208 247 291
#     4  11  22  37  55  73  95 125 159 206 254 301
#     4   9  17  33  53  73  96 127 165 203 245 295
#
# _framework density 17.616133000000001
#
# number of rings (size 3 to 8) (size 9 to 14) (size 15 to 20)
#    0.000    2.125    1.250    3.750    0.000    5.500 
#    0.000    5.625    0.000    0.000    0.000    0.000 
#    0.000    0.500    0.000    6.250    0.000    0.000 
#
# Total GULP energy -357141.222759 kJ/mol
# GULP energy per Si atom -5580.331606 kJ/mol
# Density = 1.757604 g / cm^3
# Si number density = 17.616133 Si / 1000 Ang^3
#
#
#
# Elastic Constant Matrix: (Units=GPa)
#
#
# Indices 1 2 3 4 5 6 
#
# 1 129.0495 51.6327 16.9881 0.0000 0.0000 0.0000
# 2 51.6327 78.1538 11.3550 0.0000 0.0000 0.0000
# 3 16.9881 11.3550 22.1116 0.0000 0.0000 0.0000
# 4 0.0000 0.0000 0.0000 -2.3143 0.0000 0.0000
# 5 0.0000 0.0000 0.0000 0.0000 22.3348 0.0000
# 6 0.0000 0.0000 0.0000 0.0000 0.0000 62.9433
#
#
#
# Elastic Compliance Matrix: (Units=1/GPa)
#
#
# Indices 1 2 3 4 5 6 
#
# 1 0.011045 -0.006553 -0.005120 0.000000 0.000000 0.000000
# 2 -0.006553 0.017715 -0.004063 0.000000 0.000000 0.000000
# 3 -0.005120 -0.004063 0.051245 0.000000 0.000000 0.000000
# 4 0.000000 0.000000 0.000000 -0.432103 0.000000 0.000000
# 5 0.000000 0.000000 0.000000 0.000000 0.044773 0.000000
# 6 0.000000 0.000000 0.000000 0.000000 0.000000 0.015887
#
#
# Mechanical properties :
#
#
# Convention : Reuss Voigt Hill
#
# Bulk Modulus (GPa) = 20.60453 43.25182 31.92817
# Shear Modulus (GPa) = -20.50965 26.54870 3.01953
#
# Velocity S-wave (km/s) = -3.41582 3.88631 1.31064
# Velocity P-wave (km/s) = 1.95839 6.68906 4.52262
#
# Compressibility (1/GPa) = 0.04853303
#
# Stress axis : x y z
#
# Youngs Moduli (GPa) = 90.54017 56.45027 19.51396
#
# Poissons Ratio (x) = 0.36991 0.09992
# Poissons Ratio (y) = 0.59330 0.07928
# Poissons Ratio (z) = 0.46361 0.22933
#
# Static dielectric constant tensor:
#      x y z
#    x 1.637770 0.000000 0.000000 
#    y 0.000000 1.593560 0.000000 
#    z 0.000000 0.000000 1.594260 
# 
# From -- ./inp_files/5940.got.cif
#   From: 2010.05.17/outbox.cif.g08.bks.cpg/sg49_3_cif.got.tgz:5940.got - 2010.06.03 21:02:19.
