data_PCOD9392821
_publ_section_title
;
Structure prediction by ZEFSAII (Michael W. Deem and Ramdas Pophale) SiO2 
 PCOD9392821
Probable space group: P C C M
;
_chemical_formula_sum "Si O2"
_cell_formula_units_Z 58
_cell_length_a 23.960657
_cell_length_b 14.833048
_cell_length_c 9.050744
_cell_angle_alpha 90.000000
_cell_angle_beta 90.000000
_cell_angle_gamma 90.000000
_cell_volume 3216.721082
_symmetry_space_group_name_H-M "P C C M"
_symmetry_group_IT_number 49
_symmetry_cell_setting 'orthorhombic'
loop_
_space_group_symop_operation_xyz
x,y,z
-x,-y,z
x,-y,1/2-z
-x,y,1/2-z
-x,-y,-z
x,y,-z
-x,y,1/2+z
x,-y,1/2+z
loop_
_atom_site_type_symbol
_atom_site_label
_atom_site_fract_x
_atom_site_fract_y
_atom_site_fract_z
Si Si1 0.000000 0.500000 0.750000
Si Si2 0.673124 0.146819 0.833734
Si Si3 0.177913 0.711205 0.321127
Si Si4 0.442373 0.224658 0.678128
Si Si5 0.396826 0.591938 0.677135
Si Si6 0.946529 0.323350 0.334812
Si Si7 0.779702 0.088970 0.326255
Si Si8 0.285552 0.645291 0.168872
O O1 0.961028 0.430113 0.663273
O O2 0.608562 0.155982 0.791188
O O3 0.715376 0.099202 0.724073
O O4 0.693940 0.250727 0.839578
O O5 0.678497 0.109454 0.000000
O O6 0.182255 0.699525 0.500000
O O7 0.114980 0.690140 0.271310
O O8 0.191423 0.815966 0.286764
O O9 0.224512 0.650289 0.241332
O O10 0.500000 0.194237 0.750000
O O11 0.445737 0.235346 0.500000
O O12 0.426660 0.320685 0.752453
O O13 0.419127 0.500000 0.750000
O O14 0.401656 0.591479 0.500000
O O15 0.332029 0.599738 0.728294
O O16 0.945502 0.287045 0.500000
O O17 0.000000 0.283711 0.250000
O O18 0.783185 0.078426 0.500000
O O19 0.803565 0.000000 0.250000
O O20 0.285752 0.609924 0.000000
#
# Coordination Sequence:
#
# PCOD9392821 Si02
#       8
#     2   8   8   8   8   8   8   8
#     4   8  18  32  54  72 100 132 174 220 256 288
#     4   8  16  31  50  71  99 127 159 197 239 292
#     4   9  18  33  51  74 102 136 170 208 253 307
#     4  10  20  34  52  74  97 126 165 208 249 301
#     4  11  21  34  49  66  93 128 165 210 260 309
#     4   9  18  32  51  73 101 134 174 215 256 299
#     4  10  19  31  52  78 105 132 164 202 250 303
#     4   9  17  31  49  71  95 125 162 203 250 306
#
# _framework density 18.030784000000001
#
# number of rings (size 3 to 8) (size 9 to 14) (size 15 to 20)
#    0.414    2.207    0.000    3.517    0.000    5.241 
#    1.241    1.379    0.000    0.828    0.000    5.793 
#    0.000    0.000    0.000    0.000    0.000    0.000 
#
# Total GULP energy -322998.173587 kJ/mol
# GULP energy per Si atom -5568.934027 kJ/mol
# Density = 1.798975 g / cm^3
# Si number density = 18.030784 Si / 1000 Ang^3
#
#
#
# Elastic Constant Matrix: (Units=GPa)
#
#
# Indices 1 2 3 4 5 6 
#
# 1 123.9077 1.0799 23.0462 0.0000 0.0000 0.0000
# 2 1.0799 35.4104 9.3582 0.0000 0.0000 0.0000
# 3 23.0462 9.3582 68.5087 0.0000 0.0000 0.0000
# 4 0.0000 0.0000 0.0000 21.3101 0.0000 0.0000
# 5 0.0000 0.0000 0.0000 0.0000 27.1943 0.0000
# 6 0.0000 0.0000 0.0000 0.0000 0.0000 11.5287
#
#
#
# Elastic Compliance Matrix: (Units=1/GPa)
#
#
# Indices 1 2 3 4 5 6 
#
# 1 0.008618 0.000522 -0.002971 0.000000 0.000000 0.000000
# 2 0.000522 0.029330 -0.004182 0.000000 0.000000 0.000000
# 3 -0.002971 -0.004182 0.016167 0.000000 0.000000 0.000000
# 4 0.000000 0.000000 0.000000 0.046926 0.000000 0.000000
# 5 0.000000 0.000000 0.000000 0.000000 0.036772 0.000000
# 6 0.000000 0.000000 0.000000 0.000000 0.000000 0.086740
#
#
# Mechanical properties :
#
#
# Convention : Reuss Voigt Hill
#
# Bulk Modulus (GPa) = 24.47711 32.75506 28.61609
# Shear Modulus (GPa) = 19.88603 24.96278 22.42440
#
# Velocity S-wave (km/s) = 3.32459 3.72486 3.53040
# Velocity P-wave (km/s) = 5.32370 6.05847 5.70293
#
# Compressibility (1/GPa) = 0.04085449
#
# Stress axis : x y z
#
# Youngs Moduli (GPa) = 116.02968 34.09522 61.85337
#
# Poissons Ratio (x) = -0.01781 0.18374
# Poissons Ratio (y) = -0.06059 0.25868
# Poissons Ratio (z) = 0.34468 0.14259
#
# Static dielectric constant tensor:
#      x y z
#    x 1.631360 0.000000 0.000000 
#    y 0.000000 1.633070 0.000000 
#    z 0.000000 0.000000 1.622950 
# 
# From -- ./inp_files/6451.got.cif
#   From: 2010.05.17/outbox.cif.g08.bks.cpg/sg49_4_cif.got.tgz:6451.got - 2010.06.03 21:02:19.
