data_PCOD9392556
_publ_section_title
;
Structure prediction by ZEFSAII (Michael W. Deem and Ramdas Pophale) SiO2 
 PCOD9392556
Probable space group: P C C M
;
_chemical_formula_sum "Si O2"
_cell_formula_units_Z 56
_cell_length_a 20.923793
_cell_length_b 15.688818
_cell_length_c 8.555808
_cell_angle_alpha 90.000000
_cell_angle_beta 90.000000
_cell_angle_gamma 90.000000
_cell_volume 2808.611501
_symmetry_space_group_name_H-M "P C C M"
_symmetry_group_IT_number 49
_symmetry_cell_setting 'orthorhombic'
loop_
_space_group_symop_operation_xyz
x,y,z
-x,-y,z
x,-y,1/2-z
-x,y,1/2-z
-x,-y,-z
x,y,-z
-x,y,1/2+z
x,-y,1/2+z
loop_
_atom_site_type_symbol
_atom_site_label
_atom_site_fract_x
_atom_site_fract_y
_atom_site_fract_z
Si Si1 0.930933 0.763971 0.812129
Si Si2 0.567131 0.773428 0.186892
Si Si3 0.297184 0.173229 0.183819
Si Si4 0.170595 0.908468 0.689207
Si Si5 0.600722 0.410404 0.182865
Si Si6 0.124454 0.410866 0.686352
Si Si7 0.735739 0.372161 0.317389
O O1 0.877305 0.832745 0.764587
O O2 0.913860 0.671586 0.743623
O O3 0.000000 0.790741 0.750000
O O4 0.931044 0.758513 0.000000
O O5 0.500000 0.806525 0.250000
O O6 0.630923 0.820919 0.249098
O O7 0.574050 0.674080 0.234340
O O8 0.567741 0.777399 0.000000
O O9 0.242196 0.112798 0.249989
O O10 0.269503 0.269457 0.191342
O O11 0.303744 0.152157 0.000000
O O12 0.172266 0.909069 0.500000
O O13 0.149515 0.000000 0.750000
O O14 0.576835 0.500000 0.250000
O O15 0.676844 0.406732 0.216963
O O16 0.587716 0.405044 0.000000
O O17 0.097505 0.500000 0.750000
O O18 0.127226 0.412726 0.500000
O O19 0.195975 0.401070 0.755840
O O20 0.727261 0.395995 0.500000
#
# Coordination Sequence:
#
# PCOD9392556 Si02
#       7
#     8   8   8   8   8   8   8
#     4  11  24  44  66  90 126 165 205 252 308 363
#     4  10  20  35  55  79 109 150 195 243 302 364
#     4   8  16  34  59  83 114 154 192 238 298 354
#     4  10  21  40  66  96 126 159 198 247 304 367
#     4  11  21  33  48  73 107 147 197 250 303 359
#     4  12  24  38  59  88 121 162 211 257 306 361
#     4  10  18  34  56  80 113 154 199 250 307 357
#
# _framework density 19.938679
#
# number of rings (size 3 to 8) (size 9 to 14) (size 15 to 20)
#    0.000    1.714    1.429    5.143    0.000    2.000 
#    0.000    5.714    0.000    0.429    0.000    3.000 
#    0.000    0.000    0.000    0.000    0.000    0.000 
#
# Total GULP energy -312877.265766 kJ/mol
# GULP energy per Si atom -5587.094032 kJ/mol
# Density = 1.989330 g / cm^3
# Si number density = 19.938679 Si / 1000 Ang^3
#
#
#
# Elastic Constant Matrix: (Units=GPa)
#
#
# Indices 1 2 3 4 5 6 
#
# 1 116.7249 40.6814 18.7177 0.0000 0.0000 0.0000
# 2 40.6814 81.1649 17.9035 0.0000 0.0000 0.0000
# 3 18.7177 17.9035 65.7197 0.0000 0.0000 0.0000
# 4 0.0000 0.0000 0.0000 22.5174 0.0000 0.0000
# 5 0.0000 0.0000 0.0000 0.0000 30.9791 0.0000
# 6 0.0000 0.0000 0.0000 0.0000 0.0000 -11.2133
#
#
#
# Elastic Compliance Matrix: (Units=1/GPa)
#
#
# Indices 1 2 3 4 5 6 
#
# 1 0.010549 -0.004920 -0.001664 0.000000 0.000000 0.000000
# 2 -0.004920 0.015403 -0.002795 0.000000 0.000000 0.000000
# 3 -0.001664 -0.002795 0.016451 0.000000 0.000000 0.000000
# 4 0.000000 0.000000 0.000000 0.044410 0.000000 0.000000
# 5 0.000000 0.000000 0.000000 0.000000 0.032280 0.000000
# 6 0.000000 0.000000 0.000000 0.000000 0.000000 -0.089180
#
#
# Mechanical properties :
#
#
# Convention : Reuss Voigt Hill
#
# Bulk Modulus (GPa) = 42.29175 46.46830 44.38002
# Shear Modulus (GPa) = 88.41165 20.87710 54.64437
#
# Velocity S-wave (km/s) = 6.66619 3.23935 5.24077
# Velocity P-wave (km/s) = 8.97261 6.11125 7.67643
#
# Compressibility (1/GPa) = 0.02364527
#
# Stress axis : x y z
#
# Youngs Moduli (GPa) = 94.79752 64.92166 60.78491
#
# Poissons Ratio (x) = 0.31943 0.10115
# Poissons Ratio (y) = 0.46642 0.16988
# Poissons Ratio (z) = 0.15775 0.18145
#
# Static dielectric constant tensor:
#      x y z
#    x 1.744010 0.000000 0.000000 
#    y 0.000000 1.695440 0.000000 
#    z 0.000000 0.000000 1.674180 
# 
# From -- ./inp_files/5778.got.cif
#   From: 2010.05.17/outbox.cif.g08.bks.cpg/sg49_3_cif.got.tgz:5778.got - 2010.06.03 21:02:19.
