data_PCOD9392263
_publ_section_title
;
Structure prediction by ZEFSAII (Michael W. Deem and Ramdas Pophale) SiO2 
 PCOD9392263
Probable space group: P C C M
;
_chemical_formula_sum "Si O2"
_cell_formula_units_Z 64
_cell_length_a 25.794611
_cell_length_b 15.002335
_cell_length_c 8.536988
_cell_angle_alpha 90.000000
_cell_angle_beta 90.000000
_cell_angle_gamma 90.000000
_cell_volume 3303.638455
_symmetry_space_group_name_H-M "P C C M"
_symmetry_group_IT_number 49
_symmetry_cell_setting 'orthorhombic'
loop_
_space_group_symop_operation_xyz
x,y,z
-x,-y,z
x,-y,1/2-z
-x,y,1/2-z
-x,-y,-z
x,y,-z
-x,y,1/2+z
x,-y,1/2+z
loop_
_atom_site_type_symbol
_atom_site_label
_atom_site_fract_x
_atom_site_fract_y
_atom_site_fract_z
Si Si1 0.559331 0.591894 0.686689
Si Si2 0.255074 0.214252 0.690967
Si Si3 0.154688 0.899608 0.189419
Si Si4 0.943987 0.216096 0.189213
Si Si5 0.779171 0.594740 0.688630
Si Si6 0.646183 0.099250 0.188371
Si Si7 0.099390 0.594930 0.188527
Si Si8 0.441526 0.778537 0.313551
O O1 0.583404 0.500000 0.750000
O O2 0.500000 0.592626 0.750000
O O3 0.558574 0.590490 0.500000
O O4 0.581457 0.685349 0.746938
O O5 0.254786 0.215613 0.500000
O O6 0.204316 0.158638 0.739839
O O7 0.250262 0.316630 0.743202
O O8 0.306503 0.162702 0.740117
O O9 0.102218 0.849404 0.239926
O O10 0.157535 0.000000 0.250000
O O11 0.155031 0.901190 0.000000
O O12 0.930691 0.317044 0.242436
O O13 0.000000 0.188689 0.250000
O O14 0.944277 0.216594 0.000000
O O15 0.759597 0.500000 0.750000
O O16 0.777827 0.592884 0.500000
O O17 0.839932 0.603508 0.735312
O O18 0.593667 0.140931 0.255404
O O19 0.654609 0.000000 0.250000
O O20 0.644181 0.098685 0.000000
O O21 0.079726 0.500000 0.250000
O O22 0.097974 0.593332 0.000000
O O23 0.500000 0.787774 0.250000
O O24 0.443170 0.773532 0.500000
#
# Coordination Sequence:
#
# PCOD9392263 Si02
#       8
#     8   8   8   8   8   8   8   8
#     4  10  17  29  51  82 117 154 195 238 283 333
#     4   9  18  36  62  84 111 147 183 224 278 337
#     4  10  20  37  58  80 104 139 183 230 281 335
#     4  10  21  36  53  74 107 145 183 227 278 334
#     4   9  16  31  55  83 111 144 181 220 269 326
#     4  11  23  40  61  87 115 148 188 236 291 346
#     4   9  17  31  52  76 105 141 180 222 269 326
#     4  11  22  39  61  87 119 157 198 241 286 341
#
# _framework density 19.372579000000002
#
# number of rings (size 3 to 8) (size 9 to 14) (size 15 to 20)
#    0.000    2.125    1.250    4.125    0.000    1.750 
#    0.000    6.875    0.000    1.500    0.000    0.000 
#    0.000    0.000    0.000    0.000    0.000    0.000 
#
# Total GULP energy -357294.682031 kJ/mol
# GULP energy per Si atom -5582.729407 kJ/mol
# Density = 1.932849 g / cm^3
# Si number density = 19.372579 Si / 1000 Ang^3
#
#
#
# Elastic Constant Matrix: (Units=GPa)
#
#
# Indices 1 2 3 4 5 6 
#
# 1 91.5814 66.8107 22.8734 0.0000 0.0000 0.0000
# 2 66.8107 152.3733 25.8492 0.0000 0.0000 0.0000
# 3 22.8734 25.8492 61.8982 0.0000 0.0000 0.0000
# 4 0.0000 0.0000 0.0000 36.0611 0.0000 0.0000
# 5 0.0000 0.0000 0.0000 0.0000 18.1779 0.0000
# 6 0.0000 0.0000 0.0000 0.0000 0.0000 22.1023
#
#
#
# Elastic Compliance Matrix: (Units=1/GPa)
#
#
# Indices 1 2 3 4 5 6 
#
# 1 0.016674 -0.006744 -0.003346 0.000000 0.000000 0.000000
# 2 -0.006744 0.009791 -0.001597 0.000000 0.000000 0.000000
# 3 -0.003346 -0.001597 0.018059 0.000000 0.000000 0.000000
# 4 0.000000 0.000000 0.000000 0.027731 0.000000 0.000000
# 5 0.000000 0.000000 0.000000 0.000000 0.055012 0.000000
# 6 0.000000 0.000000 0.000000 0.000000 0.000000 0.045244
#
#
# Mechanical properties :
#
#
# Convention : Reuss Voigt Hill
#
# Bulk Modulus (GPa) = 47.27689 59.65774 53.46731
# Shear Modulus (GPa) = 24.63871 27.95623 26.29747
#
# Velocity S-wave (km/s) = 3.57015 3.80291 3.68837
# Velocity P-wave (km/s) = 6.43829 7.08129 6.76743
#
# Compressibility (1/GPa) = 0.02115198
#
# Stress axis : x y z
#
# Youngs Moduli (GPa) = 59.97189 102.13925 55.37518
#
# Poissons Ratio (x) = 0.68879 0.18526
# Poissons Ratio (y) = 0.40443 0.08841
# Poissons Ratio (z) = 0.20064 0.16308
#
# Static dielectric constant tensor:
#      x y z
#    x 0.319600 0.000000 0.000000 
#    y 0.000000 1.692970 0.000000 
#    z 0.000000 0.000000 1.663510 
# 
# From -- ./inp_files/6543.got.cif
#   From: 2010.05.17/outbox.cif.g08.bks.cpg/sg49_4_cif.got.tgz:6543.got - 2010.06.03 21:02:19.
