data_PCOD9392670
_publ_section_title
;
Structure prediction by ZEFSAII (Michael W. Deem and Ramdas Pophale) SiO2 
 PCOD9392670
Probable space group: P C C M
;
_chemical_formula_sum "Si O2"
_cell_formula_units_Z 48
_cell_length_a 13.773304
_cell_length_b 24.709718
_cell_length_c 8.582775
_cell_angle_alpha 90.000000
_cell_angle_beta 90.000000
_cell_angle_gamma 90.000000
_cell_volume 2921.014076
_symmetry_space_group_name_H-M "P C C M"
_symmetry_group_IT_number 49
_symmetry_cell_setting 'orthorhombic'
loop_
_space_group_symop_operation_xyz
x,y,z
-x,-y,z
x,-y,1/2-z
-x,y,1/2-z
-x,-y,-z
x,y,-z
-x,y,1/2+z
x,-y,1/2+z
loop_
_atom_site_type_symbol
_atom_site_label
_atom_site_fract_x
_atom_site_fract_y
_atom_site_fract_z
Si Si1 0.201226 0.217057 0.814379
Si Si2 0.106107 0.889892 0.813875
Si Si3 0.110198 0.555188 0.185842
Si Si4 0.605462 0.166266 0.186174
Si Si5 0.889722 0.674746 0.687446
Si Si6 0.699258 0.058894 0.686189
O O1 0.132683 0.171638 0.735239
O O2 0.309569 0.202993 0.758365
O O3 0.169398 0.276304 0.761323
O O4 0.193911 0.211057 0.000000
O O5 0.191130 0.926076 0.739010
O O6 0.000000 0.903805 0.750000
O O7 0.109443 0.894771 0.000000
O O8 0.156908 0.500000 0.250000
O O9 0.150188 0.614603 0.227596
O O10 0.000000 0.556008 0.250000
O O11 0.106402 0.551406 0.000000
O O12 0.500000 0.180918 0.250000
O O13 0.632153 0.105466 0.240621
O O14 0.608751 0.169208 0.000000
O O15 0.891058 0.679771 0.500000
O O16 0.000000 0.678103 0.750000
O O17 0.692808 0.060844 0.500000
O O18 0.673821 0.000000 0.750000
#
# Coordination Sequence:
#
# PCOD9392670 Si02
#       6
#     8   8   8   8   8   8
#     4  11  21  34  51  73  98 127 161 201 242 288
#     4  11  21  35  52  72  98 131 164 199 239 283
#     4   9  16  25  39  58  87 125 167 206 243 280
#     4  11  22  39  59  79 100 125 154 192 240 291
#     4  10  19  30  44  67  97 133 170 207 244 285
#     4  11  22  38  56  78 102 127 159 196 236 283
#
# _framework density 16.432649000000001
#
# number of rings (size 3 to 8) (size 9 to 14) (size 15 to 20)
#    0.000    1.500    0.000   10.000    0.000    2.667 
#    0.000    3.333    0.000    0.000    0.000    0.000 
#    0.000    0.667    0.000    7.000    0.000    3.833 
#
# Total GULP energy -268059.437352 kJ/mol
# GULP energy per Si atom -5584.571611 kJ/mol
# Density = 1.639525 g / cm^3
# Si number density = 16.432649 Si / 1000 Ang^3
#
#
#
# Elastic Constant Matrix: (Units=GPa)
#
#
# Indices 1 2 3 4 5 6 
#
# 1 47.4594 7.4096 -1.2095 0.0000 0.0000 0.0000
# 2 7.4096 105.1619 13.9037 0.0000 0.0000 0.0000
# 3 -1.2095 13.9037 88.4417 0.0000 0.0000 0.0000
# 4 0.0000 0.0000 0.0000 27.5508 0.0000 0.0000
# 5 0.0000 0.0000 0.0000 0.0000 23.2943 0.0000
# 6 0.0000 0.0000 0.0000 0.0000 0.0000 3.5335
#
#
#
# Elastic Compliance Matrix: (Units=1/GPa)
#
#
# Indices 1 2 3 4 5 6 
#
# 1 0.021330 -0.001574 0.000539 0.000000 0.000000 0.000000
# 2 -0.001574 0.009827 -0.001566 0.000000 0.000000 0.000000
# 3 0.000539 -0.001566 0.011561 0.000000 0.000000 0.000000
# 4 0.000000 0.000000 0.000000 0.036297 0.000000 0.000000
# 5 0.000000 0.000000 0.000000 0.000000 0.042929 0.000000
# 6 0.000000 0.000000 0.000000 0.000000 0.000000 0.283008
#
#
# Mechanical properties :
#
#
# Convention : Reuss Voigt Hill
#
# Bulk Modulus (GPa) = 26.65605 31.25230 28.95418
# Shear Modulus (GPa) = 11.82986 25.60632 18.71809
#
# Velocity S-wave (km/s) = 2.68601 3.95176 3.37869
# Velocity P-wave (km/s) = 5.08686 6.31519 5.73401
#
# Compressibility (1/GPa) = 0.03751493
#
# Stress axis : x y z
#
# Youngs Moduli (GPa) = 46.88198 101.75879 86.50139
#
# Poissons Ratio (x) = 0.16019 -0.04664
# Poissons Ratio (y) = 0.07380 0.13550
# Poissons Ratio (z) = -0.02528 0.15940
#
# Static dielectric constant tensor:
#      x y z
#    x 1.528740 0.000000 0.000000 
#    y 0.000000 1.581600 0.000000 
#    z 0.000000 0.000000 1.545510 
# 
# From -- ./inp_files/2910.got.cif
#   From: 2010.05.17/outbox.cif.g08.bks.cpg/sg49_2_cif.got.tgz:2910.got - 2010.06.03 21:02:19.
