data_PCOD9392283
_publ_section_title
;
Structure prediction by ZEFSAII (Michael W. Deem and Ramdas Pophale) SiO2 
 PCOD9392283
Probable space group: P C C M
;
_chemical_formula_sum "Si O2"
_cell_formula_units_Z 64
_cell_length_a 16.166922
_cell_length_b 8.578826
_cell_length_c 23.097209
_cell_angle_alpha 90.000000
_cell_angle_beta 90.000000
_cell_angle_gamma 90.000000
_cell_volume 3203.426077
_symmetry_space_group_name_H-M "P C C M"
_symmetry_group_IT_number 49
_symmetry_cell_setting 'orthorhombic'
loop_
_space_group_symop_operation_xyz
x,y,z
-x,-y,z
x,-y,1/2-z
-x,y,1/2-z
-x,-y,-z
x,y,-z
-x,y,1/2+z
x,-y,1/2+z
loop_
_atom_site_type_symbol
_atom_site_label
_atom_site_fract_x
_atom_site_fract_y
_atom_site_fract_z
Si Si1 0.160438 0.762601 0.063899
Si Si2 0.323291 0.301685 0.624853
Si Si3 0.329596 0.645508 0.568866
Si Si4 0.088364 0.923613 0.166240
Si Si5 0.490459 0.310526 0.566786
Si Si6 0.764019 0.180948 0.238165
Si Si7 0.909666 0.571437 0.062638
Si Si8 0.189010 0.229430 0.859745
O O1 0.253187 0.786653 0.087075
O O2 0.090782 0.820203 0.108491
O O3 0.150853 0.576331 0.061253
O O4 0.148039 0.827839 0.000000
O O5 0.322523 0.484309 0.605401
O O6 0.416804 0.254924 0.608031
O O7 0.292605 0.263383 0.689828
O O8 0.328157 0.609231 0.500000
O O9 0.415686 0.735191 0.580952
O O10 0.254302 0.751899 0.589015
O O11 0.140135 0.831118 0.215214
O O12 0.151686 0.060717 0.149808
O O13 0.000000 0.000000 0.180326
O O14 0.500000 0.500000 0.568864
O O15 0.470299 0.270593 0.500000
O O16 0.767932 0.270318 0.299038
O O17 0.737472 0.000000 0.250000
O O18 0.887065 0.666852 0.119051
O O19 0.000000 0.500000 0.065102
O O20 0.902184 0.655437 0.000000
#
# Coordination Sequence:
#
# PCOD9392283 Si02
#       8
#     8   8   8   8   8   8   8   8
#     4  10  19  32  53  83 115 147 185 231 292 355
#     4  10  17  33  57  81 117 150 189 233 285 338
#     4  10  19  33  57  91 122 147 182 237 304 354
#     4  10  22  40  59  78 107 150 205 249 285 335
#     4   8  15  28  53  88 118 146 181 227 284 350
#     4   9  22  39  57  79 108 153 202 242 280 334
#     4  10  20  34  53  81 116 145 177 233 298 349
#     4  11  21  36  58  79 114 153 188 235 295 340
#
# _framework density 19.978608999999999
#
# number of rings (size 3 to 8) (size 9 to 14) (size 15 to 20)
#    0.000    2.250    1.250    3.000    0.000    4.000 
#    0.000    0.625    0.000   11.250    0.000   16.625 
#    0.000    0.000    0.000    0.000    0.000    0.000 
#
# Total GULP energy -356534.974676 kJ/mol
# GULP energy per Si atom -5570.858979 kJ/mol
# Density = 1.993314 g / cm^3
# Si number density = 19.978609 Si / 1000 Ang^3
#
#
#
# Elastic Constant Matrix: (Units=GPa)
#
#
# Indices 1 2 3 4 5 6 
#
# 1 111.5309 13.1156 25.8697 0.0000 0.0000 0.0000
# 2 13.1156 21.8333 33.9374 0.0000 0.0000 0.0000
# 3 25.8697 33.9374 118.6349 0.0000 0.0000 0.0000
# 4 0.0000 0.0000 0.0000 -2.1037 0.0000 0.0000
# 5 0.0000 0.0000 0.0000 0.0000 12.6779 0.0000
# 6 0.0000 0.0000 0.0000 0.0000 0.0000 19.2929
#
#
#
# Elastic Compliance Matrix: (Units=1/GPa)
#
#
# Indices 1 2 3 4 5 6 
#
# 1 0.009690 -0.004568 -0.000806 0.000000 0.000000 0.000000
# 2 -0.004568 0.084628 -0.023213 0.000000 0.000000 0.000000
# 3 -0.000806 -0.023213 0.015246 0.000000 0.000000 0.000000
# 4 0.000000 0.000000 0.000000 -0.475346 0.000000 0.000000
# 5 0.000000 0.000000 0.000000 0.000000 0.078878 0.000000
# 6 0.000000 0.000000 0.000000 0.000000 0.000000 0.051832
#
#
# Mechanical properties :
#
#
# Convention : Reuss Voigt Hill
#
# Bulk Modulus (GPa) = 19.08786 44.20496 31.64641
# Shear Modulus (GPa) = -31.16536 17.91184 -6.62676
#
# Velocity S-wave (km/s) = -3.95389 2.99749 -1.82322
# Velocity P-wave (km/s) = 3.35699 5.84415 3.38266
#
# Compressibility (1/GPa) = 0.05238932
#
# Stress axis : x y z
#
# Youngs Moduli (GPa) = 103.19585 11.81644 65.59285
#
# Poissons Ratio (x) = 0.05397 0.05290
# Poissons Ratio (y) = 0.47136 1.52262
# Poissons Ratio (z) = 0.08322 0.27430
#
# Static dielectric constant tensor:
#      x y z
#    x 1.769910 0.000000 0.000000 
#    y 0.000000 1.773170 0.000000 
#    z 0.000000 0.000000 1.756940 
# 
# From -- ./inp_files/21080.got.cif
#   From: 2010.05.17/outbox.cif.g08.bks.cpg/sg49_11_cif.got.tgz:21080.got - 2010.06.03 21:02:19.
