data_PCOD9392003
_publ_section_title
;
Structure prediction by ZEFSAII (Michael W. Deem and Ramdas Pophale) SiO2 
 PCOD9392003
Probable space group: P C C M
;
_chemical_formula_sum "Si O2"
_cell_formula_units_Z 48
_cell_length_a 32.321111
_cell_length_b 9.279496
_cell_length_c 8.589515
_cell_angle_alpha 90.000000
_cell_angle_beta 90.000000
_cell_angle_gamma 90.000000
_cell_volume 2576.198435
_symmetry_space_group_name_H-M "P C C M"
_symmetry_group_IT_number 49
_symmetry_cell_setting 'orthorhombic'
loop_
_space_group_symop_operation_xyz
x,y,z
-x,-y,z
x,-y,1/2-z
-x,y,1/2-z
-x,-y,-z
x,y,-z
-x,y,1/2+z
x,-y,1/2+z
loop_
_atom_site_type_symbol
_atom_site_label
_atom_site_fract_x
_atom_site_fract_y
_atom_site_fract_z
Si Si1 0.542632 0.835224 0.185360
Si Si2 0.954935 0.338372 0.186585
Si Si3 0.281439 0.162595 0.312537
Si Si4 0.627622 0.835838 0.686796
Si Si5 0.122339 0.838530 0.313674
Si Si6 0.200527 0.338262 0.687714
O O1 0.500000 0.769189 0.250000
O O2 0.585964 0.768366 0.242606
O O3 0.543194 0.000000 0.250000
O O4 0.541423 0.840211 0.000000
O O5 0.947310 0.500000 0.250000
O O6 0.919014 0.235698 0.248212
O O7 0.000000 0.293856 0.250000
O O8 0.955457 0.341231 0.000000
O O9 0.280840 0.154242 0.500000
O O10 0.327003 0.222936 0.268985
O O11 0.243072 0.259969 0.262502
O O12 0.276992 0.000000 0.250000
O O13 0.623738 0.838138 0.500000
O O14 0.628987 0.000000 0.750000
O O15 0.121370 0.838755 0.500000
O O16 0.161668 0.748710 0.254206
O O17 0.125513 0.000000 0.250000
O O18 0.199552 0.500000 0.750000
O O19 0.198481 0.338073 0.500000
#
# Coordination Sequence:
#
# PCOD9392003 Si02
#       6
#     8   8   8   8   8   8
#     4  10  16  22  32  50  78 116 157 199 243 297
#     4  11  22  40  64  92 123 159 197 237 280 329
#     4   9  19  33  52  75 103 135 173 216 266 320
#     4   9  15  25  39  59  86 120 158 202 250 304
#     4  12  25  42  62  88 118 152 190 234 281 331
#     4  11  23  40  59  83 111 145 184 227 275 328
#
# _framework density 18.632106
#
# number of rings (size 3 to 8) (size 9 to 14) (size 15 to 20)
#    0.000    1.667    0.000    8.500    0.000    3.667 
#    0.000    1.667    0.000    0.000    0.000    0.000 
#    0.000    0.667    0.000    7.667    0.000    4.833 
#
# Total GULP energy -267987.377891 kJ/mol
# GULP energy per Si atom -5583.070373 kJ/mol
# Density = 1.858970 g / cm^3
# Si number density = 18.632106 Si / 1000 Ang^3
#
#
#
# Elastic Constant Matrix: (Units=GPa)
#
#
# Indices 1 2 3 4 5 6 
#
# 1 215.9710 97.1333 78.2695 0.0000 0.0000 0.0000
# 2 97.1333 81.5555 40.1303 0.0000 0.0000 0.0000
# 3 78.2695 40.1303 144.1533 0.0000 0.0000 0.0000
# 4 0.0000 0.0000 0.0000 21.1425 0.0000 0.0000
# 5 0.0000 0.0000 0.0000 0.0000 34.6519 0.0000
# 6 0.0000 0.0000 0.0000 0.0000 0.0000 -3.3775
#
#
#
# Elastic Compliance Matrix: (Units=1/GPa)
#
#
# Indices 1 2 3 4 5 6 
#
# 1 0.010774 -0.011533 -0.002639 0.000000 0.000000 0.000000
# 2 -0.011533 0.026553 -0.001130 0.000000 0.000000 0.000000
# 3 -0.002639 -0.001130 0.008685 0.000000 0.000000 0.000000
# 4 0.000000 0.000000 0.000000 0.047298 0.000000 0.000000
# 5 0.000000 0.000000 0.000000 0.000000 0.028858 0.000000
# 6 0.000000 0.000000 0.000000 0.000000 0.000000 -0.296080
#
#
# Mechanical properties :
#
#
# Convention : Reuss Voigt Hill
#
# Bulk Modulus (GPa) = 64.90396 96.97177 80.93787
# Shear Modulus (GPa) = -36.18677 25.55985 -5.31346
#
# Velocity S-wave (km/s) = -4.41179 3.70782 -1.69055
# Velocity P-wave (km/s) = 2.99303 8.39578 6.30267
#
# Compressibility (1/GPa) = 0.01540738
#
# Stress axis : x y z
#
# Youngs Moduli (GPa) = 92.81958 37.65985 115.14651
#
# Poissons Ratio (x) = 0.43433 0.30388
# Poissons Ratio (y) = 1.07048 0.13014
# Poissons Ratio (z) = 0.24495 0.04256
#
# Static dielectric constant tensor:
#      x y z
#    x 1.696470 0.000000 0.000000 
#    y 0.000000 1.623590 0.000000 
#    z 0.000000 0.000000 1.624260 
# 
# From -- ./inp_files/6856.got.cif
#   From: 2010.05.17/outbox.cif.g08.bks.cpg/sg49_4_cif.got.tgz:6856.got - 2010.06.03 21:02:19.
