data_PCOD9392238
_publ_section_title
;
Structure prediction by ZEFSAII (Michael W. Deem and Ramdas Pophale) SiO2 
 PCOD9392238
Probable space group: P C C M
;
_chemical_formula_sum "Si O2"
_cell_formula_units_Z 48
_cell_length_a 31.870875
_cell_length_b 9.199602
_cell_length_c 8.588992
_cell_angle_alpha 90.000000
_cell_angle_beta 90.000000
_cell_angle_gamma 90.000000
_cell_volume 2518.287004
_symmetry_space_group_name_H-M "P C C M"
_symmetry_group_IT_number 49
_symmetry_cell_setting 'orthorhombic'
loop_
_space_group_symop_operation_xyz
x,y,z
-x,-y,z
x,-y,1/2-z
-x,y,1/2-z
-x,-y,-z
x,y,-z
-x,y,1/2+z
x,-y,1/2+z
loop_
_atom_site_type_symbol
_atom_site_label
_atom_site_fract_x
_atom_site_fract_y
_atom_site_fract_z
Si Si1 0.788470 0.836564 0.313430
Si Si2 0.708166 0.663501 0.813653
Si Si3 0.043325 0.666072 0.186277
Si Si4 0.628272 0.836854 0.687399
Si Si5 0.868629 0.334896 0.686510
Si Si6 0.455088 0.337065 0.313687
O O1 0.789601 0.836788 0.500000
O O2 0.747927 0.748939 0.254886
O O3 0.829826 0.758397 0.247257
O O4 0.786221 0.000000 0.250000
O O5 0.708348 0.500000 0.750000
O O6 0.665988 0.743336 0.758391
O O7 0.710494 0.662702 0.000000
O O8 0.043547 0.500000 0.250000
O O9 0.087117 0.727304 0.249955
O O10 0.000000 0.733145 0.250000
O O11 0.043031 0.664048 0.000000
O O12 0.631809 0.836153 0.500000
O O13 0.583809 0.764211 0.730978
O O14 0.630685 0.000000 0.750000
O O15 0.864156 0.500000 0.750000
O O16 0.869571 0.339281 0.500000
O O17 0.448300 0.500000 0.250000
O O18 0.500000 0.285292 0.250000
O O19 0.457270 0.344204 0.500000
#
# Coordination Sequence:
#
# PCOD9392238 Si02
#       6
#     8   8   8   8   8   8
#     4  12  25  43  63  87 118 154 193 238 290 348
#     4  12  25  43  66  92 120 154 194 241 290 346
#     4  10  17  28  47  76 111 149 190 239 292 344
#     4  11  24  41  61  89 122 160 199 243 295 352
#     4  11  21  36  57  85 117 153 195 242 291 346
#     4  10  21  37  60  87 118 155 200 247 297 349
#
# _framework density 19.060575
#
# number of rings (size 3 to 8) (size 9 to 14) (size 15 to 20)
#    0.000    1.000    0.000   10.500    0.000    4.333 
#    0.000    1.667    0.000    0.500    0.000    3.500 
#    0.000    0.000    0.000    0.000    0.000    0.000 
#
# Total GULP energy -268484.811697 kJ/mol
# GULP energy per Si atom -5593.433577 kJ/mol
# Density = 1.901719 g / cm^3
# Si number density = 19.060575 Si / 1000 Ang^3
#
#
#
# Elastic Constant Matrix: (Units=GPa)
#
#
# Indices 1 2 3 4 5 6 
#
# 1 213.3322 103.3632 92.5417 0.0000 0.0000 0.0000
# 2 103.3632 125.3683 61.4866 0.0000 0.0000 0.0000
# 3 92.5417 61.4866 190.9387 0.0000 0.0000 0.0000
# 4 0.0000 0.0000 0.0000 -5.4224 0.0000 0.0000
# 5 0.0000 0.0000 0.0000 0.0000 20.2953 0.0000
# 6 0.0000 0.0000 0.0000 0.0000 0.0000 -122.0332
#
#
#
# Elastic Compliance Matrix: (Units=1/GPa)
#
#
# Indices 1 2 3 4 5 6 
#
# 1 0.008531 -0.005945 -0.002220 0.000000 0.000000 0.000000
# 2 -0.005945 0.013615 -0.001503 0.000000 0.000000 0.000000
# 3 -0.002220 -0.001503 0.006797 0.000000 0.000000 0.000000
# 4 0.000000 0.000000 0.000000 -0.184421 0.000000 0.000000
# 5 0.000000 0.000000 0.000000 0.000000 0.049273 0.000000
# 6 0.000000 0.000000 0.000000 0.000000 0.000000 -0.008194
#
#
# Mechanical properties :
#
#
# Convention : Reuss Voigt Hill
#
# Bulk Modulus (GPa) = 104.09000 116.04689 110.06845
# Shear Modulus (GPa) = -54.42997 -3.28222 -28.85609
#
# Velocity S-wave (km/s) = -5.34961 -1.31367 -3.89513
# Velocity P-wave (km/s) = 4.07074 7.66253 6.13536
#
# Compressibility (1/GPa) = 0.00960707
#
# Stress axis : x y z
#
# Youngs Moduli (GPa) = 117.21993 73.44895 147.11337
#
# Poissons Ratio (x) = 0.43662 0.32665
# Poissons Ratio (y) = 0.69683 0.22113
# Poissons Ratio (z) = 0.26027 0.11041
#
# Static dielectric constant tensor:
#      x y z
#    x 1.675440 0.000000 0.000000 
#    y 0.000000 1.638970 0.000000 
#    z 0.000000 0.000000 1.637350 
# 
# From -- ./inp_files/6870.got.cif
#   From: 2010.05.17/outbox.cif.g08.bks.cpg/sg49_4_cif.got.tgz:6870.got - 2010.06.03 21:02:19.
