data_PCOD9392609
_publ_section_title
;
Structure prediction by ZEFSAII (Michael W. Deem and Ramdas Pophale) SiO2 
 PCOD9392609
Probable space group: P C C M
;
_chemical_formula_sum "Si O2"
_cell_formula_units_Z 48
_cell_length_a 23.665222
_cell_length_b 13.672976
_cell_length_c 8.641688
_cell_angle_alpha 90.000000
_cell_angle_beta 90.000000
_cell_angle_gamma 90.000000
_cell_volume 2796.225660
_symmetry_space_group_name_H-M "P C C M"
_symmetry_group_IT_number 49
_symmetry_cell_setting 'orthorhombic'
loop_
_space_group_symop_operation_xyz
x,y,z
-x,-y,z
x,-y,1/2-z
-x,y,1/2-z
-x,-y,-z
x,y,-z
-x,y,1/2+z
x,-y,1/2+z
loop_
_atom_site_type_symbol
_atom_site_label
_atom_site_fract_x
_atom_site_fract_y
_atom_site_fract_z
Si Si1 0.743528 0.108887 0.686275
Si Si2 0.436542 0.605476 0.315035
Si Si3 0.164616 0.266042 0.817672
Si Si4 0.350064 0.756243 0.825032
Si Si5 0.748276 0.402925 0.826703
Si Si6 0.063334 0.393413 0.187380
O O1 0.743989 0.109851 0.500000
O O2 0.797261 0.175350 0.742873
O O3 0.684217 0.156447 0.742374
O O4 0.748896 0.000000 0.750000
O O5 0.415343 0.500000 0.250000
O O6 0.500000 0.615936 0.250000
O O7 0.437028 0.599536 0.500000
O O8 0.400155 0.699152 0.261415
O O9 0.204116 0.358845 0.783242
O O10 0.103827 0.303900 0.760035
O O11 0.158521 0.249184 0.000000
O O12 0.301621 0.674204 0.835410
O O13 0.367037 0.784094 0.000000
O O14 0.725885 0.500000 0.750000
O O15 0.770521 0.419231 0.000000
O O16 0.082870 0.500000 0.250000
O O17 0.000000 0.379773 0.250000
O O18 0.063197 0.397234 0.000000
#
# Coordination Sequence:
#
# PCOD9392609 Si02
#       6
#     8   8   8   8   8   8
#     4  10  20  36  56  78 101 128 163 209 261 311
#     4  11  21  34  52  76 107 144 180 214 250 295
#     4   9  19  33  49  69  96 127 163 204 248 296
#     4  10  20  34  51  74 101 132 169 209 252 302
#     4  10  19  28  43  67  97 129 161 197 242 293
#     4  10  19  31  47  70  99 134 169 203 241 289
#
# _framework density 17.165997000000001
#
# number of rings (size 3 to 8) (size 9 to 14) (size 15 to 20)
#    0.000    2.000    0.000    5.500    0.000    6.667 
#    0.000    0.000    0.000    1.000    0.000    7.000 
#    0.000    0.000    0.000    0.000    0.000    0.000 
#
# Total GULP energy -267387.432976 kJ/mol
# GULP energy per Si atom -5570.571520 kJ/mol
# Density = 1.712693 g / cm^3
# Si number density = 17.165997 Si / 1000 Ang^3
#
#
#
# Elastic Constant Matrix: (Units=GPa)
#
#
# Indices 1 2 3 4 5 6 
#
# 1 88.3317 54.9287 23.0489 0.0000 0.0000 0.0000
# 2 54.9287 99.9988 44.3467 0.0000 0.0000 0.0000
# 3 23.0489 44.3467 61.7873 0.0000 0.0000 0.0000
# 4 0.0000 0.0000 0.0000 23.3831 0.0000 0.0000
# 5 0.0000 0.0000 0.0000 0.0000 18.5282 0.0000
# 6 0.0000 0.0000 0.0000 0.0000 0.0000 24.9181
#
#
#
# Elastic Compliance Matrix: (Units=1/GPa)
#
#
# Indices 1 2 3 4 5 6 
#
# 1 0.017206 -0.009689 0.000535 0.000000 0.000000 0.000000
# 2 -0.009689 0.020125 -0.010830 0.000000 0.000000 0.000000
# 3 0.000535 -0.010830 0.023758 0.000000 0.000000 0.000000
# 4 0.000000 0.000000 0.000000 0.042766 0.000000 0.000000
# 5 0.000000 0.000000 0.000000 0.000000 0.053972 0.000000
# 6 0.000000 0.000000 0.000000 0.000000 0.000000 0.040132
#
#
# Mechanical properties :
#
#
# Convention : Reuss Voigt Hill
#
# Bulk Modulus (GPa) = 47.34352 54.97405 51.15878
# Shear Modulus (GPa) = 20.41104 21.88543 21.14824
#
# Velocity S-wave (km/s) = 3.45199 3.57449 3.51377
# Velocity P-wave (km/s) = 6.59757 7.00931 6.80656
#
# Compressibility (1/GPa) = 0.02112222
#
# Stress axis : x y z
#
# Youngs Moduli (GPa) = 58.11892 49.68990 42.09125
#
# Poissons Ratio (x) = 0.48143 -0.02253
# Poissons Ratio (y) = 0.56309 0.45585
# Poissons Ratio (z) = -0.03111 0.53814
#
# Static dielectric constant tensor:
#      x y z
#    x 1.601060 0.000000 0.000000 
#    y 0.000000 1.575020 0.000000 
#    z 0.000000 0.000000 1.606060 
# 
# From -- ./inp_files/6319.got.cif
#   From: 2010.05.17/outbox.cif.g08.bks.cpg/sg49_4_cif.got.tgz:6319.got - 2010.06.03 21:02:19.
