data_PCOD9392978
_publ_section_title
;
Structure prediction by ZEFSAII (Michael W. Deem and Ramdas Pophale) SiO2 
 PCOD9392978
Probable space group: P C C M
;
_chemical_formula_sum "Si O2"
_cell_formula_units_Z 64
_cell_length_a 25.477114
_cell_length_b 15.008753
_cell_length_c 8.748850
_cell_angle_alpha 90.000000
_cell_angle_beta 90.000000
_cell_angle_gamma 90.000000
_cell_volume 3345.382736
_symmetry_space_group_name_H-M "P C C M"
_symmetry_group_IT_number 49
_symmetry_cell_setting 'orthorhombic'
loop_
_space_group_symop_operation_xyz
x,y,z
-x,-y,z
x,-y,1/2-z
-x,y,1/2-z
-x,-y,-z
x,y,-z
-x,y,1/2+z
x,-y,1/2+z
loop_
_atom_site_type_symbol
_atom_site_label
_atom_site_fract_x
_atom_site_fract_y
_atom_site_fract_z
Si Si1 0.749469 0.277750 0.180752
Si Si2 0.554353 0.708432 0.184624
Si Si3 0.944261 0.900701 0.817186
Si Si4 0.132280 0.242614 0.683520
Si Si5 0.419738 0.907227 0.681792
Si Si6 0.695802 0.913007 0.320099
Si Si7 0.659070 0.599557 0.183357
Si Si8 0.942665 0.591734 0.680696
O O1 0.809427 0.269983 0.234874
O O2 0.726492 0.178412 0.197357
O O3 0.710493 0.346359 0.262631
O O4 0.749819 0.300377 0.000000
O O5 0.500000 0.670737 0.250000
O O6 0.558487 0.811988 0.236468
O O7 0.606568 0.654438 0.231747
O O8 0.552617 0.707898 0.000000
O O9 0.895606 0.840573 0.763905
O O10 0.000000 0.865391 0.750000
O O11 0.938342 0.000000 0.750000
O O12 0.947920 0.903615 0.000000
O O13 0.134535 0.225486 0.500000
O O14 0.094782 0.326213 0.712344
O O15 0.425185 0.911129 0.500000
O O16 0.358701 0.904428 0.729647
O O17 0.440745 0.000000 0.750000
O O18 0.685210 0.927200 0.500000
O O19 0.723561 0.000000 0.250000
O O20 0.658340 0.500000 0.250000
O O21 0.658814 0.595278 0.000000
O O22 0.921570 0.500000 0.750000
O O23 0.948025 0.581180 0.500000
O O24 0.000000 0.607194 0.750000
#
# Coordination Sequence:
#
# PCOD9392978 Si02
#       8
#     8   8   8   8   8   8   8   8
#     4  10  22  40  61  87 119 157 197 241 296 353
#     4  10  23  40  61  88 121 155 193 244 295 354
#     4  11  22  38  61  88 121 164 210 256 307 359
#     4  10  22  39  58  86 122 155 196 247 296 354
#     4  10  19  34  55  84 118 153 192 231 279 336
#     4  10  19  32  55  83 112 150 191 231 277 333
#     4  11  24  44  66  89 117 152 197 248 302 363
#     4  10  20  35  57  81 111 146 183 233 285 343
#
# _framework density 19.130845999999998
#
# number of rings (size 3 to 8) (size 9 to 14) (size 15 to 20)
#    0.000    1.750    1.250    4.500    0.000    6.500 
#    0.000    5.000    0.000    0.000    0.000    0.000 
#    0.000    0.000    0.000    0.000    0.000    0.000 
#
# Total GULP energy -357391.510174 kJ/mol
# GULP energy per Si atom -5584.242346 kJ/mol
# Density = 1.908730 g / cm^3
# Si number density = 19.130846 Si / 1000 Ang^3
#
#
#
# Elastic Constant Matrix: (Units=GPa)
#
#
# Indices 1 2 3 4 5 6 
#
# 1 120.2066 69.7492 43.6853 0.0000 0.0000 0.0000
# 2 69.7492 121.6074 54.3851 0.0000 0.0000 0.0000
# 3 43.6853 54.3851 56.4023 0.0000 0.0000 0.0000
# 4 0.0000 0.0000 0.0000 1.0026 0.0000 0.0000
# 5 0.0000 0.0000 0.0000 0.0000 21.9981 0.0000
# 6 0.0000 0.0000 0.0000 0.0000 0.0000 -2.0966
#
#
#
# Elastic Compliance Matrix: (Units=1/GPa)
#
#
# Indices 1 2 3 4 5 6 
#
# 1 0.013274 -0.005302 -0.005169 0.000000 0.000000 0.000000
# 2 -0.005302 0.016575 -0.011876 0.000000 0.000000 0.000000
# 3 -0.005169 -0.011876 0.033185 0.000000 0.000000 0.000000
# 4 0.000000 0.000000 0.000000 0.997364 0.000000 0.000000
# 5 0.000000 0.000000 0.000000 0.000000 0.045459 0.000000
# 6 0.000000 0.000000 0.000000 0.000000 0.000000 -0.476956
#
#
# Mechanical properties :
#
#
# Convention : Reuss Voigt Hill
#
# Bulk Modulus (GPa) = 54.52489 70.42841 62.47665
# Shear Modulus (GPa) = 7.35612 12.87393 10.11503
#
# Velocity S-wave (km/s) = 1.96304 2.59693 2.30190
# Velocity P-wave (km/s) = 5.80525 6.77392 6.30821
#
# Compressibility (1/GPa) = 0.01834025
#
# Stress axis : x y z
#
# Youngs Moduli (GPa) = 75.33673 60.33102 30.13453
#
# Poissons Ratio (x) = 0.31986 0.15576
# Poissons Ratio (y) = 0.39941 0.35788
# Poissons Ratio (z) = 0.38940 0.71650
#
# Static dielectric constant tensor:
#      x y z
#    x 1.661430 0.000000 0.000000 
#    y 0.000000 1.676960 0.000000 
#    z 0.000000 0.000000 1.652040 
# 
# From -- ./inp_files/6518.got.cif
#   From: 2010.05.17/outbox.cif.g08.bks.cpg/sg49_4_cif.got.tgz:6518.got - 2010.06.03 21:02:19.
