data_PCOD9392167
_publ_section_title
;
Structure prediction by ZEFSAII (Michael W. Deem and Ramdas Pophale) SiO2 
 PCOD9392167
Probable space group: P C C M
;
_chemical_formula_sum "Si O2"
_cell_formula_units_Z 48
_cell_length_a 8.763190
_cell_length_b 30.699454
_cell_length_c 9.224100
_cell_angle_alpha 90.000000
_cell_angle_beta 90.000000
_cell_angle_gamma 90.000000
_cell_volume 2481.514870
_symmetry_space_group_name_H-M "P C C M"
_symmetry_group_IT_number 49
_symmetry_cell_setting 'orthorhombic'
loop_
_space_group_symop_operation_xyz
x,y,z
-x,-y,z
x,-y,1/2-z
-x,y,1/2-z
-x,-y,-z
x,y,-z
-x,y,1/2+z
x,-y,1/2+z
loop_
_atom_site_type_symbol
_atom_site_label
_atom_site_fract_x
_atom_site_fract_y
_atom_site_fract_z
Si Si1 0.663698 0.698649 0.831316
Si Si2 0.793625 0.462503 0.500000
Si Si3 0.829455 0.043352 0.677058
Si Si4 0.682584 0.601894 0.767672
Si Si5 0.850354 0.436782 0.000000
Si Si6 0.336908 0.780529 0.828819
Si Si7 0.163096 0.128553 0.327179
O O1 0.500000 0.695704 0.750000
O O2 0.730077 0.649919 0.822300
O O3 0.742428 0.738905 0.748512
O O4 0.644839 0.709343 0.000000
O O5 0.713809 0.439415 0.632897
O O6 0.782666 0.514240 0.500000
O O7 0.969609 0.446344 0.500000
O O8 0.835035 0.041558 0.500000
O O9 0.760575 0.088207 0.740057
O O10 0.000000 0.044526 0.750000
O O11 0.758724 0.000000 0.750000
O O12 0.500000 0.603511 0.750000
O O13 0.786372 0.590696 0.632086
O O14 0.500000 0.785270 0.750000
O O15 0.251033 0.826130 0.813169
O O16 0.353993 0.771722 0.000000
O O17 0.147042 0.118238 0.500000
O O18 0.000000 0.134902 0.250000
#
# Coordination Sequence:
#
# PCOD9392167 Si02
#       7
#     8   4   8   8   4   8   8
#     4  10  20  35  59  85 113 142 181 233 280 328
#     4  11  23  45  57  87 121 155 199 217 296 351
#     4  10  17  27  46  72 104 144 186 233 283 338
#     4  11  23  38  63  92 114 147 194 247 285 330
#     4  11  25  39  65  81 121 165 181 237 280 357
#     4  10  21  36  59  84 111 147 188 227 275 341
#     4  10  20  34  52  79 112 146 184 234 284 332
#
# _framework density 19.343022999999999
#
# number of rings (size 3 to 8) (size 9 to 14) (size 15 to 20)
#    0.000    1.667    0.833    7.000    4.667    6.000 
#    0.000    1.667    0.000    0.500    0.000    3.500 
#    0.000    0.000    0.000    0.000    0.000    0.000 
#
# Total GULP energy -267365.755697 kJ/mol
# GULP energy per Si atom -5570.119910 kJ/mol
# Density = 1.929900 g / cm^3
# Si number density = 19.343023 Si / 1000 Ang^3
#
#
#
# Elastic Constant Matrix: (Units=GPa)
#
#
# Indices 1 2 3 4 5 6 
#
# 1 24.6869 32.7672 17.2737 0.0000 0.0000 0.0000
# 2 32.7672 169.8122 67.5680 0.0000 0.0000 0.0000
# 3 17.2737 67.5680 161.0498 0.0000 0.0000 0.0000
# 4 0.0000 0.0000 0.0000 61.1715 0.0000 0.0000
# 5 0.0000 0.0000 0.0000 0.0000 15.2770 0.0000
# 6 0.0000 0.0000 0.0000 0.0000 0.0000 24.2902
#
#
#
# Elastic Compliance Matrix: (Units=1/GPa)
#
#
# Indices 1 2 3 4 5 6 
#
# 1 0.054854 -0.009896 -0.001732 0.000000 0.000000 0.000000
# 2 -0.009896 0.008854 -0.002653 0.000000 0.000000 0.000000
# 3 -0.001732 -0.002653 0.007508 0.000000 0.000000 0.000000
# 4 0.000000 0.000000 0.000000 0.016347 0.000000 0.000000
# 5 0.000000 0.000000 0.000000 0.000000 0.065458 0.000000
# 6 0.000000 0.000000 0.000000 0.000000 0.000000 0.041169
#
#
# Mechanical properties :
#
#
# Convention : Reuss Voigt Hill
#
# Bulk Modulus (GPa) = 23.44415 65.64074 44.54244
# Shear Modulus (GPa) = 21.09976 36.01040 28.55508
#
# Velocity S-wave (km/s) = 3.30634 4.31939 3.84636
# Velocity P-wave (km/s) = 5.16937 7.67365 6.54245
#
# Compressibility (1/GPa) = 0.04265457
#
# Stress axis : x y z
#
# Youngs Moduli (GPa) = 18.23033 112.94235 133.18762
#
# Poissons Ratio (x) = 1.11763 0.23065
# Poissons Ratio (y) = 0.18040 0.35339
# Poissons Ratio (z) = 0.03157 0.29967
#
# Static dielectric constant tensor:
#      x y z
#    x 1.676870 0.000000 0.000000 
#    y 0.000000 1.735540 0.000000 
#    z 0.000000 0.000000 1.646410 
# 
# From -- ./inp_files/2153.got.cif
#   From: 2010.05.17/outbox.cif.g08.bks.cpg/sg49_2_cif.got.tgz:2153.got - 2010.06.03 21:02:19.
