data_PCOD9392687
_publ_section_title
;
Structure prediction by ZEFSAII (Michael W. Deem and Ramdas Pophale) SiO2 
 PCOD9392687
Probable space group: P C C M
;
_chemical_formula_sum "Si O2"
_cell_formula_units_Z 56
_cell_length_a 17.473654
_cell_length_b 12.003685
_cell_length_c 15.653044
_cell_angle_alpha 90.000000
_cell_angle_beta 90.000000
_cell_angle_gamma 90.000000
_cell_volume 3283.198405
_symmetry_space_group_name_H-M "P C C M"
_symmetry_group_IT_number 49
_symmetry_cell_setting 'orthorhombic'
loop_
_space_group_symop_operation_xyz
x,y,z
-x,-y,z
x,-y,1/2-z
-x,y,1/2-z
-x,-y,-z
x,y,-z
-x,y,1/2+z
x,-y,1/2+z
loop_
_atom_site_type_symbol
_atom_site_label
_atom_site_fract_x
_atom_site_fract_y
_atom_site_fract_z
Si Si1 0.086653 0.365423 0.250000
Si Si2 0.199299 0.368298 0.403026
Si Si3 0.352913 0.266070 0.348096
Si Si4 0.647087 0.733930 0.848096
Si Si5 0.409681 0.500000 0.402402
Si Si6 0.500000 0.129822 0.354277
Si Si7 0.199299 0.368298 0.903026
O O1 0.081865 0.500000 0.250000
O O2 0.135743 0.336546 0.333737
O O3 0.135743 0.336546 0.166263
O O4 0.000000 0.321813 0.250000
O O5 0.170964 0.364380 0.500000
O O6 0.271754 0.286046 0.393469
O O7 0.221271 0.500000 0.386057
O O8 0.338335 0.233092 0.250000
O O9 0.386960 0.389882 0.353035
O O10 0.421072 0.188393 0.383944
O O11 0.613041 0.610118 0.853035
O O12 0.578928 0.811607 0.883943
O O13 0.728246 0.713954 0.893469
O O14 0.500000 0.500000 0.410759
O O15 0.376963 0.500000 0.500000
O O16 0.500000 0.141255 0.250000
O O17 0.500000 0.000000 0.375708
O O18 0.170964 0.364379 0.000000
#
# Coordination Sequence:
#
# PCOD9392687 Si02
#       7
#     8   8   8   8   8   8   8
#     4   9  18  32  48  69  99 134 168 197 237 302
#     4  10  19  30  46  71 102 132 165 206 247 291
#     4  11  19  30  49  69  95 129 171 214 250 294
#     4  11  19  30  49  69  95 129 171 214 250 294
#     4  11  21  29  41  67  97 124 165 213 255 293
#     4   9  20  35  49  68  96 134 176 215 255 298
#     4  10  19  30  46  71 102 132 165 206 247 291
#
# _framework density 17.056538
#
# number of rings (size 3 to 8) (size 9 to 14) (size 15 to 20)
#    0.000    1.857    4.286    1.286    0.000    1.143 
#    0.000    2.857    0.000    6.857    0.000    0.000 
#    0.000    2.286    0.000    2.571    0.000    0.286 
#
# Total GULP energy -312004.234475 kJ/mol
# GULP energy per Si atom -5571.504187 kJ/mol
# Density = 1.701772 g / cm^3
# Si number density = 17.056538 Si / 1000 Ang^3
#
#
#
# Elastic Constant Matrix: (Units=GPa)
#
#
# Indices 1 2 3 4 5 6 
#
# 1 136.3900 36.1441 55.4494 0.0000 0.0000 0.0000
# 2 36.1441 63.2916 8.8655 0.0000 0.0000 0.0000
# 3 55.4494 8.8655 90.7202 0.0000 0.0000 0.0000
# 4 0.0000 0.0000 0.0000 6.3799 0.0000 0.0000
# 5 0.0000 0.0000 0.0000 0.0000 6.3252 0.0000
# 6 0.0000 0.0000 0.0000 0.0000 0.0000 5.6830
#
#
#
# Elastic Compliance Matrix: (Units=1/GPa)
#
#
# Indices 1 2 3 4 5 6 
#
# 1 0.011445 -0.005633 -0.006445 0.000000 0.000000 0.000000
# 2 -0.005633 0.018792 0.001607 0.000000 0.000000 0.000000
# 3 -0.006445 0.001607 0.014805 0.000000 0.000000 0.000000
# 4 0.000000 0.000000 0.000000 0.156743 0.000000 0.000000
# 5 0.000000 0.000000 0.000000 0.000000 0.158097 0.000000
# 6 0.000000 0.000000 0.000000 0.000000 0.000000 0.175963
#
#
# Mechanical properties :
#
#
# Convention : Reuss Voigt Hill
#
# Bulk Modulus (GPa) = 41.49519 54.59107 48.04313
# Shear Modulus (GPa) = 8.85237 16.34047 12.59642
#
# Velocity S-wave (km/s) = 2.28063 3.09854 2.72050
# Velocity P-wave (km/s) = 5.59606 6.69901 6.17222
#
# Compressibility (1/GPa) = 0.02409918
#
# Stress axis : x y z
#
# Youngs Moduli (GPa) = 87.37565 53.21479 67.54466
#
# Poissons Ratio (x) = 0.29976 0.43531
# Poissons Ratio (y) = 0.49220 -0.10852
# Poissons Ratio (z) = 0.56311 -0.08550
#
# Static dielectric constant tensor:
#      x y z
#    x 1.604810 0.000000 0.000000 
#    y 0.000000 1.672990 0.000000 
#    z 0.000000 0.000000 1.638500 
# 
# From -- ./inp_files/18214.got.cif
#   From: 2010.05.17/outbox.cif.g08.bks.cpg/sg49_10_cif.got.tgz:18214.got - 2010.06.03 21:02:19.
