data_PCOD9392728
_publ_section_title
;
Structure prediction by ZEFSAII (Michael W. Deem and Ramdas Pophale) SiO2 
 PCOD9392728
Probable space group: P C C M
;
_chemical_formula_sum "Si O2"
_cell_formula_units_Z 64
_cell_length_a 24.164569
_cell_length_b 19.574964
_cell_length_c 8.730210
_cell_angle_alpha 90.000000
_cell_angle_beta 90.000000
_cell_angle_gamma 90.000000
_cell_volume 4129.568895
_symmetry_space_group_name_H-M "P C C M"
_symmetry_group_IT_number 49
_symmetry_cell_setting 'orthorhombic'
loop_
_space_group_symop_operation_xyz
x,y,z
-x,-y,z
x,-y,1/2-z
-x,y,1/2-z
-x,-y,-z
x,y,-z
-x,y,1/2+z
x,-y,1/2+z
loop_
_atom_site_type_symbol
_atom_site_label
_atom_site_fract_x
_atom_site_fract_y
_atom_site_fract_z
Si Si1 0.272991 0.282453 0.316361
Si Si2 0.159735 0.798471 0.816521
Si Si3 0.331929 0.156953 0.183918
Si Si4 0.221131 0.924384 0.684163
Si Si5 0.940374 0.287775 0.317145
Si Si6 0.238166 0.572212 0.816073
Si Si7 0.107413 0.573216 0.816110
Si Si8 0.559327 0.075998 0.684743
O O1 0.278709 0.282182 0.500000
O O2 0.212977 0.249343 0.281186
O O3 0.318128 0.231804 0.246889
O O4 0.270893 0.360714 0.262367
O O5 0.175570 0.872381 0.750348
O O6 0.106273 0.764216 0.742598
O O7 0.153792 0.801081 0.000000
O O8 0.280894 0.107581 0.230485
O O9 0.390161 0.124714 0.231957
O O10 0.331449 0.159777 0.000000
O O11 0.218436 0.925419 0.500000
O O12 0.215457 0.000000 0.750000
O O13 0.941617 0.288441 0.500000
O O14 0.924350 0.363045 0.255447
O O15 0.000000 0.269114 0.250000
O O16 0.257097 0.500000 0.750000
O O17 0.172907 0.580718 0.777566
O O18 0.241205 0.569753 0.000000
O O19 0.089186 0.500000 0.750000
O O20 0.101936 0.574182 0.000000
O O21 0.500000 0.098596 0.750000
O O22 0.556970 0.072643 0.500000
O O23 0.569436 0.000000 0.750000
#
# Coordination Sequence:
#
# PCOD9392728 Si02
#       8
#     8   8   8   8   8   8   8   8
#     4   9  17  30  48  69  95 125 157 194 238 283
#     4  10  19  35  53  71  96 123 152 194 238 285
#     4   9  19  31  45  69  99 128 164 204 238 278
#     4  10  19  32  50  75 100 126 157 193 238 286
#     4  12  24  37  53  72  93 123 158 196 238 285
#     4   9  17  29  45  68  95 125 157 190 230 281
#     4  10  19  34  51  71  97 124 158 196 235 281
#     4  10  19  31  46  66  95 132 172 207 239 278
#
# _framework density 15.497985999999999
#
# number of rings (size 3 to 8) (size 9 to 14) (size 15 to 20)
#    0.000    2.125    1.250    3.375    0.000    3.250 
#    0.000    1.250    0.000    0.375    0.000    2.625 
#    0.000    0.500    0.000    5.500    0.000    4.000 
#
# Total GULP energy -357116.250033 kJ/mol
# GULP energy per Si atom -5579.941407 kJ/mol
# Density = 1.546271 g / cm^3
# Si number density = 15.497986 Si / 1000 Ang^3
#
#
#
# Elastic Constant Matrix: (Units=GPa)
#
#
# Indices 1 2 3 4 5 6 
#
# 1 105.7837 67.2279 39.7626 0.0000 0.0000 0.0000
# 2 67.2279 130.3368 41.0285 0.0000 0.0000 0.0000
# 3 39.7626 41.0285 55.2081 0.0000 0.0000 0.0000
# 4 0.0000 0.0000 0.0000 30.4096 0.0000 0.0000
# 5 0.0000 0.0000 0.0000 0.0000 21.1191 0.0000
# 6 0.0000 0.0000 0.0000 0.0000 0.0000 26.3249
#
#
#
# Elastic Compliance Matrix: (Units=1/GPa)
#
#
# Indices 1 2 3 4 5 6 
#
# 1 0.015891 -0.005997 -0.006989 0.000000 0.000000 0.000000
# 2 -0.005997 0.012278 -0.004806 0.000000 0.000000 0.000000
# 3 -0.006989 -0.004806 0.026718 0.000000 0.000000 0.000000
# 4 0.000000 0.000000 0.000000 0.032884 0.000000 0.000000
# 5 0.000000 0.000000 0.000000 0.000000 0.047351 0.000000
# 6 0.000000 0.000000 0.000000 0.000000 0.000000 0.037987
#
#
# Mechanical properties :
#
#
# Convention : Reuss Voigt Hill
#
# Bulk Modulus (GPa) = 51.79936 65.26298 58.53117
# Shear Modulus (GPa) = 23.24199 25.12467 24.18333
#
# Velocity S-wave (km/s) = 3.87677 4.03073 3.95450
# Velocity P-wave (km/s) = 7.31676 7.99152 7.66157
#
# Compressibility (1/GPa) = 0.01930526
#
# Stress axis : x y z
#
# Youngs Moduli (GPa) = 62.92726 81.44408 37.42749
#
# Poissons Ratio (x) = 0.48840 0.26158
# Poissons Ratio (y) = 0.37736 0.17987
# Poissons Ratio (z) = 0.43979 0.39140
#
# Static dielectric constant tensor:
#      x y z
#    x 1.502050 0.000000 0.000000 
#    y 0.000000 1.511090 0.000000 
#    z 0.000000 0.000000 1.519130 
# 
# From -- ./inp_files/5979.got.cif
#   From: 2010.05.17/outbox.cif.g08.bks.cpg/sg49_3_cif.got.tgz:5979.got - 2010.06.03 21:02:19.
