data_PCOD9392386
_publ_section_title
;
Structure prediction by ZEFSAII (Michael W. Deem and Ramdas Pophale) SiO2 
 PCOD9392386
Probable space group: P C C M
;
_chemical_formula_sum "Si O2"
_cell_formula_units_Z 64
_cell_length_a 24.055402
_cell_length_b 19.508468
_cell_length_c 8.808798
_cell_angle_alpha 90.000000
_cell_angle_beta 90.000000
_cell_angle_gamma 90.000000
_cell_volume 4133.828314
_symmetry_space_group_name_H-M "P C C M"
_symmetry_group_IT_number 49
_symmetry_cell_setting 'orthorhombic'
loop_
_space_group_symop_operation_xyz
x,y,z
-x,-y,z
x,-y,1/2-z
-x,y,1/2-z
-x,-y,-z
x,y,-z
-x,y,1/2+z
x,-y,1/2+z
loop_
_atom_site_type_symbol
_atom_site_label
_atom_site_fract_x
_atom_site_fract_y
_atom_site_fract_z
Si Si1 0.560390 0.074131 0.319174
Si Si2 0.659320 0.843870 0.681059
Si Si3 0.168342 0.202611 0.817575
Si Si4 0.755080 0.427140 0.681823
Si Si5 0.886087 0.572248 0.817670
Si Si6 0.940248 0.714510 0.183016
Si Si7 0.773352 0.924716 0.681437
Si Si8 0.271115 0.286723 0.318091
O O1 0.500000 0.090751 0.250000
O O2 0.556503 0.068431 0.500000
O O3 0.606369 0.128894 0.270169
O O4 0.576619 0.000000 0.250000
O O5 0.648875 0.848003 0.500000
O O6 0.712509 0.892371 0.714796
O O7 0.679592 0.766897 0.717709
O O8 0.215480 0.253147 0.751798
O O9 0.108229 0.232232 0.774527
O O10 0.182535 0.128039 0.752499
O O11 0.172601 0.202523 0.000000
O O12 0.750892 0.427643 0.500000
O O13 0.820795 0.418747 0.722370
O O14 0.723308 0.362302 0.750697
O O15 0.905356 0.500000 0.750000
O O16 0.920281 0.638618 0.766542
O O17 0.889010 0.568648 0.000000
O O18 0.000000 0.731088 0.250000
O O19 0.943268 0.713527 0.000000
O O20 0.779517 0.926227 0.500000
O O21 0.777790 0.000000 0.750000
O O22 0.262818 0.500000 0.250000
O O23 0.265533 0.289149 0.500000
#
# Coordination Sequence:
#
# PCOD9392386 Si02
#       8
#     8   8   8   8   8   8   8   8
#     4  11  21  33  50  70  98 137 176 209 243 280
#     4   9  19  33  48  71 102 130 164 203 236 280
#     4  10  19  34  51  68  94 122 152 193 237 287
#     4  10  18  30  47  68  96 127 161 197 238 291
#     4   9  18  32  46  65  90 119 153 190 230 276
#     4  10  21  35  49  67  90 118 154 193 236 283
#     4  10  20  33  51  76 100 125 155 191 238 287
#     4  10  19  31  49  72  97 127 161 199 244 289
#
# _framework density 15.482018
#
# number of rings (size 3 to 8) (size 9 to 14) (size 15 to 20)
#    0.000    2.125    1.250    4.125    0.000    6.250 
#    0.000    1.250    0.000    0.375    0.000    2.625 
#    0.000    0.500    0.000    5.250    0.000    2.250 
#
# Total GULP energy -357134.542908 kJ/mol
# GULP energy per Si atom -5580.227233 kJ/mol
# Density = 1.544678 g / cm^3
# Si number density = 15.482018 Si / 1000 Ang^3
#
#
#
# Elastic Constant Matrix: (Units=GPa)
#
#
# Indices 1 2 3 4 5 6 
#
# 1 79.7735 57.4628 45.5330 0.0000 0.0000 0.0000
# 2 57.4628 136.9884 53.3017 0.0000 0.0000 0.0000
# 3 45.5330 53.3017 64.2069 0.0000 0.0000 0.0000
# 4 0.0000 0.0000 0.0000 29.0896 0.0000 0.0000
# 5 0.0000 0.0000 0.0000 0.0000 21.9472 0.0000
# 6 0.0000 0.0000 0.0000 0.0000 0.0000 23.2729
#
#
#
# Elastic Compliance Matrix: (Units=1/GPa)
#
#
# Indices 1 2 3 4 5 6 
#
# 1 0.023087 -0.004895 -0.012309 0.000000 0.000000 0.000000
# 2 -0.004895 0.011821 -0.006342 0.000000 0.000000 0.000000
# 3 -0.012309 -0.006342 0.029568 0.000000 0.000000 0.000000
# 4 0.000000 0.000000 0.000000 0.034377 0.000000 0.000000
# 5 0.000000 0.000000 0.000000 0.000000 0.045564 0.000000
# 6 0.000000 0.000000 0.000000 0.000000 0.000000 0.042968
#
#
# Mechanical properties :
#
#
# Convention : Reuss Voigt Hill
#
# Bulk Modulus (GPa) = 57.52114 65.95154 61.73634
# Shear Modulus (GPa) = 20.80983 23.17336 21.99159
#
# Velocity S-wave (km/s) = 3.67021 3.87304 3.77299
# Velocity P-wave (km/s) = 7.42932 7.91782 7.67746
#
# Compressibility (1/GPa) = 0.01738491
#
# Stress axis : x y z
#
# Youngs Moduli (GPa) = 43.31414 84.59702 33.82017
#
# Poissons Ratio (x) = 0.41411 0.41629
# Poissons Ratio (y) = 0.21203 0.21448
# Poissons Ratio (z) = 0.53315 0.53648
#
# Static dielectric constant tensor:
#      x y z
#    x 1.494740 0.000000 0.000000 
#    y 0.000000 1.518490 0.000000 
#    z 0.000000 0.000000 1.516170 
# 
# From -- ./inp_files/4421.got.cif
#   From: 2010.05.17/outbox.cif.g08.bks.cpg/sg49_3_cif.got.tgz:4421.got - 2010.06.03 21:02:19.
