data_PCOD9392517
_publ_section_title
;
Structure prediction by ZEFSAII (Michael W. Deem and Ramdas Pophale) SiO2 
 PCOD9392517
Probable space group: P C C M
;
_chemical_formula_sum "Si O2"
_cell_formula_units_Z 64
_cell_length_a 20.542468
_cell_length_b 20.702107
_cell_length_c 8.488278
_cell_angle_alpha 90.000000
_cell_angle_beta 90.000000
_cell_angle_gamma 90.000000
_cell_volume 3609.830107
_symmetry_space_group_name_H-M "P C C M"
_symmetry_group_IT_number 49
_symmetry_cell_setting 'orthorhombic'
loop_
_space_group_symop_operation_xyz
x,y,z
-x,-y,z
x,-y,1/2-z
-x,y,1/2-z
-x,-y,-z
x,y,-z
-x,y,1/2+z
x,-y,1/2+z
loop_
_atom_site_type_symbol
_atom_site_label
_atom_site_fract_x
_atom_site_fract_y
_atom_site_fract_z
Si Si1 0.431393 0.710860 0.811118
Si Si2 0.603842 0.567595 0.688326
Si Si3 0.069033 0.293226 0.190075
Si Si4 0.293455 0.747083 0.310590
Si Si5 0.830930 0.183225 0.691689
Si Si6 0.113489 0.567971 0.687057
Si Si7 0.251992 0.392757 0.311195
Si Si8 0.928786 0.072773 0.310421
O O1 0.500000 0.736903 0.750000
O O2 0.425132 0.635825 0.753851
O O3 0.367025 0.747744 0.752554
O O4 0.430430 0.710191 0.000000
O O5 0.576972 0.500000 0.750000
O O6 0.598256 0.567424 0.500000
O O7 0.680400 0.572288 0.730043
O O8 0.126340 0.245370 0.240610
O O9 0.080209 0.366419 0.248490
O O10 0.000000 0.268947 0.250000
O O11 0.069191 0.294228 0.000000
O O12 0.295274 0.744663 0.500000
O O13 0.243625 0.803774 0.260465
O O14 0.262028 0.680333 0.248301
O O15 0.831014 0.181993 0.500000
O O16 0.870899 0.120260 0.743343
O O17 0.088009 0.500000 0.750000
O O18 0.107857 0.567343 0.500000
O O19 0.189163 0.575831 0.733454
O O20 0.244798 0.393294 0.500000
O O21 0.930706 0.072542 0.500000
O O22 0.000000 0.094571 0.250000
O O23 0.918921 0.000000 0.250000
#
# Coordination Sequence:
#
# PCOD9392517 Si02
#       8
#     8   8   8   8   8   8   8   8
#     4  10  21  36  50  71  99 130 167 209 259 316
#     4   9  19  31  44  64  90 117 154 198 244 304
#     4  10  21  37  52  70  94 125 166 211 259 313
#     4  10  18  33  55  76 100 131 166 210 261 304
#     4   9  18  34  55  78 105 137 175 214 256 305
#     4  11  22  35  50  66  90 120 160 210 266 323
#     4  10  19  32  48  70  95 121 159 205 256 314
#     4  10  19  33  53  79 115 152 186 219 253 304
#
# _framework density 17.729365999999999
#
# number of rings (size 3 to 8) (size 9 to 14) (size 15 to 20)
#    0.000    2.125    1.250    3.750    0.000    5.500 
#    0.000    5.625    0.000    0.000    0.000    0.000 
#    0.000    0.500    0.000    5.750    0.000    1.750 
#
# Total GULP energy -357142.865619 kJ/mol
# GULP energy per Si atom -5580.357275 kJ/mol
# Density = 1.768901 g / cm^3
# Si number density = 17.729366 Si / 1000 Ang^3
#
#
#
# Elastic Constant Matrix: (Units=GPa)
#
#
# Indices 1 2 3 4 5 6 
#
# 1 120.5349 52.1272 9.2979 0.0000 0.0000 0.0000
# 2 52.1272 78.7987 16.9389 0.0000 0.0000 0.0000
# 3 9.2979 16.9389 14.2339 0.0000 0.0000 0.0000
# 4 0.0000 0.0000 0.0000 18.5328 0.0000 0.0000
# 5 0.0000 0.0000 0.0000 0.0000 -41.5775 0.0000
# 6 0.0000 0.0000 0.0000 0.0000 0.0000 60.6081
#
#
#
# Elastic Compliance Matrix: (Units=1/GPa)
#
#
# Indices 1 2 3 4 5 6 
#
# 1 0.011668 -0.008170 0.002101 0.000000 0.000000 0.000000
# 2 -0.008170 0.022774 -0.021765 0.000000 0.000000 0.000000
# 3 0.002101 -0.021765 0.094784 0.000000 0.000000 0.000000
# 4 0.000000 0.000000 0.000000 0.053959 0.000000 0.000000
# 5 0.000000 0.000000 0.000000 0.000000 -0.024051 0.000000
# 6 0.000000 0.000000 0.000000 0.000000 0.000000 0.016499
#
#
# Mechanical properties :
#
#
# Convention : Reuss Voigt Hill
#
# Bulk Modulus (GPa) = 13.59483 41.14395 27.36939
# Shear Modulus (GPa) = 19.54507 16.52622 18.03565
#
# Velocity S-wave (km/s) = 3.32386 3.05641 3.19294
# Velocity P-wave (km/s) = 4.73449 5.97600 5.39110
#
# Compressibility (1/GPa) = 0.07355737
#
# Stress axis : x y z
#
# Youngs Moduli (GPa) = 85.70794 43.90974 10.55032
#
# Poissons Ratio (x) = 0.35874 -0.02217
# Poissons Ratio (y) = 0.70024 0.22963
# Poissons Ratio (z) = -0.18009 0.95570
#
# Static dielectric constant tensor:
#      x y z
#    x 1.619450 0.000000 0.000000 
#    y 0.000000 1.610150 0.000000 
#    z 0.000000 0.000000 1.611470 
# 
# From -- ./inp_files/6058.got.cif
#   From: 2010.05.17/outbox.cif.g08.bks.cpg/sg49_4_cif.got.tgz:6058.got - 2010.06.03 21:02:19.
