data_PCOD9392936
_publ_section_title
;
Structure prediction by ZEFSAII (Michael W. Deem and Ramdas Pophale) SiO2 
 PCOD9392936
Probable space group: P C C M
;
_chemical_formula_sum "Si O2"
_cell_formula_units_Z 64
_cell_length_a 16.900916
_cell_length_b 23.007936
_cell_length_c 8.033355
_cell_angle_alpha 90.000000
_cell_angle_beta 90.000000
_cell_angle_gamma 90.000000
_cell_volume 3123.811814
_symmetry_space_group_name_H-M "P C C M"
_symmetry_group_IT_number 49
_symmetry_cell_setting 'orthorhombic'
loop_
_space_group_symop_operation_xyz
x,y,z
-x,-y,z
x,-y,1/2-z
-x,y,1/2-z
-x,-y,-z
x,y,-z
-x,y,1/2+z
x,-y,1/2+z
loop_
_atom_site_type_symbol
_atom_site_label
_atom_site_fract_x
_atom_site_fract_y
_atom_site_fract_z
Si Si1 0.084197 0.726998 0.199293
Si Si2 0.221469 0.811306 0.197654
Si Si3 0.390290 0.222821 0.807717
Si Si4 0.245238 0.937471 0.301218
Si Si5 0.266752 0.435591 0.198344
Si Si6 0.412276 0.646607 0.298276
Si Si7 0.912315 0.404931 0.801309
Si Si8 0.418265 0.096330 0.799702
O O1 0.151157 0.770351 0.254627
O O2 0.090245 0.661392 0.266111
O O3 0.000000 0.750931 0.250000
O O4 0.088996 0.722511 0.000000
O O5 0.297183 0.789217 0.297793
O O6 0.206304 0.879205 0.230051
O O7 0.235774 0.803224 0.000000
O O8 0.407898 0.286282 0.735068
O O9 0.420116 0.162511 0.728682
O O10 0.416867 0.224534 0.000000
O O11 0.244153 0.933283 0.500000
O O12 0.337064 0.932772 0.241600
O O13 0.212761 0.000000 0.250000
O O14 0.293015 0.500000 0.250000
O O15 0.334151 0.389517 0.259384
O O16 0.174424 0.429333 0.253418
O O17 0.265668 0.430783 0.000000
O O18 0.500000 0.623663 0.250000
O O19 0.408411 0.647659 0.500000
O O20 0.000000 0.428865 0.750000
O O21 0.914007 0.405679 0.000000
O O22 0.500000 0.067408 0.750000
O O23 0.414061 0.099495 0.000000
#
# Coordination Sequence:
#
# PCOD9392936 Si02
#       8
#     8   8   8   8   8   8   8   8
#     4   9  19  33  53  83 115 142 170 204 252 312
#     4  10  19  32  52  79 107 138 174 214 259 312
#     4   9  18  33  51  76 106 136 171 214 265 322
#     4  10  21  36  51  70  96 132 176 219 261 308
#     4  11  24  41  59  82 111 148 192 237 281 331
#     4  10  22  38  58  82 110 145 188 236 287 337
#     4  10  20  37  61  90 121 151 182 222 272 332
#     4   9  18  30  46  69  98 128 161 201 251 306
#
# _framework density 20.487788999999999
#
# number of rings (size 3 to 8) (size 9 to 14) (size 15 to 20)
#    0.000    2.250    0.000    3.375    0.000    6.250 
#    0.000    3.750    0.000    0.375    0.000    2.625 
#    0.000    0.000    0.000    0.000    0.000    0.000 
#
# Total GULP energy -356728.652762 kJ/mol
# GULP energy per Si atom -5573.885199 kJ/mol
# Density = 2.044116 g / cm^3
# Si number density = 20.487789 Si / 1000 Ang^3
#
#
#
# Elastic Constant Matrix: (Units=GPa)
#
#
# Indices 1 2 3 4 5 6 
#
# 1 94.3372 44.7684 2.0303 0.0000 0.0000 0.0000
# 2 44.7684 102.5771 3.9175 0.0000 0.0000 0.0000
# 3 2.0303 3.9175 32.6480 0.0000 0.0000 0.0000
# 4 0.0000 0.0000 0.0000 19.3690 0.0000 0.0000
# 5 0.0000 0.0000 0.0000 0.0000 25.4438 0.0000
# 6 0.0000 0.0000 0.0000 0.0000 0.0000 14.4590
#
#
#
# Elastic Compliance Matrix: (Units=1/GPa)
#
#
# Indices 1 2 3 4 5 6 
#
# 1 0.013370 -0.005830 -0.000132 0.000000 0.000000 0.000000
# 2 -0.005830 0.012336 -0.001118 0.000000 0.000000 0.000000
# 3 -0.000132 -0.001118 0.030772 0.000000 0.000000 0.000000
# 4 0.000000 0.000000 0.000000 0.051629 0.000000 0.000000
# 5 0.000000 0.000000 0.000000 0.000000 0.039302 0.000000
# 6 0.000000 0.000000 0.000000 0.000000 0.000000 0.069161
#
#
# Mechanical properties :
#
#
# Convention : Reuss Voigt Hill
#
# Bulk Modulus (GPa) = 23.63026 36.77719 30.20372
# Shear Modulus (GPa) = 20.42189 23.77743 22.09966
#
# Velocity S-wave (km/s) = 3.16061 3.41040 3.28788
# Velocity P-wave (km/s) = 4.98780 5.78771 5.40258
#
# Compressibility (1/GPa) = 0.04231862
#
# Stress axis : x y z
#
# Youngs Moduli (GPa) = 74.79543 81.06424 32.49701
#
# Poissons Ratio (x) = 0.47261 0.00428
# Poissons Ratio (y) = 0.43606 0.03632
# Poissons Ratio (z) = 0.00986 0.09060
#
# Static dielectric constant tensor:
#      x y z
#    x 1.763640 0.000000 0.000000 
#    y 0.000000 1.760250 0.000000 
#    z 0.000000 0.000000 1.748350 
# 
# From -- ./inp_files/4299.got.cif
#   From: 2010.05.17/outbox.cif.g08.bks.cpg/sg49_3_cif.got.tgz:4299.got - 2010.06.03 21:02:19.
