data_PCOD9392959
_publ_section_title
;
Structure prediction by ZEFSAII (Michael W. Deem and Ramdas Pophale) SiO2 
 PCOD9392959
Probable space group: P C C M
;
_chemical_formula_sum "Si O2"
_cell_formula_units_Z 48
_cell_length_a 9.801999
_cell_length_b 14.229071
_cell_length_c 14.232406
_cell_angle_alpha 90.000000
_cell_angle_beta 90.000000
_cell_angle_gamma 90.000000
_cell_volume 1985.041197
_symmetry_space_group_name_H-M "P C C M"
_symmetry_group_IT_number 49
_symmetry_cell_setting 'orthorhombic'
loop_
_space_group_symop_operation_xyz
x,y,z
-x,-y,z
x,-y,1/2-z
-x,y,1/2-z
-x,-y,-z
x,y,-z
-x,y,1/2+z
x,-y,1/2+z
loop_
_atom_site_type_symbol
_atom_site_label
_atom_site_fract_x
_atom_site_fract_y
_atom_site_fract_z
Si Si1 0.373946 0.450599 0.392839
Si Si2 0.880694 0.443343 0.651941
Si Si3 0.671901 0.240267 0.885216
Si Si4 0.571194 0.899102 0.109011
Si Si5 0.022179 0.744238 0.107450
Si Si6 0.128764 0.939052 0.392245
O O1 0.500000 0.500000 0.346660
O O2 0.409596 0.426050 0.500000
O O3 0.259331 0.530552 0.395537
O O4 0.341370 0.348633 0.352001
O O5 0.864661 0.500000 0.750000
O O6 0.935954 0.338238 0.657049
O O7 0.000000 0.500000 0.601557
O O8 0.543751 0.175226 0.854668
O O9 0.829423 0.221605 0.856010
O O10 0.671889 0.231517 0.000000
O O11 0.720892 0.922688 0.152136
O O12 0.500000 0.000000 0.108322
O O13 0.599020 0.869376 0.000000
O O14 0.929876 0.834942 0.103432
O O15 0.045513 0.709316 0.000000
O O16 0.151932 0.976928 0.500000
O O17 0.000000 0.000000 0.354739
#
# Coordination Sequence:
#
# PCOD9392959 Si02
#       6
#     8   8   8   8   8   8
#     4  10  21  35  55  80 109 143 188 238 288 348
#     4  11  23  38  55  78 110 152 194 241 289 346
#     4   9  17  29  45  71 103 140 180 223 277 331
#     4   9  16  26  42  67 107 147 176 215 276 342
#     4  10  19  32  54  79 110 149 192 237 288 345
#     4   9  17  28  46  77 113 146 181 227 283 344
#
# _framework density 24.180857
#
# number of rings (size 3 to 8) (size 9 to 14) (size 15 to 20)
#    0.000    2.333    1.667    1.500    2.333    5.000 
#    0.000    0.000    0.000    0.000    0.000    2.333 
#    0.000    1.333    0.000    0.000    0.000    0.333 
#
# Total GULP energy -267355.478474 kJ/mol
# GULP energy per Si atom -5569.905802 kJ/mol
# Density = 2.412582 g / cm^3
# Si number density = 24.180857 Si / 1000 Ang^3
#
#
#
# Elastic Constant Matrix: (Units=GPa)
#
#
# Indices 1 2 3 4 5 6 
#
# 1 217.1754 65.9201 8.9635 0.0000 0.0000 0.0000
# 2 65.9201 112.1546 12.1818 0.0000 0.0000 0.0000
# 3 8.9635 12.1818 71.9987 0.0000 0.0000 0.0000
# 4 0.0000 0.0000 0.0000 -7.5696 0.0000 0.0000
# 5 0.0000 0.0000 0.0000 0.0000 -10.8272 0.0000
# 6 0.0000 0.0000 0.0000 0.0000 0.0000 53.1402
#
#
#
# Elastic Compliance Matrix: (Units=1/GPa)
#
#
# Indices 1 2 3 4 5 6 
#
# 1 0.005606 -0.003279 -0.000143 0.000000 0.000000 0.000000
# 2 -0.003279 0.011002 -0.001453 0.000000 0.000000 0.000000
# 3 -0.000143 -0.001453 0.014153 0.000000 0.000000 0.000000
# 4 0.000000 0.000000 0.000000 -0.132108 0.000000 0.000000
# 5 0.000000 0.000000 0.000000 0.000000 -0.092360 0.000000
# 6 0.000000 0.000000 0.000000 0.000000 0.000000 0.018818
#
#
# Mechanical properties :
#
#
# Convention : Reuss Voigt Hill
#
# Bulk Modulus (GPa) = 47.59836 63.93994 55.76915
# Shear Modulus (GPa) = -31.61847 27.89958 -1.85945
#
# Velocity S-wave (km/s) = -3.61997 3.40043 -0.87786
# Velocity P-wave (km/s) = 1.50159 6.47434 4.69956
#
# Compressibility (1/GPa) = 0.02100913
#
# Stress axis : x y z
#
# Youngs Moduli (GPa) = 178.38419 90.89600 70.65735
#
# Poissons Ratio (x) = 0.29808 0.01011
# Poissons Ratio (y) = 0.58499 0.10268
# Poissons Ratio (z) = 0.02552 0.13209
#
# Static dielectric constant tensor:
#      x y z
#    x 2.204580 0.000000 0.000000 
#    y 0.000000 1.887070 0.000000 
#    z 0.000000 0.000000 2.063910 
# 
# From -- ./inp_files/16263.got.cif
#   From: 2010.05.17/outbox.cif.g08.bks.cpg/sg49_9_cif.got.tgz:16263.got - 2010.06.03 21:02:19.
