data_PCOD9392570
_publ_section_title
;
Structure prediction by ZEFSAII (Michael W. Deem and Ramdas Pophale) SiO2 
 PCOD9392570
Probable space group: P C C M
;
_chemical_formula_sum "Si O2"
_cell_formula_units_Z 64
_cell_length_a 19.861854
_cell_length_b 9.566100
_cell_length_c 15.100002
_cell_angle_alpha 90.000000
_cell_angle_beta 90.000000
_cell_angle_gamma 90.000000
_cell_volume 2869.007651
_symmetry_space_group_name_H-M "P C C M"
_symmetry_group_IT_number 49
_symmetry_cell_setting 'orthorhombic'
loop_
_space_group_symop_operation_xyz
x,y,z
-x,-y,z
x,-y,1/2-z
-x,y,1/2-z
-x,-y,-z
x,y,-z
-x,y,1/2+z
x,-y,1/2+z
loop_
_atom_site_type_symbol
_atom_site_label
_atom_site_fract_x
_atom_site_fract_y
_atom_site_fract_z
Si Si1 0.588338 0.859785 0.392101
Si Si2 0.733745 0.800139 0.392850
Si Si3 0.202900 0.529816 0.852912
Si Si4 0.689224 0.671015 0.895696
Si Si5 0.786572 0.092119 0.604962
Si Si6 0.560303 0.182088 0.391957
Si Si7 0.939317 0.911945 0.158513
Si Si8 0.062624 0.420874 0.845482
O O1 0.588769 0.855043 0.500000
O O2 0.656333 0.783165 0.362137
O O3 0.516484 0.800873 0.360932
O O4 0.586684 0.025664 0.369548
O O5 0.732552 0.799432 0.500000
O O6 0.792610 0.694033 0.366801
O O7 0.755061 0.951341 0.358978
O O8 0.205813 0.500000 0.750000
O O9 0.274339 0.476554 0.889449
O O10 0.135752 0.453322 0.888484
O O11 0.746007 0.775998 0.857351
O O12 0.615647 0.706910 0.859715
O O13 0.682456 0.698105 0.000000
O O14 0.774045 0.093157 0.500000
O O15 0.866020 0.088210 0.616252
O O16 0.556336 0.185721 0.500000
O O17 0.952743 0.744281 0.165962
O O18 0.931692 0.000000 0.250000
O O19 0.000000 0.000000 0.113091
O O20 0.067941 0.500000 0.750000
O O21 0.000000 0.500000 0.890593
#
# Coordination Sequence:
#
# PCOD9392570 Si02
#       8
#     8   8   8   8   8   8   8   8
#     4   8  13  25  48  82 110 135 175 227 271 316
#     4  10  20  35  56  82 112 145 178 223 276 327
#     4  11  24  37  56  79 107 146 186 223 266 319
#     4  10  18  35  56  81 111 145 177 220 275 327
#     4  10  21  35  56  83 116 142 172 222 282 327
#     4   8  13  24  50  81 109 136 175 225 275 318
#     4  11  23  37  62  87 106 141 188 231 269 315
#     4  10  21  38  56  79 110 141 177 225 272 313
#
# _framework density 22.307362999999999
#
# number of rings (size 3 to 8) (size 9 to 14) (size 15 to 20)
#    0.000    2.250    2.500    2.625    5.250    0.250 
#    0.000    0.625    0.000    6.375    0.000    1.750 
#    0.000    0.000    0.000    0.000    0.000    0.000 
#
# Total GULP energy -356636.534322 kJ/mol
# GULP energy per Si atom -5572.445849 kJ/mol
# Density = 2.225659 g / cm^3
# Si number density = 22.307363 Si / 1000 Ang^3
#
#
#
# Elastic Constant Matrix: (Units=GPa)
#
#
# Indices 1 2 3 4 5 6 
#
# 1 132.6512 28.4309 0.9761 0.0000 0.0000 0.0000
# 2 28.4309 85.5228 2.9127 0.0000 0.0000 0.0000
# 3 0.9761 2.9127 29.2102 0.0000 0.0000 0.0000
# 4 0.0000 0.0000 0.0000 14.8088 0.0000 0.0000
# 5 0.0000 0.0000 0.0000 0.0000 -100.3928 0.0000
# 6 0.0000 0.0000 0.0000 0.0000 0.0000 31.7539
#
#
#
# Elastic Compliance Matrix: (Units=1/GPa)
#
#
# Indices 1 2 3 4 5 6 
#
# 1 0.008117 -0.002698 -0.000002 0.000000 0.000000 0.000000
# 2 -0.002698 0.012630 -0.001169 0.000000 0.000000 0.000000
# 3 -0.000002 -0.001169 0.034351 0.000000 0.000000 0.000000
# 4 0.000000 0.000000 0.000000 0.067527 0.000000 0.000000
# 5 0.000000 0.000000 0.000000 0.000000 -0.009961 0.000000
# 6 0.000000 0.000000 0.000000 0.000000 0.000000 0.031492
#
#
# Mechanical properties :
#
#
# Convention : Reuss Voigt Hill
#
# Bulk Modulus (GPa) = 21.11554 34.66928 27.89241
# Shear Modulus (GPa) = 29.81834 3.57161 16.69498
#
# Velocity S-wave (km/s) = 3.66006 1.26671 2.73867
# Velocity P-wave (km/s) = 5.22950 4.20889 4.74671
#
# Compressibility (1/GPa) = 0.04735849
#
# Stress axis : x y z
#
# Youngs Moduli (GPa) = 123.19972 79.17894 29.11102
#
# Poissons Ratio (x) = 0.21365 0.00006
# Poissons Ratio (y) = 0.33243 0.03404
# Poissons Ratio (z) = 0.00027 0.09257
#
# Static dielectric constant tensor:
#      x y z
#    x 1.898690 0.000000 0.000000 
#    y 0.000000 1.820910 0.000000 
#    z 0.000000 0.000000 1.863090 
# 
# From -- ./inp_files/21099.got.cif
#   From: 2010.05.17/outbox.cif.g08.bks.cpg/sg49_11_cif.got.tgz:21099.got - 2010.06.03 21:02:19.
