data_PCOD9392620
_publ_section_title
;
Structure prediction by ZEFSAII (Michael W. Deem and Ramdas Pophale) SiO2 
 PCOD9392620
Probable space group: P C C M
;
_chemical_formula_sum "Si O2"
_cell_formula_units_Z 64
_cell_length_a 26.694946
_cell_length_b 18.808434
_cell_length_c 8.884233
_cell_angle_alpha 90.000000
_cell_angle_beta 90.000000
_cell_angle_gamma 90.000000
_cell_volume 4460.685702
_symmetry_space_group_name_H-M "P C C M"
_symmetry_group_IT_number 49
_symmetry_cell_setting 'orthorhombic'
loop_
_space_group_symop_operation_xyz
x,y,z
-x,-y,z
x,-y,1/2-z
-x,y,1/2-z
-x,-y,-z
x,y,-z
-x,y,1/2+z
x,-y,1/2+z
loop_
_atom_site_type_symbol
_atom_site_label
_atom_site_fract_x
_atom_site_fract_y
_atom_site_fract_z
Si Si1 0.746353 0.922203 0.679392
Si Si2 0.643088 0.838186 0.677934
Si Si3 0.245717 0.577625 0.681426
Si Si4 0.053098 0.422544 0.680219
Si Si5 0.800616 0.795006 0.826641
Si Si6 0.694222 0.711286 0.173105
Si Si7 0.553931 0.077102 0.320071
Si Si8 0.152798 0.336870 0.320196
O O1 0.751376 0.925802 0.500000
O O2 0.691937 0.886954 0.712273
O O3 0.787922 0.869002 0.746571
O O4 0.749099 0.000000 0.750000
O O5 0.633356 0.842804 0.500000
O O6 0.657925 0.758269 0.725199
O O7 0.596401 0.868050 0.770044
O O8 0.252373 0.500000 0.750000
O O9 0.242399 0.575221 0.500000
O O10 0.291035 0.631710 0.720927
O O11 0.194874 0.612616 0.745709
O O12 0.064688 0.500000 0.750000
O O13 0.048436 0.429478 0.500000
O O14 0.098379 0.369095 0.713639
O O15 0.000000 0.399859 0.750000
O O16 0.747748 0.752145 0.825242
O O17 0.838535 0.742298 0.742808
O O18 0.815031 0.805536 0.000000
O O19 0.676505 0.711052 0.000000
O O20 0.500000 0.096288 0.250000
O O21 0.550470 0.071525 0.500000
O O22 0.567122 0.000000 0.250000
O O23 0.160201 0.337112 0.500000
#
# Coordination Sequence:
#
# PCOD9392620 Si02
#       8
#     8   8   8   8   8   8   8   8
#     4  10  19  29  43  63  88 116 146 179 212 252
#     4  10  19  30  45  64  85 113 146 177 213 253
#     4  10  19  29  43  63  87 115 146 178 213 254
#     4  10  20  31  44  61  83 111 143 180 216 252
#     4   9  17  29  44  61  83 111 142 176 213 253
#     4   8  16  29  42  59  83 111 142 175 210 249
#     4  11  21  33  47  63  86 113 144 181 216 251
#     4  10  19  30  44  62  84 112 145 178 215 256
#
# _framework density 14.347569999999999
#
# number of rings (size 3 to 8) (size 9 to 14) (size 15 to 20)
#    0.000    2.250    0.000    5.625    0.000    9.000 
#    0.000    0.000    0.000    0.000    0.000    0.000 
#    0.000    1.000    0.000   10.500    0.000    5.750 
#
# Total GULP energy -356884.509959 kJ/mol
# GULP energy per Si atom -5576.320468 kJ/mol
# Density = 1.431491 g / cm^3
# Si number density = 14.347570 Si / 1000 Ang^3
#
#
#
# Elastic Constant Matrix: (Units=GPa)
#
#
# Indices 1 2 3 4 5 6 
#
# 1 69.2657 48.4642 51.1332 0.0000 0.0000 0.0000
# 2 48.4642 114.3305 55.3802 0.0000 0.0000 0.0000
# 3 51.1332 55.3802 89.2343 0.0000 0.0000 0.0000
# 4 0.0000 0.0000 0.0000 27.2288 0.0000 0.0000
# 5 0.0000 0.0000 0.0000 0.0000 18.5291 0.0000
# 6 0.0000 0.0000 0.0000 0.0000 0.0000 22.9910
#
#
#
# Elastic Compliance Matrix: (Units=1/GPa)
#
#
# Indices 1 2 3 4 5 6 
#
# 1 0.027424 -0.005738 -0.012153 0.000000 0.000000 0.000000
# 2 -0.005738 0.013707 -0.005219 0.000000 0.000000 0.000000
# 3 -0.012153 -0.005219 0.021409 0.000000 0.000000 0.000000
# 4 0.000000 0.000000 0.000000 0.036726 0.000000 0.000000
# 5 0.000000 0.000000 0.000000 0.000000 0.053969 0.000000
# 6 0.000000 0.000000 0.000000 0.000000 0.000000 0.043495
#
#
# Mechanical properties :
#
#
# Convention : Reuss Voigt Hill
#
# Bulk Modulus (GPa) = 61.27458 64.75395 63.01426
# Shear Modulus (GPa) = 20.12966 21.60665 20.86815
#
# Velocity S-wave (km/s) = 3.74973 3.88486 3.81789
# Velocity P-wave (km/s) = 7.84521 8.08413 7.96557
#
# Compressibility (1/GPa) = 0.01631998
#
# Stress axis : x y z
#
# Youngs Moduli (GPa) = 36.46483 72.95717 46.70849
#
# Poissons Ratio (x) = 0.41862 0.56767
# Poissons Ratio (y) = 0.20923 0.24376
# Poissons Ratio (z) = 0.44317 0.38074
#
# Static dielectric constant tensor:
#      x y z
#    x 1.454730 0.000000 0.000000 
#    y 0.000000 1.470040 0.000000 
#    z 0.000000 0.000000 1.481180 
# 
# From -- ./inp_files/5415.got.cif
#   From: 2010.05.17/outbox.cif.g08.bks.cpg/sg49_3_cif.got.tgz:5415.got - 2010.06.03 21:02:19.
