data_PCOD9392661
_publ_section_title
;
Structure prediction by ZEFSAII (Michael W. Deem and Ramdas Pophale) SiO2 
 PCOD9392661
Probable space group: P C C M
;
_chemical_formula_sum "Si O2"
_cell_formula_units_Z 52
_cell_length_a 18.521085
_cell_length_b 22.166263
_cell_length_c 8.990996
_cell_angle_alpha 90.000000
_cell_angle_beta 90.000000
_cell_angle_gamma 90.000000
_cell_volume 3691.192639
_symmetry_space_group_name_H-M "P C C M"
_symmetry_group_IT_number 49
_symmetry_cell_setting 'orthorhombic'
loop_
_space_group_symop_operation_xyz
x,y,z
-x,-y,z
x,-y,1/2-z
-x,y,1/2-z
-x,-y,-z
x,y,-z
-x,y,1/2+z
x,-y,1/2+z
loop_
_atom_site_type_symbol
_atom_site_label
_atom_site_fract_x
_atom_site_fract_y
_atom_site_fract_z
Si Si1 0.419566 0.304835 0.321715
Si Si2 0.784551 0.883964 0.672555
Si Si3 0.579438 0.558602 0.323382
Si Si4 0.308020 0.000000 0.750000
Si Si5 0.337467 0.804622 0.319344
Si Si6 0.924725 0.066756 0.679265
Si Si7 0.431302 0.085330 0.163170
O O1 0.500000 0.298598 0.250000
O O2 0.425009 0.294859 0.500000
O O3 0.392323 0.373731 0.297945
O O4 0.364720 0.258340 0.245596
O O5 0.798928 0.870238 0.500000
O O6 0.734807 0.832879 0.748318
O O7 0.857233 0.894150 0.765910
O O8 0.741681 0.948401 0.678263
O O9 0.616427 0.500000 0.250000
O O10 0.500000 0.560906 0.250000
O O11 0.573619 0.549280 0.500000
O O12 0.364859 0.960913 0.655618
O O13 0.332625 0.804267 0.500000
O O14 0.398714 0.853247 0.272633
O O15 0.928414 0.062868 0.500000
O O16 0.000000 0.089112 0.750000
O O17 0.914429 0.000000 0.750000
O O18 0.500000 0.063211 0.250000
O O19 0.458006 0.099188 0.000000
#
# Coordination Sequence:
#
# PCOD9392661 Si02
#       7
#     8   8   8   4   8   8   8
#     4  10  19  30  44  62  84 112 147 186 226 264
#     4  11  21  34  51  67  87 111 138 173 215 258
#     4   9  16  25  39  59  82 107 138 177 220 264
#     4  10  21  32  47  60  80 102 136 166 215 260
#     4  10  21  34  46  61  82 109 143 179 218 262
#     4  11  21  34  52  73  94 113 137 167 207 256
#     4  10  21  33  43  57  74  97 131 173 214 257
#
# _framework density 14.087586999999999
#
# number of rings (size 3 to 8) (size 9 to 14) (size 15 to 20)
#    0.000    1.846    0.769    5.308    0.000    8.615 
#    0.000    0.000    0.000    0.000    0.000    0.000 
#    0.000    0.000    0.000    0.000    0.000    0.769 
#
# Total GULP energy -289681.260935 kJ/mol
# GULP energy per Si atom -5570.793480 kJ/mol
# Density = 1.405552 g / cm^3
# Si number density = 14.087587 Si / 1000 Ang^3
#
#
#
# Elastic Constant Matrix: (Units=GPa)
#
#
# Indices 1 2 3 4 5 6 
#
# 1 84.9969 37.0418 45.3900 0.0000 0.0000 0.0000
# 2 37.0418 104.7736 44.7364 0.0000 0.0000 0.0000
# 3 45.3900 44.7364 102.7053 0.0000 0.0000 0.0000
# 4 0.0000 0.0000 0.0000 24.7166 0.0000 0.0000
# 5 0.0000 0.0000 0.0000 0.0000 16.6565 0.0000
# 6 0.0000 0.0000 0.0000 0.0000 0.0000 5.7063
#
#
#
# Elastic Compliance Matrix: (Units=1/GPa)
#
#
# Indices 1 2 3 4 5 6 
#
# 1 0.016276 -0.003296 -0.005757 0.000000 0.000000 0.000000
# 2 -0.003296 0.012393 -0.003941 0.000000 0.000000 0.000000
# 3 -0.005757 -0.003941 0.013998 0.000000 0.000000 0.000000
# 4 0.000000 0.000000 0.000000 0.040459 0.000000 0.000000
# 5 0.000000 0.000000 0.000000 0.000000 0.060037 0.000000
# 6 0.000000 0.000000 0.000000 0.000000 0.000000 0.175244
#
#
# Mechanical properties :
#
#
# Convention : Reuss Voigt Hill
#
# Bulk Modulus (GPa) = 59.96286 60.75692 60.35989
# Shear Modulus (GPa) = 14.28758 20.43638 17.36198
#
# Velocity S-wave (km/s) = 3.18810 3.81289 3.51441
# Velocity P-wave (km/s) = 7.49725 7.91238 7.70761
#
# Compressibility (1/GPa) = 0.01667699
#
# Stress axis : x y z
#
# Youngs Moduli (GPa) = 61.43974 80.69387 71.43955
#
# Poissons Ratio (x) = 0.26596 0.41131
# Poissons Ratio (y) = 0.20250 0.28157
# Poissons Ratio (z) = 0.35374 0.31804
#
# Static dielectric constant tensor:
#      x y z
#    x 1.534610 0.000000 0.000000 
#    y 0.000000 1.492890 0.000000 
#    z 0.000000 0.000000 1.476600 
# 
# From -- ./inp_files/5168.got.cif
#   From: 2010.05.17/outbox.cif.g08.bks.cpg/sg49_3_cif.got.tgz:5168.got - 2010.06.03 21:02:19.
