data_PCOD9392116
_publ_section_title
;
Structure prediction by ZEFSAII (Michael W. Deem and Ramdas Pophale) SiO2 
 PCOD9392116
Probable space group: P C C M
;
_chemical_formula_sum "Si O2"
_cell_formula_units_Z 64
_cell_length_a 31.586336
_cell_length_b 15.589319
_cell_length_c 8.858260
_cell_angle_alpha 90.000000
_cell_angle_beta 90.000000
_cell_angle_gamma 90.000000
_cell_volume 4361.891094
_symmetry_space_group_name_H-M "P C C M"
_symmetry_group_IT_number 49
_symmetry_cell_setting 'orthorhombic'
loop_
_space_group_symop_operation_xyz
x,y,z
-x,-y,z
x,-y,1/2-z
-x,y,1/2-z
-x,-y,-z
x,y,-z
-x,y,1/2+z
x,-y,1/2+z
loop_
_atom_site_type_symbol
_atom_site_label
_atom_site_fract_x
_atom_site_fract_y
_atom_site_fract_z
Si Si1 0.201015 0.730593 0.318962
Si Si2 0.136526 0.595398 0.819272
Si Si3 0.199528 0.911474 0.174228
Si Si4 0.298988 0.266775 0.819196
Si Si5 0.958009 0.404339 0.180122
Si Si6 0.697507 0.912213 0.327155
Si Si7 0.369730 0.404866 0.182211
Si Si8 0.542989 0.596782 0.318112
O O1 0.199006 0.726950 0.500000
O O2 0.171398 0.658411 0.248000
O O3 0.187674 0.825121 0.262319
O O4 0.250249 0.717946 0.271360
O O5 0.140385 0.500000 0.750000
O O6 0.088921 0.630437 0.786051
O O7 0.140613 0.589265 0.000000
O O8 0.250991 0.914159 0.176937
O O9 0.184741 0.000000 0.250000
O O10 0.186301 0.906562 0.000000
O O11 0.314357 0.176205 0.753327
O O12 0.330254 0.344071 0.779853
O O13 0.298460 0.259113 0.000000
O O14 0.956763 0.500000 0.250000
O O15 0.000000 0.361707 0.250000
O O16 0.962875 0.409747 0.000000
O O17 0.684085 0.910550 0.500000
O O18 0.682711 0.000000 0.250000
O O19 0.363303 0.500000 0.250000
O O20 0.412781 0.367253 0.255540
O O21 0.374363 0.410488 0.000000
O O22 0.543641 0.500000 0.250000
O O23 0.500000 0.636707 0.250000
O O24 0.541783 0.594371 0.500000
#
# Coordination Sequence:
#
# PCOD9392116 Si02
#       8
#     8   8   8   8   8   8   8   8
#     4  10  19  31  45  62  85 116 150 183 216 253
#     4  10  20  32  44  61  85 115 148 182 216 254
#     4   9  16  27  43  63  84 108 138 176 219 261
#     4   9  19  32  44  60  85 115 148 182 215 250
#     4   9  16  26  42  61  81 104 134 172 216 259
#     4   9  16  26  43  63  83 107 137 174 217 259
#     4  10  19  31  44  60  84 114 146 181 215 250
#     4  10  17  27  43  62  82 105 135 172 214 258
#
# _framework density 14.672534000000001
#
# number of rings (size 3 to 8) (size 9 to 14) (size 15 to 20)
#    0.000    2.500    0.000    4.875    0.000    6.500 
#    0.000    1.250    0.000    0.000    0.000    0.000 
#    0.000    1.000    0.000   10.500    0.000    5.625 
#
# Total GULP energy -356394.342348 kJ/mol
# GULP energy per Si atom -5568.661599 kJ/mol
# Density = 1.463914 g / cm^3
# Si number density = 14.672534 Si / 1000 Ang^3
#
#
#
# Elastic Constant Matrix: (Units=GPa)
#
#
# Indices 1 2 3 4 5 6 
#
# 1 93.5777 58.3828 47.8575 0.0000 0.0000 0.0000
# 2 58.3828 87.0776 41.6462 0.0000 0.0000 0.0000
# 3 47.8575 41.6462 77.4622 0.0000 0.0000 0.0000
# 4 0.0000 0.0000 0.0000 23.8788 0.0000 0.0000
# 5 0.0000 0.0000 0.0000 0.0000 15.1311 0.0000
# 6 0.0000 0.0000 0.0000 0.0000 0.0000 -0.7048
#
#
#
# Elastic Compliance Matrix: (Units=1/GPa)
#
#
# Indices 1 2 3 4 5 6 
#
# 1 0.021040 -0.010621 -0.007289 0.000000 0.000000 0.000000
# 2 -0.010621 0.020820 -0.004632 0.000000 0.000000 0.000000
# 3 -0.007289 -0.004632 0.019903 0.000000 0.000000 0.000000
# 4 0.000000 0.000000 0.000000 0.041878 0.000000 0.000000
# 5 0.000000 0.000000 0.000000 0.000000 0.066089 0.000000
# 6 0.000000 0.000000 0.000000 0.000000 0.000000 -1.418838
#
#
# Mechanical properties :
#
#
# Convention : Reuss Voigt Hill
#
# Bulk Modulus (GPa) = 59.95138 61.54340 60.74739
# Shear Modulus (GPa) = -4.17201 15.00977 5.41888
#
# Velocity S-wave (km/s) = -1.68807 3.20188 1.92386
# Velocity P-wave (km/s) = 6.09499 7.46358 6.81373
#
# Compressibility (1/GPa) = 0.01668018
#
# Stress axis : x y z
#
# Youngs Moduli (GPa) = 47.52785 48.03029 50.24355
#
# Poissons Ratio (x) = 0.51012 0.36622
# Poissons Ratio (y) = 0.50478 0.23272
# Poissons Ratio (z) = 0.34643 0.22247
#
# Static dielectric constant tensor:
#      x y z
#    x 1.517640 0.000000 0.000000 
#    y 0.000000 1.460980 0.000000 
#    z 0.000000 0.000000 1.492950 
# 
# From -- ./inp_files/7077.got.cif
#   From: 2010.05.17/outbox.cif.g08.bks.cpg/sg49_4_cif.got.tgz:7077.got - 2010.06.03 21:02:19.
