data_PCOD9392166
_publ_section_title
;
Structure prediction by ZEFSAII (Michael W. Deem and Ramdas Pophale) SiO2 
 PCOD9392166
Probable space group: P C C M
;
_chemical_formula_sum "Si O2"
_cell_formula_units_Z 34
_cell_length_a 23.298766
_cell_length_b 7.746783
_cell_length_c 8.836742
_cell_angle_alpha 90.000000
_cell_angle_beta 90.000000
_cell_angle_gamma 90.000000
_cell_volume 1594.947844
_symmetry_space_group_name_H-M "P C C M"
_symmetry_group_IT_number 49
_symmetry_cell_setting 'orthorhombic'
loop_
_space_group_symop_operation_xyz
x,y,z
-x,-y,z
x,-y,1/2-z
-x,y,1/2-z
-x,-y,-z
x,y,-z
-x,y,1/2+z
x,-y,1/2+z
loop_
_atom_site_type_symbol
_atom_site_label
_atom_site_fract_x
_atom_site_fract_y
_atom_site_fract_z
Si Si1 0.000000 0.000000 0.750000
Si Si2 0.919188 0.325904 0.324689
Si Si3 0.558408 0.696195 0.317885
Si Si4 0.674415 0.308076 0.682444
Si Si5 0.198804 0.184383 0.817768
O O1 0.955242 0.854010 0.814251
O O2 0.942161 0.500000 0.250000
O O3 0.915338 0.365668 0.500000
O O4 0.854540 0.298292 0.262770
O O5 0.559159 0.500000 0.250000
O O6 0.500000 0.775222 0.250000
O O7 0.556823 0.690675 0.500000
O O8 0.617892 0.776015 0.257295
O O9 0.676563 0.500000 0.750000
O O10 0.668138 0.310629 0.500000
O O11 0.736180 0.231499 0.724311
O O12 0.186620 0.000000 0.750000
O O13 0.196802 0.182344 0.000000
#
# Coordination Sequence:
#
# PCOD9392166 Si02
#       5
#     2   8   8   8   8
#     4  12  24  44  72  96 138 172 220 262 314 378
#     4  11  25  44  68  99 131 172 217 266 321 380
#     4  10  17  27  45  72 108 148 191 241 299 360
#     4  10  19  32  52  80 112 147 192 245 302 367
#     4  10  22  40  61  86 118 157 204 254 311 372
#
# _framework density 21.317311
#
# number of rings (size 3 to 8) (size 9 to 14) (size 15 to 20)
#    0.000    1.647    1.176    6.353    0.000    5.647 
#    0.000    0.000    0.000    0.706    0.000    4.941 
#    0.000    0.000    0.000    0.000    0.000    0.000 
#
# Total GULP energy -189383.976249 kJ/mol
# GULP energy per Si atom -5570.116949 kJ/mol
# Density = 2.126879 g / cm^3
# Si number density = 21.317311 Si / 1000 Ang^3
#
#
#
# Elastic Constant Matrix: (Units=GPa)
#
#
# Indices 1 2 3 4 5 6 
#
# 1 210.4558 50.2535 58.2045 0.0000 0.0000 0.0000
# 2 50.2535 104.4563 26.4478 0.0000 0.0000 0.0000
# 3 58.2045 26.4478 81.9300 0.0000 0.0000 0.0000
# 4 0.0000 0.0000 0.0000 18.2980 0.0000 0.0000
# 5 0.0000 0.0000 0.0000 0.0000 30.3533 0.0000
# 6 0.0000 0.0000 0.0000 0.0000 0.0000 24.3538
#
#
#
# Elastic Compliance Matrix: (Units=1/GPa)
#
#
# Indices 1 2 3 4 5 6 
#
# 1 0.006298 -0.002066 -0.003807 0.000000 0.000000 0.000000
# 2 -0.002066 0.011103 -0.002117 0.000000 0.000000 0.000000
# 3 -0.003807 -0.002117 0.015593 0.000000 0.000000 0.000000
# 4 0.000000 0.000000 0.000000 0.054651 0.000000 0.000000
# 5 0.000000 0.000000 0.000000 0.000000 0.032945 0.000000
# 6 0.000000 0.000000 0.000000 0.000000 0.000000 0.041061
#
#
# Mechanical properties :
#
#
# Convention : Reuss Voigt Hill
#
# Bulk Modulus (GPa) = 58.77108 74.07265 66.42186
# Shear Modulus (GPa) = 27.27725 32.06344 29.67034
#
# Velocity S-wave (km/s) = 3.58101 3.88248 3.73479
# Velocity P-wave (km/s) = 6.68787 7.41089 7.05865
#
# Compressibility (1/GPa) = 0.01701517
#
# Stress axis : x y z
#
# Youngs Moduli (GPa) = 158.78490 90.06430 64.12934
#
# Poissons Ratio (x) = 0.18606 0.24415
# Poissons Ratio (y) = 0.32803 0.13573
# Poissons Ratio (z) = 0.60453 0.19063
#
# Static dielectric constant tensor:
#      x y z
#    x 1.904450 0.000000 0.000000 
#    y 0.000000 1.773210 0.000000 
#    z 0.000000 0.000000 1.725320 
# 
# From -- ./inp_files/5526.got.cif
#   From: 2010.05.17/outbox.cif.g08.bks.cpg/sg49_3_cif.got.tgz:5526.got - 2010.06.03 21:02:19.
