data_PCOD9392708
_publ_section_title
;
Structure prediction by ZEFSAII (Michael W. Deem and Ramdas Pophale) SiO2 
 PCOD9392708
Probable space group: P C C M
;
_chemical_formula_sum "Si O2"
_cell_formula_units_Z 48
_cell_length_a 8.860310
_cell_length_b 11.310161
_cell_length_c 23.821392
_cell_angle_alpha 90.000000
_cell_angle_beta 90.000000
_cell_angle_gamma 90.000000
_cell_volume 2387.178201
_symmetry_space_group_name_H-M "P C C M"
_symmetry_group_IT_number 49
_symmetry_cell_setting 'orthorhombic'
loop_
_space_group_symop_operation_xyz
x,y,z
-x,-y,z
x,-y,1/2-z
-x,y,1/2-z
-x,-y,-z
x,y,-z
-x,y,1/2+z
x,-y,1/2+z
loop_
_atom_site_type_symbol
_atom_site_label
_atom_site_fract_x
_atom_site_fract_y
_atom_site_fract_z
Si Si1 0.626377 0.103992 0.373109
Si Si2 0.585994 0.871614 0.000000
Si Si3 0.668382 0.551662 0.383219
Si Si4 0.596533 0.745267 0.301715
Si Si5 0.837486 0.845044 0.225490
Si Si6 0.844100 0.569324 0.197937
Si Si7 0.600274 0.622170 0.500000
O O1 0.666211 0.127236 0.438539
O O2 0.527564 0.208501 0.345507
O O3 0.768009 0.092721 0.330201
O O4 0.500000 0.000000 0.371708
O O5 0.487905 0.748275 0.000000
O O6 0.500000 0.000000 0.000000
O O7 0.500000 0.500000 0.380014
O O8 0.691724 0.653256 0.337215
O O9 0.768452 0.444531 0.362336
O O10 0.694243 0.608136 0.443380
O O11 0.500000 0.693621 0.250000
O O12 0.704923 0.843020 0.272961
O O13 0.856455 0.706072 0.211615
O O14 0.000000 0.881281 0.250000
O O15 0.764949 0.500000 0.250000
O O16 0.000000 0.500000 0.193161
O O17 0.500000 0.500000 0.500000
#
# Coordination Sequence:
#
# PCOD9392708 Si02
#       7
#     8   4   8   8   8   8   4
#     4  10  22  39  61  87 118 159 215 271 316 375
#     4  10  20  40  64  86 122 174 221 268 332 389
#     4  11  20  31  51  80 117 154 203 253 307 373
#     4  10  19  30  52  82 115 151 204 256 312 368
#     4  11  21  36  58  89 124 166 201 252 322 390
#     4  11  20  34  53  82 124 163 201 238 307 394
#     4  10  22  34  53  90 125 157 209 277 327 364
#
# _framework density 20.107423000000001
#
# number of rings (size 3 to 8) (size 9 to 14) (size 15 to 20)
#    0.000    1.500    5.000    2.000    2.333    3.000 
#    0.000    2.083    0.000    4.000    0.000    3.500 
#    0.000    0.000    0.000    0.000    0.000    0.000 
#
# Total GULP energy -267242.085064 kJ/mol
# GULP energy per Si atom -5567.543439 kJ/mol
# Density = 2.006166 g / cm^3
# Si number density = 20.107423 Si / 1000 Ang^3
#
#
#
# Elastic Constant Matrix: (Units=GPa)
#
#
# Indices 1 2 3 4 5 6 
#
# 1 81.4710 5.1916 47.7620 0.0000 0.0000 0.0000
# 2 5.1916 101.0731 37.3310 0.0000 0.0000 0.0000
# 3 47.7620 37.3310 188.5403 0.0000 0.0000 0.0000
# 4 0.0000 0.0000 0.0000 25.9312 0.0000 0.0000
# 5 0.0000 0.0000 0.0000 0.0000 13.6130 0.0000
# 6 0.0000 0.0000 0.0000 0.0000 0.0000 2.4845
#
#
#
# Elastic Compliance Matrix: (Units=1/GPa)
#
#
# Indices 1 2 3 4 5 6 
#
# 1 0.014456 0.000658 -0.003792 0.000000 0.000000 0.000000
# 2 0.000658 0.010704 -0.002286 0.000000 0.000000 0.000000
# 3 -0.003792 -0.002286 0.006717 0.000000 0.000000 0.000000
# 4 0.000000 0.000000 0.000000 0.038564 0.000000 0.000000
# 5 0.000000 0.000000 0.000000 0.000000 0.073459 0.000000
# 6 0.000000 0.000000 0.000000 0.000000 0.000000 0.402488
#
#
# Mechanical properties :
#
#
# Convention : Reuss Voigt Hill
#
# Bulk Modulus (GPa) = 47.53621 61.29486 54.41553
# Shear Modulus (GPa) = 8.86145 27.12573 17.99359
#
# Velocity S-wave (km/s) = 2.10158 3.67691 2.99469
# Velocity P-wave (km/s) = 5.43887 6.96966 6.25130
#
# Compressibility (1/GPa) = 0.02103659
#
# Stress axis : x y z
#
# Youngs Moduli (GPa) = 69.17748 93.41933 148.87032
#
# Poissons Ratio (x) = -0.06148 0.56456
# Poissons Ratio (y) = -0.04553 0.34035
# Poissons Ratio (z) = 0.26234 0.21358
#
# Static dielectric constant tensor:
#      x y z
#    x 1.788310 0.000000 0.000000 
#    y 0.000000 1.861060 0.000000 
#    z 0.000000 0.000000 1.781280 
# 
# From -- ./inp_files/22427.got.cif
#   From: 2010.05.17/outbox.cif.g08.bks.cpg/sg49_12_cif.got.tgz:22427.got - 2010.06.03 21:02:19.
