data_PCOD9392909
_publ_section_title
;
Structure prediction by ZEFSAII (Michael W. Deem and Ramdas Pophale) SiO2 
 PCOD9392909
Probable space group: P C C M
;
_chemical_formula_sum "Si O2"
_cell_formula_units_Z 44
_cell_length_a 18.546289
_cell_length_b 16.534577
_cell_length_c 9.061303
_cell_angle_alpha 90.000000
_cell_angle_beta 90.000000
_cell_angle_gamma 90.000000
_cell_volume 2778.694266
_symmetry_space_group_name_H-M "P C C M"
_symmetry_group_IT_number 49
_symmetry_cell_setting 'orthorhombic'
loop_
_space_group_symop_operation_xyz
x,y,z
-x,-y,z
x,-y,1/2-z
-x,y,1/2-z
-x,-y,-z
x,y,-z
-x,y,1/2+z
x,-y,1/2+z
loop_
_atom_site_type_symbol
_atom_site_label
_atom_site_fract_x
_atom_site_fract_y
_atom_site_fract_z
Si Si1 0.167258 0.242184 0.178066
Si Si2 0.923725 0.086655 0.677434
Si Si3 0.931115 0.615149 0.162566
Si Si4 0.713315 0.346520 0.829349
Si Si5 0.191383 0.500000 0.750000
Si Si6 0.574364 0.410939 0.677763
O O1 0.138505 0.152427 0.206295
O O2 0.103534 0.303381 0.226300
O O3 0.237076 0.275642 0.261979
O O4 0.176861 0.252403 0.000000
O O5 0.932473 0.079508 0.500000
O O6 0.000000 0.112707 0.750000
O O7 0.906893 0.000000 0.750000
O O8 0.865369 0.552105 0.155747
O O9 0.000000 0.586734 0.250000
O O10 0.957329 0.633780 0.000000
O O11 0.758451 0.431270 0.821467
O O12 0.642718 0.359560 0.730229
O O13 0.695212 0.331670 0.000000
O O14 0.584264 0.500000 0.750000
O O15 0.500000 0.379769 0.750000
O O16 0.569690 0.416760 0.500000
#
# Coordination Sequence:
#
# PCOD9392909 Si02
#       6
#     8   8   8   8   4   8
#     4   9  20  35  48  66  94 125 157 198 248 295
#     4  10  19  32  51  73  98 128 163 205 252 303
#     4  10  20  32  44  59  81 114 154 198 241 282
#     4  11  21  33  51  71  94 126 163 201 244 289
#     4  10  21  32  45  60  88 118 160 198 239 286
#     4  11  21  34  52  73  99 128 164 203 242 287
#
# _framework density 15.834775
#
# number of rings (size 3 to 8) (size 9 to 14) (size 15 to 20)
#    0.000    1.818    0.909    5.182    0.000    7.273 
#    0.000    0.000    0.000    0.000    0.000    0.000 
#    0.000    0.727    0.000    7.636    0.000    4.182 
#
# Total GULP energy -245253.415244 kJ/mol
# GULP energy per Si atom -5573.941256 kJ/mol
# Density = 1.579873 g / cm^3
# Si number density = 15.834775 Si / 1000 Ang^3
#
#
#
# Elastic Constant Matrix: (Units=GPa)
#
#
# Indices 1 2 3 4 5 6 
#
# 1 110.2346 41.7302 56.7903 0.0000 0.0000 0.0000
# 2 41.7302 74.0191 33.3925 0.0000 0.0000 0.0000
# 3 56.7903 33.3925 109.5283 0.0000 0.0000 0.0000
# 4 0.0000 0.0000 0.0000 20.9104 0.0000 0.0000
# 5 0.0000 0.0000 0.0000 0.0000 18.5987 0.0000
# 6 0.0000 0.0000 0.0000 0.0000 0.0000 20.7045
#
#
#
# Elastic Compliance Matrix: (Units=1/GPa)
#
#
# Indices 1 2 3 4 5 6 
#
# 1 0.013996 -0.005353 -0.005625 0.000000 0.000000 0.000000
# 2 -0.005353 0.017712 -0.002624 0.000000 0.000000 0.000000
# 3 -0.005625 -0.002624 0.012847 0.000000 0.000000 0.000000
# 4 0.000000 0.000000 0.000000 0.047823 0.000000 0.000000
# 5 0.000000 0.000000 0.000000 0.000000 0.053767 0.000000
# 6 0.000000 0.000000 0.000000 0.000000 0.000000 0.048299
#
#
# Mechanical properties :
#
#
# Convention : Reuss Voigt Hill
#
# Bulk Modulus (GPa) = 57.63716 61.95646 59.79681
# Shear Modulus (GPa) = 21.98472 22.83399 22.40936
#
# Velocity S-wave (km/s) = 3.73014 3.80151 3.76599
# Velocity P-wave (km/s) = 7.41823 7.64725 7.53361
#
# Compressibility (1/GPa) = 0.01734992
#
# Stress axis : x y z
#
# Youngs Moduli (GPa) = 71.45052 56.45939 77.84143
#
# Poissons Ratio (x) = 0.30222 0.43784
# Poissons Ratio (y) = 0.38247 0.20429
# Poissons Ratio (z) = 0.40189 0.14817
#
# Static dielectric constant tensor:
#      x y z
#    x 1.542970 0.000000 0.000000 
#    y 0.000000 1.534880 0.000000 
#    z 0.000000 0.000000 1.553590 
# 
# From -- ./inp_files/4845.got.cif
#   From: 2010.05.17/outbox.cif.g08.bks.cpg/sg49_3_cif.got.tgz:4845.got - 2010.06.03 21:02:19.
