data_PCOD9392332
_publ_section_title
;
Structure prediction by ZEFSAII (Michael W. Deem and Ramdas Pophale) SiO2 
 PCOD9392332
Probable space group: P C C M
;
_chemical_formula_sum "Si O2"
_cell_formula_units_Z 52
_cell_length_a 12.275338
_cell_length_b 9.809212
_cell_length_c 27.680340
_cell_angle_alpha 90.000000
_cell_angle_beta 90.000000
_cell_angle_gamma 90.000000
_cell_volume 3333.028293
_symmetry_space_group_name_H-M "P C C M"
_symmetry_group_IT_number 49
_symmetry_cell_setting 'orthorhombic'
loop_
_space_group_symop_operation_xyz
x,y,z
-x,-y,z
x,-y,1/2-z
-x,y,1/2-z
-x,-y,-z
x,y,-z
-x,y,1/2+z
x,-y,1/2+z
loop_
_atom_site_type_symbol
_atom_site_label
_atom_site_fract_x
_atom_site_fract_y
_atom_site_fract_z
Si Si1 0.876850 0.010961 0.127292
Si Si2 0.884416 0.277218 0.189470
Si Si3 0.129988 0.757473 0.301462
Si Si4 0.500000 0.500000 0.876092
Si Si5 0.709093 0.484690 0.306879
Si Si6 0.505845 0.768368 0.557578
Si Si7 0.676790 0.994972 0.942908
O O1 0.862731 0.158297 0.151493
O O2 0.867201 0.896892 0.169019
O O3 0.785443 0.987330 0.087749
O O4 0.000000 0.000000 0.107806
O O5 0.868133 0.220709 0.243888
O O6 0.801310 0.401026 0.183345
O O7 0.013021 0.312965 0.187028
O O8 0.229802 0.659099 0.313850
O O9 0.393766 0.498295 0.841726
O O10 0.503248 0.365861 0.909919
O O11 0.678665 0.500000 0.250000
O O12 0.508045 0.736381 0.500000
O O13 0.401490 0.865598 0.566593
O O14 0.608506 0.867391 0.568229
O O15 0.699064 0.996545 0.000000
#
# Coordination Sequence:
#
# PCOD9392332 Si02
#       7
#     8   8   8   4   8   8   8
#     4  10  18  28  46  72  95 115 145 184 225 264
#     4   9  17  30  47  66  90 121 155 186 213 250
#     4   9  17  30  47  66  90 121 155 186 213 250
#     4  12  20  30  48  70  94 114 144 190 232 262
#     4  10  20  31  44  65  94 125 151 177 219 270
#     4   9  19  34  52  68  84 113 153 191 222 261
#     4   9  18  34  50  66  90 118 147 180 224 273
#
# _framework density 15.601426999999999
#
# number of rings (size 3 to 8) (size 9 to 14) (size 15 to 20)
#    0.000    2.462    0.000    4.154    0.000    4.000 
#    0.000    0.000    0.000    0.000    0.000   12.923 
#    0.000   22.154    0.000    0.000    0.000    0.000 
#
# Total GULP energy -289891.762314 kJ/mol
# GULP energy per Si atom -5574.841583 kJ/mol
# Density = 1.556592 g / cm^3
# Si number density = 15.601427 Si / 1000 Ang^3
#
#
#
# Elastic Constant Matrix: (Units=GPa)
#
#
# Indices 1 2 3 4 5 6 
#
# 1 86.2695 19.0091 46.6163 0.0000 0.0000 0.0000
# 2 19.0091 56.3743 29.9053 0.0000 0.0000 0.0000
# 3 46.6163 29.9053 50.9511 0.0000 0.0000 0.0000
# 4 0.0000 0.0000 0.0000 21.6438 0.0000 0.0000
# 5 0.0000 0.0000 0.0000 0.0000 29.5947 0.0000
# 6 0.0000 0.0000 0.0000 0.0000 0.0000 11.4048
#
#
#
# Elastic Compliance Matrix: (Units=1/GPa)
#
#
# Indices 1 2 3 4 5 6 
#
# 1 0.023911 0.005144 -0.024896 0.000000 0.000000 0.000000
# 2 0.005144 0.026865 -0.020475 0.000000 0.000000 0.000000
# 3 -0.024896 -0.020475 0.054422 0.000000 0.000000 0.000000
# 4 0.000000 0.000000 0.000000 0.046203 0.000000 0.000000
# 5 0.000000 0.000000 0.000000 0.000000 0.033790 0.000000
# 6 0.000000 0.000000 0.000000 0.000000 0.000000 0.087682
#
#
# Mechanical properties :
#
#
# Convention : Reuss Voigt Hill
#
# Bulk Modulus (GPa) = 40.41219 42.73957 41.57588
# Shear Modulus (GPa) = 13.82846 19.06627 16.44737
#
# Velocity S-wave (km/s) = 2.98041 3.49963 3.25040
# Velocity P-wave (km/s) = 6.14841 6.61695 6.38697
#
# Compressibility (1/GPa) = 0.02474501
#
# Stress axis : x y z
#
# Youngs Moduli (GPa) = 41.82245 37.22258 18.37507
#
# Poissons Ratio (x) = -0.19147 0.45746
# Poissons Ratio (y) = -0.21513 0.37622
# Poissons Ratio (z) = 1.04119 0.76212
#
# Static dielectric constant tensor:
#      x y z
#    x 1.509590 0.000000 0.000000 
#    y 0.000000 1.506080 0.000000 
#    z 0.000000 0.000000 1.493230 
# 
# From -- ./inp_files/24800.got.cif
#   From: 2010.05.17/outbox.cif.g08.bks.cpg/sg49_13_cif.got.tgz:24800.got - 2010.06.03 21:02:19.
