data_PCOD9392999
_publ_section_title
;
Structure prediction by ZEFSAII (Michael W. Deem and Ramdas Pophale) SiO2 
 PCOD9392999
Probable space group: P C C M
;
_chemical_formula_sum "Si O2"
_cell_formula_units_Z 58
_cell_length_a 19.724983
_cell_length_b 19.946879
_cell_length_c 8.575896
_cell_angle_alpha 90.000000
_cell_angle_beta 90.000000
_cell_angle_gamma 90.000000
_cell_volume 3374.202140
_symmetry_space_group_name_H-M "P C C M"
_symmetry_group_IT_number 49
_symmetry_cell_setting 'orthorhombic'
loop_
_space_group_symop_operation_xyz
x,y,z
-x,-y,z
x,-y,1/2-z
-x,y,1/2-z
-x,-y,-z
x,y,-z
-x,y,1/2+z
x,-y,1/2+z
loop_
_atom_site_type_symbol
_atom_site_label
_atom_site_fract_x
_atom_site_fract_y
_atom_site_fract_z
Si Si1 0.574311 0.259803 0.814248
Si Si2 0.187059 0.575151 0.186290
Si Si3 0.387398 0.887110 0.311656
Si Si4 0.234028 0.072914 0.188045
Si Si5 0.924148 0.323055 0.312282
Si Si6 0.292388 0.320433 0.187375
Si Si7 0.500000 0.000000 0.250000
Si Si8 0.179609 0.788253 0.689090
O O1 0.500000 0.276621 0.750000
O O2 0.593975 0.185532 0.754018
O O3 0.633014 0.308808 0.752942
O O4 0.572983 0.259515 0.000000
O O5 0.186203 0.500000 0.250000
O O6 0.122413 0.616657 0.249408
O O7 0.252807 0.615444 0.247348
O O8 0.186231 0.575186 0.000000
O O9 0.390609 0.884262 0.500000
O O10 0.311533 0.909293 0.266486
O O11 0.441109 0.941682 0.255370
O O12 0.188466 0.135603 0.243211
O O13 0.215180 0.000000 0.250000
O O14 0.232138 0.071054 0.000000
O O15 0.923912 0.325617 0.500000
O O16 0.885735 0.254480 0.261755
O O17 0.000000 0.326370 0.250000
O O18 0.245461 0.256192 0.232132
O O19 0.294002 0.323325 0.000000
O O20 0.178860 0.789949 0.500000
#
# Coordination Sequence:
#
# PCOD9392999 Si02
#       8
#     8   8   8   8   8   8   2   8
#     4  12  24  36  53  77 105 141 187 238 289 342
#     4  11  22  38  60  91 124 157 191 224 265 324
#     4  11  22  34  48  68  99 138 181 228 284 347
#     4  10  19  33  49  71  99 136 179 229 283 339
#     4  10  20  36  58  86 117 153 188 229 278 331
#     4  10  19  37  60  82 110 147 188 236 284 332
#     4  12  22  32  48  70 106 144 186 224 298 364
#     4   8  16  32  54  75 103 141 181 224 279 335
#
# _framework density 17.189250000000001
#
# number of rings (size 3 to 8) (size 9 to 14) (size 15 to 20)
#    0.000    1.655    2.759    4.345    0.000    1.379 
#    0.000    2.759    0.000    0.828    0.000    5.793 
#    0.000    0.000    0.000    0.000    0.000    0.000 
#
# Total GULP energy -323322.946579 kJ/mol
# GULP energy per Si atom -5574.533562 kJ/mol
# Density = 1.715013 g / cm^3
# Si number density = 17.189250 Si / 1000 Ang^3
#
#
#
# Elastic Constant Matrix: (Units=GPa)
#
#
# Indices 1 2 3 4 5 6 
#
# 1 132.8789 95.9056 48.0696 0.0000 0.0000 0.0000
# 2 95.9056 158.7499 46.6873 0.0000 0.0000 0.0000
# 3 48.0696 46.6873 93.2747 0.0000 0.0000 0.0000
# 4 0.0000 0.0000 0.0000 54.8117 0.0000 0.0000
# 5 0.0000 0.0000 0.0000 0.0000 32.7685 0.0000
# 6 0.0000 0.0000 0.0000 0.0000 0.0000 16.7405
#
#
#
# Elastic Compliance Matrix: (Units=1/GPa)
#
#
# Indices 1 2 3 4 5 6 
#
# 1 0.014290 -0.007584 -0.003569 0.000000 0.000000 0.000000
# 2 -0.007584 0.011411 -0.001803 0.000000 0.000000 0.000000
# 3 -0.003569 -0.001803 0.013463 0.000000 0.000000 0.000000
# 4 0.000000 0.000000 0.000000 0.018244 0.000000 0.000000
# 5 0.000000 0.000000 0.000000 0.000000 0.030517 0.000000
# 6 0.000000 0.000000 0.000000 0.000000 0.000000 0.059736
#
#
# Mechanical properties :
#
#
# Convention : Reuss Voigt Hill
#
# Bulk Modulus (GPa) = 75.45609 85.13649 80.29629
# Shear Modulus (GPa) = 28.09154 33.81353 30.95254
#
# Velocity S-wave (km/s) = 4.04697 4.44005 4.24806
# Velocity P-wave (km/s) = 8.11356 8.71331 8.41878
#
# Compressibility (1/GPa) = 0.01325274
#
# Stress axis : x y z
#
# Youngs Moduli (GPa) = 69.97882 87.63452 74.27876
#
# Poissons Ratio (x) = 0.66458 0.26507
# Poissons Ratio (y) = 0.53069 0.13396
# Poissons Ratio (z) = 0.24973 0.15804
#
# Static dielectric constant tensor:
#      x y z
#    x 1.563080 0.000000 0.000000 
#    y 0.000000 1.559890 0.000000 
#    z 0.000000 0.000000 1.594140 
# 
# From -- ./inp_files/5131.got.cif
#   From: 2010.05.17/outbox.cif.g08.bks.cpg/sg49_3_cif.got.tgz:5131.got - 2010.06.03 21:02:19.
