data_PCOD9392054
_publ_section_title
;
Structure prediction by ZEFSAII (Michael W. Deem and Ramdas Pophale) SiO2 
 PCOD9392054
Probable space group: P C C M
;
_chemical_formula_sum "Si O2"
_cell_formula_units_Z 56
_cell_length_a 5.303158
_cell_length_b 32.814663
_cell_length_c 14.811429
_cell_angle_alpha 90.000000
_cell_angle_beta 90.000000
_cell_angle_gamma 90.000000
_cell_volume 2577.504760
_symmetry_space_group_name_H-M "P C C M"
_symmetry_group_IT_number 49
_symmetry_cell_setting 'orthorhombic'
loop_
_space_group_symop_operation_xyz
x,y,z
-x,-y,z
x,-y,1/2-z
-x,y,1/2-z
-x,-y,-z
x,y,-z
-x,y,1/2+z
x,-y,1/2+z
loop_
_atom_site_type_symbol
_atom_site_label
_atom_site_fract_x
_atom_site_fract_y
_atom_site_fract_z
Si Si1 0.860847 0.696252 0.392197
Si Si2 0.251712 0.517871 0.854065
Si Si3 0.749902 0.610865 0.689873
Si Si4 0.636264 0.261948 0.392253
Si Si5 0.940055 0.095298 0.606757
Si Si6 0.759786 0.178968 0.304601
Si Si7 0.573458 0.955435 0.607346
O O1 0.872448 0.702146 0.500000
O O2 0.788210 0.649785 0.373103
O O3 0.633865 0.724062 0.355189
O O4 0.133646 0.710235 0.356714
O O5 0.500000 0.500000 0.896845
O O6 0.251248 0.500000 0.750000
O O7 0.264432 0.566428 0.854670
O O8 0.000000 0.500000 0.895079
O O9 0.500000 0.616189 0.750000
O O10 0.000000 0.609248 0.750000
O O11 0.626264 0.267713 0.500000
O O12 0.685251 0.214755 0.372734
O O13 0.987209 0.102330 0.500000
O O14 0.877671 0.138302 0.651889
O O15 0.682425 0.070011 0.615672
O O16 0.182716 0.069666 0.642920
O O17 0.500000 0.169642 0.250000
O O18 0.000000 0.195933 0.250000
O O19 0.629805 0.961288 0.500000
O O20 0.500000 0.000000 0.644015
#
# Coordination Sequence:
#
# PCOD9392054 Si02
#       7
#     8   8   8   8   8   8   8
#     4  10  23  40  58  82 116 147 180 231 292 350
#     4  10  16  30  48  74 107 139 181 228 268 318
#     4  12  21  32  56  86 107 145 187 235 274 329
#     4  10  22  43  63  80 109 155 194 228 286 358
#     4  10  20  36  58  85 117 155 196 233 285 353
#     4  12  25  39  60  87 119 151 189 248 295 335
#     4   9  17  31  56  88 117 147 194 249 283 318
#
# _framework density 21.726438000000002
#
# number of rings (size 3 to 8) (size 9 to 14) (size 15 to 20)
#    0.000    1.571    2.857    3.429    0.000    5.143 
#    0.000    5.714    0.000    7.286    0.000    0.000 
#    0.000    0.000    0.000    0.000    0.000    0.000 
#
# Total GULP energy -312796.333371 kJ/mol
# GULP energy per Si atom -5585.648810 kJ/mol
# Density = 2.167699 g / cm^3
# Si number density = 21.726438 Si / 1000 Ang^3
#
#
#
# Elastic Constant Matrix: (Units=GPa)
#
#
# Indices 1 2 3 4 5 6 
#
# 1 181.7720 33.3966 28.7068 0.0000 0.0000 0.0000
# 2 33.3966 113.8396 3.5430 0.0000 0.0000 0.0000
# 3 28.7068 3.5430 30.5033 0.0000 0.0000 0.0000
# 4 0.0000 0.0000 0.0000 12.0415 0.0000 0.0000
# 5 0.0000 0.0000 0.0000 0.0000 6.5970 0.0000
# 6 0.0000 0.0000 0.0000 0.0000 0.0000 35.0968
#
#
#
# Elastic Compliance Matrix: (Units=1/GPa)
#
#
# Indices 1 2 3 4 5 6 
#
# 1 0.006813 -0.001806 -0.006202 0.000000 0.000000 0.000000
# 2 -0.001806 0.009295 0.000620 0.000000 0.000000 0.000000
# 3 -0.006202 0.000620 0.038548 0.000000 0.000000 0.000000
# 4 0.000000 0.000000 0.000000 0.083046 0.000000 0.000000
# 5 0.000000 0.000000 0.000000 0.000000 0.151584 0.000000
# 6 0.000000 0.000000 0.000000 0.000000 0.000000 0.028493
#
#
# Mechanical properties :
#
#
# Convention : Reuss Voigt Hill
#
# Bulk Modulus (GPa) = 25.07530 50.82308 37.94919
# Shear Modulus (GPa) = 14.45729 28.11164 21.28447
#
# Velocity S-wave (km/s) = 2.58238 3.60097 3.13334
# Velocity P-wave (km/s) = 4.52305 6.38219 5.53129
#
# Compressibility (1/GPa) = 0.03987988
#
# Stress axis : x y z
#
# Youngs Moduli (GPa) = 146.78833 107.58834 25.94190
#
# Poissons Ratio (x) = 0.19426 0.16088
# Poissons Ratio (y) = 0.26503 -0.01607
# Poissons Ratio (z) = 0.91032 -0.06667
#
# Static dielectric constant tensor:
#      x y z
#    x 1.787760 0.000000 0.000000 
#    y 0.000000 1.885320 0.000000 
#    z 0.000000 0.000000 1.808410 
# 
# From -- ./inp_files/10770.got.cif
#   From: 2010.05.17/outbox.cif.g08.bks.cpg/sg49_6_cif.got.tgz:10770.got - 2010.06.03 21:02:19.
