data_PCOD9392711
_publ_section_title
;
Structure prediction by ZEFSAII (Michael W. Deem and Ramdas Pophale) SiO2 
 PCOD9392711
Probable space group: P C C M
;
_chemical_formula_sum "Si O2"
_cell_formula_units_Z 64
_cell_length_a 20.148283
_cell_length_b 19.834142
_cell_length_c 8.826019
_cell_angle_alpha 90.000000
_cell_angle_beta 90.000000
_cell_angle_gamma 90.000000
_cell_volume 3527.088188
_symmetry_space_group_name_H-M "P C C M"
_symmetry_group_IT_number 49
_symmetry_cell_setting 'orthorhombic'
loop_
_space_group_symop_operation_xyz
x,y,z
-x,-y,z
x,-y,1/2-z
-x,y,1/2-z
-x,-y,-z
x,y,-z
-x,y,1/2+z
x,-y,1/2+z
loop_
_atom_site_type_symbol
_atom_site_label
_atom_site_fract_x
_atom_site_fract_y
_atom_site_fract_z
Si Si1 0.931921 0.310603 0.172353
Si Si2 0.666379 0.210502 0.178846
Si Si3 0.813497 0.931701 0.682698
Si Si4 0.666637 0.070278 0.680279
Si Si5 0.780542 0.688404 0.684837
Si Si6 0.427544 0.659568 0.820527
Si Si7 0.685906 0.426311 0.681440
Si Si8 0.065344 0.149030 0.670598
O O1 0.857183 0.319263 0.236420
O O2 0.938152 0.229507 0.168137
O O3 0.000000 0.335804 0.250000
O O4 0.931426 0.336219 0.000000
O O5 0.641923 0.143337 0.263572
O O6 0.737584 0.244202 0.226553
O O7 0.613657 0.270848 0.197355
O O8 0.672563 0.194158 0.000000
O O9 0.804484 0.933828 0.500000
O O10 0.742409 0.926068 0.760365
O O11 0.863562 0.873175 0.730546
O O12 0.844026 0.000000 0.750000
O O13 0.663784 0.065405 0.500000
O O14 0.638768 0.000000 0.750000
O O15 0.780476 0.687857 0.500000
O O16 0.739062 0.625974 0.749333
O O17 0.500000 0.665530 0.750000
O O18 0.384998 0.602402 0.736325
O O19 0.430520 0.645091 0.000000
O O20 0.696697 0.500000 0.750000
O O21 0.689739 0.427161 0.500000
O O22 0.063853 0.123335 0.500000
O O23 0.000000 0.122478 0.750000
#
# Coordination Sequence:
#
# PCOD9392711 Si02
#       8
#     8   8   8   8   8   8   8   8
#     4   9  17  30  48  70  97 129 167 213 266 320
#     4   9  18  34  55  78 107 141 177 219 268 319
#     4  10  19  31  44  59  83 115 154 200 255 314
#     4  11  21  32  49  72  98 129 169 217 268 318
#     4   9  18  34  55  78 107 143 180 222 273 324
#     4  10  21  38  60  87 119 152 184 218 258 305
#     4  11  22  37  58  85 117 150 186 222 260 309
#     4   9  18  30  43  59  82 115 153 197 249 307
#
# _framework density 18.145278000000001
#
# number of rings (size 3 to 8) (size 9 to 14) (size 15 to 20)
#    0.000    2.250    0.000    5.250    0.000    6.500 
#    0.000    5.000    0.000    0.750    0.000    5.250 
#    0.000    0.000    0.000    0.000    0.000    0.000 
#
# Total GULP energy -356514.206382 kJ/mol
# GULP energy per Si atom -5570.534475 kJ/mol
# Density = 1.810398 g / cm^3
# Si number density = 18.145278 Si / 1000 Ang^3
#
#
#
# Elastic Constant Matrix: (Units=GPa)
#
#
# Indices 1 2 3 4 5 6 
#
# 1 75.6281 -2.4771 12.9786 0.0000 0.0000 0.0000
# 2 -2.4771 68.8603 27.3752 0.0000 0.0000 0.0000
# 3 12.9786 27.3752 58.5895 0.0000 0.0000 0.0000
# 4 0.0000 0.0000 0.0000 24.5251 0.0000 0.0000
# 5 0.0000 0.0000 0.0000 0.0000 26.8286 0.0000
# 6 0.0000 0.0000 0.0000 0.0000 0.0000 11.4090
#
#
#
# Elastic Compliance Matrix: (Units=1/GPa)
#
#
# Indices 1 2 3 4 5 6 
#
# 1 0.013995 0.002132 -0.004096 0.000000 0.000000 0.000000
# 2 0.002132 0.018160 -0.008957 0.000000 0.000000 0.000000
# 3 -0.004096 -0.008957 0.022160 0.000000 0.000000 0.000000
# 4 0.000000 0.000000 0.000000 0.040774 0.000000 0.000000
# 5 0.000000 0.000000 0.000000 0.000000 0.037274 0.000000
# 6 0.000000 0.000000 0.000000 0.000000 0.000000 0.087650
#
#
# Mechanical properties :
#
#
# Convention : Reuss Voigt Hill
#
# Bulk Modulus (GPa) = 30.79537 30.98128 30.88832
# Shear Modulus (GPa) = 19.78781 23.56597 21.67689
#
# Velocity S-wave (km/s) = 3.30589 3.60771 3.46009
# Velocity P-wave (km/s) = 5.61963 5.87071 5.74654
#
# Compressibility (1/GPa) = 0.03247241
#
# Stress axis : x y z
#
# Youngs Moduli (GPa) = 71.45203 55.06684 45.12545
#
# Poissons Ratio (x) = -0.11740 0.18485
# Poissons Ratio (y) = -0.15233 0.40420
# Poissons Ratio (z) = 0.29269 0.49324
#
# Static dielectric constant tensor:
#      x y z
#    x 1.650610 0.000000 0.000000 
#    y 0.000000 1.660120 0.000000 
#    z 0.000000 0.000000 1.628430 
# 
# From -- ./inp_files/5952.got.cif
#   From: 2010.05.17/outbox.cif.g08.bks.cpg/sg49_3_cif.got.tgz:5952.got - 2010.06.03 21:02:19.
