data_PCOD9392854
_publ_section_title
;
Structure prediction by ZEFSAII (Michael W. Deem and Ramdas Pophale) SiO2 
 PCOD9392854
Probable space group: P C C M
;
_chemical_formula_sum "Si O2"
_cell_formula_units_Z 52
_cell_length_a 5.189028
_cell_length_b 18.725992
_cell_length_c 31.891949
_cell_angle_alpha 90.000000
_cell_angle_beta 90.000000
_cell_angle_gamma 90.000000
_cell_volume 3098.931015
_symmetry_space_group_name_H-M "P C C M"
_symmetry_group_IT_number 49
_symmetry_cell_setting 'orthorhombic'
loop_
_space_group_symop_operation_xyz
x,y,z
-x,-y,z
x,-y,1/2-z
-x,y,1/2-z
-x,-y,-z
x,y,-z
-x,y,1/2+z
x,-y,1/2+z
loop_
_atom_site_type_symbol
_atom_site_label
_atom_site_fract_x
_atom_site_fract_y
_atom_site_fract_z
Si Si1 0.605751 0.801776 0.296645
Si Si2 0.876495 0.268053 0.331503
Si Si3 0.459802 0.584641 0.450002
Si Si4 0.950180 0.631015 0.597734
Si Si5 0.000000 0.500000 0.840570
Si Si6 0.746697 0.594001 0.221207
Si Si7 0.746257 0.032521 0.202504
O O1 0.500000 0.785336 0.250000
O O2 0.357671 0.788958 0.327001
O O3 0.709696 0.883119 0.295710
O O4 0.858000 0.756480 0.309190
O O5 0.964162 0.298425 0.376751
O O6 0.756310 0.335308 0.306913
O O7 0.500000 0.500000 0.440662
O O8 0.472778 0.592961 0.500000
O O9 0.183476 0.607690 0.432348
O O10 0.683679 0.630336 0.427583
O O11 0.919456 0.567215 0.631649
O O12 0.223574 0.471741 0.810397
O O13 0.500000 0.592225 0.250000
O O14 0.000000 0.594485 0.250000
O O15 0.500000 0.000000 0.180328
O O16 0.747658 0.000000 0.250000
O O17 0.000000 0.000000 0.182499
#
# Coordination Sequence:
#
# PCOD9392854 Si02
#       7
#     8   8   8   8   4   8   8
#     4  12  21  35  54  73 105 139 191 236 260 301
#     4  11  24  35  53  74  99 146 173 220 283 316
#     4  11  21  36  62  86 101 127 165 218 276 332
#     4  11  22  40  53  78 109 129 173 210 278 342
#     4  10  23  36  55  66  92 138 158 228 285 308
#     4  11  23  38  48  66  90 121 187 225 267 305
#     4  10  19  32  48  76  97 131 175 233 271 300
#
# _framework density 16.779980999999999
#
# number of rings (size 3 to 8) (size 9 to 14) (size 15 to 20)
#    0.000    1.077    3.077    5.308    2.154    7.385 
#    0.000    2.308    0.000    0.000    0.000    0.000 
#    0.000    0.000    0.000    0.000    0.000  193.846 
#
# Total GULP energy -290371.835033 kJ/mol
# GULP energy per Si atom -5584.073751 kJ/mol
# Density = 1.674179 g / cm^3
# Si number density = 16.779981 Si / 1000 Ang^3
#
#
#
# Elastic Constant Matrix: (Units=GPa)
#
#
# Indices 1 2 3 4 5 6 
#
# 1 133.9668 25.5232 27.4530 0.0000 0.0000 0.0000
# 2 25.5232 69.2994 22.4093 0.0000 0.0000 0.0000
# 3 27.4530 22.4093 56.6248 0.0000 0.0000 0.0000
# 4 0.0000 0.0000 0.0000 6.1742 0.0000 0.0000
# 5 0.0000 0.0000 0.0000 0.0000 -6.2731 0.0000
# 6 0.0000 0.0000 0.0000 0.0000 0.0000 28.8929
#
#
#
# Elastic Compliance Matrix: (Units=1/GPa)
#
#
# Indices 1 2 3 4 5 6 
#
# 1 0.008540 -0.002071 -0.003320 0.000000 0.000000 0.000000
# 2 -0.002071 0.017050 -0.005743 0.000000 0.000000 0.000000
# 3 -0.003320 -0.005743 0.021543 0.000000 0.000000 0.000000
# 4 0.000000 0.000000 0.000000 0.161965 0.000000 0.000000
# 5 0.000000 0.000000 0.000000 0.000000 -0.159411 0.000000
# 6 0.000000 0.000000 0.000000 0.000000 0.000000 0.034611
#
#
# Mechanical properties :
#
#
# Convention : Reuss Voigt Hill
#
# Bulk Modulus (GPa) = 40.22158 45.62910 42.92534
# Shear Modulus (GPa) = 43.53305 18.05916 30.79611
#
# Velocity S-wave (km/s) = 5.09900 3.28416 4.28867
# Velocity P-wave (km/s) = 7.66083 6.45233 7.08240
#
# Compressibility (1/GPa) = 0.02486228
#
# Stress axis : x y z
#
# Youngs Moduli (GPa) = 117.10125 58.65004 46.41908
#
# Poissons Ratio (x) = 0.12149 0.15413
# Poissons Ratio (y) = 0.24257 0.26660
# Poissons Ratio (z) = 0.38883 0.33685
#
# Static dielectric constant tensor:
#      x y z
#    x 1.593220 0.000000 0.000000 
#    y 0.000000 1.610200 0.000000 
#    z 0.000000 0.000000 1.553520 
# 
# From -- ./inp_files/24039.got.cif
#   From: 2010.05.17/outbox.cif.g08.bks.cpg/sg49_13_cif.got.tgz:24039.got - 2010.06.03 21:02:19.
