data_PCOD9392967
_publ_section_title
;
Structure prediction by ZEFSAII (Michael W. Deem and Ramdas Pophale) SiO2 
 PCOD9392967
Probable space group: P C C M
;
_chemical_formula_sum "Si O2"
_cell_formula_units_Z 64
_cell_length_a 15.556691
_cell_length_b 24.984363
_cell_length_c 8.763852
_cell_angle_alpha 90.000000
_cell_angle_beta 90.000000
_cell_angle_gamma 90.000000
_cell_volume 3406.281544
_symmetry_space_group_name_H-M "P C C M"
_symmetry_group_IT_number 49
_symmetry_cell_setting 'orthorhombic'
loop_
_space_group_symop_operation_xyz
x,y,z
-x,-y,z
x,-y,1/2-z
-x,y,1/2-z
-x,-y,-z
x,y,-z
-x,y,1/2+z
x,-y,1/2+z
loop_
_atom_site_type_symbol
_atom_site_label
_atom_site_fract_x
_atom_site_fract_y
_atom_site_fract_z
Si Si1 0.325531 0.736865 0.680470
Si Si2 0.274824 0.142902 0.182933
Si Si3 0.409760 0.360520 0.319425
Si Si4 0.090799 0.829993 0.180204
Si Si5 0.408236 0.940420 0.817033
Si Si6 0.913857 0.401550 0.682320
Si Si7 0.144248 0.708426 0.819558
Si Si8 0.274431 0.442873 0.182455
O O1 0.339445 0.730935 0.500000
O O2 0.319063 0.799618 0.718567
O O3 0.392865 0.700816 0.770278
O O4 0.232623 0.713599 0.726812
O O5 0.176528 0.146222 0.241909
O O6 0.331075 0.097234 0.261642
O O7 0.274661 0.136430 0.000000
O O8 0.500000 0.378580 0.250000
O O9 0.410381 0.365034 0.500000
O O10 0.333792 0.396587 0.251079
O O11 0.097741 0.765478 0.200024
O O12 0.000000 0.848036 0.250000
O O13 0.093412 0.841148 0.000000
O O14 0.500000 0.920930 0.750000
O O15 0.395928 0.000000 0.750000
O O16 0.412792 0.942375 0.000000
O O17 0.920372 0.397354 0.500000
O O18 0.904902 0.342550 0.755335
O O19 0.825313 0.431458 0.721166
O O20 0.000000 0.427007 0.750000
O O21 0.161765 0.701466 0.000000
O O22 0.300098 0.500000 0.250000
O O23 0.282630 0.442629 0.000000
#
# Coordination Sequence:
#
# PCOD9392967 Si02
#       8
#     8   8   8   8   8   8   8   8
#     4  10  20  36  58  86 122 158 195 238 291 350
#     4  10  21  37  59  88 123 163 204 250 300 353
#     4  12  25  42  66  91 119 153 192 239 293 355
#     4  10  20  33  51  81 119 161 205 249 295 349
#     4  11  22  39  63  90 122 159 204 254 304 358
#     4  11  23  37  58  85 117 151 191 238 288 348
#     4  10  19  32  54  82 115 154 196 237 288 346
#     4  11  25  45  66  88 115 149 191 242 295 351
#
# _framework density 18.788817000000002
#
# number of rings (size 3 to 8) (size 9 to 14) (size 15 to 20)
#    0.000    1.375    1.250    5.250    0.000    6.500 
#    0.000    2.500    0.000    0.375    0.000    2.625 
#    0.000    0.000    0.000    0.000    0.000    0.000 
#
# Total GULP energy -357707.499703 kJ/mol
# GULP energy per Si atom -5589.179683 kJ/mol
# Density = 1.874605 g / cm^3
# Si number density = 18.788817 Si / 1000 Ang^3
#
#
#
# Elastic Constant Matrix: (Units=GPa)
#
#
# Indices 1 2 3 4 5 6 
#
# 1 107.5258 50.2806 64.2646 0.0000 0.0000 0.0000
# 2 50.2806 72.0045 46.6752 0.0000 0.0000 0.0000
# 3 64.2646 46.6752 105.9547 0.0000 0.0000 0.0000
# 4 0.0000 0.0000 0.0000 52.4036 0.0000 0.0000
# 5 0.0000 0.0000 0.0000 0.0000 28.5300 0.0000
# 6 0.0000 0.0000 0.0000 0.0000 0.0000 -3.0844
#
#
#
# Elastic Compliance Matrix: (Units=1/GPa)
#
#
# Indices 1 2 3 4 5 6 
#
# 1 0.016902 -0.007219 -0.007072 0.000000 0.000000 0.000000
# 2 -0.007219 0.022522 -0.005543 0.000000 0.000000 0.000000
# 3 -0.007072 -0.005543 0.016169 0.000000 0.000000 0.000000
# 4 0.000000 0.000000 0.000000 0.019083 0.000000 0.000000
# 5 0.000000 0.000000 0.000000 0.000000 0.035051 0.000000
# 6 0.000000 0.000000 0.000000 0.000000 0.000000 -0.324207
#
#
# Mechanical properties :
#
#
# Convention : Reuss Voigt Hill
#
# Bulk Modulus (GPa) = 62.78917 67.54731 65.16824
# Shear Modulus (GPa) = -29.49764 23.85412 -2.82176
#
# Velocity S-wave (km/s) = -3.96657 3.56700 -1.22682
# Velocity P-wave (km/s) = 3.53733 7.27966 5.72303
#
# Compressibility (1/GPa) = 0.01592631
#
# Stress axis : x y z
#
# Youngs Moduli (GPa) = 59.16395 44.40108 61.84680
#
# Poissons Ratio (x) = 0.32052 0.43736
# Poissons Ratio (y) = 0.42709 0.34282
# Poissons Ratio (z) = 0.41839 0.24612
#
# Static dielectric constant tensor:
#      x y z
#    x 1.826860 0.000000 0.000000 
#    y 0.000000 1.635390 0.000000 
#    z 0.000000 0.000000 1.620660 
# 
# From -- ./inp_files/4340.got.cif
#   From: 2010.05.17/outbox.cif.g08.bks.cpg/sg49_3_cif.got.tgz:4340.got - 2010.06.03 21:02:19.
