data_PCOD9392275
_publ_section_title
;
Structure prediction by ZEFSAII (Michael W. Deem and Ramdas Pophale) SiO2 
 PCOD9392275
Probable space group: P C C M
;
_chemical_formula_sum "Si O2"
_cell_formula_units_Z 64
_cell_length_a 12.237875
_cell_length_b 15.712862
_cell_length_c 14.527349
_cell_angle_alpha 90.000000
_cell_angle_beta 90.000000
_cell_angle_gamma 90.000000
_cell_volume 2793.493590
_symmetry_space_group_name_H-M "P C C M"
_symmetry_group_IT_number 49
_symmetry_cell_setting 'orthorhombic'
loop_
_space_group_symop_operation_xyz
x,y,z
-x,-y,z
x,-y,1/2-z
-x,y,1/2-z
-x,-y,-z
x,y,-z
-x,y,1/2+z
x,-y,1/2+z
loop_
_atom_site_type_symbol
_atom_site_label
_atom_site_fract_x
_atom_site_fract_y
_atom_site_fract_z
Si Si1 0.016172 0.132322 0.604281
Si Si2 0.580986 0.256636 0.887113
Si Si3 0.787119 0.079308 0.387578
Si Si4 0.670651 0.747665 0.112894
Si Si5 0.260165 0.106592 0.612319
Si Si6 0.013392 0.322702 0.642445
Si Si7 0.748422 0.396574 0.109307
Si Si8 0.199767 0.583132 0.391933
O O1 0.029540 0.100066 0.500000
O O2 0.137603 0.130356 0.644989
O O3 0.983029 0.231722 0.599914
O O4 0.913323 0.082230 0.644786
O O5 0.455363 0.256464 0.858723
O O6 0.648580 0.173203 0.857303
O O7 0.649011 0.339215 0.855690
O O8 0.581066 0.256825 0.000000
O O9 0.791213 0.081624 0.500000
O O10 0.726409 0.164484 0.357198
O O11 0.727104 0.992132 0.362353
O O12 0.737379 0.665296 0.146580
O O13 0.673899 0.747583 0.000000
O O14 0.260721 0.112048 0.500000
O O15 0.136965 0.347467 0.620232
O O16 0.000000 0.310834 0.750000
O O17 0.928650 0.396308 0.615352
O O18 0.765438 0.491795 0.146427
O O19 0.730189 0.404307 0.000000
O O20 0.225862 0.580972 0.500000
#
# Coordination Sequence:
#
# PCOD9392275 Si02
#       8
#     8   8   8   8   8   8   8   8
#     4  10  17  31  53  75 104 137 172 211 255 309
#     4   9  17  29  47  75 108 137 169 211 253 296
#     4   9  16  26  46  76 106 135 167 208 257 305
#     4   9  17  29  47  75 108 137 169 211 253 296
#     4   9  16  26  46  76 106 135 167 208 257 305
#     4  12  23  34  53  79 106 134 168 212 262 310
#     4  10  20  35  55  77 103 137 172 207 254 308
#     4  10  20  35  55  77 103 137 172 207 254 308
#
# _framework density 22.910381000000001
#
# number of rings (size 3 to 8) (size 9 to 14) (size 15 to 20)
#    0.000    2.250    2.500    1.875    0.000    4.500 
#    0.000    5.000    0.000    2.250    0.000    1.750 
#    0.000    2.000    0.000    0.000    0.000    0.000 
#
# Total GULP energy -357738.578201 kJ/mol
# GULP energy per Si atom -5589.665284 kJ/mol
# Density = 2.285824 g / cm^3
# Si number density = 22.910381 Si / 1000 Ang^3
#
#
#
# Elastic Constant Matrix: (Units=GPa)
#
#
# Indices 1 2 3 4 5 6 
#
# 1 128.9287 41.1890 -18.0981 0.0000 0.0000 0.0000
# 2 41.1890 128.4841 -15.1407 0.0000 0.0000 0.0000
# 3 -18.0981 -15.1407 61.6781 0.0000 0.0000 0.0000
# 4 0.0000 0.0000 0.0000 -25.5522 0.0000 0.0000
# 5 0.0000 0.0000 0.0000 0.0000 -12.1836 0.0000
# 6 0.0000 0.0000 0.0000 0.0000 0.0000 23.9457
#
#
#
# Elastic Compliance Matrix: (Units=1/GPa)
#
#
# Indices 1 2 3 4 5 6 
#
# 1 0.008866 -0.002611 0.001960 0.000000 0.000000 0.000000
# 2 -0.002611 0.008784 0.001390 0.000000 0.000000 0.000000
# 3 0.001960 0.001390 0.017130 0.000000 0.000000 0.000000
# 4 0.000000 0.000000 0.000000 -0.039136 0.000000 0.000000
# 5 0.000000 0.000000 0.000000 0.000000 -0.082077 0.000000
# 6 0.000000 0.000000 0.000000 0.000000 0.000000 0.041761
#
#
# Mechanical properties :
#
#
# Convention : Reuss Voigt Hill
#
# Bulk Modulus (GPa) = 27.57999 37.22127 32.40063
# Shear Modulus (GPa) = -146.77682 17.98468 -64.39607
#
# Velocity S-wave (km/s) = -8.01278 2.80483 -5.30743
# Velocity P-wave (km/s) = 8.57566 5.17408 4.83585
#
# Compressibility (1/GPa) = 0.03625817
#
# Stress axis : x y z
#
# Youngs Moduli (GPa) = 112.79574 113.84434 58.37809
#
# Poissons Ratio (x) = 0.29726 -0.11445
# Poissons Ratio (y) = 0.29452 -0.08115
# Poissons Ratio (z) = -0.22113 -0.15826
#
# Static dielectric constant tensor:
#      x y z
#    x 1.797580 0.000000 0.000000 
#    y 0.000000 1.858230 0.000000 
#    z 0.000000 0.000000 1.984390 
# 
# From -- ./inp_files/17274.got.cif
#   From: 2010.05.17/outbox.cif.g08.bks.cpg/sg49_9_cif.got.tgz:17274.got - 2010.06.03 21:02:19.
