data_PCOD9392596
_publ_section_title
;
Structure prediction by ZEFSAII (Michael W. Deem and Ramdas Pophale) SiO2 
 PCOD9392596
Probable space group: P C C M
;
_chemical_formula_sum "Si O2"
_cell_formula_units_Z 64
_cell_length_a 27.478875
_cell_length_b 18.893389
_cell_length_c 8.824746
_cell_angle_alpha 90.000000
_cell_angle_beta 90.000000
_cell_angle_gamma 90.000000
_cell_volume 4581.535215
_symmetry_space_group_name_H-M "P C C M"
_symmetry_group_IT_number 49
_symmetry_cell_setting 'orthorhombic'
loop_
_space_group_symop_operation_xyz
x,y,z
-x,-y,z
x,-y,1/2-z
-x,y,1/2-z
-x,-y,-z
x,y,-z
-x,y,1/2+z
x,-y,1/2+z
loop_
_atom_site_type_symbol
_atom_site_label
_atom_site_fract_x
_atom_site_fract_y
_atom_site_fract_z
Si Si1 0.695732 0.709023 0.181835
Si Si2 0.348402 0.077852 0.818404
Si Si3 0.048627 0.079283 0.681279
Si Si4 0.550682 0.656203 0.681599
Si Si5 0.752728 0.157166 0.681008
Si Si6 0.843632 0.921344 0.319304
Si Si7 0.603931 0.792763 0.318433
Si Si8 0.348794 0.422189 0.682462
O O1 0.741331 0.760317 0.213481
O O2 0.651273 0.750298 0.260912
O O3 0.691684 0.630823 0.249257
O O4 0.688704 0.707766 0.000000
O O5 0.295693 0.111987 0.776163
O O6 0.390001 0.130683 0.756261
O O7 0.352335 0.000000 0.750000
O O8 0.350666 0.075874 0.000000
O O9 0.043728 0.075435 0.500000
O O10 0.102343 0.108288 0.718840
O O11 0.000000 0.113918 0.750000
O O12 0.049981 0.000000 0.750000
O O13 0.500000 0.631247 0.750000
O O14 0.547984 0.653455 0.500000
O O15 0.561031 0.738404 0.725032
O O16 0.598031 0.610204 0.726257
O O17 0.758141 0.149601 0.500000
O O18 0.799987 0.126697 0.760652
O O19 0.841084 0.928083 0.500000
O O20 0.838752 0.000000 0.250000
O O21 0.604752 0.799256 0.500000
O O22 0.344119 0.500000 0.750000
O O23 0.346033 0.422400 0.500000
#
# Coordination Sequence:
#
# PCOD9392596 Si02
#       8
#     8   8   8   8   8   8   8   8
#     4   9  17  30  46  63  82 107 136 164 194 234
#     4  10  19  29  42  61  81 104 132 165 204 244
#     4   9  16  25  36  50  67  94 132 173 214 254
#     4   9  19  32  47  66  86 108 133 159 192 231
#     4   9  18  29  41  58  80 105 134 164 201 244
#     4  10  19  27  37  54  77 104 137 176 217 253
#     4   9  17  30  45  62  82 105 133 162 193 236
#     4  10  20  33  48  68  90 112 136 162 191 226
#
# _framework density 13.969117000000001
#
# number of rings (size 3 to 8) (size 9 to 14) (size 15 to 20)
#    0.000    2.625    0.000    4.500    0.000    8.750 
#    0.000    1.250    0.000    0.375    0.000    2.625 
#    0.000    0.000    0.000    0.000    0.000    0.625 
#
# Total GULP energy -356309.577539 kJ/mol
# GULP energy per Si atom -5567.337149 kJ/mol
# Density = 1.393732 g / cm^3
# Si number density = 13.969117 Si / 1000 Ang^3
#
#
#
# Elastic Constant Matrix: (Units=GPa)
#
#
# Indices 1 2 3 4 5 6 
#
# 1 48.7859 27.1308 17.6999 0.0000 0.0000 0.0000
# 2 27.1308 96.9570 27.8421 0.0000 0.0000 0.0000
# 3 17.6999 27.8421 36.1593 0.0000 0.0000 0.0000
# 4 0.0000 0.0000 0.0000 17.4646 0.0000 0.0000
# 5 0.0000 0.0000 0.0000 0.0000 21.1772 0.0000
# 6 0.0000 0.0000 0.0000 0.0000 0.0000 5.3506
#
#
#
# Elastic Compliance Matrix: (Units=1/GPa)
#
#
# Indices 1 2 3 4 5 6 
#
# 1 0.026520 -0.004741 -0.009331 0.000000 0.000000 0.000000
# 2 -0.004741 0.014089 -0.008528 0.000000 0.000000 0.000000
# 3 -0.009331 -0.008528 0.038789 0.000000 0.000000 0.000000
# 4 0.000000 0.000000 0.000000 0.057259 0.000000 0.000000
# 5 0.000000 0.000000 0.000000 0.000000 0.047221 0.000000
# 6 0.000000 0.000000 0.000000 0.000000 0.000000 0.186894
#
#
# Mechanical properties :
#
#
# Convention : Reuss Voigt Hill
#
# Bulk Modulus (GPa) = 29.24089 36.36085 32.80087
# Shear Modulus (GPa) = 11.69946 16.08044 13.88995
#
# Velocity S-wave (km/s) = 2.89714 3.39653 3.15672
# Velocity P-wave (km/s) = 5.67179 6.43955 6.06783
#
# Compressibility (1/GPa) = 0.03419868
#
# Stress axis : x y z
#
# Youngs Moduli (GPa) = 37.70772 70.97525 25.78058
#
# Poissons Ratio (x) = 0.33653 0.24055
# Poissons Ratio (y) = 0.17879 0.21985
# Poissons Ratio (z) = 0.35183 0.60525
#
# Static dielectric constant tensor:
#      x y z
#    x 1.471730 0.000000 0.000000 
#    y 0.000000 1.513950 0.000000 
#    z 0.000000 0.000000 1.465430 
# 
# From -- ./inp_files/5444.got.cif
#   From: 2010.05.17/outbox.cif.g08.bks.cpg/sg49_3_cif.got.tgz:5444.got - 2010.06.03 21:02:19.
