data_PCOD9392681
_publ_section_title
;
Structure prediction by ZEFSAII (Michael W. Deem and Ramdas Pophale) SiO2 
 PCOD9392681
Probable space group: P C C M
;
_chemical_formula_sum "Si O2"
_cell_formula_units_Z 64
_cell_length_a 14.430747
_cell_length_b 9.053145
_cell_length_c 29.776189
_cell_angle_alpha 90.000000
_cell_angle_beta 90.000000
_cell_angle_gamma 90.000000
_cell_volume 3890.069867
_symmetry_space_group_name_H-M "P C C M"
_symmetry_group_IT_number 49
_symmetry_cell_setting 'orthorhombic'
loop_
_space_group_symop_operation_xyz
x,y,z
-x,-y,z
x,-y,1/2-z
-x,y,1/2-z
-x,-y,-z
x,y,-z
-x,y,1/2+z
x,-y,1/2+z
loop_
_atom_site_type_symbol
_atom_site_label
_atom_site_fract_x
_atom_site_fract_y
_atom_site_fract_z
Si Si1 0.894617 0.524448 0.874991
Si Si2 0.754949 0.022514 0.200960
Si Si3 0.441196 0.359200 0.589742
Si Si4 0.389892 0.177891 0.948746
Si Si5 0.598791 0.053347 0.130411
Si Si6 0.114129 0.288828 0.294736
Si Si7 0.267404 0.462490 0.947173
Si Si8 0.093153 0.768926 0.304466
O O1 0.883731 0.413911 0.832490
O O2 0.817859 0.508149 0.913502
O O3 0.887058 0.681786 0.850157
O O4 0.000000 0.500000 0.891951
O O5 0.840387 0.908636 0.198382
O O6 0.711522 0.000000 0.250000
O O7 0.680864 0.004648 0.162451
O O8 0.799365 0.183478 0.197936
O O9 0.500000 0.500000 0.608747
O O10 0.515464 0.271307 0.559040
O O11 0.406219 0.229697 0.622781
O O12 0.352979 0.428232 0.564488
O O13 0.308292 0.296831 0.939811
O O14 0.389339 0.038630 0.915786
O O15 0.384515 0.129303 0.000000
O O16 0.500000 0.000000 0.149061
O O17 0.112121 0.325220 0.241423
O O18 0.016798 0.202842 0.302631
O O19 0.243641 0.476675 0.000000
#
# Coordination Sequence:
#
# PCOD9392681 Si02
#       8
#     8   8   8   8   8   8   8   8
#     4  10  19  30  46  68  95 126 156 189 228 274
#     4  10  19  31  48  70  95 124 154 187 227 274
#     4   9  18  32  50  71  93 116 150 195 239 276
#     4   9  18  32  50  71  92 116 151 195 240 278
#     4  10  20  32  48  70  95 124 154 187 229 278
#     4   9  17  30  48  71  93 117 152 195 238 274
#     4  10  19  31  47  67  94 126 156 189 229 276
#     4   9  17  30  49  70  93 118 151 195 239 274
#
# _framework density 16.452145999999999
#
# number of rings (size 3 to 8) (size 9 to 14) (size 15 to 20)
#    0.000    2.500    0.000    2.625    0.000    7.750 
#    0.000    0.000    0.000    0.000    0.000    7.000 
#    0.000   14.000    0.000    0.000    0.000    0.000 
#
# Total GULP energy -356359.594844 kJ/mol
# GULP energy per Si atom -5568.118669 kJ/mol
# Density = 1.641470 g / cm^3
# Si number density = 16.452146 Si / 1000 Ang^3
#
#
#
# Elastic Constant Matrix: (Units=GPa)
#
#
# Indices 1 2 3 4 5 6 
#
# 1 81.0451 17.9353 59.0710 0.0000 0.0000 0.0000
# 2 17.9353 58.9085 26.3103 0.0000 0.0000 0.0000
# 3 59.0710 26.3103 81.2512 0.0000 0.0000 0.0000
# 4 0.0000 0.0000 0.0000 10.7347 0.0000 0.0000
# 5 0.0000 0.0000 0.0000 0.0000 20.3906 0.0000
# 6 0.0000 0.0000 0.0000 0.0000 0.0000 12.3019
#
#
#
# Elastic Compliance Matrix: (Units=1/GPa)
#
#
# Indices 1 2 3 4 5 6 
#
# 1 0.026267 0.000622 -0.019298 0.000000 0.000000 0.000000
# 2 0.000622 0.019860 -0.006883 0.000000 0.000000 0.000000
# 3 -0.019298 -0.006883 0.028566 0.000000 0.000000 0.000000
# 4 0.000000 0.000000 0.000000 0.093156 0.000000 0.000000
# 5 0.000000 0.000000 0.000000 0.000000 0.049042 0.000000
# 6 0.000000 0.000000 0.000000 0.000000 0.000000 0.081288
#
#
# Mechanical properties :
#
#
# Convention : Reuss Voigt Hill
#
# Bulk Modulus (GPa) = 42.41757 47.53756 44.97756
# Shear Modulus (GPa) = 13.99950 16.54465 15.27208
#
# Velocity S-wave (km/s) = 2.92022 3.17460 3.05006
# Velocity P-wave (km/s) = 6.09989 6.51111 6.30885
#
# Compressibility (1/GPa) = 0.02357514
#
# Stress axis : x y z
#
# Youngs Moduli (GPa) = 38.07117 50.35143 35.00656
#
# Poissons Ratio (x) = -0.03131 0.67554
# Poissons Ratio (y) = -0.02367 0.24096
# Poissons Ratio (z) = 0.73468 0.34658
#
# Static dielectric constant tensor:
#      x y z
#    x 1.542320 0.000000 0.000000 
#    y 0.000000 1.575010 0.000000 
#    z 0.000000 0.000000 1.535940 
# 
# From -- ./inp_files/23228.got.cif
#   From: 2010.05.17/outbox.cif.g08.bks.cpg/sg49_12_cif.got.tgz:23228.got - 2010.06.03 21:02:19.
