data_PCOD9392172
_publ_section_title
;
Structure prediction by ZEFSAII (Michael W. Deem and Ramdas Pophale) SiO2 
 PCOD9392172
Probable space group: P C C M
;
_chemical_formula_sum "Si O2"
_cell_formula_units_Z 48
_cell_length_a 32.463829
_cell_length_b 9.232088
_cell_length_c 8.670765
_cell_angle_alpha 90.000000
_cell_angle_beta 90.000000
_cell_angle_gamma 90.000000
_cell_volume 2598.705667
_symmetry_space_group_name_H-M "P C C M"
_symmetry_group_IT_number 49
_symmetry_cell_setting 'orthorhombic'
loop_
_space_group_symop_operation_xyz
x,y,z
-x,-y,z
x,-y,1/2-z
-x,y,1/2-z
-x,-y,-z
x,y,-z
-x,y,1/2+z
x,-y,1/2+z
loop_
_atom_site_type_symbol
_atom_site_label
_atom_site_fract_x
_atom_site_fract_y
_atom_site_fract_z
Si Si1 0.042172 0.664718 0.815791
Si Si2 0.127493 0.662585 0.684804
Si Si3 0.541763 0.164167 0.815412
Si Si4 0.632313 0.162745 0.814089
Si Si5 0.210069 0.838592 0.315255
Si Si6 0.287207 0.338619 0.314617
O O1 0.042884 0.500000 0.750000
O O2 0.085457 0.726837 0.756501
O O3 0.000000 0.731978 0.750000
O O4 0.040818 0.660729 0.000000
O O5 0.133120 0.500000 0.750000
O O6 0.122879 0.653981 0.500000
O O7 0.167523 0.756513 0.722930
O O8 0.500000 0.234052 0.750000
O O9 0.586909 0.223365 0.771394
O O10 0.542537 0.000000 0.750000
O O11 0.538681 0.159080 0.000000
O O12 0.670420 0.260813 0.763712
O O13 0.636602 0.000000 0.750000
O O14 0.633227 0.153349 0.000000
O O15 0.214024 0.841977 0.500000
O O16 0.248461 0.752191 0.245426
O O17 0.209495 0.000000 0.250000
O O18 0.285157 0.500000 0.250000
O O19 0.286411 0.342080 0.500000
#
# Coordination Sequence:
#
# PCOD9392172 Si02
#       6
#     8   8   8   8   8   8
#     4  10  17  27  46  73 106 141 177 218 262 307
#     4  10  20  34  53  79 109 141 178 219 264 312
#     4   9  15  25  42  68 100 132 168 209 255 303
#     4   9  19  33  51  76 106 138 173 216 262 312
#     4  11  24  40  59  82 109 141 177 220 268 320
#     4  11  23  39  58  80 107 139 177 220 267 320
#
# _framework density 18.470732999999999
#
# number of rings (size 3 to 8) (size 9 to 14) (size 15 to 20)
#    0.000    2.000    0.000    6.500    0.000    7.333 
#    0.000    0.000    0.000    1.000    0.000    7.000 
#    0.000    0.000    0.000    0.000    0.000    0.000 
#
# Total GULP energy -267828.572591 kJ/mol
# GULP energy per Si atom -5579.761929 kJ/mol
# Density = 1.842869 g / cm^3
# Si number density = 18.470733 Si / 1000 Ang^3
#
#
#
# Elastic Constant Matrix: (Units=GPa)
#
#
# Indices 1 2 3 4 5 6 
#
# 1 231.7952 80.9485 78.2115 0.0000 0.0000 0.0000
# 2 80.9485 83.2506 32.0750 0.0000 0.0000 0.0000
# 3 78.2115 32.0750 79.2801 0.0000 0.0000 0.0000
# 4 0.0000 0.0000 0.0000 22.4858 0.0000 0.0000
# 5 0.0000 0.0000 0.0000 0.0000 18.4255 0.0000
# 6 0.0000 0.0000 0.0000 0.0000 0.0000 21.5688
#
#
#
# Elastic Compliance Matrix: (Units=1/GPa)
#
#
# Indices 1 2 3 4 5 6 
#
# 1 0.008330 -0.005845 -0.005853 0.000000 0.000000 0.000000
# 2 -0.005845 0.018331 -0.001650 0.000000 0.000000 0.000000
# 3 -0.005853 -0.001650 0.019056 0.000000 0.000000 0.000000
# 4 0.000000 0.000000 0.000000 0.044473 0.000000 0.000000
# 5 0.000000 0.000000 0.000000 0.000000 0.054272 0.000000
# 6 0.000000 0.000000 0.000000 0.000000 0.000000 0.046363
#
#
# Mechanical properties :
#
#
# Convention : Reuss Voigt Hill
#
# Bulk Modulus (GPa) = 52.57624 86.31064 69.44344
# Shear Modulus (GPa) = 22.33518 26.03540 24.18529
#
# Velocity S-wave (km/s) = 3.48116 3.75847 3.62247
# Velocity P-wave (km/s) = 6.68464 8.10337 7.42795
#
# Compressibility (1/GPa) = 0.01902000
#
# Stress axis : x y z
#
# Youngs Moduli (GPa) = 120.04370 54.55273 52.47784
#
# Poissons Ratio (x) = 0.31885 0.30717
# Poissons Ratio (y) = 0.70162 0.08661
# Poissons Ratio (z) = 0.70266 0.09003
#
# Static dielectric constant tensor:
#      x y z
#    x 1.698420 0.000000 0.000000 
#    y 0.000000 1.601190 0.000000 
#    z 0.000000 0.000000 1.621830 
# 
# From -- ./inp_files/6864.got.cif
#   From: 2010.05.17/outbox.cif.g08.bks.cpg/sg49_4_cif.got.tgz:6864.got - 2010.06.03 21:02:19.
