data_PCOD9392613
_publ_section_title
;
Structure prediction by ZEFSAII (Michael W. Deem and Ramdas Pophale) SiO2 
 PCOD9392613
Probable space group: P C C M
;
_chemical_formula_sum "Si O2"
_cell_formula_units_Z 64
_cell_length_a 18.851951
_cell_length_b 26.836539
_cell_length_c 8.837553
_cell_angle_alpha 90.000000
_cell_angle_beta 90.000000
_cell_angle_gamma 90.000000
_cell_volume 4471.104696
_symmetry_space_group_name_H-M "P C C M"
_symmetry_group_IT_number 49
_symmetry_cell_setting 'orthorhombic'
loop_
_space_group_symop_operation_xyz
x,y,z
-x,-y,z
x,-y,1/2-z
-x,y,1/2-z
-x,-y,-z
x,y,-z
-x,y,1/2+z
x,-y,1/2+z
loop_
_atom_site_type_symbol
_atom_site_label
_atom_site_fract_x
_atom_site_fract_y
_atom_site_fract_z
Si Si1 0.784473 0.797038 0.827191
Si Si2 0.420715 0.450386 0.180562
Si Si3 0.579124 0.660280 0.181330
Si Si4 0.715910 0.092090 0.327131
Si Si5 0.650946 0.243722 0.820862
Si Si6 0.076681 0.150325 0.817817
Si Si7 0.851271 0.052296 0.179193
Si Si8 0.422757 0.145620 0.817583
O O1 0.750034 0.852444 0.830989
O O2 0.733014 0.765425 0.722157
O O3 0.864921 0.807506 0.778474
O O4 0.782478 0.778018 0.000000
O O5 0.385859 0.500000 0.250000
O O6 0.500000 0.448784 0.250000
O O7 0.390986 0.395314 0.214271
O O8 0.425400 0.455900 0.000000
O O9 0.500000 0.663360 0.250000
O O10 0.624083 0.704657 0.251954
O O11 0.574775 0.665718 0.000000
O O12 0.717857 0.072748 0.500000
O O13 0.768484 0.060942 0.222745
O O14 0.635267 0.102921 0.278595
O O15 0.606639 0.198052 0.747050
O O16 0.640555 0.242582 0.000000
O O17 0.105462 0.098050 0.751826
O O18 0.000000 0.160777 0.750000
O O19 0.074778 0.146794 0.000000
O O20 0.874390 0.000000 0.250000
O O21 0.860156 0.052429 0.000000
O O22 0.500000 0.135967 0.750000
O O23 0.424936 0.148935 0.000000
#
# Coordination Sequence:
#
# PCOD9392613 Si02
#       8
#     8   8   8   8   8   8   8   8
#     4   8  16  31  47  62  84 111 135 162 196 237
#     4   9  16  25  38  52  69  97 133 175 218 260
#     4  10  19  29  39  54  78 107 140 179 223 261
#     4   8  16  31  47  63  83 107 134 164 199 239
#     4  11  20  28  41  60  82 108 139 173 208 247
#     4  10  20  34  51  71  93 114 137 164 194 229
#     4  11  21  33  50  69  89 112 137 164 196 235
#     4  10  19  30  44  61  83 107 132 166 206 248
#
# _framework density 14.314137000000001
#
# number of rings (size 3 to 8) (size 9 to 14) (size 15 to 20)
#    0.000    2.375    0.000    6.000    0.000    7.250 
#    0.000    1.250    0.000    0.375    0.000    2.625 
#    0.000    0.000    0.000    0.000    0.000    0.625 
#
# Total GULP energy -356664.101633 kJ/mol
# GULP energy per Si atom -5572.876588 kJ/mol
# Density = 1.428156 g / cm^3
# Si number density = 14.314137 Si / 1000 Ang^3
#
#
#
# Elastic Constant Matrix: (Units=GPa)
#
#
# Indices 1 2 3 4 5 6 
#
# 1 88.3746 12.8670 25.6277 0.0000 0.0000 0.0000
# 2 12.8670 34.4610 20.0618 0.0000 0.0000 0.0000
# 3 25.6277 20.0618 68.3976 0.0000 0.0000 0.0000
# 4 0.0000 0.0000 0.0000 20.7014 0.0000 0.0000
# 5 0.0000 0.0000 0.0000 0.0000 14.4564 0.0000
# 6 0.0000 0.0000 0.0000 0.0000 0.0000 9.7418
#
#
#
# Elastic Compliance Matrix: (Units=1/GPa)
#
#
# Indices 1 2 3 4 5 6 
#
# 1 0.012858 -0.002407 -0.004112 0.000000 0.000000 0.000000
# 2 -0.002407 0.035444 -0.009494 0.000000 0.000000 0.000000
# 3 -0.004112 -0.009494 0.018946 0.000000 0.000000 0.000000
# 4 0.000000 0.000000 0.000000 0.048306 0.000000 0.000000
# 5 0.000000 0.000000 0.000000 0.000000 0.069173 0.000000
# 6 0.000000 0.000000 0.000000 0.000000 0.000000 0.102650
#
#
# Mechanical properties :
#
#
# Convention : Reuss Voigt Hill
#
# Bulk Modulus (GPa) = 28.39146 34.26066 31.32606
# Shear Modulus (GPa) = 15.09911 17.82505 16.46208
#
# Velocity S-wave (km/s) = 3.25135 3.53267 3.39493
# Velocity P-wave (km/s) = 5.82861 6.37389 6.10734
#
# Compressibility (1/GPa) = 0.03522185
#
# Stress axis : x y z
#
# Youngs Moduli (GPa) = 77.77066 28.21325 52.78222
#
# Poissons Ratio (x) = 0.06792 0.21703
# Poissons Ratio (y) = 0.18722 0.50113
# Poissons Ratio (z) = 0.31977 0.26786
#
# Static dielectric constant tensor:
#      x y z
#    x 1.482900 0.000000 0.000000 
#    y 0.000000 1.477490 0.000000 
#    z 0.000000 0.000000 1.477020 
# 
# From -- ./inp_files/5451.got.cif
#   From: 2010.05.17/outbox.cif.g08.bks.cpg/sg49_3_cif.got.tgz:5451.got - 2010.06.03 21:02:19.
