data_PCOD9392308
_publ_section_title
;
Structure prediction by ZEFSAII (Michael W. Deem and Ramdas Pophale) SiO2 
 PCOD9392308
Probable space group: P C C M
;
_chemical_formula_sum "Si O2"
_cell_formula_units_Z 64
_cell_length_a 22.505025
_cell_length_b 22.036400
_cell_length_c 8.788279
_cell_angle_alpha 90.000000
_cell_angle_beta 90.000000
_cell_angle_gamma 90.000000
_cell_volume 4358.368857
_symmetry_space_group_name_H-M "P C C M"
_symmetry_group_IT_number 49
_symmetry_cell_setting 'orthorhombic'
loop_
_space_group_symop_operation_xyz
x,y,z
-x,-y,z
x,-y,1/2-z
-x,y,1/2-z
-x,-y,-z
x,y,-z
-x,y,1/2+z
x,-y,1/2+z
loop_
_atom_site_type_symbol
_atom_site_label
_atom_site_fract_x
_atom_site_fract_y
_atom_site_fract_z
Si Si1 0.338824 0.662682 0.326231
Si Si2 0.852173 0.166085 0.816372
Si Si3 0.063097 0.067866 0.183215
Si Si4 0.748868 0.248985 0.825162
Si Si5 0.849655 0.354819 0.826486
Si Si6 0.433503 0.434712 0.814593
Si Si7 0.064620 0.269798 0.179091
Si Si8 0.762922 0.560209 0.826138
O O1 0.353188 0.678403 0.500000
O O2 0.309521 0.722240 0.251229
O O3 0.394178 0.623386 0.264003
O O4 0.286502 0.612471 0.325780
O O5 0.880688 0.106678 0.740763
O O6 0.786896 0.191023 0.765577
O O7 0.898109 0.218294 0.766009
O O8 0.851490 0.160749 0.000000
O O9 0.000000 0.092737 0.250000
O O10 0.067980 0.000000 0.250000
O O11 0.059915 0.067295 0.000000
O O12 0.798030 0.303096 0.822226
O O13 0.734349 0.236268 0.000000
O O14 0.900542 0.331782 0.714806
O O15 0.818355 0.415496 0.770004
O O16 0.870860 0.358498 0.000000
O O17 0.411576 0.500000 0.750000
O O18 0.500000 0.427985 0.750000
O O19 0.432952 0.437461 0.000000
O O20 0.000000 0.272099 0.250000
O O21 0.063320 0.256850 0.000000
O O22 0.738448 0.500000 0.750000
O O23 0.779836 0.548896 0.000000
#
# Coordination Sequence:
#
# PCOD9392308 Si02
#       8
#     8   8   8   8   8   8   8   8
#     4   9  18  29  42  60  83 106 135 171 209 248
#     4  10  19  32  46  64  87 110 138 173 209 249
#     4  11  21  33  47  64  87 118 151 185 219 255
#     4   8  16  28  44  62  81 104 131 165 208 249
#     4   9  17  30  43  58  78  98 121 155 195 239
#     4  10  19  30  42  59  82 113 147 182 216 253
#     4  11  20  30  44  62  80 101 127 158 197 241
#     4  10  18  28  42  60  78  99 124 156 196 241
#
# _framework density 14.684391
#
# number of rings (size 3 to 8) (size 9 to 14) (size 15 to 20)
#    0.000    2.250    0.000    6.000    0.000    5.000 
#    0.000    0.000    0.000    0.375    0.000    2.625 
#    0.000    0.000    0.000    0.000    0.000    0.625 
#
# Total GULP energy -356356.908634 kJ/mol
# GULP energy per Si atom -5568.076697 kJ/mol
# Density = 1.465097 g / cm^3
# Si number density = 14.684391 Si / 1000 Ang^3
#
#
#
# Elastic Constant Matrix: (Units=GPa)
#
#
# Indices 1 2 3 4 5 6 
#
# 1 62.2044 30.6614 17.6779 0.0000 0.0000 0.0000
# 2 30.6614 47.5185 23.0491 0.0000 0.0000 0.0000
# 3 17.6779 23.0491 68.4151 0.0000 0.0000 0.0000
# 4 0.0000 0.0000 0.0000 21.4002 0.0000 0.0000
# 5 0.0000 0.0000 0.0000 0.0000 17.1931 0.0000
# 6 0.0000 0.0000 0.0000 0.0000 0.0000 28.0541
#
#
#
# Elastic Compliance Matrix: (Units=1/GPa)
#
#
# Indices 1 2 3 4 5 6 
#
# 1 0.023650 -0.014698 -0.001159 0.000000 0.000000 0.000000
# 2 -0.014698 0.034290 -0.007754 0.000000 0.000000 0.000000
# 3 -0.001159 -0.007754 0.017529 0.000000 0.000000 0.000000
# 4 0.000000 0.000000 0.000000 0.046728 0.000000 0.000000
# 5 0.000000 0.000000 0.000000 0.000000 0.058163 0.000000
# 6 0.000000 0.000000 0.000000 0.000000 0.000000 0.035645
#
#
# Mechanical properties :
#
#
# Convention : Reuss Voigt Hill
#
# Bulk Modulus (GPa) = 35.40417 35.65720 35.53069
# Shear Modulus (GPa) = 18.33891 20.44612 19.39251
#
# Velocity S-wave (km/s) = 3.53777 3.73550 3.63798
# Velocity P-wave (km/s) = 6.39141 6.55289 6.47265
#
# Compressibility (1/GPa) = 0.02824526
#
# Stress axis : x y z
#
# Youngs Moduli (GPa) = 42.28252 29.16320 57.04946
#
# Poissons Ratio (x) = 0.42865 0.06613
# Poissons Ratio (y) = 0.62148 0.44238
# Poissons Ratio (z) = 0.04902 0.22614
#
# Static dielectric constant tensor:
#      x y z
#    x 1.498800 0.000000 0.000000 
#    y 0.000000 1.504970 0.000000 
#    z 0.000000 0.000000 1.503460 
# 
# From -- ./inp_files/6134.got.cif
#   From: 2010.05.17/outbox.cif.g08.bks.cpg/sg49_4_cif.got.tgz:6134.got - 2010.06.03 21:02:19.
