data_PCOD9392511
_publ_section_title
;
Structure prediction by ZEFSAII (Michael W. Deem and Ramdas Pophale) SiO2 
 PCOD9392511
Probable space group: P C C M
;
_chemical_formula_sum "Si O2"
_cell_formula_units_Z 64
_cell_length_a 25.440543
_cell_length_b 15.214901
_cell_length_c 8.690574
_cell_angle_alpha 90.000000
_cell_angle_beta 90.000000
_cell_angle_gamma 90.000000
_cell_volume 3363.906913
_symmetry_space_group_name_H-M "P C C M"
_symmetry_group_IT_number 49
_symmetry_cell_setting 'orthorhombic'
loop_
_space_group_symop_operation_xyz
x,y,z
-x,-y,z
x,-y,1/2-z
-x,y,1/2-z
-x,-y,-z
x,y,-z
-x,y,1/2+z
x,-y,1/2+z
loop_
_atom_site_type_symbol
_atom_site_label
_atom_site_fract_x
_atom_site_fract_y
_atom_site_fract_z
Si Si1 0.856745 0.729254 0.685404
Si Si2 0.338340 0.337047 0.321678
Si Si3 0.587055 0.089856 0.317082
Si Si4 0.445585 0.717016 0.683206
Si Si5 0.812516 0.905443 0.815965
Si Si6 0.941080 0.405175 0.314979
Si Si7 0.231834 0.409580 0.685125
Si Si8 0.697797 0.134583 0.821363
O O1 0.860599 0.733398 0.500000
O O2 0.848290 0.825962 0.753287
O O3 0.904751 0.673511 0.754072
O O4 0.804927 0.672104 0.726388
O O5 0.348377 0.359494 0.500000
O O6 0.393364 0.333983 0.234673
O O7 0.291369 0.396126 0.256855
O O8 0.313413 0.238989 0.319473
O O9 0.583220 0.087598 0.500000
O O10 0.562063 0.181582 0.260236
O O11 0.648045 0.095053 0.266962
O O12 0.564314 0.000000 0.250000
O O13 0.500000 0.682075 0.750000
O O14 0.448163 0.718557 0.500000
O O15 0.753171 0.887862 0.754919
O O16 0.829042 0.000000 0.750000
O O17 0.812567 0.906487 0.000000
O O18 0.922437 0.500000 0.250000
O O19 0.941488 0.408024 0.500000
O O20 0.000000 0.393715 0.250000
O O21 0.209881 0.500000 0.750000
O O22 0.233658 0.412954 0.500000
O O23 0.698119 0.105825 0.000000
#
# Coordination Sequence:
#
# PCOD9392511 Si02
#       8
#     8   8   8   8   8   8   8   8
#     4  11  22  40  61  88 126 164 204 252 300 352
#     4   9  18  35  55  76 106 143 179 223 277 337
#     4  10  20  32  46  69  97 129 172 220 276 337
#     4  10  21  35  52  73  95 128 174 223 276 339
#     4  12  24  37  55  81 115 158 205 251 298 352
#     4  11  22  39  63  95 129 170 213 256 305 356
#     4  10  21  36  57  87 121 155 188 226 285 349
#     4  10  18  33  53  73 103 143 186 232 283 337
#
# _framework density 19.025497000000001
#
# number of rings (size 3 to 8) (size 9 to 14) (size 15 to 20)
#    0.000    1.625    1.250    4.875    0.000    4.750 
#    0.000    1.250    0.000    0.750    0.000    5.250 
#    0.000    0.000    0.000    0.000    0.000    0.000 
#
# Total GULP energy -357568.233579 kJ/mol
# GULP energy per Si atom -5587.003650 kJ/mol
# Density = 1.898219 g / cm^3
# Si number density = 19.025497 Si / 1000 Ang^3
#
#
#
# Elastic Constant Matrix: (Units=GPa)
#
#
# Indices 1 2 3 4 5 6 
#
# 1 109.5015 48.1619 37.0213 0.0000 0.0000 0.0000
# 2 48.1619 92.7650 31.7104 0.0000 0.0000 0.0000
# 3 37.0213 31.7104 86.2603 0.0000 0.0000 0.0000
# 4 0.0000 0.0000 0.0000 22.8622 0.0000 0.0000
# 5 0.0000 0.0000 0.0000 0.0000 23.2310 0.0000
# 6 0.0000 0.0000 0.0000 0.0000 0.0000 0.2693
#
#
#
# Elastic Compliance Matrix: (Units=1/GPa)
#
#
# Indices 1 2 3 4 5 6 
#
# 1 0.012675 -0.005400 -0.003455 0.000000 0.000000 0.000000
# 2 -0.005400 0.014630 -0.003061 0.000000 0.000000 0.000000
# 3 -0.003455 -0.003061 0.014201 0.000000 0.000000 0.000000
# 4 0.000000 0.000000 0.000000 0.043740 0.000000 0.000000
# 5 0.000000 0.000000 0.000000 0.000000 0.043046 0.000000
# 6 0.000000 0.000000 0.000000 0.000000 0.000000 3.712950
#
#
# Mechanical properties :
#
#
# Convention : Reuss Voigt Hill
#
# Bulk Modulus (GPa) = 56.57691 58.03489 57.30590
# Shear Modulus (GPa) = 1.29167 20.71472 11.00320
#
# Velocity S-wave (km/s) = 0.82486 3.30326 2.40748
# Velocity P-wave (km/s) = 5.54158 6.71704 6.15743
#
# Compressibility (1/GPa) = 0.01767505
#
# Stress axis : x y z
#
# Youngs Moduli (GPa) = 78.89318 68.35454 70.41882
#
# Poissons Ratio (x) = 0.36910 0.24330
# Poissons Ratio (y) = 0.42601 0.21552
# Poissons Ratio (z) = 0.27258 0.20920
#
# Static dielectric constant tensor:
#      x y z
#    x 1.655300 0.000000 0.000000 
#    y 0.000000 1.685140 0.000000 
#    z 0.000000 0.000000 1.638430 
# 
# From -- ./inp_files/4310.got.cif
#   From: 2010.05.17/outbox.cif.g08.bks.cpg/sg49_3_cif.got.tgz:4310.got - 2010.06.03 21:02:19.
