data_PCOD9392011
_publ_section_title
;
Structure prediction by ZEFSAII (Michael W. Deem and Ramdas Pophale) SiO2 
 PCOD9392011
Probable space group: P C C M
;
_chemical_formula_sum "Si O2"
_cell_formula_units_Z 64
_cell_length_a 28.018360
_cell_length_b 14.556506
_cell_length_c 8.583202
_cell_angle_alpha 90.000000
_cell_angle_beta 90.000000
_cell_angle_gamma 90.000000
_cell_volume 3500.654004
_symmetry_space_group_name_H-M "P C C M"
_symmetry_group_IT_number 49
_symmetry_cell_setting 'orthorhombic'
loop_
_space_group_symop_operation_xyz
x,y,z
-x,-y,z
x,-y,1/2-z
-x,y,1/2-z
-x,-y,-z
x,y,-z
-x,y,1/2+z
x,-y,1/2+z
loop_
_atom_site_type_symbol
_atom_site_label
_atom_site_fract_x
_atom_site_fract_y
_atom_site_fract_z
Si Si1 0.253450 0.801183 0.812432
Si Si2 0.049655 0.362255 0.315435
Si Si3 0.549297 0.104911 0.685781
Si Si4 0.756786 0.405079 0.179200
Si Si5 0.154804 0.151299 0.176563
Si Si6 0.351903 0.896623 0.187090
Si Si7 0.852719 0.373696 0.674389
Si Si8 0.049809 0.846545 0.690243
O O1 0.254963 0.695585 0.751076
O O2 0.205596 0.856049 0.762497
O O3 0.302825 0.848049 0.765841
O O4 0.251504 0.796109 0.000000
O O5 0.054027 0.374086 0.500000
O O6 0.094556 0.400788 0.222764
O O7 0.049472 0.253202 0.273520
O O8 0.000000 0.398130 0.250000
O O9 0.500000 0.146918 0.750000
O O10 0.548252 0.102437 0.500000
O O11 0.599193 0.146147 0.745562
O O12 0.549865 0.000000 0.750000
O O13 0.737931 0.500000 0.250000
O O14 0.813976 0.405819 0.202026
O O15 0.743326 0.403970 0.000000
O O16 0.147971 0.262289 0.173789
O O17 0.102813 0.114434 0.231899
O O18 0.161342 0.118242 0.000000
O O19 0.349212 0.000000 0.250000
O O20 0.355225 0.897491 0.000000
O O21 0.839794 0.403937 0.500000
O O22 0.048522 0.837493 0.500000
O O23 0.000000 0.890897 0.750000
#
# Coordination Sequence:
#
# PCOD9392011 Si02
#       8
#     8   8   8   8   8   8   8   8
#     4   9  19  32  47  66  93 125 159 195 237 282
#     4  10  16  22  33  50  71  97 128 166 210 262
#     4  10  17  27  44  68  98 135 172 206 237 271
#     4  10  19  32  48  67  87 114 149 190 235 279
#     4   8  15  25  38  56  80 108 143 183 227 274
#     4  10  19  32  48  71 101 135 170 204 236 276
#     4   9  16  27  40  56  76 101 134 176 220 268
#     4   9  15  22  32  50  74 102 135 176 222 273
#
# _framework density 18.282297
#
# number of rings (size 3 to 8) (size 9 to 14) (size 15 to 20)
#    0.000    2.625    0.000    6.375    0.000    5.000 
#    0.000    0.000    0.000    0.375    0.000    2.625 
#    0.000    1.000    0.000   11.250    0.000    9.500 
#
# Total GULP energy -356444.944730 kJ/mol
# GULP energy per Si atom -5569.452261 kJ/mol
# Density = 1.824069 g / cm^3
# Si number density = 18.282297 Si / 1000 Ang^3
#
#
#
# Elastic Constant Matrix: (Units=GPa)
#
#
# Indices 1 2 3 4 5 6 
#
# 1 166.8666 28.4575 32.0280 0.0000 0.0000 0.0000
# 2 28.4575 36.2345 1.6469 0.0000 0.0000 0.0000
# 3 32.0280 1.6469 61.1777 0.0000 0.0000 0.0000
# 4 0.0000 0.0000 0.0000 -0.5939 0.0000 0.0000
# 5 0.0000 0.0000 0.0000 0.0000 31.1260 0.0000
# 6 0.0000 0.0000 0.0000 0.0000 0.0000 -25.9715
#
#
#
# Elastic Compliance Matrix: (Units=1/GPa)
#
#
# Indices 1 2 3 4 5 6 
#
# 1 0.007748 -0.005908 -0.003897 0.000000 0.000000 0.000000
# 2 -0.005908 0.032137 0.002228 0.000000 0.000000 0.000000
# 3 -0.003897 0.002228 0.018326 0.000000 0.000000 0.000000
# 4 0.000000 0.000000 0.000000 -1.683856 0.000000 0.000000
# 5 0.000000 0.000000 0.000000 0.000000 0.032128 0.000000
# 6 0.000000 0.000000 0.000000 0.000000 0.000000 -0.038504
#
#
# Mechanical properties :
#
#
# Convention : Reuss Voigt Hill
#
# Bulk Modulus (GPa) = 23.22548 43.17151 33.19849
# Shear Modulus (GPa) = -3.12010 14.38855 5.63422
#
# Velocity S-wave (km/s) = -1.30780 2.80843 1.75741
# Velocity P-wave (km/s) = 3.23279 5.84649 4.72400
#
# Compressibility (1/GPa) = 0.04305617
#
# Stress axis : x y z
#
# Youngs Moduli (GPa) = 129.05761 31.11683 54.56652
#
# Poissons Ratio (x) = 0.18385 0.21267
# Poissons Ratio (y) = 0.76251 -0.12157
# Poissons Ratio (z) = 0.50300 -0.06933
#
# Static dielectric constant tensor:
#      x y z
#    x 1.684960 0.000000 0.000000 
#    y 0.000000 1.707840 0.000000 
#    z 0.000000 0.000000 1.631820 
# 
# From -- ./inp_files/6801.got.cif
#   From: 2010.05.17/outbox.cif.g08.bks.cpg/sg49_4_cif.got.tgz:6801.got - 2010.06.03 21:02:19.
