data_PCOD9392974
_publ_section_title
;
Structure prediction by ZEFSAII (Michael W. Deem and Ramdas Pophale) SiO2 
 PCOD9392974
Probable space group: P C C M
;
_chemical_formula_sum "Si O2"
_cell_formula_units_Z 40
_cell_length_a 22.005904
_cell_length_b 7.186495
_cell_length_c 11.335504
_cell_angle_alpha 90.000000
_cell_angle_beta 90.000000
_cell_angle_gamma 90.000000
_cell_volume 1792.656897
_symmetry_space_group_name_H-M "P C C M"
_symmetry_group_IT_number 49
_symmetry_cell_setting 'orthorhombic'
loop_
_space_group_symop_operation_xyz
x,y,z
-x,-y,z
x,-y,1/2-z
-x,y,1/2-z
-x,-y,-z
x,y,-z
-x,y,1/2+z
x,-y,1/2+z
loop_
_atom_site_type_symbol
_atom_site_label
_atom_site_fract_x
_atom_site_fract_y
_atom_site_fract_z
Si Si1 0.708084 0.791738 0.872975
Si Si2 0.975563 0.289625 0.628212
Si Si3 0.664226 0.777855 0.625800
Si Si4 0.479607 0.283569 0.625321
Si Si5 0.150604 0.119676 0.130807
O O1 0.687355 0.703788 0.750654
O O2 0.780947 0.804794 0.868075
O O3 0.680858 0.002068 0.873148
O O4 0.689288 0.710034 0.000000
O O5 0.994420 0.209725 0.500000
O O6 0.902731 0.272244 0.633745
O O7 0.000000 0.500000 0.627309
O O8 0.000000 0.204467 0.750000
O O9 0.690393 0.709543 0.500000
O O10 0.592653 0.740266 0.623550
O O11 0.500000 0.500000 0.626561
O O12 0.500000 0.202721 0.750000
O O13 0.504471 0.208439 0.500000
O O14 0.143489 0.000000 0.250000
O O15 0.144115 0.024439 0.000000
#
# Coordination Sequence:
#
# PCOD9392974 Si02
#       5
#     8   8   8   8   8
#     4   9  17  30  49  77 107 136 170 213 268 323
#     4   9  19  36  56  78 109 150 192 231 276 334
#     4   9  16  29  50  74 104 136 169 213 263 316
#     4   9  18  32  50  72  99 135 178 219 260 312
#     4  10  19  32  54  84 115 145 183 232 284 339
#
# _framework density 22.313248999999999
#
# number of rings (size 3 to 8) (size 9 to 14) (size 15 to 20)
#    0.000    2.800    2.000    0.000    0.000    2.000 
#    0.000    4.000    0.000   15.600    0.000   25.200 
#    0.000    0.000    0.000    0.000    0.000    0.000 
#
# Total GULP energy -222689.806527 kJ/mol
# GULP energy per Si atom -5567.245163 kJ/mol
# Density = 2.226246 g / cm^3
# Si number density = 22.313249 Si / 1000 Ang^3
#
#
#
# Elastic Constant Matrix: (Units=GPa)
#
#
# Indices 1 2 3 4 5 6 
#
# 1 111.3316 23.4675 47.4909 0.0000 0.0000 0.0000
# 2 23.4675 96.8463 26.6131 0.0000 0.0000 0.0000
# 3 47.4909 26.6131 326.7336 0.0000 0.0000 0.0000
# 4 0.0000 0.0000 0.0000 -28.9642 0.0000 0.0000
# 5 0.0000 0.0000 0.0000 0.0000 34.5404 0.0000
# 6 0.0000 0.0000 0.0000 0.0000 0.0000 51.8185
#
#
#
# Elastic Compliance Matrix: (Units=1/GPa)
#
#
# Indices 1 2 3 4 5 6 
#
# 1 0.009963 -0.002062 -0.001280 0.000000 0.000000 0.000000
# 2 -0.002062 0.010989 -0.000595 0.000000 0.000000 0.000000
# 3 -0.001280 -0.000595 0.003295 0.000000 0.000000 0.000000
# 4 0.000000 0.000000 0.000000 -0.034525 0.000000 0.000000
# 5 0.000000 0.000000 0.000000 0.000000 0.028952 0.000000
# 6 0.000000 0.000000 0.000000 0.000000 0.000000 0.019298
#
#
# Mechanical properties :
#
#
# Convention : Reuss Voigt Hill
#
# Bulk Modulus (GPa) = 61.08212 81.11716 71.09964
# Shear Modulus (GPa) = 97.45752 40.63492 69.04622
#
# Velocity S-wave (km/s) = 6.61603 4.27208 5.56877
# Velocity P-wave (km/s) = 9.26265 7.79531 8.56048
#
# Compressibility (1/GPa) = 0.01637140
#
# Stress axis : x y z
#
# Youngs Moduli (GPa) = 100.37156 91.00017 303.47591
#
# Poissons Ratio (x) = 0.18768 0.38849
# Poissons Ratio (y) = 0.20701 0.18066
# Poissons Ratio (z) = 0.12849 0.05417
#
# Static dielectric constant tensor:
#      x y z
#    x 1.773610 0.000000 0.000000 
#    y 0.000000 1.748110 0.000000 
#    z 0.000000 0.000000 1.946210 
# 
# From -- ./inp_files/9598.got.cif
#   From: 2010.05.17/outbox.cif.g08.bks.cpg/sg49_5_cif.got.tgz:9598.got - 2010.06.03 21:02:19.
