data_PCOD9392169
_publ_section_title
;
Structure prediction by ZEFSAII (Michael W. Deem and Ramdas Pophale) SiO2 
 PCOD9392169
Probable space group: P C C M
;
_chemical_formula_sum "Si O2"
_cell_formula_units_Z 48
_cell_length_a 9.609288
_cell_length_b 31.948395
_cell_length_c 8.651763
_cell_angle_alpha 90.000000
_cell_angle_beta 90.000000
_cell_angle_gamma 90.000000
_cell_volume 2656.102737
_symmetry_space_group_name_H-M "P C C M"
_symmetry_group_IT_number 49
_symmetry_cell_setting 'orthorhombic'
loop_
_space_group_symop_operation_xyz
x,y,z
-x,-y,z
x,-y,1/2-z
-x,y,1/2-z
-x,-y,-z
x,y,-z
-x,y,1/2+z
x,-y,1/2+z
loop_
_atom_site_type_symbol
_atom_site_label
_atom_site_fract_x
_atom_site_fract_y
_atom_site_fract_z
Si Si1 0.156709 0.130317 0.814426
Si Si2 0.655490 0.789633 0.814857
Si Si3 0.153463 0.379057 0.686081
Si Si4 0.155162 0.283913 0.314322
Si Si5 0.158231 0.042901 0.684689
Si Si6 0.344030 0.456074 0.685949
O O1 0.253933 0.169359 0.773243
O O2 0.216058 0.086958 0.745160
O O3 0.000000 0.136710 0.750000
O O4 0.147994 0.126570 0.000000
O O5 0.500000 0.792160 0.750000
O O6 0.736510 0.749411 0.750205
O O7 0.650339 0.787148 0.000000
O O8 0.148675 0.379751 0.500000
O O9 0.193443 0.331644 0.731815
O O10 0.256356 0.415745 0.736465
O O11 0.000000 0.386942 0.750000
O O12 0.151100 0.281461 0.500000
O O13 0.000000 0.275478 0.250000
O O14 0.155123 0.041741 0.500000
O O15 0.000000 0.043414 0.750000
O O16 0.223173 0.000000 0.750000
O O17 0.285808 0.500000 0.750000
O O18 0.500000 0.452345 0.750000
O O19 0.347521 0.457879 0.500000
#
# Coordination Sequence:
#
# PCOD9392169 Si02
#       6
#     8   8   8   8   8   8
#     4  10  20  34  53  78 106 138 176 216 262 313
#     4  11  24  39  56  79 108 142 179 222 269 318
#     4   9  20  36  55  80 108 138 173 215 262 313
#     4  10  20  37  59  82 109 140 177 219 265 319
#     4  10  17  27  46  73 105 137 171 214 261 307
#     4  10  20  35  53  76 105 139 179 218 261 310
#
# _framework density 18.071591000000002
#
# number of rings (size 3 to 8) (size 9 to 14) (size 15 to 20)
#    0.000    2.000    0.000    6.000    0.000    7.000 
#    0.000    3.333    0.000    0.500    0.000    3.500 
#    0.000    0.000    0.000    0.000    0.000    0.000 
#
# Total GULP energy -267914.411117 kJ/mol
# GULP energy per Si atom -5581.550232 kJ/mol
# Density = 1.803046 g / cm^3
# Si number density = 18.071591 Si / 1000 Ang^3
#
#
#
# Elastic Constant Matrix: (Units=GPa)
#
#
# Indices 1 2 3 4 5 6 
#
# 1 88.2619 102.4040 38.2908 0.0000 0.0000 0.0000
# 2 102.4040 193.5354 63.7342 0.0000 0.0000 0.0000
# 3 38.2908 63.7342 73.2999 0.0000 0.0000 0.0000
# 4 0.0000 0.0000 0.0000 95.4267 0.0000 0.0000
# 5 0.0000 0.0000 0.0000 0.0000 26.2253 0.0000
# 6 0.0000 0.0000 0.0000 0.0000 0.0000 -20.0229
#
#
#
# Elastic Compliance Matrix: (Units=1/GPa)
#
#
# Indices 1 2 3 4 5 6 
#
# 1 0.029692 -0.014857 -0.002593 0.000000 0.000000 0.000000
# 2 -0.014857 0.014674 -0.004998 0.000000 0.000000 0.000000
# 3 -0.002593 -0.004998 0.019343 0.000000 0.000000 0.000000
# 4 0.000000 0.000000 0.000000 0.010479 0.000000 0.000000
# 5 0.000000 0.000000 0.000000 0.000000 0.038131 0.000000
# 6 0.000000 0.000000 0.000000 0.000000 0.000000 -0.049943
#
#
# Mechanical properties :
#
#
# Convention : Reuss Voigt Hill
#
# Bulk Modulus (GPa) = 53.15276 84.88391 69.01834
# Shear Modulus (GPa) = 44.03598 30.37037 37.20318
#
# Velocity S-wave (km/s) = 4.94170 4.10391 4.54216
# Velocity P-wave (km/s) = 7.87634 8.33840 8.11066
#
# Compressibility (1/GPa) = 0.01881370
#
# Stress axis : x y z
#
# Youngs Moduli (GPa) = 33.67875 68.14698 51.69903
#
# Poissons Ratio (x) = 1.01247 0.13404
# Poissons Ratio (y) = 0.50037 0.25839
# Poissons Ratio (z) = 0.08732 0.34060
#
# Static dielectric constant tensor:
#      x y z
#    x 1.580600 0.000000 0.000000 
#    y 0.000000 1.658210 0.000000 
#    z 0.000000 0.000000 1.610840 
# 
# From -- ./inp_files/2123.got.cif
#   From: 2010.05.17/outbox.cif.g08.bks.cpg/sg49_2_cif.got.tgz:2123.got - 2010.06.03 21:02:19.
