data_PCOD9392256
_publ_section_title
;
Structure prediction by ZEFSAII (Michael W. Deem and Ramdas Pophale) SiO2 
 PCOD9392256
Probable space group: P C C M
;
_chemical_formula_sum "Si O2"
_cell_formula_units_Z 64
_cell_length_a 14.956252
_cell_length_b 25.769256
_cell_length_c 8.721619
_cell_angle_alpha 90.000000
_cell_angle_beta 90.000000
_cell_angle_gamma 90.000000
_cell_volume 3361.412144
_symmetry_space_group_name_H-M "P C C M"
_symmetry_group_IT_number 49
_symmetry_cell_setting 'orthorhombic'
loop_
_space_group_symop_operation_xyz
x,y,z
-x,-y,z
x,-y,1/2-z
-x,y,1/2-z
-x,-y,-z
x,y,-z
-x,y,1/2+z
x,-y,1/2+z
loop_
_atom_site_type_symbol
_atom_site_label
_atom_site_fract_x
_atom_site_fract_y
_atom_site_fract_z
Si Si1 0.909083 0.058913 0.183414
Si Si2 0.286284 0.756101 0.814625
Si Si3 0.401542 0.849300 0.682581
Si Si4 0.905781 0.598762 0.315583
Si Si5 0.400521 0.345389 0.314961
Si Si6 0.724502 0.057576 0.683461
Si Si7 0.715366 0.444583 0.814720
Si Si8 0.094040 0.720658 0.184459
O O1 0.815355 0.080926 0.243209
O O2 0.000000 0.083295 0.250000
O O3 0.907590 0.000000 0.250000
O O4 0.912098 0.057552 0.000000
O O5 0.336745 0.805210 0.747590
O O6 0.340704 0.704185 0.770314
O O7 0.183254 0.750237 0.764773
O O8 0.287071 0.758898 0.000000
O O9 0.500000 0.843848 0.750000
O O10 0.405933 0.844386 0.500000
O O11 0.357657 0.904904 0.719530
O O12 0.909440 0.596543 0.500000
O O13 0.816859 0.568935 0.264499
O O14 0.896339 0.659678 0.272276
O O15 0.000000 0.579434 0.250000
O O16 0.500000 0.341886 0.250000
O O17 0.404931 0.345608 0.500000
O O18 0.349896 0.397931 0.266453
O O19 0.711067 0.000000 0.750000
O O20 0.736317 0.945799 0.000000
O O21 0.687914 0.500000 0.750000
O O22 0.715188 0.445959 0.000000
O O23 0.000000 0.739865 0.250000
O O24 0.090416 0.722601 0.000000
#
# Coordination Sequence:
#
# PCOD9392256 Si02
#       8
#     8   8   8   8   8   8   8   8
#     4  10  17  28  50  80 114 151 191 234 279 329
#     4  10  20  38  63  86 114 149 186 230 283 336
#     4  11  25  42  61  87 118 149 187 237 288 337
#     4   9  17  32  53  77 108 144 181 223 271 326
#     4  10  21  38  58  80 106 140 183 233 284 337
#     4  10  21  38  59  85 117 154 195 238 283 337
#     4  10  21  37  54  75 109 146 183 229 280 333
#     4   9  17  32  56  85 114 148 184 224 275 330
#
# _framework density 19.039617
#
# number of rings (size 3 to 8) (size 9 to 14) (size 15 to 20)
#    0.000    2.125    1.250    3.375    0.000    5.750 
#    0.000    4.375    0.000    1.500    0.000    0.000 
#    0.000    0.000    0.000    0.000    0.000    0.000 
#
# Total GULP energy -357286.269737 kJ/mol
# GULP energy per Si atom -5582.597965 kJ/mol
# Density = 1.899628 g / cm^3
# Si number density = 19.039617 Si / 1000 Ang^3
#
#
#
# Elastic Constant Matrix: (Units=GPa)
#
#
# Indices 1 2 3 4 5 6 
#
# 1 153.5078 69.3789 35.9075 0.0000 0.0000 0.0000
# 2 69.3789 94.2751 32.3545 0.0000 0.0000 0.0000
# 3 35.9075 32.3545 37.8168 0.0000 0.0000 0.0000
# 4 0.0000 0.0000 0.0000 18.7146 0.0000 0.0000
# 5 0.0000 0.0000 0.0000 0.0000 41.4079 0.0000
# 6 0.0000 0.0000 0.0000 0.0000 0.0000 14.1188
#
#
#
# Elastic Compliance Matrix: (Units=1/GPa)
#
#
# Indices 1 2 3 4 5 6 
#
# 1 0.010312 -0.005986 -0.004670 0.000000 0.000000 0.000000
# 2 -0.005986 0.018491 -0.010136 0.000000 0.000000 0.000000
# 3 -0.004670 -0.010136 0.039550 0.000000 0.000000 0.000000
# 4 0.000000 0.000000 0.000000 0.053434 0.000000 0.000000
# 5 0.000000 0.000000 0.000000 0.000000 0.024150 0.000000
# 6 0.000000 0.000000 0.000000 0.000000 0.000000 0.070828
#
#
# Mechanical properties :
#
#
# Convention : Reuss Voigt Hill
#
# Bulk Modulus (GPa) = 37.35795 62.32016 49.83906
# Shear Modulus (GPa) = 18.70744 24.71218 21.70981
#
# Velocity S-wave (km/s) = 3.13797 3.60659 3.38041
# Velocity P-wave (km/s) = 5.72651 7.08140 6.43969
#
# Compressibility (1/GPa) = 0.02676806
#
# Stress axis : x y z
#
# Youngs Moduli (GPa) = 96.97207 54.07911 25.28455
#
# Poissons Ratio (x) = 0.32373 0.11808
# Poissons Ratio (y) = 0.58050 0.25630
# Poissons Ratio (z) = 0.45286 0.54817
#
# Static dielectric constant tensor:
#      x y z
#    x 1.673980 0.000000 0.000000 
#    y 0.000000 1.658690 0.000000 
#    z 0.000000 0.000000 1.643400 
# 
# From -- ./inp_files/4337.got.cif
#   From: 2010.05.17/outbox.cif.g08.bks.cpg/sg49_3_cif.got.tgz:4337.got - 2010.06.03 21:02:19.
