data_PCOD9392150
_publ_section_title
;
Structure prediction by ZEFSAII (Michael W. Deem and Ramdas Pophale) SiO2 
 PCOD9392150
Probable space group: P C C M
;
_chemical_formula_sum "Si O2"
_cell_formula_units_Z 48
_cell_length_a 32.537496
_cell_length_b 9.462262
_cell_length_c 8.668969
_cell_angle_alpha 90.000000
_cell_angle_beta 90.000000
_cell_angle_gamma 90.000000
_cell_volume 2668.987542
_symmetry_space_group_name_H-M "P C C M"
_symmetry_group_IT_number 49
_symmetry_cell_setting 'orthorhombic'
loop_
_space_group_symop_operation_xyz
x,y,z
-x,-y,z
x,-y,1/2-z
-x,y,1/2-z
-x,-y,-z
x,y,-z
-x,y,1/2+z
x,-y,1/2+z
loop_
_atom_site_type_symbol
_atom_site_label
_atom_site_fract_x
_atom_site_fract_y
_atom_site_fract_z
Si Si1 0.956597 0.158365 0.315658
Si Si2 0.542133 0.839227 0.684397
Si Si3 0.372651 0.158667 0.814694
Si Si4 0.791331 0.340432 0.184354
Si Si5 0.706971 0.341425 0.315691
Si Si6 0.882210 0.340662 0.814522
O O1 0.958376 0.154132 0.500000
O O2 0.918479 0.250262 0.258397
O O3 0.000000 0.214467 0.250000
O O4 0.952109 0.000000 0.250000
O O5 0.500000 0.773761 0.750000
O O6 0.540957 0.842926 0.500000
O O7 0.585220 0.778272 0.744484
O O8 0.542757 0.000000 0.750000
O O9 0.332793 0.250065 0.773471
O O10 0.367749 0.000000 0.750000
O O11 0.376609 0.152318 0.000000
O O12 0.792019 0.500000 0.250000
O O13 0.749727 0.276341 0.253143
O O14 0.836467 0.281104 0.223427
O O15 0.787753 0.345478 0.000000
O O16 0.702934 0.500000 0.250000
O O17 0.709561 0.349858 0.500000
O O18 0.884400 0.500000 0.750000
O O19 0.886017 0.343775 0.000000
#
# Coordination Sequence:
#
# PCOD9392150 Si02
#       6
#     8   8   8   8   8   8
#     4  11  22  38  58  79 106 141 176 213 255 308
#     4  10  17  27  45  68  95 127 161 201 245 294
#     4  10  20  33  49  73 101 130 164 206 251 296
#     4   9  17  30  51  75 102 133 168 208 251 298
#     4  10  20  33  52  75 101 133 171 208 247 299
#     4  10  20  35  55  82 109 136 172 216 261 304
#
# _framework density 17.984348000000001
#
# number of rings (size 3 to 8) (size 9 to 14) (size 15 to 20)
#    0.000    2.000    0.000    8.000    0.000    5.000 
#    0.000    2.500    0.000    2.500    0.000    3.500 
#    0.000    0.000    0.000    0.000    0.000    0.000 
#
# Total GULP energy -267724.641429 kJ/mol
# GULP energy per Si atom -5577.596696 kJ/mol
# Density = 1.794342 g / cm^3
# Si number density = 17.984348 Si / 1000 Ang^3
#
#
#
# Elastic Constant Matrix: (Units=GPa)
#
#
# Indices 1 2 3 4 5 6 
#
# 1 231.9825 58.3356 86.5581 0.0000 0.0000 0.0000
# 2 58.3356 32.8343 25.4614 0.0000 0.0000 0.0000
# 3 86.5581 25.4614 120.1808 0.0000 0.0000 0.0000
# 4 0.0000 0.0000 0.0000 13.0572 0.0000 0.0000
# 5 0.0000 0.0000 0.0000 0.0000 35.4885 0.0000
# 6 0.0000 0.0000 0.0000 0.0000 0.0000 28.4902
#
#
#
# Elastic Compliance Matrix: (Units=1/GPa)
#
#
# Indices 1 2 3 4 5 6 
#
# 1 0.008982 -0.013092 -0.003695 0.000000 0.000000 0.000000
# 2 -0.013092 0.055526 -0.002335 0.000000 0.000000 0.000000
# 3 -0.003695 -0.002335 0.011477 0.000000 0.000000 0.000000
# 4 0.000000 0.000000 0.000000 0.076586 0.000000 0.000000
# 5 0.000000 0.000000 0.000000 0.000000 0.028178 0.000000
# 6 0.000000 0.000000 0.000000 0.000000 0.000000 0.035100
#
#
# Mechanical properties :
#
#
# Convention : Reuss Voigt Hill
#
# Bulk Modulus (GPa) = 26.49615 80.63421 53.56518
# Shear Modulus (GPa) = 18.74959 29.71666 24.23313
#
# Velocity S-wave (km/s) = 3.23236 4.06934 3.67475
# Velocity P-wave (km/s) = 5.35684 8.18611 6.91766
#
# Compressibility (1/GPa) = 0.03774133
#
# Stress axis : x y z
#
# Youngs Moduli (GPa) = 111.33888 18.00954 87.13233
#
# Poissons Ratio (x) = 0.23578 0.32197
# Poissons Ratio (y) = 1.45763 0.20341
# Poissons Ratio (z) = 0.41142 0.04204
#
# Static dielectric constant tensor:
#      x y z
#    x 1.678000 0.000000 0.000000 
#    y 0.000000 1.590560 0.000000 
#    z 0.000000 0.000000 1.599650 
# 
# From -- ./inp_files/6702.got.cif
#   From: 2010.05.17/outbox.cif.g08.bks.cpg/sg49_4_cif.got.tgz:6702.got - 2010.06.03 21:02:19.
