data_PCOD9392918
_publ_section_title
;
Structure prediction by ZEFSAII (Michael W. Deem and Ramdas Pophale) SiO2 
 PCOD9392918
Probable space group: P C C M
;
_chemical_formula_sum "Si O2"
_cell_formula_units_Z 64
_cell_length_a 18.318520
_cell_length_b 11.915343
_cell_length_c 15.090751
_cell_angle_alpha 90.000000
_cell_angle_beta 90.000000
_cell_angle_gamma 90.000000
_cell_volume 3293.880088
_symmetry_space_group_name_H-M "P C C M"
_symmetry_group_IT_number 49
_symmetry_cell_setting 'orthorhombic'
loop_
_space_group_symop_operation_xyz
x,y,z
-x,-y,z
x,-y,1/2-z
-x,y,1/2-z
-x,-y,-z
x,y,-z
-x,y,1/2+z
x,-y,1/2+z
loop_
_atom_site_type_symbol
_atom_site_label
_atom_site_fract_x
_atom_site_fract_y
_atom_site_fract_z
Si Si1 0.172362 0.896545 0.105908
Si Si2 0.375193 0.523115 0.653816
Si Si3 0.292235 0.266022 0.101805
Si Si4 0.551290 0.101058 0.103782
Si Si5 0.144017 0.846882 0.602651
Si Si6 0.010780 0.873879 0.145279
Si Si7 0.692477 0.871911 0.723759
Si Si8 0.511587 0.648840 0.399004
O O1 0.092649 0.840667 0.120360
O O2 0.235638 0.840904 0.165693
O O3 0.160850 0.027232 0.139305
O O4 0.189908 0.894304 0.000000
O O5 0.343779 0.500000 0.750000
O O6 0.320002 0.606031 0.604403
O O7 0.408844 0.407819 0.614579
O O8 0.449861 0.595495 0.662126
O O9 0.206732 0.242938 0.121553
O O10 0.324634 0.199152 0.186932
O O11 0.307760 0.224067 0.000000
O O12 0.623432 0.121623 0.159510
O O13 0.510131 0.218962 0.109775
O O14 0.500000 0.000000 0.135168
O O15 0.569094 0.079639 0.000000
O O16 0.150051 0.868999 0.500000
O O17 0.061513 0.807737 0.617693
O O18 0.000000 0.881183 0.250000
O O19 0.000000 0.000000 0.106997
O O20 0.704740 0.000000 0.750000
O O21 0.488703 0.622074 0.500000
#
# Coordination Sequence:
#
# PCOD9392918 Si02
#       8
#     8   8   8   8   8   8   8   8
#     4  10  19  32  51  76 113 164 211 252 304 363
#     4  11  22  38  61  86 110 144 196 261 322 371
#     4  11  23  38  58  84 119 162 208 261 324 378
#     4  10  24  43  62  88 125 166 208 255 311 383
#     4   9  17  30  47  73 111 155 203 247 293 360
#     4   9  16  25  45  72 109 153 204 250 293 352
#     4  12  24  36  54  80 117 162 213 259 307 369
#     4  10  20  38  62  86 114 147 194 252 317 379
#
# _framework density 19.429971999999999
#
# number of rings (size 3 to 8) (size 9 to 14) (size 15 to 20)
#    0.000    1.750    1.250    4.500    3.500    2.250 
#    0.000    0.000    0.000    0.375    0.000    0.000 
#    0.000   11.500    0.000   42.875    0.000    0.375 
#
# Total GULP energy -356479.360144 kJ/mol
# GULP energy per Si atom -5569.990002 kJ/mol
# Density = 1.938575 g / cm^3
# Si number density = 19.429972 Si / 1000 Ang^3
#
#
#
# Elastic Constant Matrix: (Units=GPa)
#
#
# Indices 1 2 3 4 5 6 
#
# 1 107.0861 29.9583 34.5282 0.0000 0.0000 0.0000
# 2 29.9583 75.4075 20.7130 0.0000 0.0000 0.0000
# 3 34.5282 20.7130 98.7555 0.0000 0.0000 0.0000
# 4 0.0000 0.0000 0.0000 24.1004 0.0000 0.0000
# 5 0.0000 0.0000 0.0000 0.0000 -18.4854 0.0000
# 6 0.0000 0.0000 0.0000 0.0000 0.0000 32.5332
#
#
#
# Elastic Compliance Matrix: (Units=1/GPa)
#
#
# Indices 1 2 3 4 5 6 
#
# 1 0.011396 -0.003643 -0.003220 0.000000 0.000000 0.000000
# 2 -0.003643 0.015236 -0.001922 0.000000 0.000000 0.000000
# 3 -0.003220 -0.001922 0.011655 0.000000 0.000000 0.000000
# 4 0.000000 0.000000 0.000000 0.041493 0.000000 0.000000
# 5 0.000000 0.000000 0.000000 0.000000 -0.054097 0.000000
# 6 0.000000 0.000000 0.000000 0.000000 0.000000 0.030738
#
#
# Mechanical properties :
#
#
# Convention : Reuss Voigt Hill
#
# Bulk Modulus (GPa) = 48.26959 50.18312 49.22635
# Shear Modulus (GPa) = 61.80667 20.69961 41.25314
#
# Velocity S-wave (km/s) = 5.64615 3.26750 4.61279
# Velocity P-wave (km/s) = 8.20988 6.33397 7.33217
#
# Compressibility (1/GPa) = 0.02071698
#
# Stress axis : x y z
#
# Youngs Moduli (GPa) = 87.75231 65.63208 85.79954
#
# Poissons Ratio (x) = 0.23908 0.27630
# Poissons Ratio (y) = 0.31966 0.16491
# Poissons Ratio (z) = 0.28259 0.12615
#
# Static dielectric constant tensor:
#      x y z
#    x 1.732070 0.000000 0.000000 
#    y 0.000000 1.699670 0.000000 
#    z 0.000000 0.000000 1.804860 
# 
# From -- ./inp_files/14194.got.cif
#   From: 2010.05.17/outbox.cif.g08.bks.cpg/sg49_8_cif.got.tgz:14194.got - 2010.06.03 21:02:19.
