data_PCOD9392148
_publ_section_title
;
Structure prediction by ZEFSAII (Michael W. Deem and Ramdas Pophale) SiO2 
 PCOD9392148
Probable space group: P C C M
;
_chemical_formula_sum "Si O2"
_cell_formula_units_Z 40
_cell_length_a 7.835735
_cell_length_b 28.079501
_cell_length_c 8.600567
_cell_angle_alpha 90.000000
_cell_angle_beta 90.000000
_cell_angle_gamma 90.000000
_cell_volume 1892.327101
_symmetry_space_group_name_H-M "P C C M"
_symmetry_group_IT_number 49
_symmetry_cell_setting 'orthorhombic'
loop_
_space_group_symop_operation_xyz
x,y,z
-x,-y,z
x,-y,1/2-z
-x,y,1/2-z
-x,-y,-z
x,y,-z
-x,y,1/2+z
x,-y,1/2+z
loop_
_atom_site_type_symbol
_atom_site_label
_atom_site_fract_x
_atom_site_fract_y
_atom_site_fract_z
Si Si1 0.190361 0.251250 0.185861
Si Si2 0.309073 0.146326 0.186600
Si Si3 0.195259 0.652086 0.186319
Si Si4 0.194972 0.548661 0.813821
Si Si5 0.695843 0.049066 0.185566
O O1 0.248937 0.198763 0.235515
O O2 0.277837 0.299409 0.249181
O O3 0.000000 0.254094 0.250000
O O4 0.194421 0.253099 0.000000
O O5 0.500000 0.144559 0.250000
O O6 0.223434 0.098709 0.255893
O O7 0.303773 0.143220 0.000000
O O8 0.271140 0.600356 0.230348
O O9 0.000000 0.650577 0.250000
O O10 0.189018 0.655276 0.000000
O O11 0.275666 0.500000 0.750000
O O12 0.000000 0.549231 0.750000
O O13 0.188764 0.545971 0.000000
O O14 0.500000 0.049060 0.250000
O O15 0.774126 0.000000 0.250000
O O16 0.690945 0.048174 0.000000
#
# Coordination Sequence:
#
# PCOD9392148 Si02
#       5
#     8   8   8   8   8
#     4  10  20  32  48  68  92 123 158 191 227 272
#     4  10  20  33  49  72  97 122 154 191 229 271
#     4   9  16  25  38  56  80 111 148 184 222 267
#     4   9  15  21  31  49  73 104 139 177 219 264
#     4  10  17  27  45  68  94 122 150 185 227 270
#
# _framework density 21.137995
#
# number of rings (size 3 to 8) (size 9 to 14) (size 15 to 20)
#    0.000    2.400    0.000    7.800    0.000    5.600 
#    0.000    0.000    0.000    0.600    0.000    4.200 
#    0.000    0.800    0.000    8.800    0.000    9.800 
#
# Total GULP energy -222856.420624 kJ/mol
# GULP energy per Si atom -5571.410516 kJ/mol
# Density = 2.108988 g / cm^3
# Si number density = 21.137995 Si / 1000 Ang^3
#
#
#
# Elastic Constant Matrix: (Units=GPa)
#
#
# Indices 1 2 3 4 5 6 
#
# 1 17.5789 21.6025 -0.6400 0.0000 0.0000 0.0000
# 2 21.6025 306.3750 76.3012 0.0000 0.0000 0.0000
# 3 -0.6400 76.3012 88.8463 0.0000 0.0000 0.0000
# 4 0.0000 0.0000 0.0000 43.6077 0.0000 0.0000
# 5 0.0000 0.0000 0.0000 0.0000 -1.9006 0.0000
# 6 0.0000 0.0000 0.0000 0.0000 0.0000 14.8745
#
#
#
# Elastic Compliance Matrix: (Units=1/GPa)
#
#
# Indices 1 2 3 4 5 6 
#
# 1 0.064363 -0.005920 0.005548 0.000000 0.000000 0.000000
# 2 -0.005920 0.004696 -0.004076 0.000000 0.000000 0.000000
# 3 0.005548 -0.004076 0.014796 0.000000 0.000000 0.000000
# 4 0.000000 0.000000 0.000000 0.022932 0.000000 0.000000
# 5 0.000000 0.000000 0.000000 0.000000 -0.526146 0.000000
# 6 0.000000 0.000000 0.000000 0.000000 0.000000 0.067229
#
#
# Mechanical properties :
#
#
# Convention : Reuss Voigt Hill
#
# Bulk Modulus (GPa) = 13.34067 67.48087 40.41077
# Shear Modulus (GPa) = -15.71103 32.35208 8.32052
#
# Velocity S-wave (km/s) = -2.72924 3.91643 1.98616
# Velocity P-wave (km/s) = 1.89914 7.24186 4.94155
#
# Compressibility (1/GPa) = 0.07495878
#
# Stress axis : x y z
#
# Youngs Moduli (GPa) = 15.53688 212.92510 67.58672
#
# Poissons Ratio (x) = 1.26048 -0.37494
# Poissons Ratio (y) = 0.09198 0.27548
# Poissons Ratio (z) = -0.08619 0.86788
#
# Static dielectric constant tensor:
#      x y z
#    x 1.778700 0.000000 0.000000 
#    y 0.000000 1.940080 0.000000 
#    z 0.000000 0.000000 1.703140 
# 
# From -- ./inp_files/1973.got.cif
#   From: 2010.05.17/outbox.cif.g08.bks.cpg/sg49_1_cif.got.tgz:1973.got - 2010.06.03 21:02:19.
