data_PCOD9392758
_publ_section_title
;
Structure prediction by ZEFSAII (Michael W. Deem and Ramdas Pophale) SiO2 
 PCOD9392758
Probable space group: P C C M
;
_chemical_formula_sum "Si O2"
_cell_formula_units_Z 56
_cell_length_a 15.530919
_cell_length_b 20.895025
_cell_length_c 8.869924
_cell_angle_alpha 90.000000
_cell_angle_beta 90.000000
_cell_angle_gamma 90.000000
_cell_volume 2878.458341
_symmetry_space_group_name_H-M "P C C M"
_symmetry_group_IT_number 49
_symmetry_cell_setting 'orthorhombic'
loop_
_space_group_symop_operation_xyz
x,y,z
-x,-y,z
x,-y,1/2-z
-x,y,1/2-z
-x,-y,-z
x,y,-z
-x,y,1/2+z
x,-y,1/2+z
loop_
_atom_site_type_symbol
_atom_site_label
_atom_site_fract_x
_atom_site_fract_y
_atom_site_fract_z
Si Si1 0.910768 0.234879 0.330724
Si Si2 0.732722 0.934629 0.678518
Si Si3 0.724504 0.429343 0.181514
Si Si4 0.914280 0.571525 0.680320
Si Si5 0.087197 0.081034 0.830442
Si Si6 0.270791 0.788552 0.818206
Si Si7 0.594485 0.319766 0.818083
O O1 0.906356 0.262092 0.500000
O O2 0.917173 0.157811 0.343534
O O3 0.819314 0.239877 0.244880
O O4 0.000000 0.254945 0.250000
O O5 0.720942 0.938112 0.500000
O O6 0.832904 0.934660 0.724679
O O7 0.708452 0.862094 0.730202
O O8 0.694615 0.000000 0.750000
O O9 0.716125 0.500000 0.250000
O O10 0.819895 0.401357 0.217799
O O11 0.649352 0.381875 0.230657
O O12 0.721888 0.434960 0.000000
O O13 0.910871 0.500000 0.750000
O O14 0.923312 0.568412 0.500000
O O15 0.000000 0.601901 0.750000
O O16 0.000000 0.062720 0.750000
O O17 0.097899 0.055154 0.000000
O O18 0.348600 0.741916 0.776075
O O19 0.262069 0.789735 0.000000
O O20 0.500000 0.318746 0.750000
O O21 0.588904 0.321151 0.000000
#
# Coordination Sequence:
#
# PCOD9392758 Si02
#       7
#     8   8   8   8   8   8   8
#     4   9  16  27  47  74 105 141 181 222 266 316
#     4  10  19  31  48  71  97 129 168 213 265 318
#     4   9  19  35  56  83 117 151 183 221 266 312
#     4   9  15  25  44  72 106 145 182 216 253 296
#     4   9  16  26  40  62  94 132 173 216 259 308
#     4   9  19  36  56  76 105 142 179 221 271 323
#     4  10  22  41  62  84 109 140 178 224 276 331
#
# _framework density 19.454858999999999
#
# number of rings (size 3 to 8) (size 9 to 14) (size 15 to 20)
#    0.000    2.714    0.000    2.143    0.000    6.286 
#    0.000    3.571    0.000    2.143    0.000    3.000 
#    0.000    0.000    0.000    0.000    0.000    0.000 
#
# Total GULP energy -312111.629613 kJ/mol
# GULP energy per Si atom -5573.421957 kJ/mol
# Density = 1.941058 g / cm^3
# Si number density = 19.454859 Si / 1000 Ang^3
#
#
#
# Elastic Constant Matrix: (Units=GPa)
#
#
# Indices 1 2 3 4 5 6 
#
# 1 160.9019 71.2322 41.5440 0.0000 0.0000 0.0000
# 2 71.2322 124.3206 27.9771 0.0000 0.0000 0.0000
# 3 41.5440 27.9771 44.3946 0.0000 0.0000 0.0000
# 4 0.0000 0.0000 0.0000 17.3294 0.0000 0.0000
# 5 0.0000 0.0000 0.0000 0.0000 28.8573 0.0000
# 6 0.0000 0.0000 0.0000 0.0000 0.0000 -23.9147
#
#
#
# Elastic Compliance Matrix: (Units=1/GPa)
#
#
# Indices 1 2 3 4 5 6 
#
# 1 0.009709 -0.004100 -0.006502 0.000000 0.000000 0.000000
# 2 -0.004100 0.011104 -0.003161 0.000000 0.000000 0.000000
# 3 -0.006502 -0.003161 0.030602 0.000000 0.000000 0.000000
# 4 0.000000 0.000000 0.000000 0.057705 0.000000 0.000000
# 5 0.000000 0.000000 0.000000 0.000000 0.034653 0.000000
# 6 0.000000 0.000000 0.000000 0.000000 0.000000 -0.041815
#
#
# Mechanical properties :
#
#
# Convention : Reuss Voigt Hill
#
# Bulk Modulus (GPa) = 41.85995 67.90262 54.88128
# Shear Modulus (GPa) = 36.37793 17.04532 26.71162
#
# Velocity S-wave (km/s) = 4.32888 2.96319 3.70943
# Velocity P-wave (km/s) = 6.82267 6.83270 6.82768
#
# Compressibility (1/GPa) = 0.02388918
#
# Stress axis : x y z
#
# Youngs Moduli (GPa) = 103.00168 90.05679 32.67794
#
# Poissons Ratio (x) = 0.36920 0.21246
# Poissons Ratio (y) = 0.42227 0.10331
# Poissons Ratio (z) = 0.66968 0.28470
#
# Static dielectric constant tensor:
#      x y z
#    x 1.657220 0.000000 0.000000 
#    y 0.000000 1.755130 0.000000 
#    z 0.000000 0.000000 1.683390 
# 
# From -- ./inp_files/4097.got.cif
#   From: 2010.05.17/outbox.cif.g08.bks.cpg/sg49_3_cif.got.tgz:4097.got - 2010.06.03 21:02:19.
