data_PCOD9392093
_publ_section_title
;
Structure prediction by ZEFSAII (Michael W. Deem and Ramdas Pophale) SiO2 
 PCOD9392093
Probable space group: P C C M
;
_chemical_formula_sum "Si O2"
_cell_formula_units_Z 64
_cell_length_a 20.317205
_cell_length_b 20.840359
_cell_length_c 8.699196
_cell_angle_alpha 90.000000
_cell_angle_beta 90.000000
_cell_angle_gamma 90.000000
_cell_volume 3683.394833
_symmetry_space_group_name_H-M "P C C M"
_symmetry_group_IT_number 49
_symmetry_cell_setting 'orthorhombic'
loop_
_space_group_symop_operation_xyz
x,y,z
-x,-y,z
x,-y,1/2-z
-x,y,1/2-z
-x,-y,-z
x,y,-z
-x,y,1/2+z
x,-y,1/2+z
loop_
_atom_site_type_symbol
_atom_site_label
_atom_site_fract_x
_atom_site_fract_y
_atom_site_fract_z
Si Si1 0.212411 0.608734 0.815371
Si Si2 0.428828 0.070825 0.184578
Si Si3 0.572933 0.306543 0.314607
Si Si4 0.067512 0.394345 0.315929
Si Si5 0.066266 0.249375 0.182988
Si Si6 0.797689 0.760864 0.316968
Si Si7 0.650347 0.566696 0.183339
Si Si8 0.334927 0.187090 0.185423
O O1 0.140281 0.581930 0.768855
O O2 0.214468 0.685213 0.778670
O O3 0.274443 0.576491 0.736416
O O4 0.218023 0.602341 0.000000
O O5 0.500000 0.091578 0.250000
O O6 0.372605 0.121719 0.226559
O O7 0.415665 0.000000 0.250000
O O8 0.433456 0.067933 0.000000
O O9 0.500000 0.301113 0.250000
O O10 0.569923 0.307101 0.500000
O O11 0.608211 0.372140 0.263035
O O12 0.617906 0.246295 0.269231
O O13 0.064015 0.395524 0.500000
O O14 0.068163 0.320429 0.258918
O O15 0.000000 0.423435 0.250000
O O16 0.134965 0.218631 0.233974
O O17 0.000000 0.218061 0.250000
O O18 0.061961 0.255275 0.000000
O O19 0.806466 0.764378 0.500000
O O20 0.735264 0.801247 0.262502
O O21 0.624860 0.500000 0.250000
O O22 0.648476 0.564683 0.000000
O O23 0.327107 0.188922 0.000000
#
# Coordination Sequence:
#
# PCOD9392093 Si02
#       8
#     8   8   8   8   8   8   8   8
#     4   9  18  32  49  71  98 127 164 205 250 305
#     4  10  20  34  54  77 108 144 181 220 256 306
#     4  10  22  38  56  78 101 128 164 205 256 309
#     4   9  16  26  42  68  97 126 163 202 247 301
#     4  10  17  26  41  63  97 136 172 211 253 303
#     4  10  19  30  48  74 102 134 170 212 259 308
#     4  11  23  38  56  74  96 126 164 209 258 314
#     4  10  20  35  53  78 108 138 175 214 255 305
#
# _framework density 17.375274999999998
#
# number of rings (size 3 to 8) (size 9 to 14) (size 15 to 20)
#    0.000    2.125    1.250    4.875    0.000    5.250 
#    0.000    1.250    0.000    0.375    0.000    2.625 
#    0.000    0.500    0.000    5.250    0.000    3.000 
#
# Total GULP energy -357145.741760 kJ/mol
# GULP energy per Si atom -5580.402215 kJ/mol
# Density = 1.733573 g / cm^3
# Si number density = 17.375275 Si / 1000 Ang^3
#
#
#
# Elastic Constant Matrix: (Units=GPa)
#
#
# Indices 1 2 3 4 5 6 
#
# 1 133.4464 40.8484 29.8030 0.0000 0.0000 0.0000
# 2 40.8484 58.7332 18.5585 0.0000 0.0000 0.0000
# 3 29.8030 18.5585 34.2136 0.0000 0.0000 0.0000
# 4 0.0000 0.0000 0.0000 19.5962 0.0000 0.0000
# 5 0.0000 0.0000 0.0000 0.0000 34.9645 0.0000
# 6 0.0000 0.0000 0.0000 0.0000 0.0000 -748.7230
#
#
#
# Elastic Compliance Matrix: (Units=1/GPa)
#
#
# Indices 1 2 3 4 5 6 
#
# 1 0.010530 -0.005341 -0.006276 0.000000 0.000000 0.000000
# 2 -0.005341 0.023257 -0.007963 0.000000 0.000000 0.000000
# 3 -0.006276 -0.007963 0.039014 0.000000 0.000000 0.000000
# 4 0.000000 0.000000 0.000000 0.051030 0.000000 0.000000
# 5 0.000000 0.000000 0.000000 0.000000 0.028600 0.000000
# 6 0.000000 0.000000 0.000000 0.000000 0.000000 -0.001336
#
#
# Mechanical properties :
#
#
# Convention : Reuss Voigt Hill
#
# Bulk Modulus (GPa) = 29.72446 44.97922 37.35184
# Shear Modulus (GPa) = 24.81781 -129.68690 -52.43455
#
# Velocity S-wave (km/s) = 3.78344 -8.64875 -5.49938
# Velocity P-wave (km/s) = 6.01917 8.59019 4.33364
#
# Compressibility (1/GPa) = 0.03364233
#
# Stress axis : x y z
#
# Youngs Moduli (GPa) = 94.96714 42.99861 25.63176
#
# Poissons Ratio (x) = 0.22963 0.16086
# Poissons Ratio (y) = 0.50717 0.20411
# Poissons Ratio (z) = 0.59598 0.34240
#
# Static dielectric constant tensor:
#      x y z
#    x 1.616770 0.000000 0.000000 
#    y 0.000000 1.587890 0.000000 
#    z 0.000000 0.000000 1.583180 
# 
# From -- ./inp_files/6102.got.cif
#   From: 2010.05.17/outbox.cif.g08.bks.cpg/sg49_4_cif.got.tgz:6102.got - 2010.06.03 21:02:19.
