data_PCOD9392266
_publ_section_title
;
Structure prediction by ZEFSAII (Michael W. Deem and Ramdas Pophale) SiO2 
 PCOD9392266
Probable space group: P C C M
;
_chemical_formula_sum "Si O2"
_cell_formula_units_Z 40
_cell_length_a 15.467780
_cell_length_b 14.814406
_cell_length_c 8.597671
_cell_angle_alpha 90.000000
_cell_angle_beta 90.000000
_cell_angle_gamma 90.000000
_cell_volume 1970.121685
_symmetry_space_group_name_H-M "P C C M"
_symmetry_group_IT_number 49
_symmetry_cell_setting 'orthorhombic'
loop_
_space_group_symop_operation_xyz
x,y,z
-x,-y,z
x,-y,1/2-z
-x,y,1/2-z
-x,-y,-z
x,y,-z
-x,y,1/2+z
x,-y,1/2+z
loop_
_atom_site_type_symbol
_atom_site_label
_atom_site_fract_x
_atom_site_fract_y
_atom_site_fract_z
Si Si1 0.720090 0.897941 0.687415
Si Si2 0.911855 0.897486 0.685621
Si Si3 0.596872 0.254499 0.685607
Si Si4 0.729673 0.601770 0.314123
Si Si5 0.910715 0.603079 0.814055
O O1 0.713139 0.897887 0.500000
O O2 0.816768 0.861896 0.728437
O O3 0.647650 0.834943 0.760630
O O4 0.712956 0.000000 0.750000
O O5 0.917846 0.899700 0.500000
O O6 0.000000 0.854720 0.750000
O O7 0.910754 0.000000 0.750000
O O8 0.500000 0.254120 0.750000
O O9 0.596078 0.260568 0.500000
O O10 0.651194 0.337375 0.756170
O O11 0.720357 0.500000 0.250000
O O12 0.733709 0.599788 0.500000
O O13 0.820549 0.640827 0.249473
O O14 0.909930 0.500000 0.750000
O O15 0.000000 0.643645 0.750000
O O16 0.911478 0.602483 0.000000
#
# Coordination Sequence:
#
# PCOD9392266 Si02
#       5
#     8   8   8   8   8
#     4  10  21  39  62  91 123 160 201 247 298 355
#     4   9  16  27  49  80 117 155 195 236 283 339
#     4  12  26  45  66  90 118 153 197 251 308 364
#     4  11  22  40  64  92 124 160 201 247 298 358
#     4  10  17  29  51  83 120 160 201 243 291 348
#
# _framework density 20.303312999999999
#
# number of rings (size 3 to 8) (size 9 to 14) (size 15 to 20)
#    0.000    1.600    0.000    9.000    0.000    3.200 
#    0.000    5.000    0.000    2.400    0.000    0.000 
#    0.000    0.000    0.000    0.000    0.000    0.000 
#
# Total GULP energy -223549.035384 kJ/mol
# GULP energy per Si atom -5588.725885 kJ/mol
# Density = 2.025710 g / cm^3
# Si number density = 20.303313 Si / 1000 Ang^3
#
#
#
# Elastic Constant Matrix: (Units=GPa)
#
#
# Indices 1 2 3 4 5 6 
#
# 1 237.3680 73.4970 96.4121 0.0000 0.0000 0.0000
# 2 73.4970 101.2076 43.3713 0.0000 0.0000 0.0000
# 3 96.4121 43.3713 191.1002 0.0000 0.0000 0.0000
# 4 0.0000 0.0000 0.0000 16.9713 0.0000 0.0000
# 5 0.0000 0.0000 0.0000 0.0000 39.7076 0.0000
# 6 0.0000 0.0000 0.0000 0.0000 0.0000 39.3862
#
#
#
# Elastic Compliance Matrix: (Units=1/GPa)
#
#
# Indices 1 2 3 4 5 6 
#
# 1 0.006267 -0.003540 -0.002358 0.000000 0.000000 0.000000
# 2 -0.003540 0.012945 -0.001152 0.000000 0.000000 0.000000
# 3 -0.002358 -0.001152 0.006684 0.000000 0.000000 0.000000
# 4 0.000000 0.000000 0.000000 0.058923 0.000000 0.000000
# 5 0.000000 0.000000 0.000000 0.000000 0.025184 0.000000
# 6 0.000000 0.000000 0.000000 0.000000 0.000000 0.025390
#
#
# Mechanical properties :
#
#
# Convention : Reuss Voigt Hill
#
# Bulk Modulus (GPa) = 84.77942 106.24854 95.51398
# Shear Modulus (GPa) = 32.58905 40.30604 36.44755
#
# Velocity S-wave (km/s) = 4.01073 4.46039 4.24152
# Velocity P-wave (km/s) = 7.95582 8.88656 8.43404
#
# Compressibility (1/GPa) = 0.01179532
#
# Stress axis : x y z
#
# Youngs Moduli (GPa) = 159.56702 77.24767 149.61073
#
# Poissons Ratio (x) = 0.27349 0.35281
# Poissons Ratio (y) = 0.56494 0.17232
# Poissons Ratio (z) = 0.37629 0.08898
#
# Static dielectric constant tensor:
#      x y z
#    x 1.747180 0.000000 0.000000 
#    y 0.000000 2.226400 0.000000 
#    z 0.000000 0.000000 1.670790 
# 
# From -- ./inp_files/3454.got.cif
#   From: 2010.05.17/outbox.cif.g08.bks.cpg/sg49_2_cif.got.tgz:3454.got - 2010.06.03 21:02:19.
