data_PCOD9392873
_publ_section_title
;
Structure prediction by ZEFSAII (Michael W. Deem and Ramdas Pophale) SiO2 
 PCOD9392873
Probable space group: P C C M
;
_chemical_formula_sum "Si O2"
_cell_formula_units_Z 64
_cell_length_a 17.009346
_cell_length_b 23.041494
_cell_length_c 8.159308
_cell_angle_alpha 90.000000
_cell_angle_beta 90.000000
_cell_angle_gamma 90.000000
_cell_volume 3197.802060
_symmetry_space_group_name_H-M "P C C M"
_symmetry_group_IT_number 49
_symmetry_cell_setting 'orthorhombic'
loop_
_space_group_symop_operation_xyz
x,y,z
-x,-y,z
x,-y,1/2-z
-x,y,1/2-z
-x,-y,-z
x,y,-z
-x,y,1/2+z
x,-y,1/2+z
loop_
_atom_site_type_symbol
_atom_site_label
_atom_site_fract_x
_atom_site_fract_y
_atom_site_fract_z
Si Si1 0.720443 0.689557 0.799739
Si Si2 0.111666 0.727104 0.192837
Si Si3 0.081420 0.599034 0.195914
Si Si4 0.914173 0.143166 0.803379
Si Si5 0.233913 0.935908 0.304058
Si Si6 0.416844 0.227087 0.196109
Si Si7 0.412370 0.094103 0.198046
Si Si8 0.749519 0.438129 0.693233
O O1 0.796152 0.718546 0.719621
O O2 0.649129 0.729390 0.748090
O O3 0.713228 0.622595 0.745558
O O4 0.728528 0.690826 0.000000
O O5 0.081502 0.665697 0.263761
O O6 0.088843 0.789958 0.262028
O O7 0.091605 0.727783 0.000000
O O8 0.158686 0.567762 0.260592
O O9 0.000000 0.571489 0.250000
O O10 0.086692 0.601049 0.000000
O O11 0.834483 0.109084 0.751606
O O12 0.000000 0.118725 0.750000
O O13 0.913148 0.144707 0.000000
O O14 0.237025 0.931482 0.500000
O O15 0.325972 0.929035 0.245923
O O16 0.208456 0.000000 0.250000
O O17 0.500000 0.250516 0.250000
O O18 0.410152 0.161104 0.256615
O O19 0.412443 0.223385 0.000000
O O20 0.500000 0.071242 0.250000
O O21 0.412472 0.090838 0.000000
O O22 0.718010 0.500000 0.750000
O O23 0.742555 0.437351 0.500000
#
# Coordination Sequence:
#
# PCOD9392873 Si02
#       8
#     8   8   8   8   8   8   8   8
#     4   9  18  32  52  75 103 137 173 213 261 312
#     4   9  19  33  52  79 108 135 169 212 262 316
#     4  10  19  32  49  72 101 131 163 204 252 306
#     4  11  23  39  59  84 112 146 186 231 279 329
#     4  11  24  42  61  83 111 147 189 233 276 323
#     4   9  17  31  51  79 109 136 165 202 250 308
#     4   9  19  35  58  86 117 148 178 215 266 325
#     4  10  20  34  50  69  93 128 171 215 258 303
#
# _framework density 20.013746000000001
#
# number of rings (size 3 to 8) (size 9 to 14) (size 15 to 20)
#    0.000    2.250    0.000    2.625    0.000    5.250 
#    0.000    6.250    0.000    0.375    0.000    2.625 
#    0.000    0.000    0.000    0.000    0.000    0.000 
#
# Total GULP energy -356650.729949 kJ/mol
# GULP energy per Si atom -5572.667655 kJ/mol
# Density = 1.996819 g / cm^3
# Si number density = 20.013746 Si / 1000 Ang^3
#
#
#
# Elastic Constant Matrix: (Units=GPa)
#
#
# Indices 1 2 3 4 5 6 
#
# 1 97.4279 42.6264 5.6493 0.0000 0.0000 0.0000
# 2 42.6264 98.8139 8.6059 0.0000 0.0000 0.0000
# 3 5.6493 8.6059 16.7609 0.0000 0.0000 0.0000
# 4 0.0000 0.0000 0.0000 16.0984 0.0000 0.0000
# 5 0.0000 0.0000 0.0000 0.0000 24.1811 0.0000
# 6 0.0000 0.0000 0.0000 0.0000 0.0000 19.7656
#
#
#
# Elastic Compliance Matrix: (Units=1/GPa)
#
#
# Indices 1 2 3 4 5 6 
#
# 1 0.012689 -0.005340 -0.001535 0.000000 0.000000 0.000000
# 2 -0.005340 0.012841 -0.004793 0.000000 0.000000 0.000000
# 3 -0.001535 -0.004793 0.062641 0.000000 0.000000 0.000000
# 4 0.000000 0.000000 0.000000 0.062118 0.000000 0.000000
# 5 0.000000 0.000000 0.000000 0.000000 0.041355 0.000000
# 6 0.000000 0.000000 0.000000 0.000000 0.000000 0.050593
#
#
# Mechanical properties :
#
#
# Convention : Reuss Voigt Hill
#
# Bulk Modulus (GPa) = 15.42385 36.30730 25.86558
# Shear Modulus (GPa) = 17.41029 22.41710 19.91369
#
# Velocity S-wave (km/s) = 2.95263 3.35040 3.15779
# Velocity P-wave (km/s) = 4.39857 5.75738 5.12323
#
# Compressibility (1/GPa) = 0.06483465
#
# Stress axis : x y z
#
# Youngs Moduli (GPa) = 78.80542 77.87439 15.96390
#
# Poissons Ratio (x) = 0.41587 0.02451
# Poissons Ratio (y) = 0.42084 0.07652
# Poissons Ratio (z) = 0.12097 0.37328
#
# Static dielectric constant tensor:
#      x y z
#    x 1.734150 0.000000 0.000000 
#    y 0.000000 1.742620 0.000000 
#    z 0.000000 0.000000 1.667750 
# 
# From -- ./inp_files/5269.got.cif
#   From: 2010.05.17/outbox.cif.g08.bks.cpg/sg49_3_cif.got.tgz:5269.got - 2010.06.03 21:02:19.
