data_PCOD9392139
_publ_section_title
;
Structure prediction by ZEFSAII (Michael W. Deem and Ramdas Pophale) SiO2 
 PCOD9392139
Probable space group: P C C M
;
_chemical_formula_sum "Si O2"
_cell_formula_units_Z 58
_cell_length_a 26.220404
_cell_length_b 15.182422
_cell_length_c 8.181604
_cell_angle_alpha 90.000000
_cell_angle_beta 90.000000
_cell_angle_gamma 90.000000
_cell_volume 3257.008506
_symmetry_space_group_name_H-M "P C C M"
_symmetry_group_IT_number 49
_symmetry_cell_setting 'orthorhombic'
loop_
_space_group_symop_operation_xyz
x,y,z
-x,-y,z
x,-y,1/2-z
-x,y,1/2-z
-x,-y,-z
x,y,-z
-x,y,1/2+z
x,-y,1/2+z
loop_
_atom_site_type_symbol
_atom_site_label
_atom_site_fract_x
_atom_site_fract_y
_atom_site_fract_z
Si Si1 0.335674 0.398144 0.694464
Si Si2 0.921175 0.864866 0.695379
Si Si3 0.837758 0.595843 0.804996
Si Si4 0.054633 0.331248 0.195285
Si Si5 0.446066 0.398024 0.193655
Si Si6 0.246659 0.727504 0.193914
Si Si7 0.000000 0.000000 0.250000
Si Si8 0.803559 0.901637 0.303381
O O1 0.329515 0.500000 0.750000
O O2 0.331022 0.400833 0.500000
O O3 0.392374 0.364480 0.738159
O O4 0.292963 0.331451 0.762437
O O5 0.928169 0.886202 0.500000
O O6 0.936429 0.764155 0.723834
O O7 0.957744 0.927277 0.803106
O O8 0.862335 0.880357 0.742386
O O9 0.819853 0.500000 0.750000
O O10 0.896852 0.609613 0.759692
O O11 0.804109 0.670297 0.720671
O O12 0.832650 0.604480 0.000000
O O13 0.000000 0.366745 0.250000
O O14 0.054623 0.319862 0.000000
O O15 0.447000 0.500000 0.250000
O O16 0.500000 0.357859 0.250000
O O17 0.444174 0.395973 0.000000
O O18 0.233777 0.824690 0.260214
O O19 0.255942 0.736849 0.000000
O O20 0.802600 0.898128 0.500000
O O21 0.790515 0.000000 0.250000
#
# Coordination Sequence:
#
# PCOD9392139 Si02
#       8
#     8   8   8   8   8   8   2   8
#     4  10  19  31  48  73 105 141 182 223 260 304
#     4  11  22  35  53  75 103 128 155 195 246 307
#     4  11  24  39  57  79 101 130 167 209 255 308
#     4  11  24  39  56  76  98 124 158 199 248 303
#     4  10  17  27  44  68 102 143 184 222 261 303
#     4  10  21  37  56  77 105 139 175 216 262 308
#     4  12  22  32  52  86 104 124 162 196 260 312
#     4  10  21  37  55  77 102 134 167 206 257 311
#
# _framework density 17.807752000000001
#
# number of rings (size 3 to 8) (size 9 to 14) (size 15 to 20)
#    0.000    1.517    2.759    4.345    0.000    5.793 
#    0.000    1.379    0.000    0.000    0.000    0.000 
#    0.000    0.552    0.000    6.345    0.000    1.931 
#
# Total GULP energy -323469.952801 kJ/mol
# GULP energy per Si atom -5577.068152 kJ/mol
# Density = 1.776722 g / cm^3
# Si number density = 17.807752 Si / 1000 Ang^3
#
#
#
# Elastic Constant Matrix: (Units=GPa)
#
#
# Indices 1 2 3 4 5 6 
#
# 1 126.6917 43.4474 11.3016 0.0000 0.0000 0.0000
# 2 43.4474 80.7439 2.6783 0.0000 0.0000 0.0000
# 3 11.3016 2.6783 31.9037 0.0000 0.0000 0.0000
# 4 0.0000 0.0000 0.0000 15.6425 0.0000 0.0000
# 5 0.0000 0.0000 0.0000 0.0000 18.7245 0.0000
# 6 0.0000 0.0000 0.0000 0.0000 0.0000 -1.5663
#
#
#
# Elastic Compliance Matrix: (Units=1/GPa)
#
#
# Indices 1 2 3 4 5 6 
#
# 1 0.009974 -0.005265 -0.003091 0.000000 0.000000 0.000000
# 2 -0.005265 0.015198 0.000589 0.000000 0.000000 0.000000
# 3 -0.003091 0.000589 0.032390 0.000000 0.000000 0.000000
# 4 0.000000 0.000000 0.000000 0.063928 0.000000 0.000000
# 5 0.000000 0.000000 0.000000 0.000000 0.053406 0.000000
# 6 0.000000 0.000000 0.000000 0.000000 0.000000 -0.638439
#
#
# Mechanical properties :
#
#
# Convention : Reuss Voigt Hill
#
# Bulk Modulus (GPa) = 23.79328 39.35491 31.57409
# Shear Modulus (GPa) = -11.52076 18.68761 3.58342
#
# Velocity S-wave (km/s) = -2.54628 3.24297 1.42009
# Velocity P-wave (km/s) = 2.17840 6.01418 4.52304
#
# Compressibility (1/GPa) = 0.04202867
#
# Stress axis : x y z
#
# Youngs Moduli (GPa) = 100.25706 65.79774 30.87373
#
# Poissons Ratio (x) = 0.34640 0.09544
# Poissons Ratio (y) = 0.52781 -0.01819
# Poissons Ratio (z) = 0.30993 -0.03876
#
# Static dielectric constant tensor:
#      x y z
#    x 1.651640 0.000000 0.000000 
#    y 0.000000 1.583750 0.000000 
#    z 0.000000 0.000000 1.632260 
# 
# From -- ./inp_files/6455.got.cif
#   From: 2010.05.17/outbox.cif.g08.bks.cpg/sg49_4_cif.got.tgz:6455.got - 2010.06.03 21:02:19.
