data_PCOD9392569
_publ_section_title
;
Structure prediction by ZEFSAII (Michael W. Deem and Ramdas Pophale) SiO2 
 PCOD9392569
Probable space group: P C C M
;
_chemical_formula_sum "Si O2"
_cell_formula_units_Z 56
_cell_length_a 5.412012
_cell_length_b 27.598657
_cell_length_c 19.467826
_cell_angle_alpha 90.000000
_cell_angle_beta 90.000000
_cell_angle_gamma 90.000000
_cell_volume 2907.797480
_symmetry_space_group_name_H-M "P C C M"
_symmetry_group_IT_number 49
_symmetry_cell_setting 'orthorhombic'
loop_
_space_group_symop_operation_xyz
x,y,z
-x,-y,z
x,-y,1/2-z
-x,y,1/2-z
-x,-y,-z
x,y,-z
-x,y,1/2+z
x,-y,1/2+z
loop_
_atom_site_type_symbol
_atom_site_label
_atom_site_fract_x
_atom_site_fract_y
_atom_site_fract_z
Si Si1 0.250000 0.653175 0.577104
Si Si2 0.750000 0.410640 0.076297
Si Si3 0.750000 0.445429 0.221843
Si Si4 0.750000 0.717446 0.789876
Si Si5 0.750000 0.831677 0.818315
Si Si6 0.750000 0.128753 0.164558
Si Si7 0.250000 0.968699 0.080172
O O1 0.250001 0.674117 0.500000
O O2 0.499977 0.621155 0.582831
O O3 0.250000 0.692710 0.636196
O O4 0.000024 0.621155 0.582831
O O5 0.750000 0.446606 0.140114
O O6 0.750001 0.432689 0.000000
O O7 0.750000 0.500000 0.250000
O O8 0.500000 0.421401 0.250000
O O9 0.000000 0.421401 0.250000
O O10 0.500000 0.703648 0.750000
O O11 0.750000 0.775776 0.797135
O O12 0.000000 0.703648 0.750000
O O13 0.501178 0.844939 0.857815
O O14 0.750000 0.863696 0.747703
O O15 0.998822 0.844940 0.857815
O O16 0.750000 0.075142 0.134238
O O17 0.500000 0.000000 0.089566
O O18 0.250000 0.951814 0.000000
O O19 0.000000 0.000000 0.089566
#
# Coordination Sequence:
#
# PCOD9392569 Si02
#       7
#     8   8   8   8   8   8   8
#     4  10  23  39  58  87 120 156 200 243 289 350
#     4  10  21  40  60  82 119 161 195 238 296 353
#     4  10  21  37  58  87 121 151 192 254 291 338
#     4  12  21  37  60  86 117 156 193 242 295 346
#     4  10  19  35  54  76 109 138 178 225 275 325
#     4  10  18  35  56  76 105 146 175 225 267 329
#     4  10  21  37  55  78 109 142 181 229 277 332
#
# _framework density 19.258561
#
# number of rings (size 3 to 8) (size 9 to 14) (size 15 to 20)
#    0.000    1.714    2.857    2.571    0.000    3.429 
#    0.000   12.857    0.000    0.000    0.000    0.000 
#    0.000    0.000    0.000    0.000    0.000    0.000 
#
# Total GULP energy -312354.890870 kJ/mol
# GULP energy per Si atom -5577.765908 kJ/mol
# Density = 1.921473 g / cm^3
# Si number density = 19.258561 Si / 1000 Ang^3
#
#
#
# Elastic Constant Matrix: (Units=GPa)
#
#
# Indices 1 2 3 4 5 6 
#
# 1 200.8312 27.1006 41.5949 0.0000 0.0000 0.0000
# 2 27.1006 66.5989 73.0087 0.0000 0.0000 0.0000
# 3 41.5949 73.0087 155.8563 0.0000 0.0000 0.0000
# 4 0.0000 0.0000 0.0000 -3.8059 0.0000 0.0000
# 5 0.0000 0.0000 0.0000 0.0000 33.4652 0.0000
# 6 0.0000 0.0000 0.0000 0.0000 0.0000 -9.7268
#
#
#
# Elastic Compliance Matrix: (Units=1/GPa)
#
#
# Indices 1 2 3 4 5 6 
#
# 1 0.005321 -0.001251 -0.000834 0.000000 0.000000 0.000000
# 2 -0.001251 0.031159 -0.014262 0.000000 0.000000 0.000000
# 3 -0.000834 -0.014262 0.013320 0.000000 0.000000 0.000000
# 4 0.000000 0.000000 0.000000 -0.262751 0.000000 0.000000
# 5 0.000000 0.000000 0.000000 0.000000 0.029882 0.000000
# 6 0.000000 0.000000 0.000000 0.000000 0.000000 -0.102808
#
#
# Mechanical properties :
#
#
# Convention : Reuss Voigt Hill
#
# Bulk Modulus (GPa) = 58.46097 78.52165 68.49131
# Shear Modulus (GPa) = -20.20357 22.75864 1.27754
#
# Velocity S-wave (km/s) = -3.24245 3.44138 0.81535
# Velocity P-wave (km/s) = 4.05016 7.52673 6.04381
#
# Compressibility (1/GPa) = 0.01710543
#
# Stress axis : x y z
#
# Youngs Moduli (GPa) = 187.94008 32.09325 75.07645
#
# Poissons Ratio (x) = 0.04014 0.06262
# Poissons Ratio (y) = 0.23507 1.07076
# Poissons Ratio (z) = 0.15677 0.45772
#
# Static dielectric constant tensor:
#      x y z
#    x 1.697590 0.000000 0.000000 
#    y 0.000000 1.617490 0.000000 
#    z 0.000000 0.000000 1.625360 
# 
# From -- ./inp_files/10764.got.cif
#   From: 2010.05.17/outbox.cif.g08.bks.cpg/sg49_6_cif.got.tgz:10764.got - 2010.06.03 21:02:19.
