data_PCOD9392957
_publ_section_title
;
Structure prediction by ZEFSAII (Michael W. Deem and Ramdas Pophale) SiO2 
 PCOD9392957
Probable space group: P C C M
;
_chemical_formula_sum "Si O2"
_cell_formula_units_Z 56
_cell_length_a 15.849514
_cell_length_b 20.610720
_cell_length_c 8.598678
_cell_angle_alpha 90.000000
_cell_angle_beta 90.000000
_cell_angle_gamma 90.000000
_cell_volume 2808.929241
_symmetry_space_group_name_H-M "P C C M"
_symmetry_group_IT_number 49
_symmetry_cell_setting 'orthorhombic'
loop_
_space_group_symop_operation_xyz
x,y,z
-x,-y,z
x,-y,1/2-z
-x,y,1/2-z
-x,-y,-z
x,y,-z
-x,y,1/2+z
x,-y,1/2+z
loop_
_atom_site_type_symbol
_atom_site_label
_atom_site_fract_x
_atom_site_fract_y
_atom_site_fract_z
Si Si1 0.411002 0.116246 0.315468
Si Si2 0.909014 0.171717 0.686411
Si Si3 0.628483 0.734656 0.683504
Si Si4 0.766953 0.069909 0.686311
Si Si5 0.588151 0.399803 0.681924
Si Si6 0.809862 0.295189 0.313480
Si Si7 0.228926 0.431296 0.315237
O O1 0.500000 0.091851 0.250000
O O2 0.408600 0.106873 0.500000
O O3 0.404754 0.193651 0.283662
O O4 0.327623 0.085135 0.242724
O O5 0.911257 0.167427 0.500000
O O6 0.833355 0.124675 0.740341
O O7 0.884764 0.245934 0.726112
O O8 0.000000 0.153383 0.750000
O O9 0.616322 0.719702 0.500000
O O10 0.589635 0.677839 0.788132
O O11 0.727272 0.731898 0.725921
O O12 0.766817 0.069462 0.500000
O O13 0.792869 0.000000 0.750000
O O14 0.500000 0.424450 0.750000
O O15 0.595122 0.414103 0.500000
O O16 0.672037 0.424371 0.768256
O O17 0.795352 0.293064 0.500000
O O18 0.817307 0.369471 0.260520
O O19 0.198687 0.500000 0.250000
O O20 0.221843 0.428601 0.500000
#
# Coordination Sequence:
#
# PCOD9392957 Si02
#       7
#     8   8   8   8   8   8   8
#     4  11  23  37  58  87 120 163 210 259 308 363
#     4  10  23  41  67  98 129 162 201 249 306 368
#     4  10  19  32  53  82 113 152 199 248 305 359
#     4  11  24  44  65  91 126 166 207 255 309 366
#     4  11  21  33  49  73 108 150 197 252 305 359
#     4  10  19  36  60  88 120 157 197 246 302 356
#     4  11  22  37  56  82 113 154 200 245 300 363
#
# _framework density 19.936422
#
# number of rings (size 3 to 8) (size 9 to 14) (size 15 to 20)
#    0.000    1.429    1.429    6.429    0.000    6.000 
#    0.000    4.286    0.000    0.429    0.000    3.000 
#    0.000    0.000    0.000    0.000    0.000    0.000 
#
# Total GULP energy -313037.023250 kJ/mol
# GULP energy per Si atom -5589.946844 kJ/mol
# Density = 1.989105 g / cm^3
# Si number density = 19.936422 Si / 1000 Ang^3
#
#
#
# Elastic Constant Matrix: (Units=GPa)
#
#
# Indices 1 2 3 4 5 6 
#
# 1 98.2448 45.0720 16.6805 0.0000 0.0000 0.0000
# 2 45.0720 113.7108 36.7716 0.0000 0.0000 0.0000
# 3 16.6805 36.7716 55.6503 0.0000 0.0000 0.0000
# 4 0.0000 0.0000 0.0000 32.8301 0.0000 0.0000
# 5 0.0000 0.0000 0.0000 0.0000 23.8627 0.0000
# 6 0.0000 0.0000 0.0000 0.0000 0.0000 -10.0661
#
#
#
# Elastic Compliance Matrix: (Units=1/GPa)
#
#
# Indices 1 2 3 4 5 6 
#
# 1 0.012457 -0.004744 -0.000599 0.000000 0.000000 0.000000
# 2 -0.004744 0.012990 -0.007162 0.000000 0.000000 0.000000
# 3 -0.000599 -0.007162 0.022881 0.000000 0.000000 0.000000
# 4 0.000000 0.000000 0.000000 0.030460 0.000000 0.000000
# 5 0.000000 0.000000 0.000000 0.000000 0.041906 0.000000
# 6 0.000000 0.000000 0.000000 0.000000 0.000000 -0.099343
#
#
# Mechanical properties :
#
#
# Convention : Reuss Voigt Hill
#
# Bulk Modulus (GPa) = 42.88370 51.62824 47.25597
# Shear Modulus (GPa) = 92.36326 20.59745 56.48035
#
# Velocity S-wave (km/s) = 6.81392 3.21776 5.32839
# Velocity P-wave (km/s) = 9.13580 6.30539 7.84923
#
# Compressibility (1/GPa) = 0.02331889
#
# Stress axis : x y z
#
# Youngs Moduli (GPa) = 80.27809 76.97945 43.70403
#
# Poissons Ratio (x) = 0.36517 0.02619
# Poissons Ratio (y) = 0.38082 0.31300
# Poissons Ratio (z) = 0.04811 0.55131
#
# Static dielectric constant tensor:
#      x y z
#    x 1.689580 0.000000 0.000000 
#    y 0.000000 1.737110 0.000000 
#    z 0.000000 0.000000 1.668410 
# 
# From -- ./inp_files/4014.got.cif
#   From: 2010.05.17/outbox.cif.g08.bks.cpg/sg49_3_cif.got.tgz:4014.got - 2010.06.03 21:02:19.
