data_PCOD9392584
_publ_section_title
;
Structure prediction by ZEFSAII (Michael W. Deem and Ramdas Pophale) SiO2 
 PCOD9392584
Probable space group: P C C M
;
_chemical_formula_sum "Si O2"
_cell_formula_units_Z 64
_cell_length_a 11.969151
_cell_length_b 10.738617
_cell_length_c 25.587225
_cell_angle_alpha 90.000000
_cell_angle_beta 90.000000
_cell_angle_gamma 90.000000
_cell_volume 3288.780489
_symmetry_space_group_name_H-M "P C C M"
_symmetry_group_IT_number 49
_symmetry_cell_setting 'orthorhombic'
loop_
_space_group_symop_operation_xyz
x,y,z
-x,-y,z
x,-y,1/2-z
-x,y,1/2-z
-x,-y,-z
x,y,-z
-x,y,1/2+z
x,-y,1/2+z
loop_
_atom_site_type_symbol
_atom_site_label
_atom_site_fract_x
_atom_site_fract_y
_atom_site_fract_z
Si Si1 0.342795 0.622843 0.858164
Si Si2 0.055303 0.632450 0.305528
Si Si3 0.696738 0.637635 0.242044
Si Si4 0.610760 0.949754 0.558577
Si Si5 0.404893 0.331468 0.857561
Si Si6 0.790082 0.251359 0.937716
Si Si7 0.750515 0.199710 0.557671
Si Si8 0.985044 0.148014 0.611148
O O1 0.296553 0.677270 0.802729
O O2 0.374216 0.477337 0.856011
O O3 0.464476 0.683436 0.869885
O O4 0.246838 0.633725 0.901980
O O5 0.185867 0.620627 0.289050
O O6 0.000000 0.500000 0.324299
O O7 0.000000 0.657721 0.250000
O O8 0.031914 0.750706 0.342363
O O9 0.645825 0.500000 0.250000
O O10 0.621266 0.714178 0.201621
O O11 0.574910 0.905770 0.500000
O O12 0.691697 0.843971 0.578760
O O13 0.500000 0.000000 0.586616
O O14 0.689136 0.068280 0.553572
O O15 0.322052 0.272950 0.899780
O O16 0.906479 0.192049 0.920796
O O17 0.787310 0.272260 0.000000
O O18 0.750197 0.259651 0.500000
O O19 0.875058 0.169647 0.576353
O O20 0.000000 0.000000 0.624899
#
# Coordination Sequence:
#
# PCOD9392584 Si02
#       8
#     8   8   8   8   8   8   8   8
#     4  10  22  38  61  93 125 161 204 261 323 380
#     4  11  22  39  66  94 124 170 216 264 320 389
#     4  10  18  36  62  92 118 157 209 256 311 384
#     4   9  18  34  57  81 107 147 201 250 292 353
#     4  10  21  38  61  92 127 160 204 260 322 384
#     4  11  23  38  59  86 120 161 210 259 312 379
#     4  11  22  38  61  87 120 164 210 255 313 382
#     4  12  25  41  63  93 130 171 217 272 328 379
#
# _framework density 19.460100000000001
#
# number of rings (size 3 to 8) (size 9 to 14) (size 15 to 20)
#    0.000    1.500    3.750    2.250    1.750    4.250 
#    0.000    1.250    0.000    3.000    0.000    2.625 
#    0.000    0.000    0.000    0.000    0.000    0.000 
#
# Total GULP energy -356299.470232 kJ/mol
# GULP energy per Si atom -5567.179222 kJ/mol
# Density = 1.941581 g / cm^3
# Si number density = 19.460100 Si / 1000 Ang^3
#
#
#
# Elastic Constant Matrix: (Units=GPa)
#
#
# Indices 1 2 3 4 5 6 
#
# 1 126.6666 30.2475 47.0672 0.0000 0.0000 0.0000
# 2 30.2475 54.9764 51.0694 0.0000 0.0000 0.0000
# 3 47.0672 51.0694 120.1888 0.0000 0.0000 0.0000
# 4 0.0000 0.0000 0.0000 26.8632 0.0000 0.0000
# 5 0.0000 0.0000 0.0000 0.0000 31.4097 0.0000
# 6 0.0000 0.0000 0.0000 0.0000 0.0000 29.5757
#
#
#
# Elastic Compliance Matrix: (Units=1/GPa)
#
#
# Indices 1 2 3 4 5 6 
#
# 1 0.009517 -0.002931 -0.002481 0.000000 0.000000 0.000000
# 2 -0.002931 0.030954 -0.012005 0.000000 0.000000 0.000000
# 3 -0.002481 -0.012005 0.014393 0.000000 0.000000 0.000000
# 4 0.000000 0.000000 0.000000 0.037226 0.000000 0.000000
# 5 0.000000 0.000000 0.000000 0.000000 0.031837 0.000000
# 6 0.000000 0.000000 0.000000 0.000000 0.000000 0.033812
#
#
# Mechanical properties :
#
#
# Convention : Reuss Voigt Hill
#
# Bulk Modulus (GPa) = 49.92722 62.06667 55.99694
# Shear Modulus (GPa) = 25.09426 29.13290 27.11358
#
# Velocity S-wave (km/s) = 3.59489 3.87338 3.73673
# Velocity P-wave (km/s) = 6.55308 7.20886 6.88878
#
# Compressibility (1/GPa) = 0.02002916
#
# Stress axis : x y z
#
# Youngs Moduli (GPa) = 105.07844 32.30618 69.47835
#
# Poissons Ratio (x) = 0.09469 0.17241
# Poissons Ratio (y) = 0.30797 0.83407
# Poissons Ratio (z) = 0.26075 0.38783
#
# Static dielectric constant tensor:
#      x y z
#    x 1.746820 0.000000 0.000000 
#    y 0.000000 1.774130 0.000000 
#    z 0.000000 0.000000 1.768700 
# 
# From -- ./inp_files/23004.got.cif
#   From: 2010.05.17/outbox.cif.g08.bks.cpg/sg49_12_cif.got.tgz:23004.got - 2010.06.03 21:02:19.
