data_PCOD9392342
_publ_section_title
;
Structure prediction by ZEFSAII (Michael W. Deem and Ramdas Pophale) SiO2 
 PCOD9392342
Probable space group: P C C M
;
_chemical_formula_sum "Si O2"
_cell_formula_units_Z 48
_cell_length_a 14.171137
_cell_length_b 24.538932
_cell_length_c 8.622395
_cell_angle_alpha 90.000000
_cell_angle_beta 90.000000
_cell_angle_gamma 90.000000
_cell_volume 2998.391018
_symmetry_space_group_name_H-M "P C C M"
_symmetry_group_IT_number 49
_symmetry_cell_setting 'orthorhombic'
loop_
_space_group_symop_operation_xyz
x,y,z
-x,-y,z
x,-y,1/2-z
-x,y,1/2-z
-x,-y,-z
x,y,-z
-x,y,1/2+z
x,-y,1/2+z
loop_
_atom_site_type_symbol
_atom_site_label
_atom_site_fract_x
_atom_site_fract_y
_atom_site_fract_z
Si Si1 0.896476 0.773095 0.813241
Si Si2 0.104808 0.559086 0.815481
Si Si3 0.394118 0.058669 0.813150
Si Si4 0.603156 0.723694 0.186771
Si Si5 0.290180 0.167426 0.811162
Si Si6 0.209323 0.662332 0.312758
O O1 0.814962 0.815238 0.761588
O O2 0.859284 0.712753 0.768992
O O3 0.000000 0.783853 0.750000
O O4 0.899237 0.774418 0.000000
O O5 0.133194 0.500000 0.750000
O O6 0.173778 0.606944 0.762032
O O7 0.000000 0.570803 0.750000
O O8 0.099569 0.556379 0.000000
O O9 0.500000 0.067718 0.750000
O O10 0.328473 0.108845 0.762124
O O11 0.362259 0.000000 0.750000
O O12 0.397395 0.056990 0.000000
O O13 0.500000 0.711823 0.250000
O O14 0.639845 0.783605 0.237329
O O15 0.685261 0.681253 0.231998
O O16 0.599994 0.724141 0.000000
O O17 0.289930 0.167700 0.000000
O O18 0.206254 0.657434 0.500000
#
# Coordination Sequence:
#
# PCOD9392342 Si02
#       6
#     8   8   8   8   8   8
#     4   9  17  30  47  67  91 119 150 184 225 269
#     4  11  21  33  50  71  96 124 155 189 227 270
#     4  10  18  29  45  65  90 118 149 184 224 268
#     4   9  17  30  48  69  94 123 153 187 227 271
#     4   8  16  30  46  64  90 123 151 181 225 272
#     4   9  18  32  48  68  96 125 152 185 227 272
#
# _framework density 16.008586000000001
#
# number of rings (size 3 to 8) (size 9 to 14) (size 15 to 20)
#    0.000    2.667    0.000    6.000    0.000    2.667 
#    0.000    5.000    0.000    1.000    0.000    7.000 
#    0.000    0.000    0.000    0.000    0.000    0.000 
#
# Total GULP energy -267610.563621 kJ/mol
# GULP energy per Si atom -5575.220075 kJ/mol
# Density = 1.597215 g / cm^3
# Si number density = 16.008586 Si / 1000 Ang^3
#
#
#
# Elastic Constant Matrix: (Units=GPa)
#
#
# Indices 1 2 3 4 5 6 
#
# 1 129.9141 94.8216 33.5289 0.0000 0.0000 0.0000
# 2 94.8216 151.8094 43.2985 0.0000 0.0000 0.0000
# 3 33.5289 43.2985 43.7444 0.0000 0.0000 0.0000
# 4 0.0000 0.0000 0.0000 28.1802 0.0000 0.0000
# 5 0.0000 0.0000 0.0000 0.0000 25.9794 0.0000
# 6 0.0000 0.0000 0.0000 0.0000 0.0000 23.5741
#
#
#
# Elastic Compliance Matrix: (Units=1/GPa)
#
#
# Indices 1 2 3 4 5 6 
#
# 1 0.014420 -0.008157 -0.002978 0.000000 0.000000 0.000000
# 2 -0.008157 0.013793 -0.007400 0.000000 0.000000 0.000000
# 3 -0.002978 -0.007400 0.032467 0.000000 0.000000 0.000000
# 4 0.000000 0.000000 0.000000 0.035486 0.000000 0.000000
# 5 0.000000 0.000000 0.000000 0.000000 0.038492 0.000000
# 6 0.000000 0.000000 0.000000 0.000000 0.000000 0.042419
#
#
# Mechanical properties :
#
#
# Convention : Reuss Voigt Hill
#
# Bulk Modulus (GPa) = 42.35664 74.30734 58.33199
# Shear Modulus (GPa) = 22.52065 25.80135 24.16100
#
# Velocity S-wave (km/s) = 3.75478 4.01898 3.88912
# Velocity P-wave (km/s) = 6.73157 8.24950 7.52888
#
# Compressibility (1/GPa) = 0.02360905
#
# Stress axis : x y z
#
# Youngs Moduli (GPa) = 69.34845 72.50064 30.80016
#
# Poissons Ratio (x) = 0.59142 0.09173
# Poissons Ratio (y) = 0.56570 0.22792
# Poissons Ratio (z) = 0.20654 0.53650
#
# Static dielectric constant tensor:
#      x y z
#    x 1.521160 0.000000 0.000000 
#    y 0.000000 1.531100 0.000000 
#    z 0.000000 0.000000 1.544880 
# 
# From -- ./inp_files/4156.got.cif
#   From: 2010.05.17/outbox.cif.g08.bks.cpg/sg49_3_cif.got.tgz:4156.got - 2010.06.03 21:02:19.
