data_PCOD9392312
_publ_section_title
;
Structure prediction by ZEFSAII (Michael W. Deem and Ramdas Pophale) SiO2 
 PCOD9392312
Probable space group: P C C M
;
_chemical_formula_sum "Si O2"
_cell_formula_units_Z 64
_cell_length_a 24.327152
_cell_length_b 19.777715
_cell_length_c 8.616298
_cell_angle_alpha 90.000000
_cell_angle_beta 90.000000
_cell_angle_gamma 90.000000
_cell_volume 4145.606666
_symmetry_space_group_name_H-M "P C C M"
_symmetry_group_IT_number 49
_symmetry_cell_setting 'orthorhombic'
loop_
_space_group_symop_operation_xyz
x,y,z
-x,-y,z
x,-y,1/2-z
-x,y,1/2-z
-x,-y,-z
x,y,-z
-x,y,1/2+z
x,-y,1/2+z
loop_
_atom_site_type_symbol
_atom_site_label
_atom_site_fract_x
_atom_site_fract_y
_atom_site_fract_z
Si Si1 0.758843 0.071860 0.186815
Si Si2 0.440600 0.575761 0.813033
Si Si3 0.888016 0.927479 0.314056
Si Si4 0.777750 0.425437 0.812993
Si Si5 0.332144 0.346690 0.310808
Si Si6 0.940165 0.791179 0.184140
Si Si7 0.728489 0.215982 0.811546
Si Si8 0.841039 0.706162 0.687045
O O1 0.823398 0.079661 0.230230
O O2 0.726947 0.138679 0.242540
O O3 0.739255 0.000000 0.250000
O O4 0.756853 0.070015 0.000000
O O5 0.430805 0.500000 0.750000
O O6 0.500000 0.597764 0.750000
O O7 0.390525 0.623646 0.761978
O O8 0.442222 0.573384 0.000000
O O9 0.891315 0.927166 0.500000
O O10 0.920931 0.864040 0.248712
O O11 0.907096 0.000000 0.250000
O O12 0.786881 0.500000 0.750000
O O13 0.718271 0.395607 0.763465
O O14 0.823196 0.369636 0.767194
O O15 0.777275 0.427382 0.000000
O O16 0.331997 0.346103 0.500000
O O17 0.316225 0.270965 0.258523
O O18 0.894985 0.736665 0.237262
O O19 0.000000 0.774730 0.250000
O O20 0.942259 0.794427 0.000000
O O21 0.788344 0.247019 0.773792
O O22 0.725731 0.214575 0.000000
O O23 0.847011 0.708470 0.500000
#
# Coordination Sequence:
#
# PCOD9392312 Si02
#       8
#     8   8   8   8   8   8   8   8
#     4   9  16  26  44  65  89 119 145 175 213 262
#     4  10  18  28  42  61  88 125 162 195 223 259
#     4  10  19  33  50  70  93 120 150 183 220 263
#     4   9  17  29  49  72  95 119 145 182 225 271
#     4   8  15  26  43  66  90 120 158 190 219 261
#     4  12  24  36  51  69  89 116 149 187 224 268
#     4   8  13  26  46  65  86 116 149 181 220 264
#     4   9  17  33  51  67  89 117 146 178 222 272
#
# _framework density 15.438029999999999
#
# number of rings (size 3 to 8) (size 9 to 14) (size 15 to 20)
#    0.000    2.625    1.250    4.125    0.000    1.250 
#    0.000    1.875    0.000    3.375    0.000    2.625 
#    0.000    0.500    0.000    6.250    0.000    0.000 
#
# Total GULP energy -356715.993594 kJ/mol
# GULP energy per Si atom -5573.687400 kJ/mol
# Density = 1.540289 g / cm^3
# Si number density = 15.438030 Si / 1000 Ang^3
#
#
#
# Elastic Constant Matrix: (Units=GPa)
#
#
# Indices 1 2 3 4 5 6 
#
# 1 108.8657 76.1141 29.4688 0.0000 0.0000 0.0000
# 2 76.1141 148.0771 29.6826 0.0000 0.0000 0.0000
# 3 29.4688 29.6826 32.7336 0.0000 0.0000 0.0000
# 4 0.0000 0.0000 0.0000 23.5705 0.0000 0.0000
# 5 0.0000 0.0000 0.0000 0.0000 -2.9788 0.0000
# 6 0.0000 0.0000 0.0000 0.0000 0.0000 25.8381
#
#
#
# Elastic Compliance Matrix: (Units=1/GPa)
#
#
# Indices 1 2 3 4 5 6 
#
# 1 0.016077 -0.006554 -0.008530 0.000000 0.000000 0.000000
# 2 -0.006554 0.010925 -0.004007 0.000000 0.000000 0.000000
# 3 -0.008530 -0.004007 0.041863 0.000000 0.000000 0.000000
# 4 0.000000 0.000000 0.000000 0.042426 0.000000 0.000000
# 5 0.000000 0.000000 0.000000 0.000000 -0.335702 0.000000
# 6 0.000000 0.000000 0.000000 0.000000 0.000000 0.038703
#
#
# Mechanical properties :
#
#
# Convention : Reuss Voigt Hill
#
# Bulk Modulus (GPa) = 32.59170 62.24525 47.41848
# Shear Modulus (GPa) = -36.41686 19.58002 -8.41842
#
# Velocity S-wave (km/s) = -4.86213 3.56518 -2.33771
# Velocity P-wave (km/s) = 3.21920 7.57326 4.84722
#
# Compressibility (1/GPa) = 0.03068266
#
# Stress axis : x y z
#
# Youngs Moduli (GPa) = 62.20125 91.53174 23.88770
#
# Poissons Ratio (x) = 0.59988 0.20377
# Poissons Ratio (y) = 0.40766 0.09571
# Poissons Ratio (z) = 0.53060 0.36674
#
# Static dielectric constant tensor:
#      x y z
#    x 1.499550 0.000000 0.000000 
#    y 0.000000 1.523850 0.000000 
#    z 0.000000 0.000000 1.522850 
# 
# From -- ./inp_files/6093.got.cif
#   From: 2010.05.17/outbox.cif.g08.bks.cpg/sg49_4_cif.got.tgz:6093.got - 2010.06.03 21:02:19.
