data_PCOD9392903
_publ_section_title
;
Structure prediction by ZEFSAII (Michael W. Deem and Ramdas Pophale) SiO2 
 PCOD9392903
Probable space group: P C C M
;
_chemical_formula_sum "Si O2"
_cell_formula_units_Z 48
_cell_length_a 32.989038
_cell_length_b 9.665200
_cell_length_c 8.443202
_cell_angle_alpha 90.000000
_cell_angle_beta 90.000000
_cell_angle_gamma 90.000000
_cell_volume 2692.078230
_symmetry_space_group_name_H-M "P C C M"
_symmetry_group_IT_number 49
_symmetry_cell_setting 'orthorhombic'
loop_
_space_group_symop_operation_xyz
x,y,z
-x,-y,z
x,-y,1/2-z
-x,y,1/2-z
-x,-y,-z
x,y,-z
-x,y,1/2+z
x,-y,1/2+z
loop_
_atom_site_type_symbol
_atom_site_label
_atom_site_fract_x
_atom_site_fract_y
_atom_site_fract_z
Si Si1 0.117000 0.657901 0.190335
Si Si2 0.707304 0.341137 0.808624
Si Si3 0.956235 0.843702 0.188118
Si Si4 0.205658 0.341265 0.308719
Si Si5 0.381169 0.657618 0.191670
Si Si6 0.456266 0.843243 0.809855
O O1 0.113620 0.500000 0.250000
O O2 0.080389 0.748629 0.254573
O O3 0.161638 0.714413 0.241684
O O4 0.115606 0.657427 0.000000
O O5 0.707366 0.500000 0.750000
O O6 0.750832 0.279465 0.755805
O O7 0.663299 0.285520 0.757275
O O8 0.707420 0.340366 0.000000
O O9 0.000000 0.793659 0.250000
O O10 0.950721 0.000000 0.250000
O O11 0.957435 0.846676 0.000000
O O12 0.205830 0.500000 0.250000
O O13 0.205708 0.340923 0.500000
O O14 0.384949 0.500000 0.250000
O O15 0.418842 0.749640 0.246137
O O16 0.381725 0.656042 0.000000
O O17 0.500000 0.792060 0.750000
O O18 0.451391 0.000000 0.750000
O O19 0.456819 0.844456 0.000000
#
# Coordination Sequence:
#
# PCOD9392903 Si02
#       6
#     8   8   8   8   8   8
#     4  10  19  32  50  77 106 133 165 203 244 286
#     4   8  13  24  41  64  92 123 154 188 228 274
#     4  11  22  38  57  76  98 129 165 203 245 295
#     4   8  14  24  42  66  95 127 158 191 231 275
#     4   9  18  30  47  71  97 122 154 193 236 279
#     4  10  20  34  50  68  89 120 157 194 234 283
#
# _framework density 17.830092
#
# number of rings (size 3 to 8) (size 9 to 14) (size 15 to 20)
#    0.000    2.667    0.000    3.500    0.000    2.667 
#    0.000    3.333    0.000    1.000    0.000    2.333 
#    0.000    0.000    0.000    0.000    0.000    0.000 
#
# Total GULP energy -267228.552051 kJ/mol
# GULP energy per Si atom -5567.261501 kJ/mol
# Density = 1.778951 g / cm^3
# Si number density = 17.830092 Si / 1000 Ang^3
#
#
#
# Elastic Constant Matrix: (Units=GPa)
#
#
# Indices 1 2 3 4 5 6 
#
# 1 249.0503 70.8339 40.4983 0.0000 0.0000 0.0000
# 2 70.8339 33.8807 12.8576 0.0000 0.0000 0.0000
# 3 40.4983 12.8576 50.4515 0.0000 0.0000 0.0000
# 4 0.0000 0.0000 0.0000 19.3635 0.0000 0.0000
# 5 0.0000 0.0000 0.0000 0.0000 25.5584 0.0000
# 6 0.0000 0.0000 0.0000 0.0000 0.0000 -21.0110
#
#
#
# Elastic Compliance Matrix: (Units=1/GPa)
#
#
# Indices 1 2 3 4 5 6 
#
# 1 0.010321 -0.020408 -0.003084 0.000000 0.000000 0.000000
# 2 -0.020408 0.073027 -0.002229 0.000000 0.000000 0.000000
# 3 -0.003084 -0.002229 0.022865 0.000000 0.000000 0.000000
# 4 0.000000 0.000000 0.000000 0.051644 0.000000 0.000000
# 5 0.000000 0.000000 0.000000 0.000000 0.039126 0.000000
# 6 0.000000 0.000000 0.000000 0.000000 0.000000 -0.047594
#
#
# Mechanical properties :
#
#
# Convention : Reuss Voigt Hill
#
# Bulk Modulus (GPa) = 18.25783 64.64022 41.44902
# Shear Modulus (GPa) = 22.82189 18.72836 20.77513
#
# Velocity S-wave (km/s) = 3.58154 3.24447 3.41716
# Velocity P-wave (km/s) = 5.23119 7.09701 6.23430
#
# Compressibility (1/GPa) = 0.05477104
#
# Stress axis : x y z
#
# Youngs Moduli (GPa) = 96.88987 13.69348 43.73548
#
# Poissons Ratio (x) = 0.27945 0.13488
# Poissons Ratio (y) = 1.97729 0.09751
# Poissons Ratio (z) = 0.29880 0.03053
#
# Static dielectric constant tensor:
#      x y z
#    x 1.691820 0.000000 0.000000 
#    y 0.000000 1.553540 0.000000 
#    z 0.000000 0.000000 1.613850 
# 
# From -- ./inp_files/6943.got.cif
#   From: 2010.05.17/outbox.cif.g08.bks.cpg/sg49_4_cif.got.tgz:6943.got - 2010.06.03 21:02:19.
