data_PCOD9392606
_publ_section_title
;
Structure prediction by ZEFSAII (Michael W. Deem and Ramdas Pophale) SiO2 
 PCOD9392606
Probable space group: P C C M
;
_chemical_formula_sum "Si O2"
_cell_formula_units_Z 48
_cell_length_a 13.864412
_cell_length_b 24.771689
_cell_length_c 8.775728
_cell_angle_alpha 90.000000
_cell_angle_beta 90.000000
_cell_angle_gamma 90.000000
_cell_volume 3013.979045
_symmetry_space_group_name_H-M "P C C M"
_symmetry_group_IT_number 49
_symmetry_cell_setting 'orthorhombic'
loop_
_space_group_symop_operation_xyz
x,y,z
-x,-y,z
x,-y,1/2-z
-x,y,1/2-z
-x,-y,-z
x,y,-z
-x,y,1/2+z
x,-y,1/2+z
loop_
_atom_site_type_symbol
_atom_site_label
_atom_site_fract_x
_atom_site_fract_y
_atom_site_fract_z
Si Si1 0.897393 0.838398 0.682957
Si Si2 0.795348 0.057841 0.682439
Si Si3 0.604815 0.109634 0.816707
Si Si4 0.607446 0.326718 0.681658
Si Si5 0.703359 0.222593 0.818146
Si Si6 0.391549 0.554249 0.682371
O O1 0.901223 0.843590 0.500000
O O2 0.865061 0.895403 0.754673
O O3 0.811238 0.796858 0.720728
O O4 0.000000 0.822091 0.750000
O O5 0.796101 0.057109 0.500000
O O6 0.688643 0.073300 0.743662
O O7 0.822755 0.000000 0.750000
O O8 0.500000 0.097405 0.750000
O O9 0.634193 0.171736 0.779878
O O10 0.606581 0.103669 0.000000
O O11 0.500000 0.321668 0.750000
O O12 0.598895 0.324721 0.500000
O O13 0.670424 0.277067 0.738926
O O14 0.648361 0.386364 0.722074
O O15 0.697913 0.229951 0.000000
O O16 0.344711 0.500000 0.750000
O O17 0.500000 0.555628 0.750000
O O18 0.396245 0.549281 0.500000
#
# Coordination Sequence:
#
# PCOD9392606 Si02
#       6
#     8   8   8   8   8   8
#     4  10  21  38  57  77  97 120 150 187 233 284
#     4  11  22  37  55  75  98 124 154 191 231 275
#     4  10  20  34  50  71  97 127 161 195 231 275
#     4  10  19  28  42  65  94 127 164 198 232 271
#     4   9  19  33  49  69  95 122 153 191 230 274
#     4   9  16  25  37  56  83 120 161 199 232 267
#
# _framework density 15.925792
#
# number of rings (size 3 to 8) (size 9 to 14) (size 15 to 20)
#    0.000    2.167    0.000    5.500    0.000    8.000 
#    0.000    3.333    0.000    0.000    0.000    0.000 
#    0.000    0.667    0.000    7.333    0.000    5.333 
#
# Total GULP energy -267768.488460 kJ/mol
# GULP energy per Si atom -5578.510176 kJ/mol
# Density = 1.588954 g / cm^3
# Si number density = 15.925792 Si / 1000 Ang^3
#
#
#
# Elastic Constant Matrix: (Units=GPa)
#
#
# Indices 1 2 3 4 5 6 
#
# 1 55.7269 19.2828 21.9224 0.0000 0.0000 0.0000
# 2 19.2828 120.9645 45.4226 0.0000 0.0000 0.0000
# 3 21.9224 45.4226 71.1988 0.0000 0.0000 0.0000
# 4 0.0000 0.0000 0.0000 31.5908 0.0000 0.0000
# 5 0.0000 0.0000 0.0000 0.0000 24.8900 0.0000
# 6 0.0000 0.0000 0.0000 0.0000 0.0000 7.7360
#
#
#
# Elastic Compliance Matrix: (Units=1/GPa)
#
#
# Indices 1 2 3 4 5 6 
#
# 1 0.020546 -0.001183 -0.005571 0.000000 0.000000 0.000000
# 2 -0.001183 0.010939 -0.006615 0.000000 0.000000 0.000000
# 3 -0.005571 -0.006615 0.019981 0.000000 0.000000 0.000000
# 4 0.000000 0.000000 0.000000 0.031655 0.000000 0.000000
# 5 0.000000 0.000000 0.000000 0.000000 0.040177 0.000000
# 6 0.000000 0.000000 0.000000 0.000000 0.000000 0.129267
#
#
# Mechanical properties :
#
#
# Convention : Reuss Voigt Hill
#
# Bulk Modulus (GPa) = 40.44091 46.79396 43.61744
# Shear Modulus (GPa) = 17.38862 23.59417 20.49139
#
# Velocity S-wave (km/s) = 3.30790 3.85321 3.59092
# Velocity P-wave (km/s) = 6.32757 7.01731 6.68134
#
# Compressibility (1/GPa) = 0.02472744
#
# Stress axis : x y z
#
# Youngs Moduli (GPa) = 48.67189 91.41346 50.04868
#
# Poissons Ratio (x) = 0.10815 0.27884
# Poissons Ratio (y) = 0.05758 0.33105
# Poissons Ratio (z) = 0.27117 0.60467
#
# Static dielectric constant tensor:
#      x y z
#    x 1.507950 0.000000 0.000000 
#    y 0.000000 1.561340 0.000000 
#    z 0.000000 0.000000 1.529340 
# 
# From -- ./inp_files/2895.got.cif
#   From: 2010.05.17/outbox.cif.g08.bks.cpg/sg49_2_cif.got.tgz:2895.got - 2010.06.03 21:02:19.
