data_PCOD9392643
_publ_section_title
;
Structure prediction by ZEFSAII (Michael W. Deem and Ramdas Pophale) SiO2 
 PCOD9392643
Probable space group: P C C M
;
_chemical_formula_sum "Si O2"
_cell_formula_units_Z 48
_cell_length_a 8.917976
_cell_length_b 10.501348
_cell_length_c 23.288718
_cell_angle_alpha 90.000000
_cell_angle_beta 90.000000
_cell_angle_gamma 90.000000
_cell_volume 2181.006360
_symmetry_space_group_name_H-M "P C C M"
_symmetry_group_IT_number 49
_symmetry_cell_setting 'orthorhombic'
loop_
_space_group_symop_operation_xyz
x,y,z
-x,-y,z
x,-y,1/2-z
-x,y,1/2-z
-x,-y,-z
x,y,-z
-x,y,1/2+z
x,-y,1/2+z
loop_
_atom_site_type_symbol
_atom_site_label
_atom_site_fract_x
_atom_site_fract_y
_atom_site_fract_z
Si Si1 0.207230 0.916092 0.385090
Si Si2 0.500334 0.836344 0.064011
Si Si3 0.649435 0.437231 0.564415
Si Si4 0.179255 0.856609 0.259325
Si Si5 0.211144 0.206015 0.361705
Si Si6 0.953314 0.684984 0.933184
O O1 0.374081 0.930480 0.410224
O O2 0.211692 0.833622 0.325942
O O3 0.113589 0.829462 0.428434
O O4 0.152675 0.058561 0.369312
O O5 0.597324 0.707743 0.058860
O O6 0.365312 0.796754 0.104655
O O7 0.446392 0.868578 0.000000
O O8 0.500000 0.500000 0.592896
O O9 0.661175 0.496316 0.500000
O O10 0.821953 0.415263 0.584667
O O11 0.236221 0.773518 0.206147
O O12 0.000000 0.857132 0.250000
O O13 0.239385 0.000000 0.250000
O O14 0.095591 0.302224 0.391286
O O15 0.991297 0.661033 0.000000
#
# Coordination Sequence:
#
# PCOD9392643 Si02
#       6
#     8   8   8   8   8   8
#     4  10  19  32  48  67 101 147 177 203 250 312
#     4  10  21  33  47  74 106 133 170 215 269 330
#     4   8  16  34  54  68  92 130 168 211 261 318
#     4   9  17  31  48  67  95 135 181 218 242 283
#     4  11  20  30  47  72 107 136 168 219 259 300
#     4  10  19  29  47  75  99 131 175 206 253 323
#
# _framework density 22.008189999999999
#
# number of rings (size 3 to 8) (size 9 to 14) (size 15 to 20)
#    0.000    2.333    1.667    3.000    0.000    4.667 
#    0.000    3.333    0.000    4.000    0.000    9.333 
#    0.000    0.000    0.000    0.000    0.000    0.000 
#
# Total GULP energy -267298.022130 kJ/mol
# GULP energy per Si atom -5568.708794 kJ/mol
# Density = 2.195810 g / cm^3
# Si number density = 22.008190 Si / 1000 Ang^3
#
#
#
# Elastic Constant Matrix: (Units=GPa)
#
#
# Indices 1 2 3 4 5 6 
#
# 1 88.5631 7.0573 48.1921 0.0000 0.0000 0.0000
# 2 7.0573 57.2044 4.3964 0.0000 0.0000 0.0000
# 3 48.1921 4.3964 148.3978 0.0000 0.0000 0.0000
# 4 0.0000 0.0000 0.0000 0.8082 0.0000 0.0000
# 5 0.0000 0.0000 0.0000 0.0000 28.5839 0.0000
# 6 0.0000 0.0000 0.0000 0.0000 0.0000 41.1020
#
#
#
# Elastic Compliance Matrix: (Units=1/GPa)
#
#
# Indices 1 2 3 4 5 6 
#
# 1 0.013820 -0.001363 -0.004448 0.000000 0.000000 0.000000
# 2 -0.001363 0.017656 -0.000080 0.000000 0.000000 0.000000
# 3 -0.004448 -0.000080 0.008185 0.000000 0.000000 0.000000
# 4 0.000000 0.000000 0.000000 1.237368 0.000000 0.000000
# 5 0.000000 0.000000 0.000000 0.000000 0.034985 0.000000
# 6 0.000000 0.000000 0.000000 0.000000 0.000000 0.024330
#
#
# Mechanical properties :
#
#
# Convention : Reuss Voigt Hill
#
# Bulk Modulus (GPa) = 35.86974 45.93967 40.90470
# Shear Modulus (GPa) = 3.68346 29.73345 16.70846
#
# Velocity S-wave (km/s) = 1.29511 3.67961 2.75833
# Velocity P-wave (km/s) = 4.30931 6.24275 5.36386
#
# Compressibility (1/GPa) = 0.02787866
#
# Stress axis : x y z
#
# Youngs Moduli (GPa) = 72.35748 56.63947 122.16828
#
# Poissons Ratio (x) = 0.07721 0.54337
# Poissons Ratio (y) = 0.09864 0.00982
# Poissons Ratio (z) = 0.32183 0.00455
#
# Static dielectric constant tensor:
#      x y z
#    x 1.883940 0.000000 0.000000 
#    y 0.000000 1.884920 0.000000 
#    z 0.000000 0.000000 1.814280 
# 
# From -- ./inp_files/22374.got.cif
#   From: 2010.05.17/outbox.cif.g08.bks.cpg/sg49_12_cif.got.tgz:22374.got - 2010.06.03 21:02:19.
