data_PCOD9392403
_publ_section_title
;
Structure prediction by ZEFSAII (Michael W. Deem and Ramdas Pophale) SiO2 
 PCOD9392403
Probable space group: P C C M
;
_chemical_formula_sum "Si O2"
_cell_formula_units_Z 40
_cell_length_a 13.378413
_cell_length_b 19.235236
_cell_length_c 9.184641
_cell_angle_alpha 90.000000
_cell_angle_beta 90.000000
_cell_angle_gamma 90.000000
_cell_volume 2363.547331
_symmetry_space_group_name_H-M "P C C M"
_symmetry_group_IT_number 49
_symmetry_cell_setting 'orthorhombic'
loop_
_space_group_symop_operation_xyz
x,y,z
-x,-y,z
x,-y,1/2-z
-x,y,1/2-z
-x,-y,-z
x,y,-z
-x,y,1/2+z
x,-y,1/2+z
loop_
_atom_site_type_symbol
_atom_site_label
_atom_site_fract_x
_atom_site_fract_y
_atom_site_fract_z
Si Si1 0.392623 0.793054 0.171622
Si Si2 0.103734 0.572806 0.671384
Si Si3 0.388889 0.069038 0.177110
Si Si4 0.643779 0.445188 0.000000
Si Si5 0.707995 0.653608 0.747526
Si Si6 0.413656 0.599403 0.500000
O O1 0.500000 0.777527 0.250000
O O2 0.347209 0.858414 0.260719
O O3 0.316905 0.728086 0.180249
O O4 0.410673 0.809268 0.000000
O O5 0.134345 0.500000 0.750000
O O6 0.089342 0.559255 0.500000
O O7 0.184444 0.634793 0.687217
O O8 0.000000 0.592288 0.750000
O O9 0.500000 0.070722 0.250000
O O10 0.341708 0.000000 0.250000
O O11 0.392180 0.065690 0.000000
O O12 0.692393 0.408865 0.864082
O O13 0.527846 0.422385 0.000000
O O14 0.648709 0.527639 0.000000
O O15 0.620088 0.642912 0.863431
#
# Coordination Sequence:
#
# PCOD9392403 Si02
#       6
#     8   8   8   4   8   4
#     4  11  22  34  51  74 106 144 180 218 263 316
#     4  11  24  40  61  79  99 128 173 229 282 334
#     4  10  18  30  49  71 101 137 179 219 255 305
#     4  11  22  36  51  73 100 144 175 220 253 317
#     4  12  24  35  54  76 104 138 176 225 271 318
#     4  11  22  36  51  71 104 136 185 212 263 309
#
# _framework density 16.923715000000001
#
# number of rings (size 3 to 8) (size 9 to 14) (size 15 to 20)
#    0.000    1.000    2.000    9.000    5.600    1.600 
#    0.000    0.000    0.000    0.000    0.000    0.000 
#    0.000    0.800    0.000    5.600    0.000    1.400 
#
# Total GULP energy -223026.436262 kJ/mol
# GULP energy per Si atom -5575.660907 kJ/mol
# Density = 1.688520 g / cm^3
# Si number density = 16.923715 Si / 1000 Ang^3
#
#
#
# Elastic Constant Matrix: (Units=GPa)
#
#
# Indices 1 2 3 4 5 6 
#
# 1 50.9066 30.8617 19.9823 0.0000 0.0000 0.0000
# 2 30.8617 102.1569 35.0102 0.0000 0.0000 0.0000
# 3 19.9823 35.0102 155.1683 0.0000 0.0000 0.0000
# 4 0.0000 0.0000 0.0000 26.5880 0.0000 0.0000
# 5 0.0000 0.0000 0.0000 0.0000 18.6998 0.0000
# 6 0.0000 0.0000 0.0000 0.0000 0.0000 13.2837
#
#
#
# Elastic Compliance Matrix: (Units=1/GPa)
#
#
# Indices 1 2 3 4 5 6 
#
# 1 0.024411 -0.006825 -0.001604 0.000000 0.000000 0.000000
# 2 -0.006825 0.012517 -0.001945 0.000000 0.000000 0.000000
# 3 -0.001604 -0.001945 0.007090 0.000000 0.000000 0.000000
# 4 0.000000 0.000000 0.000000 0.037611 0.000000 0.000000
# 5 0.000000 0.000000 0.000000 0.000000 0.053477 0.000000
# 6 0.000000 0.000000 0.000000 0.000000 0.000000 0.075280
#
#
# Mechanical properties :
#
#
# Convention : Reuss Voigt Hill
#
# Bulk Modulus (GPa) = 42.97316 53.32666 48.14991
# Shear Modulus (GPa) = 20.93006 26.53947 23.73477
#
# Velocity S-wave (km/s) = 3.52053 3.96432 3.74900
# Velocity P-wave (km/s) = 6.47865 7.24796 6.87408
#
# Compressibility (1/GPa) = 0.02327034
#
# Stress axis : x y z
#
# Youngs Moduli (GPa) = 40.96534 79.88889 141.04245
#
# Poissons Ratio (x) = 0.54524 0.22619
# Poissons Ratio (y) = 0.27959 0.27438
# Poissons Ratio (z) = 0.06570 0.15541
#
# Static dielectric constant tensor:
#      x y z
#    x 1.579340 0.000000 0.000000 
#    y 0.000000 1.625520 0.000000 
#    z 0.000000 0.000000 1.607060 
# 
# From -- ./inp_files/2821.got.cif
#   From: 2010.05.17/outbox.cif.g08.bks.cpg/sg49_2_cif.got.tgz:2821.got - 2010.06.03 21:02:19.
