data_PCOD9392327
_publ_section_title
;
Structure prediction by ZEFSAII (Michael W. Deem and Ramdas Pophale) SiO2 
 PCOD9392327
Probable space group: P C C M
;
_chemical_formula_sum "Si O2"
_cell_formula_units_Z 64
_cell_length_a 19.616833
_cell_length_b 24.113339
_cell_length_c 8.776677
_cell_angle_alpha 90.000000
_cell_angle_beta 90.000000
_cell_angle_gamma 90.000000
_cell_volume 4151.608213
_symmetry_space_group_name_H-M "P C C M"
_symmetry_group_IT_number 49
_symmetry_cell_setting 'orthorhombic'
loop_
_space_group_symop_operation_xyz
x,y,z
-x,-y,z
x,-y,1/2-z
-x,y,1/2-z
-x,-y,-z
x,y,-z
-x,y,1/2+z
x,-y,1/2+z
loop_
_atom_site_type_symbol
_atom_site_label
_atom_site_fract_x
_atom_site_fract_y
_atom_site_fract_z
Si Si1 0.429564 0.240171 0.817710
Si Si2 0.925769 0.439861 0.818516
Si Si3 0.925063 0.774130 0.818118
Si Si4 0.428656 0.883820 0.183300
Si Si5 0.286767 0.060058 0.316518
Si Si6 0.718610 0.730641 0.817102
Si Si7 0.845313 0.660317 0.817647
Si Si8 0.799099 0.834077 0.682600
O O1 0.500000 0.262863 0.750000
O O2 0.420625 0.178500 0.748209
O O3 0.361121 0.274177 0.781298
O O4 0.435615 0.235298 0.000000
O O5 0.908015 0.500000 0.750000
O O6 0.872694 0.393066 0.768557
O O7 0.000000 0.424852 0.750000
O O8 0.931050 0.443569 0.000000
O O9 0.892981 0.713576 0.781666
O O10 0.872239 0.818929 0.752040
O O11 0.000000 0.779183 0.750000
O O12 0.927191 0.778813 0.000000
O O13 0.500000 0.905739 0.250000
O O14 0.362614 0.919288 0.227928
O O15 0.432440 0.881164 0.000000
O O16 0.285524 0.057503 0.500000
O O17 0.233121 0.107403 0.268677
O O18 0.272210 0.000000 0.250000
O O19 0.768757 0.680029 0.777785
O O20 0.748533 0.785293 0.737336
O O21 0.725248 0.738860 0.000000
O O22 0.849029 0.650915 0.000000
O O23 0.803058 0.833057 0.500000
#
# Coordination Sequence:
#
# PCOD9392327 Si02
#       8
#     8   8   8   8   8   8   8   8
#     4  10  18  28  45  68  93 125 158 190 232 281
#     4  11  21  33  49  69  96 134 172 203 236 271
#     4  10  20  33  51  75  99 125 153 187 233 280
#     4  10  19  32  46  66  90 118 153 190 230 275
#     4  10  22  35  49  67  89 117 152 191 233 280
#     4   9  18  31  48  69  94 126 159 193 237 283
#     4   9  18  32  48  70  99 127 161 199 231 271
#     4  10  19  33  50  69  93 118 149 190 233 281
#
# _framework density 15.415711999999999
#
# number of rings (size 3 to 8) (size 9 to 14) (size 15 to 20)
#    0.000    2.125    1.250    4.875    0.000    6.250 
#    0.000    1.250    0.000    0.375    0.000    2.625 
#    0.000    0.500    0.000    5.750    0.000    1.750 
#
# Total GULP energy -357044.005471 kJ/mol
# GULP energy per Si atom -5578.812585 kJ/mol
# Density = 1.538063 g / cm^3
# Si number density = 15.415712 Si / 1000 Ang^3
#
#
#
# Elastic Constant Matrix: (Units=GPa)
#
#
# Indices 1 2 3 4 5 6 
#
# 1 137.4180 61.7977 49.4017 0.0000 0.0000 0.0000
# 2 61.7977 86.3486 40.7528 0.0000 0.0000 0.0000
# 3 49.4017 40.7528 57.6558 0.0000 0.0000 0.0000
# 4 0.0000 0.0000 0.0000 20.9117 0.0000 0.0000
# 5 0.0000 0.0000 0.0000 0.0000 43.5284 0.0000
# 6 0.0000 0.0000 0.0000 0.0000 0.0000 23.4228
#
#
#
# Elastic Compliance Matrix: (Units=1/GPa)
#
#
# Indices 1 2 3 4 5 6 
#
# 1 0.012116 -0.005660 -0.006381 0.000000 0.000000 0.000000
# 2 -0.005660 0.020022 -0.009303 0.000000 0.000000 0.000000
# 3 -0.006381 -0.009303 0.029387 0.000000 0.000000 0.000000
# 4 0.000000 0.000000 0.000000 0.047820 0.000000 0.000000
# 5 0.000000 0.000000 0.000000 0.000000 0.022974 0.000000
# 6 0.000000 0.000000 0.000000 0.000000 0.000000 0.042693
#
#
# Mechanical properties :
#
#
# Convention : Reuss Voigt Hill
#
# Bulk Modulus (GPa) = 53.08300 65.03630 59.05965
# Shear Modulus (GPa) = 22.32347 26.20392 24.26370
#
# Velocity S-wave (km/s) = 3.80952 4.12736 3.97162
# Velocity P-wave (km/s) = 7.33887 8.06185 7.70884
#
# Compressibility (1/GPa) = 0.01883842
#
# Stress axis : x y z
#
# Youngs Moduli (GPa) = 82.53318 49.94527 34.02819
#
# Poissons Ratio (x) = 0.28268 0.21714
# Poissons Ratio (y) = 0.46711 0.31655
# Poissons Ratio (z) = 0.52667 0.46462
#
# Static dielectric constant tensor:
#      x y z
#    x 1.529030 0.000000 0.000000 
#    y 0.000000 1.485270 0.000000 
#    z 0.000000 0.000000 1.516790 
# 
# From -- ./inp_files/6085.got.cif
#   From: 2010.05.17/outbox.cif.g08.bks.cpg/sg49_4_cif.got.tgz:6085.got - 2010.06.03 21:02:19.
