data_PCOD9392445
_publ_section_title
;
Structure prediction by ZEFSAII (Michael W. Deem and Ramdas Pophale) SiO2 
 PCOD9392445
Probable space group: P C C M
;
_chemical_formula_sum "Si O2"
_cell_formula_units_Z 56
_cell_length_a 19.653647
_cell_length_b 18.898505
_cell_length_c 8.835677
_cell_angle_alpha 90.000000
_cell_angle_beta 90.000000
_cell_angle_gamma 90.000000
_cell_volume 3281.787319
_symmetry_space_group_name_H-M "P C C M"
_symmetry_group_IT_number 49
_symmetry_cell_setting 'orthorhombic'
loop_
_space_group_symop_operation_xyz
x,y,z
-x,-y,z
x,-y,1/2-z
-x,y,1/2-z
-x,-y,-z
x,y,-z
-x,y,1/2+z
x,-y,1/2+z
loop_
_atom_site_type_symbol
_atom_site_label
_atom_site_fract_x
_atom_site_fract_y
_atom_site_fract_z
Si Si1 0.294482 0.924415 0.180818
Si Si2 0.845337 0.425370 0.818684
Si Si3 0.427767 0.853771 0.318392
Si Si4 0.210504 0.786638 0.181743
Si Si5 0.926618 0.284828 0.818921
Si Si6 0.281195 0.349781 0.181457
Si Si7 0.571384 0.312971 0.681467
O O1 0.365620 0.897284 0.249748
O O2 0.238880 0.863971 0.215745
O O3 0.276822 0.000000 0.250000
O O4 0.300865 0.929711 0.000000
O O5 0.866585 0.500000 0.750000
O O6 0.895397 0.361167 0.772903
O O7 0.770549 0.404374 0.758049
O O8 0.843862 0.428613 0.000000
O O9 0.500000 0.877007 0.250000
O O10 0.428314 0.859654 0.500000
O O11 0.419688 0.770320 0.277890
O O12 0.131942 0.771808 0.221263
O O13 0.254452 0.727507 0.267730
O O14 0.217720 0.774145 0.000000
O O15 0.000000 0.272008 0.750000
O O16 0.932769 0.285447 0.000000
O O17 0.360241 0.353819 0.228348
O O18 0.276981 0.356002 0.000000
O O19 0.500000 0.337561 0.750000
O O20 0.566897 0.316082 0.500000
#
# Coordination Sequence:
#
# PCOD9392445 Si02
#       7
#     8   8   8   8   8   8   8
#     4  11  22  35  52  73 100 136 174 218 266 311
#     4  10  21  36  53  78 110 143 174 206 246 297
#     4  10  19  33  49  71 101 134 173 215 262 314
#     4   9  19  35  53  74 102 134 170 211 254 304
#     4   9  19  35  55  81 108 135 168 203 246 298
#     4  10  18  31  52  77 102 133 173 215 256 302
#     4   9  18  29  46  72 100 130 168 214 259 305
#
# _framework density 17.063872
#
# number of rings (size 3 to 8) (size 9 to 14) (size 15 to 20)
#    0.000    2.286    1.429    2.571    0.000    5.714 
#    0.000    2.857    0.000    0.857    0.000    6.000 
#    0.000    0.000    0.000    0.000    0.000    0.000 
#
# Total GULP energy -312414.871186 kJ/mol
# GULP energy per Si atom -5578.836985 kJ/mol
# Density = 1.702503 g / cm^3
# Si number density = 17.063872 Si / 1000 Ang^3
#
#
#
# Elastic Constant Matrix: (Units=GPa)
#
#
# Indices 1 2 3 4 5 6 
#
# 1 138.5543 39.5176 31.6591 0.0000 0.0000 0.0000
# 2 39.5176 58.4117 23.1023 0.0000 0.0000 0.0000
# 3 31.6591 23.1023 34.8260 0.0000 0.0000 0.0000
# 4 0.0000 0.0000 0.0000 12.7009 0.0000 0.0000
# 5 0.0000 0.0000 0.0000 0.0000 30.6009 0.0000
# 6 0.0000 0.0000 0.0000 0.0000 0.0000 13.1200
#
#
#
# Elastic Compliance Matrix: (Units=1/GPa)
#
#
# Indices 1 2 3 4 5 6 
#
# 1 0.009822 -0.004221 -0.006129 0.000000 0.000000 0.000000
# 2 -0.004221 0.025023 -0.012762 0.000000 0.000000 0.000000
# 3 -0.006129 -0.012762 0.042752 0.000000 0.000000 0.000000
# 4 0.000000 0.000000 0.000000 0.078735 0.000000 0.000000
# 5 0.000000 0.000000 0.000000 0.000000 0.032679 0.000000
# 6 0.000000 0.000000 0.000000 0.000000 0.000000 0.076220
#
#
# Mechanical properties :
#
#
# Convention : Reuss Voigt Hill
#
# Bulk Modulus (GPa) = 31.87485 46.70555 39.29020
# Shear Modulus (GPa) = 15.53229 20.45189 17.99209
#
# Velocity S-wave (km/s) = 3.02030 3.46576 3.25067
# Velocity P-wave (km/s) = 5.55727 6.59134 6.09627
#
# Compressibility (1/GPa) = 0.03137269
#
# Stress axis : x y z
#
# Youngs Moduli (GPa) = 101.81692 39.96325 23.39093
#
# Poissons Ratio (x) = 0.16867 0.14335
# Poissons Ratio (y) = 0.42974 0.29853
# Poissons Ratio (z) = 0.62399 0.51003
#
# Static dielectric constant tensor:
#      x y z
#    x 1.575070 0.000000 0.000000 
#    y 0.000000 1.570200 0.000000 
#    z 0.000000 0.000000 1.574900 
# 
# From -- ./inp_files/5163.got.cif
#   From: 2010.05.17/outbox.cif.g08.bks.cpg/sg49_3_cif.got.tgz:5163.got - 2010.06.03 21:02:19.
