data_PCOD9392849
_publ_section_title
;
Structure prediction by ZEFSAII (Michael W. Deem and Ramdas Pophale) SiO2 
 PCOD9392849
Probable space group: P C C M
;
_chemical_formula_sum "Si O2"
_cell_formula_units_Z 56
_cell_length_a 16.102759
_cell_length_b 20.770587
_cell_length_c 8.410696
_cell_angle_alpha 90.000000
_cell_angle_beta 90.000000
_cell_angle_gamma 90.000000
_cell_volume 2813.072981
_symmetry_space_group_name_H-M "P C C M"
_symmetry_group_IT_number 49
_symmetry_cell_setting 'orthorhombic'
loop_
_space_group_symop_operation_xyz
x,y,z
-x,-y,z
x,-y,1/2-z
-x,y,1/2-z
-x,-y,-z
x,y,-z
-x,y,1/2+z
x,-y,1/2+z
loop_
_atom_site_type_symbol
_atom_site_label
_atom_site_fract_x
_atom_site_fract_y
_atom_site_fract_z
Si Si1 0.088966 0.715844 0.692499
Si Si2 0.222129 0.177302 0.189627
Si Si3 0.305401 0.434671 0.809675
Si Si4 0.416067 0.680343 0.309437
Si Si5 0.883784 0.431102 0.308377
Si Si6 0.408985 0.823826 0.814594
Si Si7 0.091896 0.927123 0.809511
O O1 0.089903 0.716297 0.500000
O O2 0.170149 0.758006 0.743854
O O3 0.089532 0.640572 0.745655
O O4 0.000000 0.743458 0.750000
O O5 0.316040 0.161470 0.248568
O O6 0.161206 0.119712 0.239024
O O7 0.228759 0.183200 0.000000
O O8 0.347160 0.500000 0.750000
O O9 0.344510 0.367697 0.762032
O O10 0.211411 0.433596 0.753779
O O11 0.306083 0.436425 0.000000
O O12 0.500000 0.647684 0.250000
O O13 0.415728 0.691133 0.500000
O O14 0.411691 0.747628 0.220654
O O15 0.917874 0.500000 0.250000
O O16 0.889940 0.431294 0.500000
O O17 0.500000 0.848269 0.750000
O O18 0.408785 0.838125 0.000000
O O19 0.000000 0.908130 0.750000
O O20 0.105728 0.000000 0.750000
O O21 0.093695 0.925278 0.000000
#
# Coordination Sequence:
#
# PCOD9392849 Si02
#       7
#     8   8   8   8   8   8   8
#     4  10  22  37  55  79 112 148 188 237 293 350
#     4  11  22  39  62  89 122 160 198 247 301 352
#     4   9  18  31  47  64  87 120 164 217 277 341
#     4  10  19  32  48  68  96 131 170 220 280 345
#     4   9  18  34  51  69  93 131 179 229 282 340
#     4  11  22  37  58  85 114 149 192 240 290 348
#     4  11  22  39  63  95 132 172 212 250 293 348
#
# _framework density 19.907056000000001
#
# number of rings (size 3 to 8) (size 9 to 14) (size 15 to 20)
#    0.000    1.857    0.000    6.000    0.000    6.857 
#    0.000    5.714    0.000    0.429    0.000    3.000 
#    0.000    0.000    0.000    0.000    0.000    0.000 
#
# Total GULP energy -311959.308667 kJ/mol
# GULP energy per Si atom -5570.701940 kJ/mol
# Density = 1.986175 g / cm^3
# Si number density = 19.907056 Si / 1000 Ang^3
#
#
#
# Elastic Constant Matrix: (Units=GPa)
#
#
# Indices 1 2 3 4 5 6 
#
# 1 165.0524 55.9632 34.9416 0.0000 0.0000 0.0000
# 2 55.9632 77.3168 11.6131 0.0000 0.0000 0.0000
# 3 34.9416 11.6131 47.9920 0.0000 0.0000 0.0000
# 4 0.0000 0.0000 0.0000 19.0572 0.0000 0.0000
# 5 0.0000 0.0000 0.0000 0.0000 27.6750 0.0000
# 6 0.0000 0.0000 0.0000 0.0000 0.0000 16.6258
#
#
#
# Elastic Compliance Matrix: (Units=1/GPa)
#
#
# Indices 1 2 3 4 5 6 
#
# 1 0.009147 -0.005833 -0.005249 0.000000 0.000000 0.000000
# 2 -0.005833 0.017141 0.000099 0.000000 0.000000 0.000000
# 3 -0.005249 0.000099 0.024634 0.000000 0.000000 0.000000
# 4 0.000000 0.000000 0.000000 0.052474 0.000000 0.000000
# 5 0.000000 0.000000 0.000000 0.000000 0.036134 0.000000
# 6 0.000000 0.000000 0.000000 0.000000 0.000000 0.060148
#
#
# Mechanical properties :
#
#
# Convention : Reuss Voigt Hill
#
# Bulk Modulus (GPa) = 34.53323 55.04414 44.78868
# Shear Modulus (GPa) = 21.61742 25.19447 23.40595
#
# Velocity S-wave (km/s) = 3.29890 3.56139 3.43266
# Velocity P-wave (km/s) = 5.64759 6.67997 6.18535
#
# Compressibility (1/GPa) = 0.02895762
#
# Stress axis : x y z
#
# Youngs Moduli (GPa) = 109.31962 58.34040 40.59393
#
# Poissons Ratio (x) = 0.34029 0.21306
# Poissons Ratio (y) = 0.63763 -0.00402
# Poissons Ratio (z) = 0.57378 -0.00577
#
# Static dielectric constant tensor:
#      x y z
#    x 1.735730 0.000000 0.000000 
#    y 0.000000 1.711670 0.000000 
#    z 0.000000 0.000000 1.678150 
# 
# From -- ./inp_files/4029.got.cif
#   From: 2010.05.17/outbox.cif.g08.bks.cpg/sg49_3_cif.got.tgz:4029.got - 2010.06.03 21:02:19.
