data_PCOD9392137
_publ_section_title
;
Structure prediction by ZEFSAII (Michael W. Deem and Ramdas Pophale) SiO2 
 PCOD9392137
Probable space group: P C C M
;
_chemical_formula_sum "Si O2"
_cell_formula_units_Z 48
_cell_length_a 16.371076
_cell_length_b 19.292760
_cell_length_c 8.573809
_cell_angle_alpha 90.000000
_cell_angle_beta 90.000000
_cell_angle_gamma 90.000000
_cell_volume 2707.979615
_symmetry_space_group_name_H-M "P C C M"
_symmetry_group_IT_number 49
_symmetry_cell_setting 'orthorhombic'
loop_
_space_group_symop_operation_xyz
x,y,z
-x,-y,z
x,-y,1/2-z
-x,y,1/2-z
-x,-y,-z
x,y,-z
-x,y,1/2+z
x,-y,1/2+z
loop_
_atom_site_type_symbol
_atom_site_label
_atom_site_fract_x
_atom_site_fract_y
_atom_site_fract_z
Si Si1 0.083263 0.578897 0.186394
Si Si2 0.744431 0.078391 0.812247
Si Si3 0.587484 0.167017 0.812084
Si Si4 0.915476 0.079211 0.313804
Si Si5 0.587502 0.327375 0.811600
Si Si6 0.737446 0.421731 0.811498
O O1 0.084349 0.500000 0.250000
O O2 0.172507 0.607065 0.232530
O O3 0.000000 0.612293 0.250000
O O4 0.078088 0.576984 0.000000
O O5 0.665252 0.122016 0.762949
O O6 0.829749 0.108903 0.747435
O O7 0.736334 0.000000 0.750000
O O8 0.749043 0.076892 0.000000
O O9 0.500000 0.141659 0.750000
O O10 0.597252 0.247196 0.761886
O O11 0.584836 0.165816 0.000000
O O12 0.916914 0.077885 0.500000
O O13 0.000000 0.110975 0.250000
O O14 0.914620 0.000000 0.250000
O O15 0.500000 0.352404 0.750000
O O16 0.662964 0.374077 0.757538
O O17 0.586169 0.328570 0.000000
O O18 0.729370 0.500000 0.750000
O O19 0.735547 0.424343 0.000000
#
# Coordination Sequence:
#
# PCOD9392137 Si02
#       6
#     8   8   8   8   8   8
#     4   9  15  24  39  61  87 117 146 178 216 260
#     4  10  19  31  47  71  97 123 154 193 236 278
#     4   9  19  34  52  69  90 121 158 193 231 278
#     4  10  17  27  44  67  95 126 156 190 229 275
#     4   9  18  34  51  68  89 120 156 190 227 273
#     4   9  18  30  46  68  95 121 150 186 229 270
#
# _framework density 17.725391999999999
#
# number of rings (size 3 to 8) (size 9 to 14) (size 15 to 20)
#    0.000    2.667    0.000    4.500    0.000    3.333 
#    0.000    3.333    0.000    1.000    0.000    2.333 
#    0.000    0.000    0.000    0.000    0.000    0.000 
#
# Total GULP energy -267388.416808 kJ/mol
# GULP energy per Si atom -5570.592017 kJ/mol
# Density = 1.768505 g / cm^3
# Si number density = 17.725392 Si / 1000 Ang^3
#
#
#
# Elastic Constant Matrix: (Units=GPa)
#
#
# Indices 1 2 3 4 5 6 
#
# 1 234.3065 64.4830 46.4451 0.0000 0.0000 0.0000
# 2 64.4830 33.2255 13.4109 0.0000 0.0000 0.0000
# 3 46.4451 13.4109 53.3048 0.0000 0.0000 0.0000
# 4 0.0000 0.0000 0.0000 11.3134 0.0000 0.0000
# 5 0.0000 0.0000 0.0000 0.0000 28.7792 0.0000
# 6 0.0000 0.0000 0.0000 0.0000 0.0000 -8.9426
#
#
#
# Elastic Compliance Matrix: (Units=1/GPa)
#
#
# Indices 1 2 3 4 5 6 
#
# 1 0.009955 -0.017607 -0.004244 0.000000 0.000000 0.000000
# 2 -0.017607 0.064640 -0.000922 0.000000 0.000000 0.000000
# 3 -0.004244 -0.000922 0.022690 0.000000 0.000000 0.000000
# 4 0.000000 0.000000 0.000000 0.088391 0.000000 0.000000
# 5 0.000000 0.000000 0.000000 0.000000 0.034747 0.000000
# 6 0.000000 0.000000 0.000000 0.000000 0.000000 -0.111824
#
#
# Mechanical properties :
#
#
# Convention : Reuss Voigt Hill
#
# Bulk Modulus (GPa) = 19.32758 63.27941 41.30350
# Shear Modulus (GPa) = 29.17322 19.32985 24.25154
#
# Velocity S-wave (km/s) = 4.06130 3.30588 3.70291
# Velocity P-wave (km/s) = 5.73758 7.09571 6.45248
#
# Compressibility (1/GPa) = 0.05173952
#
# Stress axis : x y z
#
# Youngs Moduli (GPa) = 100.45526 15.47027 44.07272
#
# Poissons Ratio (x) = 0.27238 0.18704
# Poissons Ratio (y) = 1.76869 0.04063
# Poissons Ratio (z) = 0.42633 0.01426
#
# Static dielectric constant tensor:
#      x y z
#    x 1.663070 0.000000 0.000000 
#    y 0.000000 1.579640 0.000000 
#    z 0.000000 0.000000 1.602420 
# 
# From -- ./inp_files/4151.got.cif
#   From: 2010.05.17/outbox.cif.g08.bks.cpg/sg49_3_cif.got.tgz:4151.got - 2010.06.03 21:02:19.
