data_PCOD9392460
_publ_section_title
;
Structure prediction by ZEFSAII (Michael W. Deem and Ramdas Pophale) SiO2 
 PCOD9392460
Probable space group: P C C M
;
_chemical_formula_sum "Si O2"
_cell_formula_units_Z 64
_cell_length_a 19.363098
_cell_length_b 19.704671
_cell_length_c 9.744877
_cell_angle_alpha 90.000000
_cell_angle_beta 90.000000
_cell_angle_gamma 90.000000
_cell_volume 3718.094240
_symmetry_space_group_name_H-M "P C C M"
_symmetry_group_IT_number 49
_symmetry_cell_setting 'orthorhombic'
loop_
_space_group_symop_operation_xyz
x,y,z
-x,-y,z
x,-y,1/2-z
-x,y,1/2-z
-x,-y,-z
x,y,-z
-x,y,1/2+z
x,-y,1/2+z
loop_
_atom_site_type_symbol
_atom_site_label
_atom_site_fract_x
_atom_site_fract_y
_atom_site_fract_z
Si Si1 0.725343 0.565671 0.664787
Si Si2 0.707752 0.176837 0.850995
Si Si3 0.904157 0.062028 0.346313
Si Si4 0.738526 0.940973 0.152378
Si Si5 0.443313 0.235671 0.652264
Si Si6 0.566740 0.395580 0.836785
Si Si7 0.185886 0.299710 0.341123
Si Si8 0.070209 0.778683 0.332091
O O1 0.747464 0.500000 0.750000
O O2 0.728209 0.555244 0.500000
O O3 0.643891 0.578796 0.698648
O O4 0.775694 0.629630 0.694976
O O5 0.724245 0.129414 0.725361
O O6 0.628492 0.197537 0.846432
O O7 0.753513 0.243992 0.844508
O O8 0.723136 0.143443 0.000000
O O9 0.933154 0.054929 0.500000
O O10 0.821429 0.053769 0.354903
O O11 0.916596 0.140425 0.302550
O O12 0.927153 0.000000 0.250000
O O13 0.711541 0.000000 0.250000
O O14 0.710087 0.945201 0.000000
O O15 0.500000 0.205136 0.750000
O O16 0.472596 0.235729 0.500000
O O17 0.429859 0.314412 0.687316
O O18 0.500000 0.420185 0.750000
O O19 0.555627 0.407659 0.000000
O O20 0.159108 0.304717 0.500000
O O21 0.129237 0.269157 0.236151
O O22 0.066977 0.771535 0.500000
O O23 0.000000 0.761894 0.250000
#
# Coordination Sequence:
#
# PCOD9392460 Si02
#       8
#     8   8   8   8   8   8   8   8
#     4  10  21  37  56  80 111 146 184 223 271 322
#     4  10  18  31  54  78 102 138 179 223 272 317
#     4   9  19  33  50  75 110 146 180 216 254 306
#     4  10  19  32  49  75 107 139 177 221 267 317
#     4   9  17  30  48  73 104 138 177 220 267 318
#     4   9  17  31  49  73 108 147 184 221 259 314
#     4  10  20  37  59  81 107 141 179 222 269 319
#     4  11  23  39  57  83 113 144 182 223 268 318
#
# _framework density 17.213118999999999
#
# number of rings (size 3 to 8) (size 9 to 14) (size 15 to 20)
#    0.000    2.250    2.500    0.750    0.000    3.500 
#    0.000    2.500    0.000    0.750    0.000    5.250 
#    0.000    0.000    0.000    0.000    0.000    0.000 
#
# Total GULP energy -356468.895391 kJ/mol
# GULP energy per Si atom -5569.826490 kJ/mol
# Density = 1.717394 g / cm^3
# Si number density = 17.213119 Si / 1000 Ang^3
#
#
#
# Elastic Constant Matrix: (Units=GPa)
#
#
# Indices 1 2 3 4 5 6 
#
# 1 74.0276 34.1185 50.8235 0.0000 0.0000 0.0000
# 2 34.1185 98.2506 65.1142 0.0000 0.0000 0.0000
# 3 50.8235 65.1142 98.3210 0.0000 0.0000 0.0000
# 4 0.0000 0.0000 0.0000 15.6373 0.0000 0.0000
# 5 0.0000 0.0000 0.0000 0.0000 99.5282 0.0000
# 6 0.0000 0.0000 0.0000 0.0000 0.0000 10.9022
#
#
#
# Elastic Compliance Matrix: (Units=1/GPa)
#
#
# Indices 1 2 3 4 5 6 
#
# 1 0.020941 -0.000175 -0.010709 0.000000 0.000000 0.000000
# 2 -0.000175 0.018141 -0.011924 0.000000 0.000000 0.000000
# 3 -0.010709 -0.011924 0.023603 0.000000 0.000000 0.000000
# 4 0.000000 0.000000 0.000000 0.063950 0.000000 0.000000
# 5 0.000000 0.000000 0.000000 0.000000 0.010047 0.000000
# 6 0.000000 0.000000 0.000000 0.000000 0.000000 0.091724
#
#
# Mechanical properties :
#
#
# Convention : Reuss Voigt Hill
#
# Bulk Modulus (GPa) = 58.58171 63.41240 60.99705
# Shear Modulus (GPa) = 17.87549 33.24974 25.56261
#
# Velocity S-wave (km/s) = 3.22604 4.39982 3.85784
# Velocity P-wave (km/s) = 6.92701 7.92028 7.44024
#
# Compressibility (1/GPa) = 0.01707017
#
# Stress axis : x y z
#
# Youngs Moduli (GPa) = 47.75243 55.12345 42.36717
#
# Poissons Ratio (x) = 0.00963 0.45372
# Poissons Ratio (y) = 0.00834 0.50518
# Poissons Ratio (z) = 0.51139 0.65728
#
# Static dielectric constant tensor:
#      x y z
#    x 1.577010 0.000000 0.000000 
#    y 0.000000 1.579170 0.000000 
#    z 0.000000 0.000000 1.617000 
# 
# From -- ./inp_files/5975.got.cif
#   From: 2010.05.17/outbox.cif.g08.bks.cpg/sg49_3_cif.got.tgz:5975.got - 2010.06.03 21:02:19.
