data_PCOD9392023
_publ_section_title
;
Structure prediction by ZEFSAII (Michael W. Deem and Ramdas Pophale) SiO2 
 PCOD9392023
Probable space group: P C C M
;
_chemical_formula_sum "Si O2"
_cell_formula_units_Z 30
_cell_length_a 6.980009
_cell_length_b 16.320081
_cell_length_c 10.476758
_cell_angle_alpha 90.000000
_cell_angle_beta 90.000000
_cell_angle_gamma 90.000000
_cell_volume 1193.452682
_symmetry_space_group_name_H-M "P C C M"
_symmetry_group_IT_number 49
_symmetry_cell_setting 'orthorhombic'
loop_
_space_group_symop_operation_xyz
x,y,z
-x,-y,z
x,-y,1/2-z
-x,y,1/2-z
-x,-y,-z
x,y,-z
-x,y,1/2+z
x,-y,1/2+z
loop_
_atom_site_type_symbol
_atom_site_label
_atom_site_fract_x
_atom_site_fract_y
_atom_site_fract_z
Si Si1 0.703554 0.047578 0.363006
Si Si2 0.000000 0.500000 0.750000
Si Si3 0.770396 0.774119 0.231568
Si Si4 0.273895 0.297384 0.500000
Si Si5 0.186521 0.341695 0.000000
Si Si6 0.780010 0.462167 0.000000
O O1 0.799128 0.043511 0.500000
O O2 0.688969 0.141855 0.324257
O O3 0.500000 0.000000 0.374219
O O4 0.803572 0.000000 0.250000
O O5 0.129254 0.548066 0.854156
O O6 0.690443 0.751481 0.370696
O O7 0.000000 0.785335 0.250000
O O8 0.742266 0.702428 0.128072
O O9 0.369215 0.387793 0.500000
O O10 0.044620 0.321416 0.500000
O O11 0.227803 0.438760 0.000000
#
# Coordination Sequence:
#
# PCOD9392023 Si02
#       6
#     8   2   8   4   4   4
#     4  10  22  42  64  83 108 143 192 243 299 364
#     4  10  16  22  40  62 100 146 222 236 268 314
#     4  10  21  34  52  84 118 155 190 246 296 342
#     4  10  19  28  46  74 117 157 201 231 280 334
#     4  10  17  30  48  70 119 159 205 239 280 334
#     4  11  18  26  42  70 106 169 204 237 273 328
#
# _framework density 25.137152
#
# number of rings (size 3 to 8) (size 9 to 14) (size 15 to 20)
#    0.000    1.867    4.000    1.600    5.600    0.533 
#    0.000    1.333    0.000    0.000    0.000    0.000 
#    0.000   25.600    0.000    0.000    0.000    0.000 
#
# Total GULP energy -167342.884242 kJ/mol
# GULP energy per Si atom -5578.096141 kJ/mol
# Density = 2.507994 g / cm^3
# Si number density = 25.137152 Si / 1000 Ang^3
#
#
#
# Elastic Constant Matrix: (Units=GPa)
#
#
# Indices 1 2 3 4 5 6 
#
# 1 99.7950 22.0008 19.4084 0.0000 0.0000 0.0000
# 2 22.0008 211.7874 112.5898 0.0000 0.0000 0.0000
# 3 19.4084 112.5898 304.1880 0.0000 0.0000 0.0000
# 4 0.0000 0.0000 0.0000 91.2691 0.0000 0.0000
# 5 0.0000 0.0000 0.0000 0.0000 -14.6423 0.0000
# 6 0.0000 0.0000 0.0000 0.0000 0.0000 12.9015
#
#
#
# Elastic Compliance Matrix: (Units=1/GPa)
#
#
# Indices 1 2 3 4 5 6 
#
# 1 0.010281 -0.000895 -0.000325 0.000000 0.000000 0.000000
# 2 -0.000895 0.005956 -0.002148 0.000000 0.000000 0.000000
# 3 -0.000325 -0.002148 0.004103 0.000000 0.000000 0.000000
# 4 0.000000 0.000000 0.000000 0.010957 0.000000 0.000000
# 5 0.000000 0.000000 0.000000 0.000000 -0.068295 0.000000
# 6 0.000000 0.000000 0.000000 0.000000 0.000000 0.077510
#
#
# Mechanical properties :
#
#
# Convention : Reuss Voigt Hill
#
# Bulk Modulus (GPa) = 73.50010 102.64094 88.07052
# Shear Modulus (GPa) = 96.55788 48.69041 72.62415
#
# Velocity S-wave (km/s) = 6.20450 4.40590 5.38088
# Velocity P-wave (km/s) = 8.97947 8.17335 8.58587
#
# Compressibility (1/GPa) = 0.01360542
#
# Stress axis : x y z
#
# Youngs Moduli (GPa) = 97.26604 167.88667 243.72336
#
# Poissons Ratio (x) = 0.15034 0.07909
# Poissons Ratio (y) = 0.08710 0.52340
# Poissons Ratio (z) = 0.03157 0.36054
#
# Static dielectric constant tensor:
#      x y z
#    x 2.373390 0.000000 0.000000 
#    y 0.000000 1.998370 0.000000 
#    z 0.000000 0.000000 1.957550 
# 
# From -- ./inp_files/7990.got.cif
#   From: 2010.05.17/outbox.cif.g08.bks.cpg/sg49_4_cif.got.tgz:7990.got - 2010.06.03 21:02:19.
