data_PCOD9392858
_publ_section_title
;
Structure prediction by ZEFSAII (Michael W. Deem and Ramdas Pophale) SiO2 
 PCOD9392858
Probable space group: P C C M
;
_chemical_formula_sum "Si O2"
_cell_formula_units_Z 48
_cell_length_a 24.966662
_cell_length_b 13.917419
_cell_length_c 8.704735
_cell_angle_alpha 90.000000
_cell_angle_beta 90.000000
_cell_angle_gamma 90.000000
_cell_volume 3024.647293
_symmetry_space_group_name_H-M "P C C M"
_symmetry_group_IT_number 49
_symmetry_cell_setting 'orthorhombic'
loop_
_space_group_symop_operation_xyz
x,y,z
-x,-y,z
x,-y,1/2-z
-x,y,1/2-z
-x,-y,-z
x,y,-z
-x,y,1/2+z
x,-y,1/2+z
loop_
_atom_site_type_symbol
_atom_site_label
_atom_site_fract_x
_atom_site_fract_y
_atom_site_fract_z
Si Si1 0.218577 0.206734 0.684984
Si Si2 0.328071 0.892376 0.185010
Si Si3 0.445758 0.108587 0.316043
Si Si4 0.884724 0.896558 0.184622
Si Si5 0.942608 0.297958 0.315886
Si Si6 0.832643 0.603992 0.184658
O O1 0.215312 0.207177 0.500000
O O2 0.277269 0.170465 0.732789
O O3 0.173123 0.135310 0.750428
O O4 0.204471 0.311546 0.749597
O O5 0.387010 0.851777 0.227015
O O6 0.322819 0.000000 0.250000
O O7 0.327046 0.899308 0.000000
O O8 0.500000 0.154773 0.250000
O O9 0.449997 0.104892 0.500000
O O10 0.444600 0.000000 0.250000
O O11 0.925034 0.810408 0.229621
O O12 0.899995 0.000000 0.250000
O O13 0.882036 0.899809 0.000000
O O14 0.945393 0.300115 0.500000
O O15 0.893441 0.366398 0.268782
O O16 0.000000 0.324152 0.250000
O O17 0.819283 0.500000 0.250000
O O18 0.830016 0.604726 0.000000
#
# Coordination Sequence:
#
# PCOD9392858 Si02
#       6
#     8   8   8   8   8   8
#     4  10  19  32  49  69  92 120 151 188 229 271
#     4   9  18  28  41  63  92 124 158 191 225 261
#     4   9  15  24  36  54  82 118 157 193 223 256
#     4  10  20  33  47  67  93 123 155 188 224 265
#     4   9  20  35  50  69  93 117 147 183 220 263
#     4  10  21  37  54  73  93 116 144 180 225 274
#
# _framework density 15.869617999999999
#
# number of rings (size 3 to 8) (size 9 to 14) (size 15 to 20)
#    0.000    2.500    0.000    4.000    0.000    8.000 
#    0.000    3.333    0.000    0.000    0.000    0.000 
#    0.000    0.667    0.000    7.667    0.000    2.333 
#
# Total GULP energy -267558.564928 kJ/mol
# GULP energy per Si atom -5574.136769 kJ/mol
# Density = 1.583350 g / cm^3
# Si number density = 15.869618 Si / 1000 Ang^3
#
#
#
# Elastic Constant Matrix: (Units=GPa)
#
#
# Indices 1 2 3 4 5 6 
#
# 1 120.1301 20.1297 21.8071 0.0000 0.0000 0.0000
# 2 20.1297 58.2789 12.8165 0.0000 0.0000 0.0000
# 3 21.8071 12.8165 37.3090 0.0000 0.0000 0.0000
# 4 0.0000 0.0000 0.0000 11.3023 0.0000 0.0000
# 5 0.0000 0.0000 0.0000 0.0000 26.0028 0.0000
# 6 0.0000 0.0000 0.0000 0.0000 0.0000 9.3030
#
#
#
# Elastic Compliance Matrix: (Units=1/GPa)
#
#
# Indices 1 2 3 4 5 6 
#
# 1 0.009577 -0.002247 -0.004826 0.000000 0.000000 0.000000
# 2 -0.002247 0.019088 -0.005244 0.000000 0.000000 0.000000
# 3 -0.004826 -0.005244 0.031425 0.000000 0.000000 0.000000
# 4 0.000000 0.000000 0.000000 0.088477 0.000000 0.000000
# 5 0.000000 0.000000 0.000000 0.000000 0.038457 0.000000
# 6 0.000000 0.000000 0.000000 0.000000 0.000000 0.107492
#
#
# Mechanical properties :
#
#
# Convention : Reuss Voigt Hill
#
# Bulk Modulus (GPa) = 28.20302 36.13606 32.16954
# Shear Modulus (GPa) = 15.10716 20.05262 17.57989
#
# Velocity S-wave (km/s) = 3.08872 3.55855 3.33193
# Velocity P-wave (km/s) = 5.52545 6.30114 5.92600
#
# Compressibility (1/GPa) = 0.03545719
#
# Stress axis : x y z
#
# Youngs Moduli (GPa) = 104.41914 52.38866 31.82144
#
# Poissons Ratio (x) = 0.11769 0.15357
# Poissons Ratio (y) = 0.23458 0.16687
# Poissons Ratio (z) = 0.50391 0.27473
#
# Static dielectric constant tensor:
#      x y z
#    x 1.564460 0.000000 0.000000 
#    y 0.000000 1.500370 0.000000 
#    z 0.000000 0.000000 1.533330 
# 
# From -- ./inp_files/4139.got.cif
#   From: 2010.05.17/outbox.cif.g08.bks.cpg/sg49_3_cif.got.tgz:4139.got - 2010.06.03 21:02:19.
