data_PCOD9392013
_publ_section_title
;
Structure prediction by ZEFSAII (Michael W. Deem and Ramdas Pophale) SiO2 
 PCOD9392013
Probable space group: P C C M
;
_chemical_formula_sum "Si O2"
_cell_formula_units_Z 58
_cell_length_a 29.136197
_cell_length_b 14.514341
_cell_length_c 8.634805
_cell_angle_alpha 90.000000
_cell_angle_beta 90.000000
_cell_angle_gamma 90.000000
_cell_volume 3651.595989
_symmetry_space_group_name_H-M "P C C M"
_symmetry_group_IT_number 49
_symmetry_cell_setting 'orthorhombic'
loop_
_space_group_symop_operation_xyz
x,y,z
-x,-y,z
x,-y,1/2-z
-x,y,1/2-z
-x,-y,-z
x,y,-z
-x,y,1/2+z
x,-y,1/2+z
loop_
_atom_site_type_symbol
_atom_site_label
_atom_site_fract_x
_atom_site_fract_y
_atom_site_fract_z
Si Si1 0.930598 0.144651 0.683085
Si Si2 0.000000 0.000000 0.750000
Si Si3 0.951610 0.638583 0.180330
Si Si4 0.145105 0.404223 0.682175
Si Si5 0.452779 0.895003 0.315361
Si Si6 0.169741 0.792944 0.685092
Si Si7 0.742452 0.896372 0.314696
Si Si8 0.641234 0.895529 0.314408
O O1 0.935495 0.114732 0.500000
O O2 0.947899 0.249897 0.689078
O O3 0.876975 0.151364 0.727981
O O4 0.961128 0.078174 0.790289
O O5 0.908846 0.601039 0.276037
O O6 0.000000 0.610025 0.250000
O O7 0.946958 0.612780 0.000000
O O8 0.163487 0.500000 0.750000
O O9 0.151594 0.402189 0.500000
O O10 0.165455 0.311481 0.755721
O O11 0.500000 0.852866 0.250000
O O12 0.454213 0.898322 0.500000
O O13 0.404715 0.852327 0.257901
O O14 0.452114 0.000000 0.250000
O O15 0.170096 0.791558 0.500000
O O16 0.215293 0.839402 0.748990
O O17 0.745325 0.900191 0.500000
O O18 0.691677 0.856823 0.275055
O O19 0.745242 0.000000 0.250000
O O20 0.636270 0.898262 0.500000
O O21 0.643008 0.000000 0.250000
#
# Coordination Sequence:
#
# PCOD9392013 Si02
#       8
#     8   2   8   8   8   8   8   8
#     4   9  20  33  46  66  92 119 148 183 223 267
#     4  12  18  32  48  70  90 120 154 184 228 268
#     4  10  19  35  52  72  98 122 147 179 218 263
#     4  11  22  38  58  79  97 120 147 181 229 282
#     4  10  16  22  33  50  75 107 147 191 240 282
#     4  10  21  38  54  73  99 124 154 196 235 283
#     4  10  20  33  49  70  94 127 164 201 242 284
#     4   9  16  26  39  56  81 111 152 197 237 278
#
# _framework density 15.883464999999999
#
# number of rings (size 3 to 8) (size 9 to 14) (size 15 to 20)
#    0.000    2.069    0.690    6.414    0.966    1.931 
#    0.000    2.759    0.000    0.000    0.000    0.000 
#    0.000    0.000    0.000    0.000    0.000    0.690 
#
# Total GULP energy -323088.682238 kJ/mol
# GULP energy per Si atom -5570.494521 kJ/mol
# Density = 1.584731 g / cm^3
# Si number density = 15.883465 Si / 1000 Ang^3
#
#
#
# Elastic Constant Matrix: (Units=GPa)
#
#
# Indices 1 2 3 4 5 6 
#
# 1 155.8063 39.9171 49.9499 0.0000 0.0000 0.0000
# 2 39.9171 57.1510 15.7539 0.0000 0.0000 0.0000
# 3 49.9499 15.7539 72.8715 0.0000 0.0000 0.0000
# 4 0.0000 0.0000 0.0000 15.1972 0.0000 0.0000
# 5 0.0000 0.0000 0.0000 0.0000 16.1818 0.0000
# 6 0.0000 0.0000 0.0000 0.0000 0.0000 -2.2799
#
#
#
# Elastic Compliance Matrix: (Units=1/GPa)
#
#
# Indices 1 2 3 4 5 6 
#
# 1 0.009453 -0.005121 -0.005372 0.000000 0.000000 0.000000
# 2 -0.005121 0.021381 -0.001112 0.000000 0.000000 0.000000
# 3 -0.005372 -0.001112 0.017645 0.000000 0.000000 0.000000
# 4 0.000000 0.000000 0.000000 0.065802 0.000000 0.000000
# 5 0.000000 0.000000 0.000000 0.000000 0.061798 0.000000
# 6 0.000000 0.000000 0.000000 0.000000 0.000000 -0.438617
#
#
# Mechanical properties :
#
#
# Convention : Reuss Voigt Hill
#
# Bulk Modulus (GPa) = 39.57510 55.23008 47.40259
# Shear Modulus (GPa) = -21.65391 17.83367 -1.91012
#
# Velocity S-wave (km/s) = -3.69629 3.35443 -1.09781
# Velocity P-wave (km/s) = 2.59870 7.06049 5.31995
#
# Compressibility (1/GPa) = 0.02526841
#
# Stress axis : x y z
#
# Youngs Moduli (GPa) = 105.79188 46.77061 56.67172
#
# Poissons Ratio (x) = 0.23953 0.30445
# Poissons Ratio (y) = 0.54179 0.06301
# Poissons Ratio (z) = 0.56832 0.05200
#
# Static dielectric constant tensor:
#      x y z
#    x 1.581410 0.000000 0.000000 
#    y 0.000000 1.519570 0.000000 
#    z 0.000000 0.000000 1.534700 
# 
# From -- ./inp_files/4464.got.cif
#   From: 2010.05.17/outbox.cif.g08.bks.cpg/sg49_3_cif.got.tgz:4464.got - 2010.06.03 21:02:19.
