data_PCOD9392030
_publ_section_title
;
Structure prediction by ZEFSAII (Michael W. Deem and Ramdas Pophale) SiO2 
 PCOD9392030
Probable space group: P C C M
;
_chemical_formula_sum "Si O2"
_cell_formula_units_Z 40
_cell_length_a 15.652441
_cell_length_b 21.207239
_cell_length_c 8.563946
_cell_angle_alpha 90.000000
_cell_angle_beta 90.000000
_cell_angle_gamma 90.000000
_cell_volume 2842.759545
_symmetry_space_group_name_H-M "P C C M"
_symmetry_group_IT_number 49
_symmetry_cell_setting 'orthorhombic'
loop_
_space_group_symop_operation_xyz
x,y,z
-x,-y,z
x,-y,1/2-z
-x,y,1/2-z
-x,-y,-z
x,y,-z
-x,y,1/2+z
x,-y,1/2+z
loop_
_atom_site_type_symbol
_atom_site_label
_atom_site_fract_x
_atom_site_fract_y
_atom_site_fract_z
Si Si1 0.402462 0.803871 0.686820
Si Si2 0.402192 0.934563 0.813364
Si Si3 0.088415 0.427992 0.686787
Si Si4 0.403124 0.670860 0.813048
Si Si5 0.731335 0.428491 0.313049
O O1 0.500000 0.803539 0.750000
O O2 0.403260 0.804346 0.500000
O O3 0.363260 0.869086 0.750687
O O4 0.367094 0.737854 0.750424
O O5 0.500000 0.934417 0.750000
O O6 0.363476 0.000000 0.750000
O O7 0.404057 0.934753 0.000000
O O8 0.088558 0.500000 0.750000
O O9 0.088208 0.428632 0.500000
O O10 0.177771 0.401949 0.750944
O O11 0.000000 0.398931 0.750000
O O12 0.500000 0.663963 0.750000
O O13 0.344632 0.614689 0.750262
O O14 0.405162 0.671725 0.000000
O O15 0.722116 0.500000 0.250000
O O16 0.732147 0.429952 0.500000
#
# Coordination Sequence:
#
# PCOD9392030 Si02
#       5
#     8   8   8   8   8
#     4  10  17  27  40  55  73  98 129 164 201 241
#     4  10  16  23  34  51  72  95 122 158 198 238
#     4  10  17  28  45  66  87 108 129 158 198 246
#     4  11  21  34  47  61  79 106 140 176 212 249
#     4  11  21  34  48  65  84 106 135 172 211 251
#
# _framework density 14.070835000000001
#
# number of rings (size 3 to 8) (size 9 to 14) (size 15 to 20)
#    0.000    1.600    0.000   13.800    0.000    0.400 
#    0.000    2.000    0.000    0.000    0.000    0.000 
#    0.000    0.000    0.000    0.000    0.000    1.000 
#
# Total GULP energy -222957.486317 kJ/mol
# GULP energy per Si atom -5573.937158 kJ/mol
# Density = 1.403881 g / cm^3
# Si number density = 14.070835 Si / 1000 Ang^3
#
#
#
# Elastic Constant Matrix: (Units=GPa)
#
#
# Indices 1 2 3 4 5 6 
#
# 1 63.2460 41.2396 36.9120 0.0000 0.0000 0.0000
# 2 41.2396 101.0921 50.7851 0.0000 0.0000 0.0000
# 3 36.9120 50.7851 183.4368 0.0000 0.0000 0.0000
# 4 0.0000 0.0000 0.0000 23.1507 0.0000 0.0000
# 5 0.0000 0.0000 0.0000 0.0000 18.7916 0.0000
# 6 0.0000 0.0000 0.0000 0.0000 0.0000 -0.5534
#
#
#
# Elastic Compliance Matrix: (Units=1/GPa)
#
#
# Indices 1 2 3 4 5 6 
#
# 1 0.022340 -0.007963 -0.002291 0.000000 0.000000 0.000000
# 2 -0.007963 0.014328 -0.002365 0.000000 0.000000 0.000000
# 3 -0.002291 -0.002365 0.006567 0.000000 0.000000 0.000000
# 4 0.000000 0.000000 0.000000 0.043195 0.000000 0.000000
# 5 0.000000 0.000000 0.000000 0.000000 0.053215 0.000000
# 6 0.000000 0.000000 0.000000 0.000000 0.000000 -1.806919
#
#
# Mechanical properties :
#
#
# Convention : Reuss Voigt Hill
#
# Bulk Modulus (GPa) = 55.55754 67.29425 61.42589
# Shear Modulus (GPa) = -3.05617 22.86700 9.90541
#
# Velocity S-wave (km/s) = -1.47536 4.03567 2.65612
# Velocity P-wave (km/s) = 6.05538 8.34534 7.29083
#
# Compressibility (1/GPa) = 0.01799936
#
# Stress axis : x y z
#
# Youngs Moduli (GPa) = 44.76201 69.79288 152.27465
#
# Poissons Ratio (x) = 0.55574 0.34885
# Poissons Ratio (y) = 0.35642 0.36005
# Poissons Ratio (z) = 0.10255 0.16503
#
# Static dielectric constant tensor:
#      x y z
#    x 1.468550 0.000000 0.000000 
#    y 0.000000 1.519630 0.000000 
#    z 0.000000 0.000000 1.463080 
# 
# From -- ./inp_files/3802.got.cif
#   From: 2010.05.17/outbox.cif.g08.bks.cpg/sg49_2_cif.got.tgz:3802.got - 2010.06.03 21:02:19.
