data_PCOD9392313
_publ_section_title
;
Structure prediction by ZEFSAII (Michael W. Deem and Ramdas Pophale) SiO2 
 PCOD9392313
Probable space group: P C C M
;
_chemical_formula_sum "Si O2"
_cell_formula_units_Z 64
_cell_length_a 18.883912
_cell_length_b 27.016385
_cell_length_c 8.706362
_cell_angle_alpha 90.000000
_cell_angle_beta 90.000000
_cell_angle_gamma 90.000000
_cell_volume 4441.768555
_symmetry_space_group_name_H-M "P C C M"
_symmetry_group_IT_number 49
_symmetry_cell_setting 'orthorhombic'
loop_
_space_group_symop_operation_xyz
x,y,z
-x,-y,z
x,-y,1/2-z
-x,y,1/2-z
-x,-y,-z
x,y,-z
-x,y,1/2+z
x,-y,1/2+z
loop_
_atom_site_type_symbol
_atom_site_label
_atom_site_fract_x
_atom_site_fract_y
_atom_site_fract_z
Si Si1 0.578400 0.249802 0.184474
Si Si2 0.706810 0.695614 0.822148
Si Si3 0.078509 0.259955 0.186055
Si Si4 0.922397 0.445452 0.315732
Si Si5 0.838141 0.354843 0.816558
Si Si6 0.420952 0.053071 0.685413
Si Si7 0.791300 0.199723 0.323262
Si Si8 0.338888 0.150592 0.683922
O O1 0.500000 0.255178 0.250000
O O2 0.632001 0.291784 0.245205
O O3 0.611704 0.196716 0.235391
O O4 0.577049 0.250607 0.000000
O O5 0.758077 0.657841 0.734570
O O6 0.749446 0.747833 0.818514
O O7 0.698597 0.681414 0.000000
O O8 0.112797 0.310340 0.251659
O O9 0.130759 0.214870 0.233374
O O10 0.000000 0.254086 0.250000
O O11 0.079025 0.262703 0.000000
O O12 0.906643 0.500000 0.250000
O O13 0.925208 0.446706 0.500000
O O14 0.866760 0.405263 0.256734
O O15 0.000000 0.431560 0.250000
O O16 0.843586 0.356240 0.000000
O O17 0.500000 0.061585 0.750000
O O18 0.423888 0.051196 0.500000
O O19 0.371381 0.098539 0.735216
O O20 0.397097 0.000000 0.750000
O O21 0.796384 0.184067 0.500000
O O22 0.740999 0.161821 0.235673
O O23 0.340585 0.150979 0.500000
#
# Coordination Sequence:
#
# PCOD9392313 Si02
#       8
#     8   8   8   8   8   8   8   8
#     4  10  18  28  42  62  86 114 144 177 213 254
#     4   9  17  30  44  61  84 111 142 178 213 252
#     4  10  19  30  43  63  87 114 145 177 210 249
#     4  11  21  34  48  65  88 115 147 184 220 255
#     4  11  20  31  46  64  86 116 148 179 215 256
#     4  10  19  30  42  59  81 108 140 176 211 247
#     4   8  16  28  42  59  81 107 138 172 209 248
#     4   9  18  29  42  59  81 109 143 175 210 251
#
# _framework density 14.408676
#
# number of rings (size 3 to 8) (size 9 to 14) (size 15 to 20)
#    0.000    2.250    0.000    6.000    0.000    5.000 
#    0.000    0.000    0.000    0.000    0.000    0.000 
#    0.000    1.000    0.000   10.500    0.000    7.000 
#
# Total GULP energy -356798.185202 kJ/mol
# GULP energy per Si atom -5574.971644 kJ/mol
# Density = 1.437588 g / cm^3
# Si number density = 14.408676 Si / 1000 Ang^3
#
#
#
# Elastic Constant Matrix: (Units=GPa)
#
#
# Indices 1 2 3 4 5 6 
#
# 1 116.8031 54.9071 41.8465 0.0000 0.0000 0.0000
# 2 54.9071 80.5556 37.4726 0.0000 0.0000 0.0000
# 3 41.8465 37.4726 86.1899 0.0000 0.0000 0.0000
# 4 0.0000 0.0000 0.0000 19.8356 0.0000 0.0000
# 5 0.0000 0.0000 0.0000 0.0000 25.5310 0.0000
# 6 0.0000 0.0000 0.0000 0.0000 0.0000 26.4214
#
#
#
# Elastic Compliance Matrix: (Units=1/GPa)
#
#
# Indices 1 2 3 4 5 6 
#
# 1 0.013243 -0.007566 -0.003140 0.000000 0.000000 0.000000
# 2 -0.007566 0.019883 -0.004971 0.000000 0.000000 0.000000
# 3 -0.003140 -0.004971 0.015288 0.000000 0.000000 0.000000
# 4 0.000000 0.000000 0.000000 0.050414 0.000000 0.000000
# 5 0.000000 0.000000 0.000000 0.000000 0.039168 0.000000
# 6 0.000000 0.000000 0.000000 0.000000 0.000000 0.037848
#
#
# Mechanical properties :
#
#
# Convention : Reuss Voigt Hill
#
# Bulk Modulus (GPa) = 58.61735 61.33346 59.97540
# Shear Modulus (GPa) = 23.48671 24.31242 23.89957
#
# Velocity S-wave (km/s) = 4.04176 4.11219 4.07712
# Velocity P-wave (km/s) = 7.90894 8.07504 7.99242
#
# Compressibility (1/GPa) = 0.01705980
#
# Stress axis : x y z
#
# Youngs Moduli (GPa) = 75.51166 50.29396 65.40930
#
# Poissons Ratio (x) = 0.38051 0.20541
# Poissons Ratio (y) = 0.57130 0.32517
# Poissons Ratio (z) = 0.23713 0.25003
#
# Static dielectric constant tensor:
#      x y z
#    x 1.473440 0.000000 0.000000 
#    y 0.000000 1.464640 0.000000 
#    z 0.000000 0.000000 1.486030 
# 
# From -- ./inp_files/5441.got.cif
#   From: 2010.05.17/outbox.cif.g08.bks.cpg/sg49_3_cif.got.tgz:5441.got - 2010.06.03 21:02:19.
