data_PCOD9392524
_publ_section_title
;
Structure prediction by ZEFSAII (Michael W. Deem and Ramdas Pophale) SiO2 
 PCOD9392524
Probable space group: P C C M
;
_chemical_formula_sum "Si O2"
_cell_formula_units_Z 64
_cell_length_a 14.606380
_cell_length_b 12.998501
_cell_length_c 15.039664
_cell_angle_alpha 90.000000
_cell_angle_beta 90.000000
_cell_angle_gamma 90.000000
_cell_volume 2855.446324
_symmetry_space_group_name_H-M "P C C M"
_symmetry_group_IT_number 49
_symmetry_cell_setting 'orthorhombic'
loop_
_space_group_symop_operation_xyz
x,y,z
-x,-y,z
x,-y,1/2-z
-x,y,1/2-z
-x,-y,-z
x,y,-z
-x,y,1/2+z
x,-y,1/2+z
loop_
_atom_site_type_symbol
_atom_site_label
_atom_site_fract_x
_atom_site_fract_y
_atom_site_fract_z
Si Si1 0.397543 0.021059 0.645422
Si Si2 0.822040 0.547001 0.892151
Si Si3 0.325042 0.245984 0.650120
Si Si4 0.779230 0.884695 0.904545
Si Si5 0.673141 0.693683 0.855191
Si Si6 0.871772 0.680707 0.605443
Si Si7 0.064850 0.752231 0.609129
Si Si8 0.486504 0.615280 0.858467
O O1 0.370585 0.138289 0.626547
O O2 0.500000 0.000000 0.607445
O O3 0.406711 0.000000 0.750000
O O4 0.306761 0.954433 0.623237
O O5 0.723363 0.583320 0.855704
O O6 0.855598 0.435702 0.859310
O O7 0.889449 0.641393 0.868752
O O8 0.815747 0.542803 0.000000
O O9 0.326294 0.259419 0.756614
O O10 0.221706 0.258072 0.619511
O O11 0.389921 0.337323 0.616228
O O12 0.733044 0.772183 0.910501
O O13 0.873456 0.848322 0.856224
O O14 0.807429 0.927625 0.000000
O O15 0.570860 0.684204 0.889664
O O16 0.887342 0.668026 0.500000
O O17 0.960368 0.740920 0.640187
O O18 0.066405 0.760363 0.500000
O O19 0.500000 0.500000 0.889445
O O20 0.500000 0.615235 0.750000
#
# Coordination Sequence:
#
# PCOD9392524 Si02
#       8
#     8   8   8   8   8   8   8   8
#     4  11  23  40  64  85 112 152 191 238 298 357
#     4   9  17  31  55  84 115 154 195 232 279 341
#     4  11  22  35  57  83 112 147 194 242 291 353
#     4  10  20  37  61  87 112 144 192 246 291 338
#     4  10  18  33  55  80 112 147 188 236 287 348
#     4  10  20  35  54  82 120 157 195 239 284 339
#     4   8  16  33  58  83 112 155 199 236 283 343
#     4   9  18  31  50  77 110 150 188 223 276 352
#
# _framework density 22.413308000000001
#
# number of rings (size 3 to 8) (size 9 to 14) (size 15 to 20)
#    0.000    2.250    1.250    3.000    3.500    3.750 
#    0.000    5.625    0.000    9.375    0.000    0.000 
#    0.000    0.000    0.000    0.000    0.000    0.000 
#
# Total GULP energy -356884.454618 kJ/mol
# GULP energy per Si atom -5576.319603 kJ/mol
# Density = 2.236229 g / cm^3
# Si number density = 22.413308 Si / 1000 Ang^3
#
#
#
# Elastic Constant Matrix: (Units=GPa)
#
#
# Indices 1 2 3 4 5 6 
#
# 1 189.9756 73.7195 6.7391 0.0000 0.0000 0.0000
# 2 73.7195 113.3647 6.5168 0.0000 0.0000 0.0000
# 3 6.7391 6.5168 26.9424 0.0000 0.0000 0.0000
# 4 0.0000 0.0000 0.0000 -0.0293 0.0000 0.0000
# 5 0.0000 0.0000 0.0000 0.0000 82.8780 0.0000
# 6 0.0000 0.0000 0.0000 0.0000 0.0000 81.1842
#
#
#
# Elastic Compliance Matrix: (Units=1/GPa)
#
#
# Indices 1 2 3 4 5 6 
#
# 1 0.007052 -0.004548 -0.000664 0.000000 0.000000 0.000000
# 2 -0.004548 0.011878 -0.001736 0.000000 0.000000 0.000000
# 3 -0.000664 -0.001736 0.037702 0.000000 0.000000 0.000000
# 4 0.000000 0.000000 0.000000-34.161702 0.000000 0.000000
# 5 0.000000 0.000000 0.000000 0.000000 0.012066 0.000000
# 6 0.000000 0.000000 0.000000 0.000000 0.000000 0.012318
#
#
# Mechanical properties :
#
#
# Convention : Reuss Voigt Hill
#
# Bulk Modulus (GPa) = 23.39846 56.02595 39.71221
# Shear Modulus (GPa) = -0.14683 49.02708 24.44012
#
# Velocity S-wave (km/s) = -0.25623 4.68205 3.30575
# Velocity P-wave (km/s) = 3.22097 7.36748 5.68570
#
# Compressibility (1/GPa) = 0.04273786
#
# Stress axis : x y z
#
# Youngs Moduli (GPa) = 141.80130 84.18793 26.52378
#
# Poissons Ratio (x) = 0.38286 0.01761
# Poissons Ratio (y) = 0.64487 0.04603
# Poissons Ratio (z) = 0.09415 0.14611
#
# Static dielectric constant tensor:
#      x y z
#    x 1.894450 0.000000 0.000000 
#    y 0.000000 1.819630 0.000000 
#    z 0.000000 0.000000 1.922330 
# 
# From -- ./inp_files/17970.got.cif
#   From: 2010.05.17/outbox.cif.g08.bks.cpg/sg49_9_cif.got.tgz:17970.got - 2010.06.03 21:02:19.
