data_PCOD9392774
_publ_section_title
;
Structure prediction by ZEFSAII (Michael W. Deem and Ramdas Pophale) SiO2 
 PCOD9392774
Probable space group: P C C M
;
_chemical_formula_sum "Si O2"
_cell_formula_units_Z 64
_cell_length_a 21.982331
_cell_length_b 14.981892
_cell_length_c 9.105818
_cell_angle_alpha 90.000000
_cell_angle_beta 90.000000
_cell_angle_gamma 90.000000
_cell_volume 2998.881954
_symmetry_space_group_name_H-M "P C C M"
_symmetry_group_IT_number 49
_symmetry_cell_setting 'orthorhombic'
loop_
_space_group_symop_operation_xyz
x,y,z
-x,-y,z
x,-y,1/2-z
-x,y,1/2-z
-x,-y,-z
x,y,-z
-x,y,1/2+z
x,-y,1/2+z
loop_
_atom_site_type_symbol
_atom_site_label
_atom_site_fract_x
_atom_site_fract_y
_atom_site_fract_z
Si Si1 0.809858 0.096425 0.677036
Si Si2 0.681887 0.356761 0.335314
Si Si3 0.560560 0.144449 0.834204
Si Si4 0.060126 0.401018 0.323268
Si Si5 0.059059 0.900766 0.323211
Si Si6 0.194688 0.402962 0.324149
Si Si7 0.677704 0.853503 0.836144
Si Si8 0.561842 0.636664 0.668117
O O1 0.808672 0.089964 0.500000
O O2 0.874959 0.141077 0.711374
O O3 0.745807 0.136785 0.725057
O O4 0.811160 0.000000 0.750000
O O5 0.688693 0.395030 0.500000
O O6 0.744956 0.362100 0.247121
O O7 0.668230 0.252045 0.350395
O O8 0.623269 0.393536 0.249948
O O9 0.500000 0.117369 0.750000
O O10 0.622757 0.112038 0.760921
O O11 0.561698 0.253907 0.834216
O O12 0.557242 0.113950 0.000000
O O13 0.062693 0.500000 0.250000
O O14 0.052447 0.407574 0.500000
O O15 0.127590 0.361222 0.294682
O O16 0.000000 0.358537 0.250000
O O17 0.051908 0.907455 0.500000
O O18 0.000000 0.857256 0.250000
O O19 0.061639 0.000000 0.250000
O O20 0.192539 0.500000 0.250000
O O21 0.201252 0.408610 0.500000
O O22 0.675374 0.893238 0.000000
O O23 0.500000 0.609853 0.750000
O O24 0.561721 0.606341 0.500000
#
# Coordination Sequence:
#
# PCOD9392774 Si02
#       8
#     8   8   8   8   8   8   8   8
#     4   9  18  31  47  68  94 123 154 190 232 278
#     4  10  19  31  49  71  95 126 160 193 233 278
#     4   9  16  26  43  67  92 119 152 191 232 272
#     4   9  16  26  43  66  91 118 150 190 232 272
#     4   9  15  24  40  62  87 114 147 187 229 270
#     4  10  20  33  49  71  98 126 157 194 235 279
#     4   9  18  32  48  68  95 125 156 191 232 278
#     4   9  16  27  44  67  94 121 153 194 234 273
#
# _framework density 21.341287000000001
#
# number of rings (size 3 to 8) (size 9 to 14) (size 15 to 20)
#    0.000    2.750    0.000    3.000    0.000    6.000 
#    0.000    0.000    0.000    1.500    0.000    8.750 
#    0.000    0.000    0.000    0.000    0.000    0.000 
#
# Total GULP energy -356677.361629 kJ/mol
# GULP energy per Si atom -5573.083775 kJ/mol
# Density = 2.129271 g / cm^3
# Si number density = 21.341287 Si / 1000 Ang^3
#
#
#
# Elastic Constant Matrix: (Units=GPa)
#
#
# Indices 1 2 3 4 5 6 
#
# 1 258.3608 8.7988 120.3142 0.0000 0.0000 0.0000
# 2 8.7988 28.9582 8.2362 0.0000 0.0000 0.0000
# 3 120.3142 8.2362 137.1376 0.0000 0.0000 0.0000
# 4 0.0000 0.0000 0.0000 -4.6304 0.0000 0.0000
# 5 0.0000 0.0000 0.0000 0.0000 33.8857 0.0000
# 6 0.0000 0.0000 0.0000 0.0000 0.0000 10.8061
#
#
#
# Elastic Compliance Matrix: (Units=1/GPa)
#
#
# Indices 1 2 3 4 5 6 
#
# 1 0.006548 -0.000362 -0.005723 0.000000 0.000000 0.000000
# 2 -0.000362 0.035153 -0.001794 0.000000 0.000000 0.000000
# 3 -0.005723 -0.001794 0.012421 0.000000 0.000000 0.000000
# 4 0.000000 0.000000 0.000000 -0.215966 0.000000 0.000000
# 5 0.000000 0.000000 0.000000 0.000000 0.029511 0.000000
# 6 0.000000 0.000000 0.000000 0.000000 0.000000 0.092540
#
#
# Mechanical properties :
#
#
# Convention : Reuss Voigt Hill
#
# Bulk Modulus (GPa) = 26.06602 77.68388 51.87495
# Shear Modulus (GPa) = -444.49828 27.15280 -208.67274
#
# Velocity S-wave (km/s) = -14.44760 3.57082 -9.89905
# Velocity P-wave (km/s) = 16.31166 7.31305 10.30994
#
# Compressibility (1/GPa) = 0.03836413
#
# Stress axis : x y z
#
# Youngs Moduli (GPa) = 152.71939 28.44734 80.51174
#
# Poissons Ratio (x) = 0.01029 0.46076
# Poissons Ratio (y) = 0.05526 0.14441
# Poissons Ratio (z) = 0.87400 0.05103
#
# Static dielectric constant tensor:
#      x y z
#    x 1.830840 0.000000 0.000000 
#    y 0.000000 1.810780 0.000000 
#    z 0.000000 0.000000 1.739630 
# 
# From -- ./inp_files/6082.got.cif
#   From: 2010.05.17/outbox.cif.g08.bks.cpg/sg49_4_cif.got.tgz:6082.got - 2010.06.03 21:02:19.
