data_PCOD9392769
_publ_section_title
;
Structure prediction by ZEFSAII (Michael W. Deem and Ramdas Pophale) SiO2 
 PCOD9392769
Probable space group: P C C M
;
_chemical_formula_sum "Si O2"
_cell_formula_units_Z 64
_cell_length_a 25.441226
_cell_length_b 15.480583
_cell_length_c 8.833132
_cell_angle_alpha 90.000000
_cell_angle_beta 90.000000
_cell_angle_gamma 90.000000
_cell_volume 3478.884967
_symmetry_space_group_name_H-M "P C C M"
_symmetry_group_IT_number 49
_symmetry_cell_setting 'orthorhombic'
loop_
_space_group_symop_operation_xyz
x,y,z
-x,-y,z
x,-y,1/2-z
-x,y,1/2-z
-x,-y,-z
x,y,-z
-x,y,1/2+z
x,-y,1/2+z
loop_
_atom_site_type_symbol
_atom_site_label
_atom_site_fract_x
_atom_site_fract_y
_atom_site_fract_z
Si Si1 0.213453 0.128936 0.324109
Si Si2 0.652553 0.281143 0.682446
Si Si3 0.055617 0.276131 0.682218
Si Si4 0.905053 0.911585 0.318149
Si Si5 0.761864 0.668858 0.675120
Si Si6 0.138574 0.591636 0.320067
Si Si7 0.323376 0.911626 0.679341
Si Si8 0.557071 0.406681 0.681821
O O1 0.221120 0.102754 0.500000
O O2 0.156244 0.098926 0.271805
O O3 0.215971 0.232972 0.319981
O O4 0.262141 0.096105 0.226562
O O5 0.659658 0.282728 0.500000
O O6 0.703343 0.324576 0.758913
O O7 0.651451 0.179974 0.729397
O O8 0.600434 0.334710 0.719409
O O9 0.055886 0.281546 0.500000
O O10 0.065915 0.176311 0.726768
O O11 0.101837 0.334826 0.748333
O O12 0.000000 0.304273 0.750000
O O13 0.905985 0.916458 0.500000
O O14 0.926492 0.000000 0.250000
O O15 0.761540 0.640895 0.500000
O O16 0.801575 0.611557 0.771449
O O17 0.122906 0.500000 0.250000
O O18 0.133557 0.591130 0.500000
O O19 0.327767 0.917295 0.500000
O O20 0.344841 0.000000 0.750000
O O21 0.572294 0.500000 0.750000
O O22 0.500000 0.385317 0.750000
O O23 0.553246 0.413758 0.500000
#
# Coordination Sequence:
#
# PCOD9392769 Si02
#       8
#     8   8   8   8   8   8   8   8
#     4   9  17  32  52  77 109 148 184 225 274 326
#     4   9  20  36  54  81 117 156 194 234 282 341
#     4  11  24  45  65  86 114 146 187 238 287 339
#     4  10  21  36  56  82 115 147 185 230 277 335
#     4  10  19  35  58  85 119 152 187 231 279 335
#     4  12  25  42  65  90 116 150 187 230 285 344
#     4  10  19  31  48  75 110 149 190 233 277 328
#     4  10  20  36  58  83 113 147 190 239 287 339
#
# _framework density 18.396699999999999
#
# number of rings (size 3 to 8) (size 9 to 14) (size 15 to 20)
#    0.000    1.875    1.250    3.375    0.000    5.500 
#    0.000    3.750    0.000    0.375    0.000    2.625 
#    0.000    0.000    0.000    0.000    0.000    0.000 
#
# Total GULP energy -357449.342087 kJ/mol
# GULP energy per Si atom -5585.145970 kJ/mol
# Density = 1.835483 g / cm^3
# Si number density = 18.396700 Si / 1000 Ang^3
#
#
#
# Elastic Constant Matrix: (Units=GPa)
#
#
# Indices 1 2 3 4 5 6 
#
# 1 89.5229 56.2997 37.8607 0.0000 0.0000 0.0000
# 2 56.2997 103.9842 46.1874 0.0000 0.0000 0.0000
# 3 37.8607 46.1874 71.4031 0.0000 0.0000 0.0000
# 4 0.0000 0.0000 0.0000 30.1675 0.0000 0.0000
# 5 0.0000 0.0000 0.0000 0.0000 10.2513 0.0000
# 6 0.0000 0.0000 0.0000 0.0000 0.0000 -8.0272
#
#
#
# Elastic Compliance Matrix: (Units=1/GPa)
#
#
# Indices 1 2 3 4 5 6 
#
# 1 0.017923 -0.007693 -0.004527 0.000000 0.000000 0.000000
# 2 -0.007693 0.016796 -0.006785 0.000000 0.000000 0.000000
# 3 -0.004527 -0.006785 0.020795 0.000000 0.000000 0.000000
# 4 0.000000 0.000000 0.000000 0.033148 0.000000 0.000000
# 5 0.000000 0.000000 0.000000 0.000000 0.097549 0.000000
# 6 0.000000 0.000000 0.000000 0.000000 0.000000 -0.124577
#
#
# Mechanical properties :
#
#
# Convention : Reuss Voigt Hill
#
# Bulk Modulus (GPa) = 57.13522 60.62286 58.87904
# Shear Modulus (GPa) = 47.40265 14.78248 31.09257
#
# Velocity S-wave (km/s) = 5.08162 2.83775 4.11556
# Velocity P-wave (km/s) = 8.09662 6.61527 7.39314
#
# Compressibility (1/GPa) = 0.01750234
#
# Stress axis : x y z
#
# Youngs Moduli (GPa) = 55.79415 59.53795 48.08939
#
# Poissons Ratio (x) = 0.45803 0.21771
# Poissons Ratio (y) = 0.42923 0.32630
# Poissons Ratio (z) = 0.25259 0.40399
#
# Static dielectric constant tensor:
#      x y z
#    x 1.605530 0.000000 0.000000 
#    y 0.000000 1.655640 0.000000 
#    z 0.000000 0.000000 1.620100 
# 
# From -- ./inp_files/6570.got.cif
#   From: 2010.05.17/outbox.cif.g08.bks.cpg/sg49_4_cif.got.tgz:6570.got - 2010.06.03 21:02:19.
