data_PCOD9392159
_publ_section_title
;
Structure prediction by ZEFSAII (Michael W. Deem and Ramdas Pophale) SiO2 
 PCOD9392159
Probable space group: P C C M
;
_chemical_formula_sum "Si O2"
_cell_formula_units_Z 42
_cell_length_a 26.756471
_cell_length_b 10.064303
_cell_length_c 8.858797
_cell_angle_alpha 90.000000
_cell_angle_beta 90.000000
_cell_angle_gamma 90.000000
_cell_volume 2385.543200
_symmetry_space_group_name_H-M "P C C M"
_symmetry_group_IT_number 49
_symmetry_cell_setting 'orthorhombic'
loop_
_space_group_symop_operation_xyz
x,y,z
-x,-y,z
x,-y,1/2-z
-x,y,1/2-z
-x,-y,-z
x,y,-z
-x,y,1/2+z
x,-y,1/2+z
loop_
_atom_site_type_symbol
_atom_site_label
_atom_site_fract_x
_atom_site_fract_y
_atom_site_fract_z
Si Si1 0.500000 0.000000 0.250000
Si Si2 0.241422 0.353789 0.181277
Si Si3 0.949289 0.149887 0.818002
Si Si4 0.646399 0.353983 0.680197
Si Si5 0.845827 0.148142 0.317408
Si Si6 0.451198 0.741827 0.832945
O O1 0.534375 0.102595 0.160305
O O2 0.232697 0.500000 0.250000
O O3 0.297654 0.308095 0.224054
O O4 0.199765 0.245681 0.221931
O O5 0.240421 0.367577 0.000000
O O6 0.897084 0.205001 0.754938
O O7 0.000000 0.212241 0.750000
O O8 0.948697 0.000000 0.750000
O O9 0.950659 0.146601 0.000000
O O10 0.641068 0.500000 0.750000
O O11 0.643912 0.359702 0.500000
O O12 0.599626 0.273031 0.741999
O O13 0.850764 0.139001 0.500000
O O14 0.837968 0.000000 0.250000
O O15 0.500000 0.681140 0.750000
O O16 0.445483 0.685808 0.000000
#
# Coordination Sequence:
#
# PCOD9392159 Si02
#       6
#     2   8   8   8   8   8
#     4   8  22  36  56  72 106 132 174 198 252 304
#     4   9  20  37  57  78 105 140 179 219 264 315
#     4  10  17  27  45  71 102 138 175 215 263 313
#     4  10  20  36  56  78 104 132 170 215 255 304
#     4  10  19  33  51  77 109 139 175 220 264 311
#     4  10  20  35  55  77 102 133 166 204 250 301
#
# _framework density 17.606052999999999
#
# number of rings (size 3 to 8) (size 9 to 14) (size 15 to 20)
#    0.571    1.714    0.000    5.429    0.000    2.667 
#    1.714    1.905    0.000    0.571    0.000    4.000 
#    0.000    0.000    0.000    0.000    0.000    0.000 
#
# Total GULP energy -233816.014284 kJ/mol
# GULP energy per Si atom -5567.047959 kJ/mol
# Density = 1.756598 g / cm^3
# Si number density = 17.606053 Si / 1000 Ang^3
#
#
#
# Elastic Constant Matrix: (Units=GPa)
#
#
# Indices 1 2 3 4 5 6 
#
# 1 192.4964 69.1856 69.4309 0.0000 0.0000 0.0000
# 2 69.1856 46.0347 25.9996 0.0000 0.0000 0.0000
# 3 69.4309 25.9996 109.2546 0.0000 0.0000 0.0000
# 4 0.0000 0.0000 0.0000 16.1101 0.0000 0.0000
# 5 0.0000 0.0000 0.0000 0.0000 21.9071 0.0000
# 6 0.0000 0.0000 0.0000 0.0000 0.0000 81.0406
#
#
#
# Elastic Compliance Matrix: (Units=1/GPa)
#
#
# Indices 1 2 3 4 5 6 
#
# 1 0.012695 -0.016777 -0.004075 0.000000 0.000000 0.000000
# 2 -0.016777 0.047269 -0.000587 0.000000 0.000000 0.000000
# 3 -0.004075 -0.000587 0.011882 0.000000 0.000000 0.000000
# 4 0.000000 0.000000 0.000000 0.062073 0.000000 0.000000
# 5 0.000000 0.000000 0.000000 0.000000 0.045647 0.000000
# 6 0.000000 0.000000 0.000000 0.000000 0.000000 0.012339
#
#
# Mechanical properties :
#
#
# Convention : Reuss Voigt Hill
#
# Bulk Modulus (GPa) = 34.52115 75.22421 54.87268
# Shear Modulus (GPa) = 20.45497 36.02286 28.23892
#
# Velocity S-wave (km/s) = 3.41224 4.52824 4.00926
# Velocity P-wave (km/s) = 5.93082 8.37610 7.25719
#
# Compressibility (1/GPa) = 0.02896775
#
# Stress axis : x y z
#
# Youngs Moduli (GPa) = 78.77318 21.15553 84.16024
#
# Poissons Ratio (x) = 0.35494 0.34294
# Poissons Ratio (y) = 1.32161 0.04938
# Poissons Ratio (z) = 0.32099 0.01241
#
# Static dielectric constant tensor:
#      x y z
#    x 1.651960 0.000000 0.000000 
#    y 0.000000 1.596500 0.000000 
#    z 0.000000 0.000000 1.621950 
# 
# From -- ./inp_files/6294.got.cif
#   From: 2010.05.17/outbox.cif.g08.bks.cpg/sg49_4_cif.got.tgz:6294.got - 2010.06.03 21:02:19.
