data_PCOD9392104
_publ_section_title
;
Structure prediction by ZEFSAII (Michael W. Deem and Ramdas Pophale) SiO2 
 PCOD9392104
Probable space group: P C C M
;
_chemical_formula_sum "Si O2"
_cell_formula_units_Z 64
_cell_length_a 27.256273
_cell_length_b 18.790745
_cell_length_c 8.715531
_cell_angle_alpha 90.000000
_cell_angle_beta 90.000000
_cell_angle_gamma 90.000000
_cell_volume 4463.795823
_symmetry_space_group_name_H-M "P C C M"
_symmetry_group_IT_number 49
_symmetry_cell_setting 'orthorhombic'
loop_
_space_group_symop_operation_xyz
x,y,z
-x,-y,z
x,-y,1/2-z
-x,y,1/2-z
-x,-y,-z
x,y,-z
-x,y,1/2+z
x,-y,1/2+z
loop_
_atom_site_type_symbol
_atom_site_label
_atom_site_fract_x
_atom_site_fract_y
_atom_site_fract_z
Si Si1 0.349768 0.422485 0.682101
Si Si2 0.152487 0.919717 0.184331
Si Si3 0.448328 0.341255 0.683654
Si Si4 0.050385 0.080819 0.815650
Si Si5 0.248926 0.153382 0.185950
Si Si6 0.599543 0.793080 0.823275
Si Si7 0.297816 0.294436 0.175816
Si Si8 0.346426 0.921736 0.816510
O O1 0.341524 0.500000 0.750000
O O2 0.351562 0.427231 0.500000
O O3 0.402456 0.390227 0.734934
O O4 0.308760 0.365053 0.729802
O O5 0.101485 0.888928 0.251861
O O6 0.199085 0.876175 0.243614
O O7 0.157740 0.000000 0.250000
O O8 0.150436 0.922452 0.000000
O O9 0.500000 0.366349 0.750000
O O10 0.449666 0.341077 0.500000
O O11 0.437474 0.261324 0.742866
O O12 0.000000 0.113568 0.750000
O O13 0.050812 0.000000 0.750000
O O14 0.049768 0.079345 0.000000
O O15 0.258640 0.235913 0.229531
O O16 0.294854 0.107554 0.248538
O O17 0.248792 0.148890 0.000000
O O18 0.651315 0.750345 0.823070
O O19 0.611796 0.866189 0.737332
O O20 0.585719 0.805815 0.000000
O O21 0.287200 0.313973 0.000000
O O22 0.355238 0.000000 0.750000
O O23 0.343372 0.923264 0.000000
#
# Coordination Sequence:
#
# PCOD9392104 Si02
#       8
#     8   8   8   8   8   8   8   8
#     4  10  20  32  48  68  91 114 140 168 198 234
#     4  11  20  29  40  57  81 110 144 185 227 265
#     4  10  20  33  49  69  89 113 139 167 200 239
#     4  10  17  27  40  54  73 101 139 182 225 268
#     4  10  19  31  44  61  84 111 140 174 215 257
#     4   9  17  31  48  65  84 108 136 168 202 243
#     4   8  16  30  47  63  83 109 137 166 201 243
#     4  11  20  30  44  63  85 109 137 171 209 251
#
# _framework density 14.337573000000001
#
# number of rings (size 3 to 8) (size 9 to 14) (size 15 to 20)
#    0.000    2.125    0.000    7.125    0.000    5.250 
#    0.000    1.250    0.000    0.375    0.000    2.625 
#    0.000    0.000    0.000    0.000    0.000    0.625 
#
# Total GULP energy -356808.449274 kJ/mol
# GULP energy per Si atom -5575.132020 kJ/mol
# Density = 1.430494 g / cm^3
# Si number density = 14.337573 Si / 1000 Ang^3
#
#
#
# Elastic Constant Matrix: (Units=GPa)
#
#
# Indices 1 2 3 4 5 6 
#
# 1 49.2065 27.1047 21.3366 0.0000 0.0000 0.0000
# 2 27.1047 92.9455 39.3196 0.0000 0.0000 0.0000
# 3 21.3366 39.3196 97.0174 0.0000 0.0000 0.0000
# 4 0.0000 0.0000 0.0000 19.5708 0.0000 0.0000
# 5 0.0000 0.0000 0.0000 0.0000 26.6009 0.0000
# 6 0.0000 0.0000 0.0000 0.0000 0.0000 9.9307
#
#
#
# Elastic Compliance Matrix: (Units=1/GPa)
#
#
# Indices 1 2 3 4 5 6 
#
# 1 0.024944 -0.005978 -0.003063 0.000000 0.000000 0.000000
# 2 -0.005978 0.014418 -0.004529 0.000000 0.000000 0.000000
# 3 -0.003063 -0.004529 0.012816 0.000000 0.000000 0.000000
# 4 0.000000 0.000000 0.000000 0.051096 0.000000 0.000000
# 5 0.000000 0.000000 0.000000 0.000000 0.037593 0.000000
# 6 0.000000 0.000000 0.000000 0.000000 0.000000 0.100698
#
#
# Mechanical properties :
#
#
# Convention : Reuss Voigt Hill
#
# Bulk Modulus (GPa) = 39.93831 46.07679 43.00755
# Shear Modulus (GPa) = 18.04722 21.31439 19.68081
#
# Velocity S-wave (km/s) = 3.55172 3.85984 3.70898
# Velocity P-wave (km/s) = 6.68848 7.21605 6.95727
#
# Compressibility (1/GPa) = 0.02503862
#
# Stress axis : x y z
#
# Youngs Moduli (GPa) = 40.09023 69.35668 78.02490
#
# Poissons Ratio (x) = 0.41464 0.23898
# Poissons Ratio (y) = 0.23968 0.35335
# Poissons Ratio (z) = 0.12279 0.31409
#
# Static dielectric constant tensor:
#      x y z
#    x 1.488810 0.000000 0.000000 
#    y 0.000000 1.463060 0.000000 
#    z 0.000000 0.000000 1.479920 
# 
# From -- ./inp_files/6800.got.cif
#   From: 2010.05.17/outbox.cif.g08.bks.cpg/sg49_4_cif.got.tgz:6800.got - 2010.06.03 21:02:19.
