data_PCOD9392809
_publ_section_title
;
Structure prediction by ZEFSAII (Michael W. Deem and Ramdas Pophale) SiO2 
 PCOD9392809
Probable space group: P C C M
;
_chemical_formula_sum "Si O2"
_cell_formula_units_Z 58
_cell_length_a 26.613374
_cell_length_b 12.929113
_cell_length_c 7.963249
_cell_angle_alpha 90.000000
_cell_angle_beta 90.000000
_cell_angle_gamma 90.000000
_cell_volume 2740.053005
_symmetry_space_group_name_H-M "P C C M"
_symmetry_group_IT_number 49
_symmetry_cell_setting 'orthorhombic'
loop_
_space_group_symop_operation_xyz
x,y,z
-x,-y,z
x,-y,1/2-z
-x,y,1/2-z
-x,-y,-z
x,y,-z
-x,y,1/2+z
x,-y,1/2+z
loop_
_atom_site_type_symbol
_atom_site_label
_atom_site_fract_x
_atom_site_fract_y
_atom_site_fract_z
Si Si1 0.731093 0.610503 0.798540
Si Si2 0.417897 0.845145 0.699439
Si Si3 0.441362 0.613602 0.800872
Si Si4 0.693641 0.168392 0.703339
Si Si5 0.837980 0.324046 0.693545
Si Si6 0.801809 0.110805 0.193054
Si Si7 0.053780 0.619941 0.699512
Si Si8 0.500000 0.000000 0.750000
O O1 0.709916 0.500000 0.750000
O O2 0.699987 0.710902 0.745028
O O3 0.788437 0.621769 0.729728
O O4 0.733864 0.615828 0.000000
O O5 0.426499 0.867986 0.500000
O O6 0.421976 0.720842 0.721183
O O7 0.361025 0.872078 0.749259
O O8 0.458244 0.912551 0.802491
O O9 0.420293 0.500000 0.750000
O O10 0.500000 0.611001 0.750000
O O11 0.436540 0.623205 0.000000
O O12 0.697909 0.162580 0.500000
O O13 0.741639 0.113810 0.782520
O O14 0.840699 0.359798 0.500000
O O15 0.823991 0.203756 0.699135
O O16 0.893029 0.339709 0.770112
O O17 0.820791 0.000000 0.250000
O O18 0.813705 0.130700 0.000000
O O19 0.052527 0.500000 0.750000
O O20 0.055405 0.629043 0.500000
O O21 0.000000 0.667256 0.750000
#
# Coordination Sequence:
#
# PCOD9392809 Si02
#       8
#     8   8   8   8   8   8   8   2
#     4   9  17  31  52  78 111 146 183 225 276 334
#     4  11  24  43  64  89 122 155 191 239 294 348
#     4  11  22  39  64  89 116 148 186 230 278 333
#     4   9  21  40  58  81 115 151 184 227 280 338
#     4   9  19  35  53  77 111 152 193 238 289 340
#     4  11  22  37  59  84 109 142 185 235 288 345
#     4  10  19  31  50  78 116 158 199 241 286 336
#     4  12  26  40  66  94 118 148 202 242 296 348
#
# _framework density 21.167473000000001
#
# number of rings (size 3 to 8) (size 9 to 14) (size 15 to 20)
#    0.000    1.931    0.690    5.172    0.966    4.966 
#    0.000    1.379    0.000    0.414    0.000    2.897 
#    0.000    0.000    0.000    0.000    0.000    0.000 
#
# Total GULP energy -323405.998062 kJ/mol
# GULP energy per Si atom -5575.965484 kJ/mol
# Density = 2.111929 g / cm^3
# Si number density = 21.167473 Si / 1000 Ang^3
#
#
#
# Elastic Constant Matrix: (Units=GPa)
#
#
# Indices 1 2 3 4 5 6 
#
# 1 124.0438 13.6536 10.8323 0.0000 0.0000 0.0000
# 2 13.6536 101.2178 -7.6113 0.0000 0.0000 0.0000
# 3 10.8323 -7.6113 48.5105 0.0000 0.0000 0.0000
# 4 0.0000 0.0000 0.0000 26.3154 0.0000 0.0000
# 5 0.0000 0.0000 0.0000 0.0000 13.3857 0.0000
# 6 0.0000 0.0000 0.0000 0.0000 0.0000 -14.8329
#
#
#
# Elastic Compliance Matrix: (Units=1/GPa)
#
#
# Indices 1 2 3 4 5 6 
#
# 1 0.008384 -0.001287 -0.002074 0.000000 0.000000 0.000000
# 2 -0.001287 0.010195 0.001887 0.000000 0.000000 0.000000
# 3 -0.002074 0.001887 0.021373 0.000000 0.000000 0.000000
# 4 0.000000 0.000000 0.000000 0.038001 0.000000 0.000000
# 5 0.000000 0.000000 0.000000 0.000000 0.074707 0.000000
# 6 0.000000 0.000000 0.000000 0.000000 0.000000 -0.067418
#
#
# Mechanical properties :
#
#
# Convention : Reuss Voigt Hill
#
# Bulk Modulus (GPa) = 27.02360 34.16905 30.59632
# Shear Modulus (GPa) = 49.73843 22.10013 35.91928
#
# Velocity S-wave (km/s) = 4.85269 3.23470 4.12382
# Velocity P-wave (km/s) = 6.64774 5.48893 6.09593
#
# Compressibility (1/GPa) = 0.03700469
#
# Stress axis : x y z
#
# Youngs Moduli (GPa) = 119.26833 98.08552 46.78732
#
# Poissons Ratio (x) = 0.12623 0.09704
# Poissons Ratio (y) = 0.15350 -0.08829
# Poissons Ratio (z) = 0.24738 -0.18509
#
# Static dielectric constant tensor:
#      x y z
#    x 1.793310 0.000000 0.000000 
#    y 0.000000 1.772540 0.000000 
#    z 0.000000 0.000000 1.780370 
# 
# From -- ./inp_files/6757.got.cif
#   From: 2010.05.17/outbox.cif.g08.bks.cpg/sg49_4_cif.got.tgz:6757.got - 2010.06.03 21:02:19.
