data_PCOD9392958
_publ_section_title
;
Structure prediction by ZEFSAII (Michael W. Deem and Ramdas Pophale) SiO2 
 PCOD9392958
Probable space group: P C C M
;
_chemical_formula_sum "Si O2"
_cell_formula_units_Z 64
_cell_length_a 13.243754
_cell_length_b 27.823678
_cell_length_c 9.425197
_cell_angle_alpha 90.000000
_cell_angle_beta 90.000000
_cell_angle_gamma 90.000000
_cell_volume 3473.090341
_symmetry_space_group_name_H-M "P C C M"
_symmetry_group_IT_number 49
_symmetry_cell_setting 'orthorhombic'
loop_
_space_group_symop_operation_xyz
x,y,z
-x,-y,z
x,-y,1/2-z
-x,y,1/2-z
-x,-y,-z
x,y,-z
-x,y,1/2+z
x,-y,1/2+z
loop_
_atom_site_type_symbol
_atom_site_label
_atom_site_fract_x
_atom_site_fract_y
_atom_site_fract_z
Si Si1 0.091785 0.773603 0.656096
Si Si2 0.095630 0.635379 0.842507
Si Si3 0.737298 0.293653 0.252997
Si Si4 0.765474 0.857933 0.169744
Si Si5 0.397435 0.381272 0.164536
Si Si6 0.896454 0.050366 0.328300
Si Si7 0.243642 0.550620 0.828039
Si Si8 0.604726 0.203668 0.165706
O O1 0.051291 0.781742 0.500000
O O2 0.184138 0.736590 0.653912
O O3 0.141262 0.822939 0.709157
O O4 0.000000 0.756931 0.750000
O O5 0.186548 0.673865 0.839305
O O6 0.147318 0.584982 0.801034
O O7 0.000000 0.648180 0.750000
O O8 0.056233 0.630888 0.000000
O O9 0.666973 0.332083 0.330748
O O10 0.668047 0.253519 0.178737
O O11 0.806373 0.911496 0.192629
O O12 0.671468 0.838026 0.259184
O O13 0.746651 0.851179 0.000000
O O14 0.500000 0.372835 0.250000
O O15 0.335860 0.421472 0.252185
O O16 0.413647 0.394964 0.000000
O O17 0.911745 0.045157 0.500000
O O18 0.000000 0.067118 0.250000
O O19 0.873371 0.000000 0.250000
O O20 0.231800 0.500000 0.750000
O O21 0.256978 0.546821 0.000000
O O22 0.500000 0.208894 0.250000
O O23 0.587665 0.193449 0.000000
#
# Coordination Sequence:
#
# PCOD9392958 Si02
#       8
#     8   8   8   8   8   8   8   8
#     4  10  20  33  50  75 107 144 183 223 266 316
#     4  10  22  38  57  82 113 146 181 220 263 314
#     4  10  22  37  56  80 110 146 185 224 266 318
#     4   9  20  37  54  76 110 148 188 232 280 332
#     4  11  23  39  60  84 110 142 178 221 273 326
#     4  10  19  32  53  82 116 153 191 235 283 337
#     4  10  22  41  62  85 112 141 178 223 268 321
#     4  11  23  38  59  83 110 145 187 234 283 333
#
# _framework density 18.427392999999999
#
# number of rings (size 3 to 8) (size 9 to 14) (size 15 to 20)
#    0.000    1.875    0.000    3.750    0.000   12.000 
#    0.000    2.500    0.000    0.375    0.000    2.625 
#    0.000    0.000    0.000    0.000    0.000    0.000 
#
# Total GULP energy -356925.227733 kJ/mol
# GULP energy per Si atom -5576.956683 kJ/mol
# Density = 1.838545 g / cm^3
# Si number density = 18.427393 Si / 1000 Ang^3
#
#
#
# Elastic Constant Matrix: (Units=GPa)
#
#
# Indices 1 2 3 4 5 6 
#
# 1 125.5182 50.1775 71.9317 0.0000 0.0000 0.0000
# 2 50.1775 104.5007 42.6615 0.0000 0.0000 0.0000
# 3 71.9317 42.6615 108.5976 0.0000 0.0000 0.0000
# 4 0.0000 0.0000 0.0000 25.2992 0.0000 0.0000
# 5 0.0000 0.0000 0.0000 0.0000 22.5574 0.0000
# 6 0.0000 0.0000 0.0000 0.0000 0.0000 -26.8539
#
#
#
# Elastic Compliance Matrix: (Units=1/GPa)
#
#
# Indices 1 2 3 4 5 6 
#
# 1 0.013813 -0.003451 -0.007794 0.000000 0.000000 0.000000
# 2 -0.003451 0.012259 -0.002530 0.000000 0.000000 0.000000
# 3 -0.007794 -0.002530 0.015365 0.000000 0.000000 0.000000
# 4 0.000000 0.000000 0.000000 0.039527 0.000000 0.000000
# 5 0.000000 0.000000 0.000000 0.000000 0.044331 0.000000
# 6 0.000000 0.000000 0.000000 0.000000 0.000000 -0.037239
#
#
# Mechanical properties :
#
#
# Convention : Reuss Voigt Hill
#
# Bulk Modulus (GPa) = 72.00785 74.23976 73.12381
# Shear Modulus (GPa) = 41.58546 15.79027 28.68786
#
# Velocity S-wave (km/s) = 4.75565 2.93045 3.94992
# Velocity P-wave (km/s) = 8.32564 7.19897 7.78272
#
# Compressibility (1/GPa) = 0.01388737
#
# Stress axis : x y z
#
# Youngs Moduli (GPa) = 72.39673 81.57150 65.08500
#
# Poissons Ratio (x) = 0.28148 0.50725
# Poissons Ratio (y) = 0.24982 0.16468
# Poissons Ratio (z) = 0.56423 0.20640
#
# Static dielectric constant tensor:
#      x y z
#    x 1.647040 0.000000 0.000000 
#    y 0.000000 1.652290 0.000000 
#    z 0.000000 0.000000 1.633860 
# 
# From -- ./inp_files/3100.got.cif
#   From: 2010.05.17/outbox.cif.g08.bks.cpg/sg49_2_cif.got.tgz:3100.got - 2010.06.03 21:02:19.
