data_PCOD9392565
_publ_section_title
;
Structure prediction by ZEFSAII (Michael W. Deem and Ramdas Pophale) SiO2 
 PCOD9392565
Probable space group: P C C M
;
_chemical_formula_sum "Si O2"
_cell_formula_units_Z 64
_cell_length_a 12.643882
_cell_length_b 17.529523
_cell_length_c 14.423393
_cell_angle_alpha 90.000000
_cell_angle_beta 90.000000
_cell_angle_gamma 90.000000
_cell_volume 3196.818426
_symmetry_space_group_name_H-M "P C C M"
_symmetry_group_IT_number 49
_symmetry_cell_setting 'orthorhombic'
loop_
_space_group_symop_operation_xyz
x,y,z
-x,-y,z
x,-y,1/2-z
-x,y,1/2-z
-x,-y,-z
x,y,-z
-x,y,1/2+z
x,-y,1/2+z
loop_
_atom_site_type_symbol
_atom_site_label
_atom_site_fract_x
_atom_site_fract_y
_atom_site_fract_z
Si Si1 0.088046 0.805673 0.861424
Si Si2 0.128984 0.838860 0.648311
Si Si3 0.965164 0.367619 0.106472
Si Si4 0.170982 0.586419 0.726528
Si Si5 0.464528 0.176566 0.112720
Si Si6 0.710717 0.706207 0.106236
Si Si7 0.693246 0.956445 0.887022
Si Si8 0.315499 0.872051 0.106847
O O1 0.108016 0.808385 0.751599
O O2 0.041697 0.724164 0.891955
O O3 0.203067 0.830231 0.895484
O O4 0.988217 0.858359 0.887842
O O5 0.196202 0.770424 0.602887
O O6 0.203914 0.911638 0.647447
O O7 0.867047 0.385832 0.172835
O O8 0.067912 0.402989 0.158350
O O9 0.960323 0.393665 0.000000
O O10 0.201453 0.500000 0.750000
O O11 0.256183 0.639470 0.676049
O O12 0.391374 0.247232 0.141175
O O13 0.407220 0.096599 0.136785
O O14 0.585232 0.174562 0.146721
O O15 0.460743 0.182005 0.000000
O O16 0.696865 0.678568 0.000000
O O17 0.690472 0.043024 0.852121
O O18 0.699783 0.956625 0.000000
O O19 0.345622 0.884976 0.000000
#
# Coordination Sequence:
#
# PCOD9392565 Si02
#       8
#     8   8   8   8   8   8   8   8
#     4  11  21  34  53  76 111 159 205 252 305 356
#     4  10  19  35  53  75 111 155 206 251 302 363
#     4  11  21  36  55  80 121 166 201 238 297 367
#     4  11  22  36  57  90 123 152 193 247 300 361
#     4   8  16  32  56  81 109 151 201 254 311 363
#     4  10  18  34  61  86 114 157 204 247 297 366
#     4   9  18  32  53  76 106 151 200 258 315 364
#     4  10  20  33  50  81 115 147 201 260 309 363
#
# _framework density 20.019905000000001
#
# number of rings (size 3 to 8) (size 9 to 14) (size 15 to 20)
#    0.000    2.000    2.500    3.750    0.000    5.500 
#    0.000    5.000    0.000    3.000    0.000    2.625 
#    0.000    4.000    0.000    0.000    0.000    0.000 
#
# Total GULP energy -356812.312724 kJ/mol
# GULP energy per Si atom -5575.192386 kJ/mol
# Density = 1.997434 g / cm^3
# Si number density = 20.019905 Si / 1000 Ang^3
#
#
#
# Elastic Constant Matrix: (Units=GPa)
#
#
# Indices 1 2 3 4 5 6 
#
# 1 138.1042 64.1078 16.0426 0.0000 0.0000 0.0000
# 2 64.1078 107.8105 24.5531 0.0000 0.0000 0.0000
# 3 16.0426 24.5531 105.0172 0.0000 0.0000 0.0000
# 4 0.0000 0.0000 0.0000 -5.3067 0.0000 0.0000
# 5 0.0000 0.0000 0.0000 0.0000 18.2770 0.0000
# 6 0.0000 0.0000 0.0000 0.0000 0.0000 21.2081
#
#
#
# Elastic Compliance Matrix: (Units=1/GPa)
#
#
# Indices 1 2 3 4 5 6 
#
# 1 0.010004 -0.005916 -0.000145 0.000000 0.000000 0.000000
# 2 -0.005916 0.013295 -0.002205 0.000000 0.000000 0.000000
# 3 -0.000145 -0.002205 0.010060 0.000000 0.000000 0.000000
# 4 0.000000 0.000000 0.000000 -0.188443 0.000000 0.000000
# 5 0.000000 0.000000 0.000000 0.000000 0.054714 0.000000
# 6 0.000000 0.000000 0.000000 0.000000 0.000000 0.047152
#
#
# Mechanical properties :
#
#
# Convention : Reuss Voigt Hill
#
# Bulk Modulus (GPa) = 59.42468 62.25987 60.84228
# Shear Modulus (GPa) = -160.88401 23.25092 -68.81655
#
# Velocity S-wave (km/s) = -8.97421 3.41161 -5.86930
# Velocity P-wave (km/s) = 8.81106 6.83267 3.93379
#
# Compressibility (1/GPa) = 0.01682802
#
# Stress axis : x y z
#
# Youngs Moduli (GPa) = 99.96254 75.21495 99.40464
#
# Poissons Ratio (x) = 0.44494 0.01443
# Poissons Ratio (y) = 0.59133 0.21916
# Poissons Ratio (z) = 0.01451 0.16583
#
# Static dielectric constant tensor:
#      x y z
#    x 1.739750 0.000000 0.000000 
#    y 0.000000 1.749280 0.000000 
#    z 0.000000 0.000000 1.821350 
# 
# From -- ./inp_files/13121.got.cif
#   From: 2010.05.17/outbox.cif.g08.bks.cpg/sg49_7_cif.got.tgz:13121.got - 2010.06.03 21:02:19.
