data_PCOD9392760
_publ_section_title
;
Structure prediction by ZEFSAII (Michael W. Deem and Ramdas Pophale) SiO2 
 PCOD9392760
Probable space group: P C C M
;
_chemical_formula_sum "Si O2"
_cell_formula_units_Z 48
_cell_length_a 18.072013
_cell_length_b 18.286956
_cell_length_c 8.972630
_cell_angle_alpha 90.000000
_cell_angle_beta 90.000000
_cell_angle_gamma 90.000000
_cell_volume 2965.293664
_symmetry_space_group_name_H-M "P C C M"
_symmetry_group_IT_number 49
_symmetry_cell_setting 'orthorhombic'
loop_
_space_group_symop_operation_xyz
x,y,z
-x,-y,z
x,-y,1/2-z
-x,y,1/2-z
-x,-y,-z
x,y,-z
-x,y,1/2+z
x,-y,1/2+z
loop_
_atom_site_type_symbol
_atom_site_label
_atom_site_fract_x
_atom_site_fract_y
_atom_site_fract_z
Si Si1 0.688115 0.310354 0.169803
Si Si2 0.077060 0.079866 0.678352
Si Si3 0.077836 0.675292 0.324326
Si Si4 0.181348 0.429511 0.668708
Si Si5 0.186277 0.790932 0.821421
Si Si6 0.418500 0.422769 0.179077
O O1 0.756540 0.367200 0.166217
O O2 0.729012 0.233897 0.213127
O O3 0.629410 0.351939 0.273210
O O4 0.659019 0.303831 0.000000
O O5 0.066501 0.074615 0.500000
O O6 0.149612 0.129859 0.705129
O O7 0.000000 0.109991 0.750000
O O8 0.087033 0.000000 0.750000
O O9 0.071495 0.672430 0.500000
O O10 0.112036 0.600918 0.259564
O O11 0.134157 0.737847 0.272877
O O12 0.000000 0.690397 0.250000
O O13 0.211966 0.500000 0.750000
O O14 0.160159 0.446162 0.500000
O O15 0.177723 0.776484 0.000000
O O16 0.390183 0.500000 0.250000
O O17 0.500000 0.413900 0.250000
O O18 0.421229 0.429833 0.000000
#
# Coordination Sequence:
#
# PCOD9392760 Si02
#       6
#     8   8   8   8   8   8
#     4   9  18  33  50  68  92 120 151 189 230 276
#     4  10  19  31  48  71  98 129 162 198 240 284
#     4  11  21  32  46  62  82 110 147 189 233 277
#     4  10  20  33  47  63  84 111 146 187 231 275
#     4   9  19  34  50  68  92 122 155 191 233 279
#     4  11  21  33  50  72  98 128 161 196 236 281
#
# _framework density 16.187266999999999
#
# number of rings (size 3 to 8) (size 9 to 14) (size 15 to 20)
#    0.000    2.000    0.000    7.000    0.000    7.667 
#    0.000    1.667    0.000    0.000    0.000    0.000 
#    0.000    0.667    0.000    7.667    0.000    2.333 
#
# Total GULP energy -267448.954657 kJ/mol
# GULP energy per Si atom -5571.853222 kJ/mol
# Density = 1.615042 g / cm^3
# Si number density = 16.187267 Si / 1000 Ang^3
#
#
#
# Elastic Constant Matrix: (Units=GPa)
#
#
# Indices 1 2 3 4 5 6 
#
# 1 65.1875 30.5611 48.6165 0.0000 0.0000 0.0000
# 2 30.5611 68.7122 30.6688 0.0000 0.0000 0.0000
# 3 48.6165 30.6688 108.5356 0.0000 0.0000 0.0000
# 4 0.0000 0.0000 0.0000 -67.0568 0.0000 0.0000
# 5 0.0000 0.0000 0.0000 0.0000 61.7890 0.0000
# 6 0.0000 0.0000 0.0000 0.0000 0.0000 27.6689
#
#
#
# Elastic Compliance Matrix: (Units=1/GPa)
#
#
# Indices 1 2 3 4 5 6 
#
# 1 0.025842 -0.007240 -0.009529 0.000000 0.000000 0.000000
# 2 -0.007240 0.018682 -0.002036 0.000000 0.000000 0.000000
# 3 -0.009529 -0.002036 0.014057 0.000000 0.000000 0.000000
# 4 0.000000 0.000000 0.000000 -0.014913 0.000000 0.000000
# 5 0.000000 0.000000 0.000000 0.000000 0.016184 0.000000
# 6 0.000000 0.000000 0.000000 0.000000 0.000000 0.036142
#
#
# Mechanical properties :
#
#
# Convention : Reuss Voigt Hill
#
# Bulk Modulus (GPa) = 47.68659 51.34758 49.51708
# Shear Modulus (GPa) = 35.56285 13.31947 24.44116
#
# Velocity S-wave (km/s) = 4.69226 2.87162 3.88996
# Velocity P-wave (km/s) = 7.67331 6.54101 7.12967
#
# Compressibility (1/GPa) = 0.02097026
#
# Stress axis : x y z
#
# Youngs Moduli (GPa) = 38.69699 53.52626 71.13689
#
# Poissons Ratio (x) = 0.38755 0.67790
# Poissons Ratio (y) = 0.28018 0.14483
# Poissons Ratio (z) = 0.36876 0.10897
#
# Static dielectric constant tensor:
#      x y z
#    x 1.577490 0.000000 0.000000 
#    y 0.000000 1.509880 0.000000 
#    z 0.000000 0.000000 1.545420 
# 
# From -- ./inp_files/4974.got.cif
#   From: 2010.05.17/outbox.cif.g08.bks.cpg/sg49_3_cif.got.tgz:4974.got - 2010.06.03 21:02:19.
