data_PCOD9392716
_publ_section_title
;
Structure prediction by ZEFSAII (Michael W. Deem and Ramdas Pophale) SiO2 
 PCOD9392716
Probable space group: P C C M
;
_chemical_formula_sum "Si O2"
_cell_formula_units_Z 64
_cell_length_a 19.947227
_cell_length_b 19.647743
_cell_length_c 9.205446
_cell_angle_alpha 90.000000
_cell_angle_beta 90.000000
_cell_angle_gamma 90.000000
_cell_volume 3607.779890
_symmetry_space_group_name_H-M "P C C M"
_symmetry_group_IT_number 49
_symmetry_cell_setting 'orthorhombic'
loop_
_space_group_symop_operation_xyz
x,y,z
-x,-y,z
x,-y,1/2-z
-x,y,1/2-z
-x,-y,-z
x,y,-z
-x,y,1/2+z
x,-y,1/2+z
loop_
_atom_site_type_symbol
_atom_site_label
_atom_site_fract_x
_atom_site_fract_y
_atom_site_fract_z
Si Si1 0.349318 0.065438 0.336681
Si Si2 0.071414 0.691231 0.172199
Si Si3 0.188673 0.932343 0.833479
Si Si4 0.174914 0.428297 0.328738
Si Si5 0.281235 0.669441 0.675663
Si Si6 0.565655 0.160216 0.334782
Si Si7 0.433389 0.675894 0.666392
Si Si8 0.820496 0.788077 0.825264
O O1 0.375632 0.067491 0.500000
O O2 0.269281 0.060617 0.342551
O O3 0.370933 0.131721 0.249560
O O4 0.375235 0.000000 0.250000
O O5 0.108988 0.618722 0.185732
O O6 0.119640 0.744871 0.253131
O O7 0.000000 0.690246 0.250000
O O8 0.065968 0.706858 0.000000
O O9 0.177869 0.862751 0.745065
O O10 0.163584 0.000000 0.750000
O O11 0.163457 0.928304 0.000000
O O12 0.166821 0.500000 0.250000
O O13 0.188540 0.437216 0.500000
O O14 0.234516 0.385791 0.253066
O O15 0.279282 0.661705 0.500000
O O16 0.358519 0.660832 0.723488
O O17 0.247090 0.743403 0.705944
O O18 0.500000 0.135856 0.250000
O O19 0.566249 0.136346 0.500000
O O20 0.564545 0.241770 0.335182
O O21 0.500000 0.652242 0.750000
O O22 0.437312 0.652081 0.500000
O O23 0.827016 0.792039 0.000000
#
# Coordination Sequence:
#
# PCOD9392716 Si02
#       8
#     8   8   8   8   8   8   8   8
#     4  10  20  32  45  62  85 116 155 201 254 310
#     4  10  21  37  57  84 116 149 184 218 256 304
#     4  10  20  33  50  73 101 132 170 218 269 320
#     4  10  21  36  56  83 114 147 182 218 257 304
#     4   9  18  33  53  77 106 140 178 219 266 319
#     4  10  19  31  45  62  86 116 154 199 251 311
#     4   9  18  31  48  71  98 129 165 210 262 314
#     4  10  19  33  55  80 107 141 180 223 270 318
#
# _framework density 17.739442
#
# number of rings (size 3 to 8) (size 9 to 14) (size 15 to 20)
#    0.000    2.250    0.000    3.000    0.000    6.000 
#    0.000    2.500    0.000    0.750    0.000    5.250 
#    0.000    0.000    0.000    0.000    0.000    0.000 
#
# Total GULP energy -356848.096130 kJ/mol
# GULP energy per Si atom -5575.751502 kJ/mol
# Density = 1.769907 g / cm^3
# Si number density = 17.739442 Si / 1000 Ang^3
#
#
#
# Elastic Constant Matrix: (Units=GPa)
#
#
# Indices 1 2 3 4 5 6 
#
# 1 95.1262 13.6947 41.9487 0.0000 0.0000 0.0000
# 2 13.6947 76.8388 45.6075 0.0000 0.0000 0.0000
# 3 41.9487 45.6075 114.4650 0.0000 0.0000 0.0000
# 4 0.0000 0.0000 0.0000 24.1405 0.0000 0.0000
# 5 0.0000 0.0000 0.0000 0.0000 26.4919 0.0000
# 6 0.0000 0.0000 0.0000 0.0000 0.0000 9.7192
#
#
#
# Elastic Compliance Matrix: (Units=1/GPa)
#
#
# Indices 1 2 3 4 5 6 
#
# 1 0.012563 0.000647 -0.004862 0.000000 0.000000 0.000000
# 2 0.000647 0.017079 -0.007042 0.000000 0.000000 0.000000
# 3 -0.004862 -0.007042 0.013324 0.000000 0.000000 0.000000
# 4 0.000000 0.000000 0.000000 0.041424 0.000000 0.000000
# 5 0.000000 0.000000 0.000000 0.000000 0.037747 0.000000
# 6 0.000000 0.000000 0.000000 0.000000 0.000000 0.102889
#
#
# Mechanical properties :
#
#
# Convention : Reuss Voigt Hill
#
# Bulk Modulus (GPa) = 48.89566 54.32574 51.61070
# Shear Modulus (GPa) = 19.65738 24.41559 22.03649
#
# Velocity S-wave (km/s) = 3.33245 3.71394 3.52835
# Velocity P-wave (km/s) = 6.51384 7.00584 6.76431
#
# Compressibility (1/GPa) = 0.02045171
#
# Stress axis : x y z
#
# Youngs Moduli (GPa) = 79.59763 58.55260 75.05402
#
# Poissons Ratio (x) = -0.03786 0.36489
# Poissons Ratio (y) = -0.05147 0.52851
# Poissons Ratio (z) = 0.38698 0.41231
#
# Static dielectric constant tensor:
#      x y z
#    x 1.611110 0.000000 0.000000 
#    y 0.000000 1.593930 0.000000 
#    z 0.000000 0.000000 1.607430 
# 
# From -- ./inp_files/5288.got.cif
#   From: 2010.05.17/outbox.cif.g08.bks.cpg/sg49_3_cif.got.tgz:5288.got - 2010.06.03 21:02:19.
