data_PCOD9392878
_publ_section_title
;
Structure prediction by ZEFSAII (Michael W. Deem and Ramdas Pophale) SiO2 
 PCOD9392878
Probable space group: P C C M
;
_chemical_formula_sum "Si O2"
_cell_formula_units_Z 64
_cell_length_a 23.982162
_cell_length_b 19.633014
_cell_length_c 8.824923
_cell_angle_alpha 90.000000
_cell_angle_beta 90.000000
_cell_angle_gamma 90.000000
_cell_volume 4155.145474
_symmetry_space_group_name_H-M "P C C M"
_symmetry_group_IT_number 49
_symmetry_cell_setting 'orthorhombic'
loop_
_space_group_symop_operation_xyz
x,y,z
-x,-y,z
x,-y,1/2-z
-x,y,1/2-z
-x,-y,-z
x,y,-z
-x,y,1/2+z
x,-y,1/2+z
loop_
_atom_site_type_symbol
_atom_site_label
_atom_site_fract_x
_atom_site_fract_y
_atom_site_fract_z
Si Si1 0.834327 0.798560 0.181295
Si Si2 0.338553 0.847148 0.181196
Si Si3 0.059780 0.291289 0.181749
Si Si4 0.440142 0.074443 0.819275
Si Si5 0.111658 0.427494 0.681790
Si Si6 0.243414 0.428957 0.681030
Si Si7 0.269907 0.718408 0.182938
Si Si8 0.776972 0.925308 0.680974
O O1 0.893188 0.764475 0.221743
O O2 0.785641 0.749458 0.243546
O O3 0.821485 0.872094 0.252139
O O4 0.830339 0.802729 0.000000
O O5 0.391677 0.874520 0.269368
O O6 0.319875 0.770129 0.219576
O O7 0.284278 0.893732 0.215772
O O8 0.348463 0.851419 0.000000
O O9 0.079312 0.363937 0.248178
O O10 0.000000 0.273612 0.250000
O O11 0.056803 0.296107 0.000000
O O12 0.500000 0.094378 0.750000
O O13 0.426769 0.000000 0.750000
O O14 0.444081 0.069186 0.000000
O O15 0.093204 0.500000 0.750000
O O16 0.106045 0.427831 0.500000
O O17 0.177679 0.420115 0.719778
O O18 0.263025 0.500000 0.750000
O O19 0.246632 0.434158 0.500000
O O20 0.274935 0.360223 0.728921
O O21 0.262679 0.720929 0.000000
O O22 0.782132 0.927609 0.500000
O O23 0.782088 0.000000 0.750000
#
# Coordination Sequence:
#
# PCOD9392878 Si02
#       8
#     8   8   8   8   8   8   8   8
#     4  10  20  33  50  71  94 118 151 191 234 285
#     4   9  18  31  48  71  99 129 163 199 233 273
#     4  11  23  36  51  70  91 119 155 194 236 283
#     4  11  21  33  49  68  96 133 172 205 238 275
#     4  10  19  32  50  69  94 122 155 193 232 280
#     4   9  17  28  45  68  94 126 158 190 232 281
#     4   9  17  31  49  69  95 128 160 193 238 284
#     4  10  20  33  52  75 100 127 154 189 234 281
#
# _framework density 15.402589000000001
#
# number of rings (size 3 to 8) (size 9 to 14) (size 15 to 20)
#    0.000    2.125    1.250    4.125    0.000    6.250 
#    0.000    1.250    0.000    0.375    0.000    2.625 
#    0.000    0.500    0.000    5.750    0.000    1.750 
#
# Total GULP energy -357087.730531 kJ/mol
# GULP energy per Si atom -5579.495790 kJ/mol
# Density = 1.536753 g / cm^3
# Si number density = 15.402589 Si / 1000 Ang^3
#
#
#
# Elastic Constant Matrix: (Units=GPa)
#
#
# Indices 1 2 3 4 5 6 
#
# 1 91.3184 66.5895 49.7951 0.0000 0.0000 0.0000
# 2 66.5895 143.8204 49.7547 0.0000 0.0000 0.0000
# 3 49.7951 49.7547 58.5939 0.0000 0.0000 0.0000
# 4 0.0000 0.0000 0.0000 26.2987 0.0000 0.0000
# 5 0.0000 0.0000 0.0000 0.0000 20.3911 0.0000
# 6 0.0000 0.0000 0.0000 0.0000 0.0000 23.7133
#
#
#
# Elastic Compliance Matrix: (Units=1/GPa)
#
#
# Indices 1 2 3 4 5 6 
#
# 1 0.023157 -0.005541 -0.014974 0.000000 0.000000 0.000000
# 2 -0.005541 0.011171 -0.004777 0.000000 0.000000 0.000000
# 3 -0.014974 -0.004777 0.033848 0.000000 0.000000 0.000000
# 4 0.000000 0.000000 0.000000 0.038025 0.000000 0.000000
# 5 0.000000 0.000000 0.000000 0.000000 0.049041 0.000000
# 6 0.000000 0.000000 0.000000 0.000000 0.000000 0.042170
#
#
# Mechanical properties :
#
#
# Convention : Reuss Voigt Hill
#
# Bulk Modulus (GPa) = 56.84415 69.55683 63.20049
# Shear Modulus (GPa) = 19.69588 22.58685 21.14136
#
# Velocity S-wave (km/s) = 3.57982 3.83356 3.70886
# Velocity P-wave (km/s) = 7.35340 8.05308 7.71118
#
# Compressibility (1/GPa) = 0.01759196
#
# Stress axis : x y z
#
# Youngs Moduli (GPa) = 43.18423 89.51468 29.54378
#
# Poissons Ratio (x) = 0.49604 0.44238
# Poissons Ratio (y) = 0.23930 0.14112
# Poissons Ratio (z) = 0.64663 0.42759
#
# Static dielectric constant tensor:
#      x y z
#    x 1.493290 0.000000 0.000000 
#    y 0.000000 1.516380 0.000000 
#    z 0.000000 0.000000 1.514070 
# 
# From -- ./inp_files/6614.got.cif
#   From: 2010.05.17/outbox.cif.g08.bks.cpg/sg49_4_cif.got.tgz:6614.got - 2010.06.03 21:02:19.
