data_PCOD9392343
_publ_section_title
;
Structure prediction by ZEFSAII (Michael W. Deem and Ramdas Pophale) SiO2 
 PCOD9392343
Probable space group: P C C M
;
_chemical_formula_sum "Si O2"
_cell_formula_units_Z 48
_cell_length_a 18.645032
_cell_length_b 18.557976
_cell_length_c 8.081853
_cell_angle_alpha 90.000000
_cell_angle_beta 90.000000
_cell_angle_gamma 90.000000
_cell_volume 2796.434740
_symmetry_space_group_name_H-M "P C C M"
_symmetry_group_IT_number 49
_symmetry_cell_setting 'orthorhombic'
loop_
_space_group_symop_operation_xyz
x,y,z
-x,-y,z
x,-y,1/2-z
-x,y,1/2-z
-x,-y,-z
x,y,-z
-x,y,1/2+z
x,-y,1/2+z
loop_
_atom_site_type_symbol
_atom_site_label
_atom_site_fract_x
_atom_site_fract_y
_atom_site_fract_z
Si Si1 0.807058 0.696593 0.810236
Si Si2 0.314259 0.204286 0.201404
Si Si3 0.296669 0.579357 0.809760
Si Si4 0.579969 0.083056 0.302374
Si Si5 0.082852 0.419481 0.198098
Si Si6 0.419032 0.664144 0.303210
O O1 0.763630 0.765903 0.738534
O O2 0.745706 0.635357 0.804317
O O3 0.872995 0.650131 0.735694
O O4 0.826178 0.714481 0.000000
O O5 0.352868 0.131014 0.259285
O O6 0.372900 0.265339 0.242343
O O7 0.308363 0.201421 0.000000
O O8 0.281351 0.500000 0.750000
O O9 0.379914 0.598169 0.786537
O O10 0.275381 0.589992 0.000000
O O11 0.500000 0.108805 0.250000
O O12 0.580940 0.086717 0.500000
O O13 0.586508 0.000000 0.250000
O O14 0.108527 0.500000 0.250000
O O15 0.000000 0.414405 0.250000
O O16 0.088221 0.417664 0.000000
O O17 0.500000 0.672984 0.250000
O O18 0.414665 0.654314 0.500000
#
# Coordination Sequence:
#
# PCOD9392343 Si02
#       6
#     8   8   8   8   8   8
#     4   9  18  33  49  66  87 115 147 182 221 265
#     4   8  16  30  47  64  86 114 145 179 219 264
#     4  11  21  32  45  61  80 107 141 180 222 263
#     4  10  18  29  45  66  92 121 150 184 221 265
#     4  10  19  30  47  68  94 122 151 184 222 266
#     4  10  19  32  46  61  80 105 140 181 222 265
#
# _framework density 17.164714
#
# number of rings (size 3 to 8) (size 9 to 14) (size 15 to 20)
#    0.000    2.333    0.000    6.000    0.000    3.000 
#    0.000    9.167    0.000    0.000    0.000    0.000 
#    0.000    0.667    0.000    8.333    0.000    0.000 
#
# Total GULP energy -267263.167173 kJ/mol
# GULP energy per Si atom -5567.982649 kJ/mol
# Density = 1.712565 g / cm^3
# Si number density = 17.164714 Si / 1000 Ang^3
#
#
#
# Elastic Constant Matrix: (Units=GPa)
#
#
# Indices 1 2 3 4 5 6 
#
# 1 91.9748 39.3089 2.9348 0.0000 0.0000 0.0000
# 2 39.3089 73.7695 2.8906 0.0000 0.0000 0.0000
# 3 2.9348 2.8906 41.5846 0.0000 0.0000 0.0000
# 4 0.0000 0.0000 0.0000 7.8325 0.0000 0.0000
# 5 0.0000 0.0000 0.0000 0.0000 -0.2601 0.0000
# 6 0.0000 0.0000 0.0000 0.0000 0.0000 36.1867
#
#
#
# Elastic Compliance Matrix: (Units=1/GPa)
#
#
# Indices 1 2 3 4 5 6 
#
# 1 0.014088 -0.007488 -0.000474 0.000000 0.000000 0.000000
# 2 -0.007488 0.017573 -0.000693 0.000000 0.000000 0.000000
# 3 -0.000474 -0.000693 0.024129 0.000000 0.000000 0.000000
# 4 0.000000 0.000000 0.000000 0.127673 0.000000 0.000000
# 5 0.000000 0.000000 0.000000 0.000000 -3.844734 0.000000
# 6 0.000000 0.000000 0.000000 0.000000 0.000000 0.027634
#
#
# Mechanical properties :
#
#
# Convention : Reuss Voigt Hill
#
# Bulk Modulus (GPa) = 25.98763 33.06639 29.52701
# Shear Modulus (GPa) = -1.38754 19.56481 9.08863
#
# Velocity S-wave (km/s) = -0.90007 3.37980 2.30357
# Velocity P-wave (km/s) = 3.75405 5.87679 4.93100
#
# Compressibility (1/GPa) = 0.03847984
#
# Stress axis : x y z
#
# Youngs Moduli (GPa) = 70.98174 56.90480 41.44396
#
# Poissons Ratio (x) = 0.42613 0.01963
# Poissons Ratio (y) = 0.53154 0.02872
# Poissons Ratio (z) = 0.03362 0.03944
#
# Static dielectric constant tensor:
#      x y z
#    x 1.631760 0.000000 0.000000 
#    y 0.000000 1.609220 0.000000 
#    z 0.000000 0.000000 1.617620 
# 
# From -- ./inp_files/4958.got.cif
#   From: 2010.05.17/outbox.cif.g08.bks.cpg/sg49_3_cif.got.tgz:4958.got - 2010.06.03 21:02:19.
