data_PCOD9392916
_publ_section_title
;
Structure prediction by ZEFSAII (Michael W. Deem and Ramdas Pophale) SiO2 
 PCOD9392916
Probable space group: P C C M
;
_chemical_formula_sum "Si O2"
_cell_formula_units_Z 56
_cell_length_a 23.043670
_cell_length_b 15.288738
_cell_length_c 8.727219
_cell_angle_alpha 90.000000
_cell_angle_beta 90.000000
_cell_angle_gamma 90.000000
_cell_volume 3074.674597
_symmetry_space_group_name_H-M "P C C M"
_symmetry_group_IT_number 49
_symmetry_cell_setting 'orthorhombic'
loop_
_space_group_symop_operation_xyz
x,y,z
-x,-y,z
x,-y,1/2-z
-x,y,1/2-z
-x,-y,-z
x,y,-z
-x,y,1/2+z
x,-y,1/2+z
loop_
_atom_site_type_symbol
_atom_site_label
_atom_site_fract_x
_atom_site_fract_y
_atom_site_fract_z
Si Si1 0.296818 0.904738 0.816102
Si Si2 0.665953 0.726549 0.183484
Si Si3 0.162633 0.905557 0.184545
Si Si4 0.241382 0.594097 0.816257
Si Si5 0.894929 0.592173 0.316226
Si Si6 0.435976 0.593915 0.316263
Si Si7 0.939459 0.776942 0.685185
O O1 0.333113 0.823650 0.752040
O O2 0.229295 0.887605 0.770054
O O3 0.312690 0.000000 0.750000
O O4 0.299868 0.907001 0.000000
O O5 0.720277 0.671512 0.248070
O O6 0.609110 0.669954 0.224750
O O7 0.669747 0.731087 0.000000
O O8 0.115999 0.833848 0.234049
O O9 0.146624 0.000000 0.250000
O O10 0.161832 0.908673 0.000000
O O11 0.260306 0.500000 0.750000
O O12 0.173271 0.604301 0.776365
O O13 0.246578 0.593852 0.000000
O O14 0.915091 0.500000 0.250000
O O15 0.898140 0.588234 0.500000
O O16 0.929365 0.677187 0.262632
O O17 0.416488 0.500000 0.250000
O O18 0.500000 0.610687 0.250000
O O19 0.439068 0.587200 0.500000
O O20 0.941260 0.777913 0.500000
O O21 0.000000 0.810953 0.750000
#
# Coordination Sequence:
#
# PCOD9392916 Si02
#       7
#     8   8   8   8   8   8   8
#     4  10  20  36  58  82 108 139 173 215 265 317
#     4  11  22  34  52  81 112 143 179 219 262 312
#     4   9  19  36  56  77 102 131 164 204 255 311
#     4  10  19  32  51  76 105 137 171 212 263 317
#     4   9  19  35  52  70  96 129 166 208 255 307
#     4  10  21  36  55  79 111 149 188 225 261 303
#     4  10  21  36  51  70  97 128 165 208 252 303
#
# _framework density 18.213308999999999
#
# number of rings (size 3 to 8) (size 9 to 14) (size 15 to 20)
#    0.000    2.143    0.000    3.429    0.000    8.571 
#    0.000    4.286    0.000    0.429    0.000    3.000 
#    0.000    0.000    0.000    0.000    0.000    0.000 
#
# Total GULP energy -312714.012222 kJ/mol
# GULP energy per Si atom -5584.178790 kJ/mol
# Density = 1.817185 g / cm^3
# Si number density = 18.213309 Si / 1000 Ang^3
#
#
#
# Elastic Constant Matrix: (Units=GPa)
#
#
# Indices 1 2 3 4 5 6 
#
# 1 61.1537 61.1047 26.1975 0.0000 0.0000 0.0000
# 2 61.1047 144.0735 38.8928 0.0000 0.0000 0.0000
# 3 26.1975 38.8928 33.9104 0.0000 0.0000 0.0000
# 4 0.0000 0.0000 0.0000 34.1593 0.0000 0.0000
# 5 0.0000 0.0000 0.0000 0.0000 26.5454 0.0000
# 6 0.0000 0.0000 0.0000 0.0000 0.0000 15.3914
#
#
#
# Elastic Compliance Matrix: (Units=1/GPa)
#
#
# Indices 1 2 3 4 5 6 
#
# 1 0.032034 -0.010002 -0.013276 0.000000 0.000000 0.000000
# 2 -0.010002 0.013177 -0.007386 0.000000 0.000000 0.000000
# 3 -0.013276 -0.007386 0.048216 0.000000 0.000000 0.000000
# 4 0.000000 0.000000 0.000000 0.029275 0.000000 0.000000
# 5 0.000000 0.000000 0.000000 0.000000 0.037671 0.000000
# 6 0.000000 0.000000 0.000000 0.000000 0.000000 0.064971
#
#
# Mechanical properties :
#
#
# Convention : Reuss Voigt Hill
#
# Bulk Modulus (GPa) = 31.15293 54.61418 42.88355
# Shear Modulus (GPa) = 16.81396 22.74871 19.78133
#
# Velocity S-wave (km/s) = 3.04167 3.53798 3.29917
# Velocity P-wave (km/s) = 5.42930 6.83671 6.17325
#
# Compressibility (1/GPa) = 0.03209971
#
# Stress axis : x y z
#
# Youngs Moduli (GPa) = 31.21697 75.89031 20.73983
#
# Poissons Ratio (x) = 0.75909 0.27534
# Poissons Ratio (y) = 0.31225 0.15318
# Poissons Ratio (z) = 0.41443 0.56049
#
# Static dielectric constant tensor:
#      x y z
#    x 1.621780 0.000000 0.000000 
#    y 0.000000 1.616580 0.000000 
#    z 0.000000 0.000000 1.619640 
# 
# From -- ./inp_files/4009.got.cif
#   From: 2010.05.17/outbox.cif.g08.bks.cpg/sg49_3_cif.got.tgz:4009.got - 2010.06.03 21:02:19.
