data_PCOD9392122
_publ_section_title
;
Structure prediction by ZEFSAII (Michael W. Deem and Ramdas Pophale) SiO2 
 PCOD9392122
Probable space group: P C C M
;
_chemical_formula_sum "Si O2"
_cell_formula_units_Z 64
_cell_length_a 14.738135
_cell_length_b 31.752029
_cell_length_c 8.681106
_cell_angle_alpha 90.000000
_cell_angle_beta 90.000000
_cell_angle_gamma 90.000000
_cell_volume 4062.459759
_symmetry_space_group_name_H-M "P C C M"
_symmetry_group_IT_number 49
_symmetry_cell_setting 'orthorhombic'
loop_
_space_group_symop_operation_xyz
x,y,z
-x,-y,z
x,-y,1/2-z
-x,y,1/2-z
-x,-y,-z
x,y,-z
-x,y,1/2+z
x,-y,1/2+z
loop_
_atom_site_type_symbol
_atom_site_label
_atom_site_fract_x
_atom_site_fract_y
_atom_site_fract_z
Si Si1 0.101230 0.205198 0.684488
Si Si2 0.213266 0.878472 0.814411
Si Si3 0.102179 0.369023 0.185503
Si Si4 0.103020 0.456821 0.315669
Si Si5 0.209666 0.715076 0.314450
Si Si6 0.901089 0.953780 0.183434
Si Si7 0.596058 0.253815 0.315343
Si Si8 0.595787 0.840592 0.684764
O O1 0.097843 0.206648 0.500000
O O2 0.154801 0.162778 0.729679
O O3 0.154818 0.245910 0.744243
O O4 0.000000 0.204699 0.750000
O O5 0.171219 0.919282 0.735998
O O6 0.317523 0.868711 0.773947
O O7 0.207310 0.883033 0.000000
O O8 0.140953 0.412578 0.254495
O O9 0.162844 0.328870 0.228685
O O10 0.000000 0.362999 0.250000
O O11 0.097308 0.372443 0.000000
O O12 0.145091 0.500000 0.250000
O O13 0.100822 0.457910 0.500000
O O14 0.000000 0.456276 0.250000
O O15 0.204499 0.718505 0.500000
O O16 0.315306 0.719559 0.270718
O O17 0.000000 0.941595 0.250000
O O18 0.879909 0.000000 0.250000
O O19 0.906949 0.956044 0.000000
O O20 0.500000 0.269384 0.250000
O O21 0.590415 0.251833 0.500000
O O22 0.609298 0.206412 0.251551
O O23 0.500000 0.856365 0.750000
O O24 0.591048 0.837418 0.500000
#
# Coordination Sequence:
#
# PCOD9392122 Si02
#       8
#     8   8   8   8   8   8   8   8
#     4  11  22  34  48  68  98 132 167 202 239 281
#     4  10  21  36  53  76 103 131 166 204 243 289
#     4  10  19  31  44  63  91 126 164 201 240 285
#     4  10  17  27  43  63  86 117 156 200 243 284
#     4  10  21  34  48  67  95 130 166 202 242 289
#     4  11  22  37  58  80 105 134 165 201 244 290
#     4  10  19  32  50  71  95 125 163 205 247 291
#     4  10  19  33  52  76 102 129 162 203 246 290
#
# _framework density 15.754001000000001
#
# number of rings (size 3 to 8) (size 9 to 14) (size 15 to 20)
#    0.000    1.750    1.250    6.750    0.000    5.500 
#    0.000    0.000    0.000    0.375    0.000    2.625 
#    0.000    0.500    0.000    5.750    0.000    1.750 
#
# Total GULP energy -357220.614625 kJ/mol
# GULP energy per Si atom -5581.572104 kJ/mol
# Density = 1.571814 g / cm^3
# Si number density = 15.754001 Si / 1000 Ang^3
#
#
#
# Elastic Constant Matrix: (Units=GPa)
#
#
# Indices 1 2 3 4 5 6 
#
# 1 129.9903 76.7198 47.6699 0.0000 0.0000 0.0000
# 2 76.7198 110.0332 48.6506 0.0000 0.0000 0.0000
# 3 47.6699 48.6506 73.9854 0.0000 0.0000 0.0000
# 4 0.0000 0.0000 0.0000 39.6534 0.0000 0.0000
# 5 0.0000 0.0000 0.0000 0.0000 13.8882 0.0000
# 6 0.0000 0.0000 0.0000 0.0000 0.0000 4.9275
#
#
#
# Elastic Compliance Matrix: (Units=1/GPa)
#
#
# Indices 1 2 3 4 5 6 
#
# 1 0.013718 -0.007976 -0.003594 0.000000 0.000000 0.000000
# 2 -0.007976 0.017451 -0.006336 0.000000 0.000000 0.000000
# 3 -0.003594 -0.006336 0.019998 0.000000 0.000000 0.000000
# 4 0.000000 0.000000 0.000000 0.025219 0.000000 0.000000
# 5 0.000000 0.000000 0.000000 0.000000 0.072003 0.000000
# 6 0.000000 0.000000 0.000000 0.000000 0.000000 0.202942
#
#
# Mechanical properties :
#
#
# Convention : Reuss Voigt Hill
#
# Bulk Modulus (GPa) = 65.12502 73.34329 69.23415
# Shear Modulus (GPa) = 12.74658 21.09173 16.91915
#
# Velocity S-wave (km/s) = 2.84756 3.66295 3.28069
# Velocity P-wave (km/s) = 7.22772 8.03406 7.64153
#
# Compressibility (1/GPa) = 0.01535508
#
# Stress axis : x y z
#
# Youngs Moduli (GPa) = 72.89577 57.30423 50.00382
#
# Poissons Ratio (x) = 0.45704 0.17972
# Poissons Ratio (y) = 0.58140 0.31683
# Poissons Ratio (z) = 0.26200 0.36309
#
# Static dielectric constant tensor:
#      x y z
#    x 1.519880 0.000000 0.000000 
#    y 0.000000 1.528200 0.000000 
#    z 0.000000 0.000000 1.530290 
# 
# From -- ./inp_files/4510.got.cif
#   From: 2010.05.17/outbox.cif.g08.bks.cpg/sg49_3_cif.got.tgz:4510.got - 2010.06.03 21:02:19.
