data_PCOD9392894
_publ_section_title
;
Structure prediction by ZEFSAII (Michael W. Deem and Ramdas Pophale) SiO2 
 PCOD9392894
Probable space group: P C C M
;
_chemical_formula_sum "Si O2"
_cell_formula_units_Z 64
_cell_length_a 16.165940
_cell_length_b 22.142973
_cell_length_c 9.061161
_cell_angle_alpha 90.000000
_cell_angle_beta 90.000000
_cell_angle_gamma 90.000000
_cell_volume 3243.551069
_symmetry_space_group_name_H-M "P C C M"
_symmetry_group_IT_number 49
_symmetry_cell_setting 'orthorhombic'
loop_
_space_group_symop_operation_xyz
x,y,z
-x,-y,z
x,-y,1/2-z
-x,y,1/2-z
-x,-y,-z
x,y,-z
-x,y,1/2+z
x,-y,1/2+z
loop_
_atom_site_type_symbol
_atom_site_label
_atom_site_fract_x
_atom_site_fract_y
_atom_site_fract_z
Si Si1 0.918860 0.731101 0.165421
Si Si2 0.212443 0.806972 0.171109
Si Si3 0.370694 0.222420 0.836063
Si Si4 0.245383 0.939614 0.176998
Si Si5 0.266115 0.436351 0.320764
Si Si6 0.413597 0.639082 0.325401
Si Si7 0.913072 0.414084 0.671379
Si Si8 0.581100 0.087657 0.668038
O O1 0.840962 0.759502 0.242038
O O2 0.915147 0.658698 0.166422
O O3 0.000000 0.750677 0.250000
O O4 0.923529 0.752654 0.000000
O O5 0.306105 0.789246 0.206790
O O6 0.200229 0.876753 0.216454
O O7 0.194360 0.802083 0.000000
O O8 0.411122 0.287663 0.817423
O O9 0.423139 0.161074 0.838608
O O10 0.329009 0.224058 0.000000
O O11 0.337342 0.930704 0.242875
O O12 0.210077 0.000000 0.250000
O O13 0.248438 0.944491 0.000000
O O14 0.293903 0.500000 0.250000
O O15 0.266501 0.436315 0.500000
O O16 0.332014 0.387579 0.256374
O O17 0.171380 0.428553 0.260525
O O18 0.500000 0.618750 0.250000
O O19 0.411253 0.622886 0.500000
O O20 0.908952 0.435998 0.500000
O O21 0.000000 0.432404 0.750000
O O22 0.500000 0.066266 0.750000
O O23 0.587391 0.065641 0.500000
#
# Coordination Sequence:
#
# PCOD9392894 Si02
#       8
#     8   8   8   8   8   8   8   8
#     4  10  20  34  56  85 118 149 178 214 263 321
#     4  10  20  33  53  80 110 142 180 224 273 327
#     4   9  19  34  54  80 111 144 179 221 274 332
#     4  10  21  36  52  72  98 134 179 225 268 317
#     4  12  26  44  64  87 116 154 198 244 290 340
#     4  11  23  40  61  87 117 152 195 243 293 346
#     4  10  21  39  63  94 127 158 191 231 280 340
#     4  10  19  32  50  74 104 137 172 215 266 321
#
# _framework density 19.731460999999999
#
# number of rings (size 3 to 8) (size 9 to 14) (size 15 to 20)
#    0.000    1.750    0.000    4.500    0.000    8.250 
#    0.000    3.750    0.000    0.375    0.000    2.625 
#    0.000    0.000    0.000    0.000    0.000    0.000 
#
# Total GULP energy -357141.459372 kJ/mol
# GULP energy per Si atom -5580.335303 kJ/mol
# Density = 1.968655 g / cm^3
# Si number density = 19.731461 Si / 1000 Ang^3
#
#
#
# Elastic Constant Matrix: (Units=GPa)
#
#
# Indices 1 2 3 4 5 6 
#
# 1 66.5828 20.3097 39.6723 0.0000 0.0000 0.0000
# 2 20.3097 63.7280 39.6459 0.0000 0.0000 0.0000
# 3 39.6723 39.6459 118.9560 0.0000 0.0000 0.0000
# 4 0.0000 0.0000 0.0000 28.0094 0.0000 0.0000
# 5 0.0000 0.0000 0.0000 0.0000 27.7036 0.0000
# 6 0.0000 0.0000 0.0000 0.0000 0.0000 3.3388
#
#
#
# Elastic Compliance Matrix: (Units=1/GPa)
#
#
# Indices 1 2 3 4 5 6 
#
# 1 0.019099 -0.002680 -0.005477 0.000000 0.000000 0.000000
# 2 -0.002680 0.020172 -0.005829 0.000000 0.000000 0.000000
# 3 -0.005477 -0.005829 0.012176 0.000000 0.000000 0.000000
# 4 0.000000 0.000000 0.000000 0.035702 0.000000 0.000000
# 5 0.000000 0.000000 0.000000 0.000000 0.036096 0.000000
# 6 0.000000 0.000000 0.000000 0.000000 0.000000 0.299506
#
#
# Mechanical properties :
#
#
# Convention : Reuss Voigt Hill
#
# Bulk Modulus (GPa) = 42.59678 49.83584 46.21631
# Shear Modulus (GPa) = 10.90395 21.78630 16.34513
#
# Velocity S-wave (km/s) = 2.35333 3.32647 2.88128
# Velocity P-wave (km/s) = 5.38696 6.32975 5.87729
#
# Compressibility (1/GPa) = 0.02347595
#
# Stress axis : x y z
#
# Youngs Moduli (GPa) = 52.35749 49.57312 82.13057
#
# Poissons Ratio (x) = 0.13285 0.44980
# Poissons Ratio (y) = 0.14031 0.47876
# Poissons Ratio (z) = 0.28674 0.28898
#
# Static dielectric constant tensor:
#      x y z
#    x 1.696770 0.000000 0.000000 
#    y 0.000000 1.723010 0.000000 
#    z 0.000000 0.000000 1.682400 
# 
# From -- ./inp_files/4298.got.cif
#   From: 2010.05.17/outbox.cif.g08.bks.cpg/sg49_3_cif.got.tgz:4298.got - 2010.06.03 21:02:19.
