data_PCOD9392587
_publ_section_title
;
Structure prediction by ZEFSAII (Michael W. Deem and Ramdas Pophale) SiO2 
 PCOD9392587
Probable space group: P C C M
;
_chemical_formula_sum "Si O2"
_cell_formula_units_Z 64
_cell_length_a 11.400255
_cell_length_b 15.192909
_cell_length_c 18.898476
_cell_angle_alpha 90.000000
_cell_angle_beta 90.000000
_cell_angle_gamma 90.000000
_cell_volume 3273.273434
_symmetry_space_group_name_H-M "P C C M"
_symmetry_group_IT_number 49
_symmetry_cell_setting 'orthorhombic'
loop_
_space_group_symop_operation_xyz
x,y,z
-x,-y,z
x,-y,1/2-z
-x,y,1/2-z
-x,-y,-z
x,y,-z
-x,y,1/2+z
x,-y,1/2+z
loop_
_atom_site_type_symbol
_atom_site_label
_atom_site_fract_x
_atom_site_fract_y
_atom_site_fract_z
Si Si1 0.934282 0.323152 0.919462
Si Si2 0.859854 0.098807 0.246516
Si Si3 0.263258 0.807785 0.877230
Si Si4 0.604286 0.719383 0.084955
Si Si5 0.839368 0.269725 0.667470
Si Si6 0.173010 0.412905 0.708981
Si Si7 0.490709 0.097295 0.581207
Si Si8 0.416591 0.344306 0.317751
O O1 0.822373 0.256918 0.919674
O O2 0.895080 0.398183 0.864148
O O3 0.046800 0.278539 0.882285
O O4 0.959060 0.350112 0.000000
O O5 0.819882 0.135311 0.171563
O O6 0.823006 0.169873 0.305426
O O7 0.000000 0.096305 0.250000
O O8 0.812513 0.000000 0.250000
O O9 0.356781 0.868226 0.917060
O O10 0.342831 0.745780 0.826791
O O11 0.726035 0.699760 0.123531
O O12 0.565910 0.819122 0.107760
O O13 0.501966 0.655658 0.114485
O O14 0.611619 0.715693 0.000000
O O15 0.851649 0.331425 0.737201
O O16 0.139776 0.500000 0.750000
O O17 0.312324 0.414146 0.690781
O O18 0.529831 0.087274 0.500000
O O19 0.500000 0.000000 0.615053
O O20 0.500000 0.343896 0.250000
#
# Coordination Sequence:
#
# PCOD9392587 Si02
#       8
#     8   8   8   8   8   8   8   8
#     4  11  23  41  68  95 126 168 213 262 325 386
#     4  11  21  35  58  88 123 165 214 270 319 376
#     4  10  19  35  59  87 118 160 212 262 310 371
#     4  10  21  36  59  88 125 167 207 258 320 379
#     4  12  21  42  63  91 128 168 214 263 326 377
#     4  11  24  42  70  96 123 160 207 261 315 386
#     4   9  19  34  52  79 118 161 205 257 317 373
#     4  10  18  37  62  87 117 158 205 249 307 380
#
# _framework density 19.552292000000001
#
# number of rings (size 3 to 8) (size 9 to 14) (size 15 to 20)
#    0.000    1.500    5.000    1.125    1.750    4.250 
#    0.000    1.875    0.000    1.500    0.000    0.000 
#    0.000    0.000    0.000    0.000    0.000    0.000 
#
# Total GULP energy -356858.181338 kJ/mol
# GULP energy per Si atom -5575.909083 kJ/mol
# Density = 1.950779 g / cm^3
# Si number density = 19.552292 Si / 1000 Ang^3
#
#
#
# Elastic Constant Matrix: (Units=GPa)
#
#
# Indices 1 2 3 4 5 6 
#
# 1 83.5519 12.2090 24.3120 0.0000 0.0000 0.0000
# 2 12.2090 68.5344 35.9773 0.0000 0.0000 0.0000
# 3 24.3120 35.9773 114.1247 0.0000 0.0000 0.0000
# 4 0.0000 0.0000 0.0000 9.7230 0.0000 0.0000
# 5 0.0000 0.0000 0.0000 0.0000 22.3148 0.0000
# 6 0.0000 0.0000 0.0000 0.0000 0.0000 7.5557
#
#
#
# Elastic Compliance Matrix: (Units=1/GPa)
#
#
# Indices 1 2 3 4 5 6 
#
# 1 0.012819 -0.001019 -0.002410 0.000000 0.000000 0.000000
# 2 -0.001019 0.017566 -0.005321 0.000000 0.000000 0.000000
# 3 -0.002410 -0.005321 0.010953 0.000000 0.000000 0.000000
# 4 0.000000 0.000000 0.000000 0.102849 0.000000 0.000000
# 5 0.000000 0.000000 0.000000 0.000000 0.044813 0.000000
# 6 0.000000 0.000000 0.000000 0.000000 0.000000 0.132350
#
#
# Mechanical properties :
#
#
# Convention : Reuss Voigt Hill
#
# Bulk Modulus (GPa) = 41.94681 45.68973 43.81827
# Shear Modulus (GPa) = 14.41780 20.83289 17.62534
#
# Velocity S-wave (km/s) = 2.71845 3.26773 3.00567
# Velocity P-wave (km/s) = 5.59942 6.13646 5.87408
#
# Compressibility (1/GPa) = 0.02383971
#
# Stress axis : x y z
#
# Youngs Moduli (GPa) = 78.01154 56.92920 91.29969
#
# Poissons Ratio (x) = 0.05799 0.22000
# Poissons Ratio (y) = 0.07946 0.48576
# Poissons Ratio (z) = 0.18798 0.30289
#
# Static dielectric constant tensor:
#      x y z
#    x 1.710010 0.000000 0.000000 
#    y 0.000000 1.732350 0.000000 
#    z 0.000000 0.000000 1.682940 
# 
# From -- ./inp_files/17308.got.cif
#   From: 2010.05.17/outbox.cif.g08.bks.cpg/sg49_9_cif.got.tgz:17308.got - 2010.06.03 21:02:19.
