data_PCOD9392664
_publ_section_title
;
Structure prediction by ZEFSAII (Michael W. Deem and Ramdas Pophale) SiO2 
 PCOD9392664
Probable space group: P C C M
;
_chemical_formula_sum "Si O2"
_cell_formula_units_Z 64
_cell_length_a 24.330701
_cell_length_b 19.732874
_cell_length_c 8.680491
_cell_angle_alpha 90.000000
_cell_angle_beta 90.000000
_cell_angle_gamma 90.000000
_cell_volume 4167.630960
_symmetry_space_group_name_H-M "P C C M"
_symmetry_group_IT_number 49
_symmetry_cell_setting 'orthorhombic'
loop_
_space_group_symop_operation_xyz
x,y,z
-x,-y,z
x,-y,1/2-z
-x,y,1/2-z
-x,-y,-z
x,y,-z
-x,y,1/2+z
x,-y,1/2+z
loop_
_atom_site_type_symbol
_atom_site_label
_atom_site_fract_x
_atom_site_fract_y
_atom_site_fract_z
Si Si1 0.756958 0.071775 0.185021
Si Si2 0.440993 0.575550 0.814741
Si Si3 0.886314 0.927294 0.315250
Si Si4 0.774909 0.426006 0.684267
Si Si5 0.330745 0.349338 0.313790
Si Si6 0.940189 0.792082 0.184681
Si Si7 0.729213 0.216863 0.814200
Si Si8 0.835239 0.707825 0.814419
O O1 0.821584 0.080234 0.227272
O O2 0.725204 0.139139 0.238671
O O3 0.737702 0.000000 0.250000
O O4 0.754617 0.068615 0.000000
O O5 0.430821 0.500000 0.750000
O O6 0.500000 0.597932 0.750000
O O7 0.390514 0.623654 0.768656
O O8 0.443629 0.572165 0.000000
O O9 0.890468 0.926959 0.500000
O O10 0.919709 0.864774 0.246492
O O11 0.904709 0.000000 0.250000
O O12 0.786007 0.500000 0.750000
O O13 0.771998 0.429399 0.500000
O O14 0.716946 0.397365 0.746976
O O15 0.820294 0.369376 0.727952
O O16 0.327414 0.352475 0.500000
O O17 0.315776 0.272518 0.265124
O O18 0.894248 0.736858 0.231744
O O19 0.000000 0.776569 0.250000
O O20 0.942255 0.794448 0.000000
O O21 0.787532 0.246166 0.758442
O O22 0.729500 0.215856 0.000000
O O23 0.830988 0.713085 0.000000
#
# Coordination Sequence:
#
# PCOD9392664 Si02
#       8
#     8   8   8   8   8   8   8   8
#     4   9  17  27  43  65  90 119 147 176 213 262
#     4  10  19  30  44  63  89 126 162 193 222 256
#     4  10  19  32  48  68  90 117 148 180 217 260
#     4  10  19  31  48  71  94 117 144 178 222 267
#     4   9  18  30  46  68  94 122 154 189 224 261
#     4  11  22  35  50  67  87 113 145 184 222 265
#     4   9  16  29  47  67  90 117 148 182 221 266
#     4   9  19  33  48  66  89 113 141 178 220 266
#
# _framework density 15.356445000000001
#
# number of rings (size 3 to 8) (size 9 to 14) (size 15 to 20)
#    0.000    2.375    1.250    2.250    0.000    4.250 
#    0.000    1.250    0.000    0.375    0.000    2.625 
#    0.000    0.500    0.000    6.250    0.000    0.000 
#
# Total GULP energy -356823.205164 kJ/mol
# GULP energy per Si atom -5575.362581 kJ/mol
# Density = 1.532149 g / cm^3
# Si number density = 15.356445 Si / 1000 Ang^3
#
#
#
# Elastic Constant Matrix: (Units=GPa)
#
#
# Indices 1 2 3 4 5 6 
#
# 1 110.7567 77.6766 29.4673 0.0000 0.0000 0.0000
# 2 77.6766 149.1840 28.6001 0.0000 0.0000 0.0000
# 3 29.4673 28.6001 21.2221 0.0000 0.0000 0.0000
# 4 0.0000 0.0000 0.0000 19.3833 0.0000 0.0000
# 5 0.0000 0.0000 0.0000 0.0000 15.0703 0.0000
# 6 0.0000 0.0000 0.0000 0.0000 0.0000 25.5366
#
#
#
# Elastic Compliance Matrix: (Units=1/GPa)
#
#
# Indices 1 2 3 4 5 6 
#
# 1 0.017601 -0.006040 -0.016301 0.000000 0.000000 0.000000
# 2 -0.006040 0.011111 -0.006587 0.000000 0.000000 0.000000
# 3 -0.016301 -0.006587 0.078632 0.000000 0.000000 0.000000
# 4 0.000000 0.000000 0.000000 0.051591 0.000000 0.000000
# 5 0.000000 0.000000 0.000000 0.000000 0.066356 0.000000
# 6 0.000000 0.000000 0.000000 0.000000 0.000000 0.039159
#
#
# Mechanical properties :
#
#
# Convention : Reuss Voigt Hill
#
# Bulk Modulus (GPa) = 20.20655 61.40565 40.80610
# Shear Modulus (GPa) = 14.75794 21.69262 18.22528
#
# Velocity S-wave (km/s) = 3.10340 3.76254 3.44876
# Velocity P-wave (km/s) = 5.10180 7.67785 6.51835
#
# Compressibility (1/GPa) = 0.04948890
#
# Stress axis : x y z
#
# Youngs Moduli (GPa) = 56.81371 90.00357 12.71754
#
# Poissons Ratio (x) = 0.54359 0.20730
# Poissons Ratio (y) = 0.34313 0.08377
# Poissons Ratio (z) = 0.92609 0.59287
#
# Static dielectric constant tensor:
#      x y z
#    x 1.494250 0.000000 0.000000 
#    y 0.000000 1.524190 0.000000 
#    z 0.000000 0.000000 1.524730 
# 
# From -- ./inp_files/6096.got.cif
#   From: 2010.05.17/outbox.cif.g08.bks.cpg/sg49_4_cif.got.tgz:6096.got - 2010.06.03 21:02:19.
