data_PCOD9392251
_publ_section_title
;
Structure prediction by ZEFSAII (Michael W. Deem and Ramdas Pophale) SiO2 
 PCOD9392251
Probable space group: P C C M
;
_chemical_formula_sum "Si O2"
_cell_formula_units_Z 56
_cell_length_a 20.841840
_cell_length_b 15.482396
_cell_length_c 8.641509
_cell_angle_alpha 90.000000
_cell_angle_beta 90.000000
_cell_angle_gamma 90.000000
_cell_volume 2788.456126
_symmetry_space_group_name_H-M "P C C M"
_symmetry_group_IT_number 49
_symmetry_cell_setting 'orthorhombic'
loop_
_space_group_symop_operation_xyz
x,y,z
-x,-y,z
x,-y,1/2-z
-x,y,1/2-z
-x,-y,-z
x,y,-z
-x,y,1/2+z
x,-y,1/2+z
loop_
_atom_site_type_symbol
_atom_site_label
_atom_site_fract_x
_atom_site_fract_y
_atom_site_fract_z
Si Si1 0.927420 0.778835 0.313429
Si Si2 0.714281 0.776378 0.686415
Si Si3 0.927594 0.587614 0.684452
Si Si4 0.596655 0.582465 0.678852
Si Si5 0.819659 0.903506 0.184979
Si Si6 0.566540 0.222165 0.177179
Si Si7 0.734741 0.592500 0.180137
O O1 0.928228 0.785593 0.500000
O O2 0.901616 0.682118 0.273392
O O3 0.881838 0.850349 0.241125
O O4 0.000000 0.786033 0.250000
O O5 0.712355 0.772968 0.500000
O O6 0.758452 0.853073 0.746779
O O7 0.639713 0.790407 0.740365
O O8 0.746803 0.685697 0.740922
O O9 0.897457 0.500000 0.750000
O O10 0.929357 0.580943 0.500000
O O11 0.000000 0.589294 0.750000
O O12 0.562835 0.500000 0.750000
O O13 0.616991 0.568189 0.500000
O O14 0.561830 0.673539 0.678537
O O15 0.658242 0.590242 0.789485
O O16 0.822118 0.000000 0.250000
O O17 0.816897 0.904270 0.000000
O O18 0.500000 0.188446 0.250000
O O19 0.567948 0.192118 0.000000
O O20 0.757140 0.500000 0.250000
O O21 0.751279 0.595598 0.000000
#
# Coordination Sequence:
#
# PCOD9392251 Si02
#       7
#     8   8   8   8   8   8   8
#     4  10  21  39  63  95 132 169 207 253 299 348
#     4  10  21  40  61  85 118 156 198 247 298 356
#     4   9  16  27  49  81 121 165 207 246 287 332
#     4   9  16  26  39  62  97 141 189 238 288 342
#     4  12  26  45  69  95 120 154 196 244 303 368
#     4   9  19  32  50  76 108 145 187 236 292 349
#     4  10  17  28  49  78 111 152 197 243 294 351
#
# _framework density 20.082795999999998
#
# number of rings (size 3 to 8) (size 9 to 14) (size 15 to 20)
#    0.000    2.143    0.000    6.429    0.000    5.714 
#    0.000    3.571    0.000    2.143    0.000    3.000 
#    0.000    0.000    0.000    0.000    0.000    0.000 
#
# Total GULP energy -312099.262026 kJ/mol
# GULP energy per Si atom -5573.201108 kJ/mol
# Density = 2.003709 g / cm^3
# Si number density = 20.082796 Si / 1000 Ang^3
#
#
#
# Elastic Constant Matrix: (Units=GPa)
#
#
# Indices 1 2 3 4 5 6 
#
# 1 129.6755 60.0267 36.7780 0.0000 0.0000 0.0000
# 2 60.0267 159.2417 56.5673 0.0000 0.0000 0.0000
# 3 36.7780 56.5673 102.0275 0.0000 0.0000 0.0000
# 4 0.0000 0.0000 0.0000 31.3584 0.0000 0.0000
# 5 0.0000 0.0000 0.0000 0.0000 29.7894 0.0000
# 6 0.0000 0.0000 0.0000 0.0000 0.0000 -268.0806
#
#
#
# Elastic Compliance Matrix: (Units=1/GPa)
#
#
# Indices 1 2 3 4 5 6 
#
# 1 0.009603 -0.002976 -0.001811 0.000000 0.000000 0.000000
# 2 -0.002976 0.008742 -0.003774 0.000000 0.000000 0.000000
# 3 -0.001811 -0.003774 0.012547 0.000000 0.000000 0.000000
# 4 0.000000 0.000000 0.000000 0.031889 0.000000 0.000000
# 5 0.000000 0.000000 0.000000 0.000000 0.033569 0.000000
# 6 0.000000 0.000000 0.000000 0.000000 0.000000 -0.003730
#
#
# Mechanical properties :
#
#
# Convention : Reuss Voigt Hill
#
# Bulk Modulus (GPa) = 72.63085 77.52097 75.07591
# Shear Modulus (GPa) = 43.73156 -25.54839 9.09158
#
# Velocity S-wave (km/s) = 4.67150 -3.57059 2.12999
# Velocity P-wave (km/s) = 8.08340 4.65678 6.59648
#
# Compressibility (1/GPa) = 0.01376825
#
# Stress axis : x y z
#
# Youngs Moduli (GPa) = 104.13305 114.38459 79.70193
#
# Poissons Ratio (x) = 0.34046 0.14437
# Poissons Ratio (y) = 0.30995 0.30081
# Poissons Ratio (z) = 0.18863 0.43170
#
# Static dielectric constant tensor:
#      x y z
#    x 1.759410 0.000000 0.000000 
#    y 0.000000 1.708210 0.000000 
#    z 0.000000 0.000000 1.689320 
# 
# From -- ./inp_files/5805.got.cif
#   From: 2010.05.17/outbox.cif.g08.bks.cpg/sg49_3_cif.got.tgz:5805.got - 2010.06.03 21:02:19.
