data_PCOD9392380
_publ_section_title
;
Structure prediction by ZEFSAII (Michael W. Deem and Ramdas Pophale) SiO2 
 PCOD9392380
Probable space group: P C C M
;
_chemical_formula_sum "Si O2"
_cell_formula_units_Z 48
_cell_length_a 13.577083
_cell_length_b 9.949828
_cell_length_c 14.437965
_cell_angle_alpha 90.000000
_cell_angle_beta 90.000000
_cell_angle_gamma 90.000000
_cell_volume 1950.419503
_symmetry_space_group_name_H-M "P C C M"
_symmetry_group_IT_number 49
_symmetry_cell_setting 'orthorhombic'
loop_
_space_group_symop_operation_xyz
x,y,z
-x,-y,z
x,-y,1/2-z
-x,y,1/2-z
-x,-y,-z
x,y,-z
-x,y,1/2+z
x,-y,1/2+z
loop_
_atom_site_type_symbol
_atom_site_label
_atom_site_fract_x
_atom_site_fract_y
_atom_site_fract_z
Si Si1 0.035454 0.859865 0.355919
Si Si2 0.756089 0.440754 0.394815
Si Si3 0.267793 0.845066 0.390060
Si Si4 0.863884 0.321062 0.892041
Si Si5 0.317904 0.862854 0.113961
Si Si6 0.436470 0.620262 0.105637
O O1 0.974142 0.732727 0.389880
O O2 0.000000 0.863954 0.250000
O O3 0.150773 0.854151 0.372459
O O4 0.000000 0.000000 0.398833
O O5 0.785412 0.401245 0.500000
O O6 0.711793 0.304604 0.351768
O O7 0.842824 0.530901 0.351913
O O8 0.669281 0.548663 0.399840
O O9 0.289946 0.846007 0.500000
O O10 0.317038 0.982271 0.355181
O O11 0.786379 0.207248 0.856501
O O12 0.839256 0.334069 0.000000
O O13 0.408781 0.767178 0.144043
O O14 0.319600 0.861712 0.000000
O O15 0.500000 0.500000 0.148651
O O16 0.476194 0.640826 0.000000
#
# Coordination Sequence:
#
# PCOD9392380 Si02
#       6
#     8   8   8   8   8   8
#     4  11  22  32  44  66  93 121 155 208 246 284
#     4   8  16  28  44  67  92 120 156 198 236 282
#     4  10  18  30  47  66  91 125 164 201 237 279
#     4   9  16  30  48  64  86 122 165 195 229 284
#     4   8  14  24  42  64  85 119 162 189 217 277
#     4   8  13  24  42  65  95 126 151 183 235 288
#
# _framework density 24.61009
#
# number of rings (size 3 to 8) (size 9 to 14) (size 15 to 20)
#    0.000    3.000    1.667    2.500    0.000    1.333 
#    0.000    5.000    0.000    5.000    0.000    0.000 
#    0.000   10.667    2.667    0.000    0.000    0.000 
#
# Total GULP energy -267406.961958 kJ/mol
# GULP energy per Si atom -5570.978374 kJ/mol
# Density = 2.455408 g / cm^3
# Si number density = 24.610090 Si / 1000 Ang^3
#
#
#
# Elastic Constant Matrix: (Units=GPa)
#
#
# Indices 1 2 3 4 5 6 
#
# 1 40.5522 30.5177 -5.7006 0.0000 0.0000 0.0000
# 2 30.5177 225.3806 8.5553 0.0000 0.0000 0.0000
# 3 -5.7006 8.5553 71.6953 0.0000 0.0000 0.0000
# 4 0.0000 0.0000 0.0000 -17.4942 0.0000 0.0000
# 5 0.0000 0.0000 0.0000 0.0000 -18.1570 0.0000
# 6 0.0000 0.0000 0.0000 0.0000 0.0000 69.4868
#
#
#
# Elastic Compliance Matrix: (Units=1/GPa)
#
#
# Indices 1 2 3 4 5 6 
#
# 1 0.027964 -0.003888 0.002687 0.000000 0.000000 0.000000
# 2 -0.003888 0.004998 -0.000906 0.000000 0.000000 0.000000
# 3 0.002687 -0.000906 0.014270 0.000000 0.000000 0.000000
# 4 0.000000 0.000000 0.000000 -0.057162 0.000000 0.000000
# 5 0.000000 0.000000 0.000000 0.000000 -0.055075 0.000000
# 6 0.000000 0.000000 0.000000 0.000000 0.000000 0.014391
#
#
# Mechanical properties :
#
#
# Convention : Reuss Voigt Hill
#
# Bulk Modulus (GPa) = 23.24605 44.93031 34.08818
# Shear Modulus (GPa) = -155.94626 27.05085 -64.44770
#
# Velocity S-wave (km/s) = -7.96896 3.31898 -5.12293
# Velocity P-wave (km/s) = 8.67215 5.74317 4.59468
#
# Compressibility (1/GPa) = 0.04301806
#
# Stress axis : x y z
#
# Youngs Moduli (GPa) = 35.76069 200.08689 70.07872
#
# Poissons Ratio (x) = 0.77803 -0.18833
# Poissons Ratio (y) = 0.13905 0.06346
# Poissons Ratio (z) = -0.09611 0.18119
#
# Static dielectric constant tensor:
#      x y z
#    x 1.902450 0.000000 0.000000 
#    y 0.000000 2.083400 0.000000 
#    z 0.000000 0.000000 10.727780 
# 
# From -- ./inp_files/17737.got.cif
#   From: 2010.05.17/outbox.cif.g08.bks.cpg/sg49_9_cif.got.tgz:17737.got - 2010.06.03 21:02:19.
