data_PCOD9392860
_publ_section_title
;
Structure prediction by ZEFSAII (Michael W. Deem and Ramdas Pophale) SiO2 
 PCOD9392860
Probable space group: P C C M
;
_chemical_formula_sum "Si O2"
_cell_formula_units_Z 48
_cell_length_a 25.025526
_cell_length_b 13.974314
_cell_length_c 8.573718
_cell_angle_alpha 90.000000
_cell_angle_beta 90.000000
_cell_angle_gamma 90.000000
_cell_volume 2998.354004
_symmetry_space_group_name_H-M "P C C M"
_symmetry_group_IT_number 49
_symmetry_cell_setting 'orthorhombic'
loop_
_space_group_symop_operation_xyz
x,y,z
-x,-y,z
x,-y,1/2-z
-x,y,1/2-z
-x,-y,-z
x,y,-z
-x,y,1/2+z
x,-y,1/2+z
loop_
_atom_site_type_symbol
_atom_site_label
_atom_site_fract_x
_atom_site_fract_y
_atom_site_fract_z
Si Si1 0.162269 0.103896 0.187210
Si Si2 0.889749 0.395025 0.312552
Si Si3 0.328047 0.391651 0.188763
Si Si4 0.942050 0.204812 0.814049
Si Si5 0.445294 0.391096 0.186512
Si Si6 0.219860 0.705105 0.310668
O O1 0.104238 0.136074 0.248835
O O2 0.202569 0.188487 0.238267
O O3 0.176615 0.000000 0.250000
O O4 0.160766 0.102855 0.000000
O O5 0.902524 0.500000 0.250000
O O6 0.893239 0.393094 0.500000
O O7 0.927002 0.311544 0.244723
O O8 0.828989 0.365183 0.266445
O O9 0.323371 0.500000 0.250000
O O10 0.386856 0.351853 0.232662
O O11 0.277184 0.331401 0.245003
O O12 0.326611 0.395064 0.000000
O O13 0.000000 0.178105 0.750000
O O14 0.941713 0.202654 0.000000
O O15 0.444521 0.500000 0.250000
O O16 0.500000 0.345566 0.250000
O O17 0.448568 0.393727 0.000000
O O18 0.221275 0.705187 0.500000
#
# Coordination Sequence:
#
# PCOD9392860 Si02
#       6
#     8   8   8   8   8   8
#     4  10  20  36  55  74  94 117 143 178 224 274
#     4  10  19  32  49  70  95 125 155 186 223 265
#     4   9  16  26  40  61  87 120 154 185 218 256
#     4  11  22  37  54  73  95 119 149 185 222 265
#     4   9  15  22  34  51  78 114 153 187 218 251
#     4   8  16  30  47  66  91 117 147 184 222 265
#
# _framework density 16.008783000000001
#
# number of rings (size 3 to 8) (size 9 to 14) (size 15 to 20)
#    0.000    2.500    0.000    5.000    0.000    1.333 
#    0.000    7.500    0.000    0.000    0.000    0.000 
#    0.000    0.667    0.000    8.333    0.000    0.000 
#
# Total GULP energy -267552.050339 kJ/mol
# GULP energy per Si atom -5574.001049 kJ/mol
# Density = 1.597235 g / cm^3
# Si number density = 16.008783 Si / 1000 Ang^3
#
#
#
# Elastic Constant Matrix: (Units=GPa)
#
#
# Indices 1 2 3 4 5 6 
#
# 1 123.1502 21.9929 20.7309 0.0000 0.0000 0.0000
# 2 21.9929 59.4159 12.1020 0.0000 0.0000 0.0000
# 3 20.7309 12.1020 56.8007 0.0000 0.0000 0.0000
# 4 0.0000 0.0000 0.0000 21.2283 0.0000 0.0000
# 5 0.0000 0.0000 0.0000 0.0000 36.1942 0.0000
# 6 0.0000 0.0000 0.0000 0.0000 0.0000 19.5579
#
#
#
# Elastic Compliance Matrix: (Units=1/GPa)
#
#
# Indices 1 2 3 4 5 6 
#
# 1 0.009079 -0.002807 -0.002715 0.000000 0.000000 0.000000
# 2 -0.002807 0.018462 -0.002909 0.000000 0.000000 0.000000
# 3 -0.002715 -0.002909 0.019216 0.000000 0.000000 0.000000
# 4 0.000000 0.000000 0.000000 0.047107 0.000000 0.000000
# 5 0.000000 0.000000 0.000000 0.000000 0.027629 0.000000
# 6 0.000000 0.000000 0.000000 0.000000 0.000000 0.051130
#
#
# Mechanical properties :
#
#
# Convention : Reuss Voigt Hill
#
# Bulk Modulus (GPa) = 33.45186 38.77981 36.11584
# Shear Modulus (GPa) = 25.06885 27.69882 26.38383
#
# Velocity S-wave (km/s) = 3.96149 4.16411 4.06407
# Velocity P-wave (km/s) = 6.47038 6.88451 6.68066
#
# Compressibility (1/GPa) = 0.02989371
#
# Stress axis : x y z
#
# Youngs Moduli (GPa) = 110.14885 54.16485 52.03934
#
# Poissons Ratio (x) = 0.15206 0.14130
# Poissons Ratio (y) = 0.30923 0.15138
# Poissons Ratio (z) = 0.29909 0.15756
#
# Static dielectric constant tensor:
#      x y z
#    x 1.576210 0.000000 0.000000 
#    y 0.000000 1.507970 0.000000 
#    z 0.000000 0.000000 1.538510 
# 
# From -- ./inp_files/4159.got.cif
#   From: 2010.05.17/outbox.cif.g08.bks.cpg/sg49_3_cif.got.tgz:4159.got - 2010.06.03 21:02:19.
