data_PCOD9392719
_publ_section_title
;
Structure prediction by ZEFSAII (Michael W. Deem and Ramdas Pophale) SiO2 
 PCOD9392719
Probable space group: P C C M
;
_chemical_formula_sum "Si O2"
_cell_formula_units_Z 40
_cell_length_a 16.170437
_cell_length_b 15.469289
_cell_length_c 8.931759
_cell_angle_alpha 90.000000
_cell_angle_beta 90.000000
_cell_angle_gamma 90.000000
_cell_volume 2234.236313
_symmetry_space_group_name_H-M "P C C M"
_symmetry_group_IT_number 49
_symmetry_cell_setting 'orthorhombic'
loop_
_space_group_symop_operation_xyz
x,y,z
-x,-y,z
x,-y,1/2-z
-x,y,1/2-z
-x,-y,-z
x,y,-z
-x,y,1/2+z
x,-y,1/2+z
loop_
_atom_site_type_symbol
_atom_site_label
_atom_site_fract_x
_atom_site_fract_y
_atom_site_fract_z
Si Si1 0.085638 0.405374 0.179556
Si Si2 0.241834 0.285424 0.820414
Si Si3 0.416789 0.109815 0.330980
Si Si4 0.585033 0.317715 0.831257
Si Si5 0.244391 0.087843 0.822384
O O1 0.098645 0.500000 0.250000
O O2 0.163595 0.345085 0.213921
O O3 0.000000 0.371548 0.250000
O O4 0.077276 0.412159 0.000000
O O5 0.326330 0.325087 0.751556
O O6 0.221107 0.185996 0.772220
O O7 0.254045 0.281816 0.000000
O O8 0.500000 0.084525 0.250000
O O9 0.406731 0.075718 0.500000
O O10 0.421651 0.213699 0.342559
O O11 0.340225 0.088205 0.225901
O O12 0.500000 0.347461 0.750000
O O13 0.588891 0.353368 0.000000
O O14 0.207483 0.000000 0.750000
O O15 0.233926 0.082200 0.000000
#
# Coordination Sequence:
#
# PCOD9392719 Si02
#       5
#     8   8   8   8   8
#     4  10  20  36  59  87 113 135 160 200 254 312
#     4   9  19  34  52  74 104 139 173 210 257 306
#     4   9  16  26  39  58  85 121 165 213 259 300
#     4   9  16  26  44  69  99 135 176 216 255 299
#     4  10  19  31  45  64  92 128 169 211 250 293
#
# _framework density 17.903210000000001
#
# number of rings (size 3 to 8) (size 9 to 14) (size 15 to 20)
#    0.000    2.600    0.000    3.000    0.000    7.600 
#    0.000    2.000    0.000    1.200    0.000    8.400 
#    0.000    0.000    0.000    0.000    0.000    0.000 
#
# Total GULP energy -222721.882349 kJ/mol
# GULP energy per Si atom -5568.047059 kJ/mol
# Density = 1.786246 g / cm^3
# Si number density = 17.903210 Si / 1000 Ang^3
#
#
#
# Elastic Constant Matrix: (Units=GPa)
#
#
# Indices 1 2 3 4 5 6 
#
# 1 128.9127 61.3847 54.9508 0.0000 0.0000 0.0000
# 2 61.3847 49.9011 28.5743 0.0000 0.0000 0.0000
# 3 54.9508 28.5743 67.2640 0.0000 0.0000 0.0000
# 4 0.0000 0.0000 0.0000 42.0545 0.0000 0.0000
# 5 0.0000 0.0000 0.0000 0.0000 21.9437 0.0000
# 6 0.0000 0.0000 0.0000 0.0000 0.0000 -7.1935
#
#
#
# Elastic Compliance Matrix: (Units=1/GPa)
#
#
# Indices 1 2 3 4 5 6 
#
# 1 0.021882 -0.022044 -0.008512 0.000000 0.000000 0.000000
# 2 -0.022044 0.048688 -0.002674 0.000000 0.000000 0.000000
# 3 -0.008512 -0.002674 0.022957 0.000000 0.000000 0.000000
# 4 0.000000 0.000000 0.000000 0.023779 0.000000 0.000000
# 5 0.000000 0.000000 0.000000 0.000000 0.045571 0.000000
# 6 0.000000 0.000000 0.000000 0.000000 0.000000 -0.139014
#
#
# Mechanical properties :
#
#
# Convention : Reuss Voigt Hill
#
# Bulk Modulus (GPa) = 36.94665 59.54417 48.24541
# Shear Modulus (GPa) = 50.32946 18.10548 34.21747
#
# Velocity S-wave (km/s) = 5.30782 3.18354 4.37652
# Velocity P-wave (km/s) = 7.63189 6.84430 7.24880
#
# Compressibility (1/GPa) = 0.02706605
#
# Stress axis : x y z
#
# Youngs Moduli (GPa) = 45.69913 20.53910 43.55993
#
# Poissons Ratio (x) = 0.45276 0.37079
# Poissons Ratio (y) = 1.00738 0.11650
# Poissons Ratio (z) = 0.38900 0.05493
#
# Static dielectric constant tensor:
#      x y z
#    x 1.579520 0.000000 0.000000 
#    y 0.000000 1.670150 0.000000 
#    z 0.000000 0.000000 1.631970 
# 
# From -- ./inp_files/2678.got.cif
#   From: 2010.05.17/outbox.cif.g08.bks.cpg/sg49_2_cif.got.tgz:2678.got - 2010.06.03 21:02:19.
