data_PCOD9392720
_publ_section_title
;
Structure prediction by ZEFSAII (Michael W. Deem and Ramdas Pophale) SiO2 
 PCOD9392720
Probable space group: P C C M
;
_chemical_formula_sum "Si O2"
_cell_formula_units_Z 64
_cell_length_a 32.506055
_cell_length_b 14.771669
_cell_length_c 8.609112
_cell_angle_alpha 90.000000
_cell_angle_beta 90.000000
_cell_angle_gamma 90.000000
_cell_volume 4133.825988
_symmetry_space_group_name_H-M "P C C M"
_symmetry_group_IT_number 49
_symmetry_cell_setting 'orthorhombic'
loop_
_space_group_symop_operation_xyz
x,y,z
-x,-y,z
x,-y,1/2-z
-x,y,1/2-z
-x,-y,-z
x,y,-z
-x,y,1/2+z
x,-y,1/2+z
loop_
_atom_site_type_symbol
_atom_site_label
_atom_site_fract_x
_atom_site_fract_y
_atom_site_fract_z
Si Si1 0.042193 0.896744 0.686306
Si Si2 0.299232 0.210308 0.313077
Si Si3 0.425537 0.595792 0.186700
Si Si4 0.778388 0.897154 0.186992
Si Si5 0.622235 0.101615 0.314233
Si Si6 0.131095 0.897634 0.687008
Si Si7 0.543841 0.790866 0.313135
Si Si8 0.329619 0.595833 0.813251
O O1 0.039742 0.899622 0.500000
O O2 0.086797 0.856290 0.733503
O O3 0.000000 0.854359 0.750000
O O4 0.042854 0.000000 0.750000
O O5 0.300429 0.206236 0.500000
O O6 0.257766 0.164480 0.252774
O O7 0.338175 0.155540 0.247864
O O8 0.304912 0.315055 0.264559
O O9 0.441184 0.500000 0.250000
O O10 0.449063 0.686122 0.236365
O O11 0.377578 0.605682 0.236108
O O12 0.426350 0.592281 0.000000
O O13 0.824047 0.861130 0.233300
O O14 0.774122 0.000000 0.250000
O O15 0.775877 0.900171 0.000000
O O16 0.622537 0.100679 0.500000
O O17 0.581356 0.150995 0.252865
O O18 0.623630 0.000000 0.250000
O O19 0.130847 0.900742 0.500000
O O20 0.130951 0.000000 0.750000
O O21 0.500000 0.822505 0.250000
O O22 0.544749 0.794682 0.500000
O O23 0.314276 0.500000 0.750000
O O24 0.329501 0.592546 0.000000
#
# Coordination Sequence:
#
# PCOD9392720 Si02
#       8
#     8   8   8   8   8   8   8   8
#     4   9  14  20  30  46  67  97 136 184 232 274
#     4  11  21  36  54  75 101 125 152 190 230 271
#     4   9  18  34  55  78 105 131 154 184 220 263
#     4  10  19  31  45  65  90 122 160 197 236 279
#     4  12  25  41  60  79  98 126 158 193 231 269
#     4   8  15  25  36  50  75 107 144 188 233 274
#     4  11  23  41  59  80 106 130 158 190 225 267
#     4   9  18  33  53  76 100 125 149 181 221 264
#
# _framework density 15.482025999999999
#
# number of rings (size 3 to 8) (size 9 to 14) (size 15 to 20)
#    0.000    2.125    1.250    3.375    0.000    3.500 
#    0.000    2.500    0.000    0.000    0.000    0.000 
#    0.000    0.000    0.000    0.000    0.000    0.625 
#
# Total GULP energy -356780.585460 kJ/mol
# GULP energy per Si atom -5574.696648 kJ/mol
# Density = 1.544679 g / cm^3
# Si number density = 15.482026 Si / 1000 Ang^3
#
#
#
# Elastic Constant Matrix: (Units=GPa)
#
#
# Indices 1 2 3 4 5 6 
#
# 1 156.4881 56.4663 38.9688 0.0000 0.0000 0.0000
# 2 56.4663 85.2750 26.3127 0.0000 0.0000 0.0000
# 3 38.9688 26.3127 52.1614 0.0000 0.0000 0.0000
# 4 0.0000 0.0000 0.0000 21.1210 0.0000 0.0000
# 5 0.0000 0.0000 0.0000 0.0000 23.0184 0.0000
# 6 0.0000 0.0000 0.0000 0.0000 0.0000 -5.5812
#
#
#
# Elastic Compliance Matrix: (Units=1/GPa)
#
#
# Indices 1 2 3 4 5 6 
#
# 1 0.009212 -0.004709 -0.004506 0.000000 0.000000 0.000000
# 2 -0.004709 0.016296 -0.004702 0.000000 0.000000 0.000000
# 3 -0.004506 -0.004702 0.024910 0.000000 0.000000 0.000000
# 4 0.000000 0.000000 0.000000 0.047346 0.000000 0.000000
# 5 0.000000 0.000000 0.000000 0.000000 0.043444 0.000000
# 6 0.000000 0.000000 0.000000 0.000000 0.000000 -0.179172
#
#
# Mechanical properties :
#
#
# Convention : Reuss Voigt Hill
#
# Bulk Modulus (GPa) = 44.28323 59.71333 51.99828
# Shear Modulus (GPa) = -1921.78580 19.19008 -951.29786
#
# Velocity S-wave (km/s) = -35.27033 3.52448 -24.81506
# Velocity P-wave (km/s) = 40.37321 7.43073 28.06047
#
# Compressibility (1/GPa) = 0.02258191
#
# Stress axis : x y z
#
# Youngs Moduli (GPa) = 108.55803 61.36479 40.14467
#
# Poissons Ratio (x) = 0.28898 0.18090
# Poissons Ratio (y) = 0.51122 0.18877
# Poissons Ratio (z) = 0.48920 0.28856
#
# Static dielectric constant tensor:
#      x y z
#    x 1.556440 0.000000 0.000000 
#    y 0.000000 1.489630 0.000000 
#    z 0.000000 0.000000 1.522660 
# 
# From -- ./inp_files/7062.got.cif
#   From: 2010.05.17/outbox.cif.g08.bks.cpg/sg49_4_cif.got.tgz:7062.got - 2010.06.03 21:02:19.
