data_PCOD9392433
_publ_section_title
;
Structure prediction by ZEFSAII (Michael W. Deem and Ramdas Pophale) SiO2 
 PCOD9392433
Probable space group: P C C M
;
_chemical_formula_sum "Si O2"
_cell_formula_units_Z 56
_cell_length_a 19.594344
_cell_length_b 19.146325
_cell_length_c 8.758429
_cell_angle_alpha 90.000000
_cell_angle_beta 90.000000
_cell_angle_gamma 90.000000
_cell_volume 3285.809407
_symmetry_space_group_name_H-M "P C C M"
_symmetry_group_IT_number 49
_symmetry_cell_setting 'orthorhombic'
loop_
_space_group_symop_operation_xyz
x,y,z
-x,-y,z
x,-y,1/2-z
-x,y,1/2-z
-x,-y,-z
x,y,-z
-x,y,1/2+z
x,-y,1/2+z
loop_
_atom_site_type_symbol
_atom_site_label
_atom_site_fract_x
_atom_site_fract_y
_atom_site_fract_z
Si Si1 0.786393 0.653928 0.317833
Si Si2 0.709038 0.786945 0.184603
Si Si3 0.339627 0.574658 0.683429
Si Si4 0.787688 0.924562 0.816083
Si Si5 0.072132 0.853738 0.683380
Si Si6 0.926999 0.689204 0.183142
Si Si7 0.574326 0.289670 0.682826
O O1 0.786197 0.650149 0.500000
O O2 0.756356 0.728479 0.261733
O O3 0.733899 0.597788 0.248530
O O4 0.862729 0.649108 0.253072
O O5 0.734436 0.863745 0.226432
O O6 0.631298 0.767915 0.225116
O O7 0.716588 0.778819 0.000000
O O8 0.359388 0.500000 0.750000
O O9 0.336444 0.572655 0.500000
O O10 0.392651 0.635795 0.728713
O O11 0.862615 0.897907 0.764873
O O12 0.771967 0.000000 0.750000
O O13 0.788704 0.928433 0.000000
O O14 0.069154 0.857000 0.500000
O O15 0.081163 0.771816 0.724191
O O16 0.000000 0.877890 0.750000
O O17 0.000000 0.666873 0.250000
O O18 0.926714 0.683962 0.000000
O O19 0.500000 0.278749 0.750000
O O20 0.569199 0.289829 0.500000
#
# Coordination Sequence:
#
# PCOD9392433 Si02
#       7
#     8   8   8   8   8   8   8
#     4  11  20  31  52  79 103 135 177 219 260 308
#     4   9  18  36  54  71 101 138 172 212 262 310
#     4  10  21  37  55  79 111 146 175 207 250 298
#     4  10  20  34  50  70  98 134 174 217 267 314
#     4   9  18  31  47  66  95 133 168 212 261 311
#     4  10  18  31  49  72 101 134 174 221 271 313
#     4   9  19  34  56  81 107 138 169 206 253 303
#
# _framework density 17.042985000000002
#
# number of rings (size 3 to 8) (size 9 to 14) (size 15 to 20)
#    0.000    2.286    1.429    3.000    0.000    5.143 
#    0.000    2.857    0.000    0.857    0.000    6.000 
#    0.000    0.000    0.000    0.000    0.000    0.000 
#
# Total GULP energy -312441.240378 kJ/mol
# GULP energy per Si atom -5579.307864 kJ/mol
# Density = 1.700419 g / cm^3
# Si number density = 17.042985 Si / 1000 Ang^3
#
#
#
# Elastic Constant Matrix: (Units=GPa)
#
#
# Indices 1 2 3 4 5 6 
#
# 1 146.9611 48.4596 34.0625 0.0000 0.0000 0.0000
# 2 48.4596 70.2837 15.8875 0.0000 0.0000 0.0000
# 3 34.0625 15.8875 37.3935 0.0000 0.0000 0.0000
# 4 0.0000 0.0000 0.0000 -4.7494 0.0000 0.0000
# 5 0.0000 0.0000 0.0000 0.0000 30.5795 0.0000
# 6 0.0000 0.0000 0.0000 0.0000 0.0000 14.7241
#
#
#
# Elastic Compliance Matrix: (Units=1/GPa)
#
#
# Indices 1 2 3 4 5 6 
#
# 1 0.010230 -0.005473 -0.006994 0.000000 0.000000 0.000000
# 2 -0.005473 0.018667 -0.002946 0.000000 0.000000 0.000000
# 3 -0.006994 -0.002946 0.034365 0.000000 0.000000 0.000000
# 4 0.000000 0.000000 0.000000 -0.210552 0.000000 0.000000
# 5 0.000000 0.000000 0.000000 0.000000 0.032702 0.000000
# 6 0.000000 0.000000 0.000000 0.000000 0.000000 0.067916
#
#
# Mechanical properties :
#
#
# Convention : Reuss Voigt Hill
#
# Bulk Modulus (GPa) = 30.82842 50.16196 40.49519
# Shear Modulus (GPa) = -993.00759 18.52609 -487.24075
#
# Velocity S-wave (km/s) = -24.16431 3.30058 -16.92661
# Velocity P-wave (km/s) = 27.57578 6.63488 18.92620
#
# Compressibility (1/GPa) = 0.03243760
#
# Stress axis : x y z
#
# Youngs Moduli (GPa) = 97.75139 53.56964 29.09944
#
# Poissons Ratio (x) = 0.29316 0.20351
# Poissons Ratio (y) = 0.53495 0.08573
# Poissons Ratio (z) = 0.68363 0.15783
#
# Static dielectric constant tensor:
#      x y z
#    x 1.575660 0.000000 0.000000 
#    y 0.000000 1.566760 0.000000 
#    z 0.000000 0.000000 1.572200 
# 
# From -- ./inp_files/5173.got.cif
#   From: 2010.05.17/outbox.cif.g08.bks.cpg/sg49_3_cif.got.tgz:5173.got - 2010.06.03 21:02:19.
