data_PCOD9392668
_publ_section_title
;
Structure prediction by ZEFSAII (Michael W. Deem and Ramdas Pophale) SiO2 
 PCOD9392668
Probable space group: P C C M
;
_chemical_formula_sum "Si O2"
_cell_formula_units_Z 48
_cell_length_a 13.859665
_cell_length_b 24.775896
_cell_length_c 8.720530
_cell_angle_alpha 90.000000
_cell_angle_beta 90.000000
_cell_angle_gamma 90.000000
_cell_volume 2994.504589
_symmetry_space_group_name_H-M "P C C M"
_symmetry_group_IT_number 49
_symmetry_cell_setting 'orthorhombic'
loop_
_space_group_symop_operation_xyz
x,y,z
-x,-y,z
x,-y,1/2-z
-x,y,1/2-z
-x,-y,-z
x,y,-z
-x,y,1/2+z
x,-y,1/2+z
loop_
_atom_site_type_symbol
_atom_site_label
_atom_site_fract_x
_atom_site_fract_y
_atom_site_fract_z
Si Si1 0.200652 0.057703 0.816391
Si Si2 0.608692 0.325888 0.315761
Si Si3 0.295060 0.779617 0.183369
Si Si4 0.396519 0.884307 0.315610
Si Si5 0.608564 0.445699 0.682869
Si Si6 0.104257 0.169126 0.184591
O O1 0.309458 0.075436 0.770954
O O2 0.132161 0.107458 0.770630
O O3 0.174114 0.000000 0.750000
O O4 0.198746 0.054554 0.000000
O O5 0.500000 0.322262 0.250000
O O6 0.604921 0.320156 0.500000
O O7 0.670213 0.278177 0.242908
O O8 0.648449 0.386164 0.280174
O O9 0.365922 0.825887 0.250144
O O10 0.189407 0.794411 0.246889
O O11 0.296672 0.781857 0.000000
O O12 0.500000 0.900336 0.250000
O O13 0.399782 0.881329 0.500000
O O14 0.655706 0.500000 0.750000
O O15 0.500000 0.444405 0.750000
O O16 0.603313 0.450808 0.500000
O O17 0.000000 0.182987 0.250000
O O18 0.106028 0.172582 0.000000
#
# Coordination Sequence:
#
# PCOD9392668 Si02
#       6
#     8   8   8   8   8   8
#     4   9  20  35  51  71  96 122 152 189 227 271
#     4  10  19  30  44  66  96 131 166 201 237 277
#     4  11  21  33  50  71  94 123 156 195 237 280
#     4  10  20  34  49  68  94 126 159 193 232 276
#     4   9  16  25  39  58  86 124 164 201 236 270
#     4  10  21  38  56  75  96 120 149 186 233 284
#
# _framework density 16.029364000000001
#
# number of rings (size 3 to 8) (size 9 to 14) (size 15 to 20)
#    0.000    2.167    0.000    5.500    0.000    6.667 
#    0.000    3.333    0.000    0.000    0.000    0.000 
#    0.000    0.667    0.000    7.000    0.000    3.833 
#
# Total GULP energy -267753.261370 kJ/mol
# GULP energy per Si atom -5578.192945 kJ/mol
# Density = 1.599288 g / cm^3
# Si number density = 16.029364 Si / 1000 Ang^3
#
#
#
# Elastic Constant Matrix: (Units=GPa)
#
#
# Indices 1 2 3 4 5 6 
#
# 1 59.6990 18.9423 18.3765 0.0000 0.0000 0.0000
# 2 18.9423 112.1669 32.3825 0.0000 0.0000 0.0000
# 3 18.3765 32.3825 70.0108 0.0000 0.0000 0.0000
# 4 0.0000 0.0000 0.0000 27.4297 0.0000 0.0000
# 5 0.0000 0.0000 0.0000 0.0000 19.8946 0.0000
# 6 0.0000 0.0000 0.0000 0.0000 0.0000 8.8973
#
#
#
# Elastic Compliance Matrix: (Units=1/GPa)
#
#
# Indices 1 2 3 4 5 6 
#
# 1 0.018603 -0.001999 -0.003959 0.000000 0.000000 0.000000
# 2 -0.001999 0.010504 -0.004334 0.000000 0.000000 0.000000
# 3 -0.003959 -0.004334 0.017327 0.000000 0.000000 0.000000
# 4 0.000000 0.000000 0.000000 0.036457 0.000000 0.000000
# 5 0.000000 0.000000 0.000000 0.000000 0.050265 0.000000
# 6 0.000000 0.000000 0.000000 0.000000 0.000000 0.112394
#
#
# Mechanical properties :
#
#
# Convention : Reuss Voigt Hill
#
# Bulk Modulus (GPa) = 38.68149 42.36439 40.52294
# Shear Modulus (GPa) = 18.19837 22.72268 20.46052
#
# Velocity S-wave (km/s) = 3.37310 3.76914 3.57661
# Velocity P-wave (km/s) = 6.27331 6.74007 6.51087
#
# Compressibility (1/GPa) = 0.02585216
#
# Stress axis : x y z
#
# Youngs Moduli (GPa) = 53.75347 95.20169 57.71313
#
# Poissons Ratio (x) = 0.19030 0.22846
# Poissons Ratio (y) = 0.10745 0.25012
# Poissons Ratio (z) = 0.21278 0.41259
#
# Static dielectric constant tensor:
#      x y z
#    x 1.511620 0.000000 0.000000 
#    y 0.000000 1.560750 0.000000 
#    z 0.000000 0.000000 1.534930 
# 
# From -- ./inp_files/2880.got.cif
#   From: 2010.05.17/outbox.cif.g08.bks.cpg/sg49_2_cif.got.tgz:2880.got - 2010.06.03 21:02:19.
