data_PCOD9392086
_publ_section_title
;
Structure prediction by ZEFSAII (Michael W. Deem and Ramdas Pophale) SiO2 
 PCOD9392086
Probable space group: P C C M
;
_chemical_formula_sum "Si O2"
_cell_formula_units_Z 48
_cell_length_a 24.628905
_cell_length_b 13.837456
_cell_length_c 8.708482
_cell_angle_alpha 90.000000
_cell_angle_beta 90.000000
_cell_angle_gamma 90.000000
_cell_volume 2967.862764
_symmetry_space_group_name_H-M "P C C M"
_symmetry_group_IT_number 49
_symmetry_cell_setting 'orthorhombic'
loop_
_space_group_symop_operation_xyz
x,y,z
-x,-y,z
x,-y,1/2-z
-x,y,1/2-z
-x,-y,-z
x,y,-z
-x,y,1/2+z
x,-y,1/2+z
loop_
_atom_site_type_symbol
_atom_site_label
_atom_site_fract_x
_atom_site_fract_y
_atom_site_fract_z
Si Si1 0.609797 0.396337 0.816121
Si Si2 0.832256 0.391726 0.815617
Si Si3 0.719316 0.709318 0.684885
Si Si4 0.558247 0.805723 0.684439
Si Si5 0.333721 0.102870 0.817296
Si Si6 0.055585 0.609649 0.683718
O O1 0.594714 0.500000 0.750000
O O2 0.671159 0.365178 0.770343
O O3 0.572299 0.305543 0.770450
O O4 0.608332 0.402670 0.000000
O O5 0.825403 0.500000 0.750000
O O6 0.778321 0.331872 0.777633
O O7 0.887465 0.348654 0.743693
O O8 0.838020 0.397172 0.000000
O O9 0.715547 0.721123 0.500000
O O10 0.705288 0.810671 0.762668
O O11 0.500000 0.833417 0.750000
O O12 0.558843 0.811641 0.500000
O O13 0.606987 0.869810 0.750552
O O14 0.316723 0.000000 0.750000
O O15 0.336194 0.099174 0.000000
O O16 0.056534 0.500000 0.750000
O O17 0.053875 0.606811 0.500000
O O18 0.000000 0.654256 0.750000
#
# Coordination Sequence:
#
# PCOD9392086 Si02
#       6
#     8   8   8   8   8   8
#     4   9  18  31  47  67  94 126 157 190 226 268
#     4  10  18  28  44  67  97 131 165 200 237 276
#     4   9  19  34  49  69  97 125 156 195 234 277
#     4  10  21  37  53  73  98 122 154 192 230 274
#     4  11  22  37  57  76  95 120 149 186 235 286
#     4  10  17  26  39  57  86 124 167 206 240 277
#
# _framework density 16.173255000000001
#
# number of rings (size 3 to 8) (size 9 to 14) (size 15 to 20)
#    0.000    2.167    0.000    7.000    0.000    5.333 
#    0.000    3.333    0.000    0.000    0.000    0.000 
#    0.000    0.667    0.000    7.000    0.000    3.000 
#
# Total GULP energy -267800.620116 kJ/mol
# GULP energy per Si atom -5579.179586 kJ/mol
# Density = 1.613644 g / cm^3
# Si number density = 16.173255 Si / 1000 Ang^3
#
#
#
# Elastic Constant Matrix: (Units=GPa)
#
#
# Indices 1 2 3 4 5 6 
#
# 1 109.9370 14.1238 45.3610 0.0000 0.0000 0.0000
# 2 14.1238 56.9213 22.4457 0.0000 0.0000 0.0000
# 3 45.3610 22.4457 77.3666 0.0000 0.0000 0.0000
# 4 0.0000 0.0000 0.0000 21.2083 0.0000 0.0000
# 5 0.0000 0.0000 0.0000 0.0000 30.4708 0.0000
# 6 0.0000 0.0000 0.0000 0.0000 0.0000 8.1485
#
#
#
# Elastic Compliance Matrix: (Units=1/GPa)
#
#
# Indices 1 2 3 4 5 6 
#
# 1 0.012002 -0.000229 -0.006970 0.000000 0.000000 0.000000
# 2 -0.000229 0.019842 -0.005622 0.000000 0.000000 0.000000
# 3 -0.006970 -0.005622 0.018643 0.000000 0.000000 0.000000
# 4 0.000000 0.000000 0.000000 0.047151 0.000000 0.000000
# 5 0.000000 0.000000 0.000000 0.000000 0.032818 0.000000
# 6 0.000000 0.000000 0.000000 0.000000 0.000000 0.122721
#
#
# Mechanical properties :
#
#
# Convention : Reuss Voigt Hill
#
# Bulk Modulus (GPa) = 40.25188 45.34289 42.79739
# Shear Modulus (GPa) = 17.41542 22.78516 20.10029
#
# Velocity S-wave (km/s) = 3.28503 3.75749 3.52918
# Velocity P-wave (km/s) = 6.27140 6.84993 6.56704
#
# Compressibility (1/GPa) = 0.02484356
#
# Stress axis : x y z
#
# Youngs Moduli (GPa) = 83.32284 50.39824 53.63888
#
# Poissons Ratio (x) = 0.01156 0.37387
# Poissons Ratio (y) = 0.01912 0.30156
# Poissons Ratio (z) = 0.58077 0.28334
#
# Static dielectric constant tensor:
#      x y z
#    x 1.570650 0.000000 0.000000 
#    y 0.000000 1.521350 0.000000 
#    z 0.000000 0.000000 1.539820 
# 
# From -- ./inp_files/2909.got.cif
#   From: 2010.05.17/outbox.cif.g08.bks.cpg/sg49_2_cif.got.tgz:2909.got - 2010.06.03 21:02:19.
