data_PCOD9392490
_publ_section_title
;
Structure prediction by ZEFSAII (Michael W. Deem and Ramdas Pophale) SiO2 
 PCOD9392490
Probable space group: P C C M
;
_chemical_formula_sum "Si O2"
_cell_formula_units_Z 56
_cell_length_a 20.771414
_cell_length_b 15.867517
_cell_length_c 8.456826
_cell_angle_alpha 90.000000
_cell_angle_beta 90.000000
_cell_angle_gamma 90.000000
_cell_volume 2787.291749
_symmetry_space_group_name_H-M "P C C M"
_symmetry_group_IT_number 49
_symmetry_cell_setting 'orthorhombic'
loop_
_space_group_symop_operation_xyz
x,y,z
-x,-y,z
x,-y,1/2-z
-x,y,1/2-z
-x,-y,-z
x,y,-z
-x,y,1/2+z
x,-y,1/2+z
loop_
_atom_site_type_symbol
_atom_site_label
_atom_site_fract_x
_atom_site_fract_y
_atom_site_fract_z
Si Si1 0.567159 0.273725 0.190054
Si Si2 0.261745 0.130949 0.187643
Si Si3 0.398870 0.088266 0.685801
Si Si4 0.709179 0.686031 0.689384
Si Si5 0.117455 0.088724 0.190325
Si Si6 0.069734 0.729643 0.690860
Si Si7 0.825839 0.590677 0.810250
O O1 0.500000 0.309799 0.250000
O O2 0.573954 0.176716 0.251506
O O3 0.633717 0.319993 0.233856
O O4 0.565228 0.270817 0.000000
O O5 0.322585 0.092998 0.278114
O O6 0.264066 0.230471 0.224406
O O7 0.192581 0.096363 0.238604
O O8 0.269721 0.117047 0.000000
O O9 0.409233 0.088883 0.500000
O O10 0.424167 0.000000 0.750000
O O11 0.712274 0.698870 0.500000
O O12 0.755627 0.611131 0.739923
O O13 0.083801 0.174693 0.246542
O O14 0.090634 0.000000 0.250000
O O15 0.115746 0.088710 0.000000
O O16 0.070352 0.730810 0.500000
O O17 0.125260 0.664719 0.741420
O O18 0.000000 0.702556 0.750000
O O19 0.848200 0.500000 0.750000
O O20 0.822463 0.591259 0.000000
#
# Coordination Sequence:
#
# PCOD9392490 Si02
#       7
#     8   8   8   8   8   8   8
#     4   9  20  35  52  77 110 149 196 241 290 356
#     4  10  18  32  53  77 110 150 193 246 301 351
#     4  10  20  32  45  70 105 144 194 249 301 357
#     4  10  20  36  59  88 119 152 194 241 292 352
#     4  10  21  36  54  81 116 155 202 250 294 347
#     4  10  23  43  62  86 123 161 201 246 297 355
#     4  11  23  42  67  96 126 155 195 243 296 361
#
# _framework density 20.091184999999999
#
# number of rings (size 3 to 8) (size 9 to 14) (size 15 to 20)
#    0.000    2.000    1.429    3.000    0.000    8.286 
#    0.000    4.286    0.000    0.429    0.000    3.000 
#    0.000    0.000    0.000    0.000    0.000    0.000 
#
# Total GULP energy -312696.672442 kJ/mol
# GULP energy per Si atom -5583.869151 kJ/mol
# Density = 2.004546 g / cm^3
# Si number density = 20.091185 Si / 1000 Ang^3
#
#
#
# Elastic Constant Matrix: (Units=GPa)
#
#
# Indices 1 2 3 4 5 6 
#
# 1 117.4198 39.2755 16.9537 0.0000 0.0000 0.0000
# 2 39.2755 91.8496 11.6478 0.0000 0.0000 0.0000
# 3 16.9537 11.6478 18.0927 0.0000 0.0000 0.0000
# 4 0.0000 0.0000 0.0000 33.8760 0.0000 0.0000
# 5 0.0000 0.0000 0.0000 0.0000 20.6220 0.0000
# 6 0.0000 0.0000 0.0000 0.0000 0.0000 -8.7533
#
#
#
# Elastic Compliance Matrix: (Units=1/GPa)
#
#
# Indices 1 2 3 4 5 6 
#
# 1 0.010870 -0.003655 -0.007833 0.000000 0.000000 0.000000
# 2 -0.003655 0.013084 -0.004999 0.000000 0.000000 0.000000
# 3 -0.007833 -0.004999 0.065829 0.000000 0.000000 0.000000
# 4 0.000000 0.000000 0.000000 0.029519 0.000000 0.000000
# 5 0.000000 0.000000 0.000000 0.000000 0.048492 0.000000
# 6 0.000000 0.000000 0.000000 0.000000 0.000000 -0.114242
#
#
# Mechanical properties :
#
#
# Convention : Reuss Voigt Hill
#
# Bulk Modulus (GPa) = 17.60241 40.34623 28.97432
# Shear Modulus (GPa) = 47.41109 19.78127 33.59618
#
# Velocity S-wave (km/s) = 4.86304 3.14120 4.09367
# Velocity P-wave (km/s) = 6.34921 5.76900 6.06605
#
# Compressibility (1/GPa) = 0.05681039
#
# Stress axis : x y z
#
# Youngs Moduli (GPa) = 91.99769 76.42886 15.19093
#
# Poissons Ratio (x) = 0.27933 0.11899
# Poissons Ratio (y) = 0.33623 0.07594
# Poissons Ratio (z) = 0.72059 0.38205
#
# Static dielectric constant tensor:
#      x y z
#    x 1.713150 0.000000 0.000000 
#    y 0.000000 1.743910 0.000000 
#    z 0.000000 0.000000 1.686790 
# 
# From -- ./inp_files/5790.got.cif
#   From: 2010.05.17/outbox.cif.g08.bks.cpg/sg49_3_cif.got.tgz:5790.got - 2010.06.03 21:02:19.
