data_PCOD9392845
_publ_section_title
;
Structure prediction by ZEFSAII (Michael W. Deem and Ramdas Pophale) SiO2 
 PCOD9392845
Probable space group: P C C M
;
_chemical_formula_sum "Si O2"
_cell_formula_units_Z 64
_cell_length_a 31.830754
_cell_length_b 14.808138
_cell_length_c 8.725327
_cell_angle_alpha 90.000000
_cell_angle_beta 90.000000
_cell_angle_gamma 90.000000
_cell_volume 4112.719509
_symmetry_space_group_name_H-M "P C C M"
_symmetry_group_IT_number 49
_symmetry_cell_setting 'orthorhombic'
loop_
_space_group_symop_operation_xyz
x,y,z
-x,-y,z
x,-y,1/2-z
-x,y,1/2-z
-x,-y,-z
x,y,-z
-x,y,1/2+z
x,-y,1/2+z
loop_
_atom_site_type_symbol
_atom_site_label
_atom_site_fract_x
_atom_site_fract_y
_atom_site_fract_z
Si Si1 0.879136 0.786480 0.814398
Si Si2 0.046147 0.901724 0.816856
Si Si3 0.203899 0.100434 0.184635
Si Si4 0.364412 0.898530 0.183541
Si Si5 0.286966 0.211638 0.814526
Si Si6 0.457722 0.101614 0.683048
Si Si7 0.254501 0.404093 0.815351
Si Si8 0.156513 0.595631 0.684387
O O1 0.919826 0.829540 0.738025
O O2 0.838074 0.845265 0.771564
O O3 0.869850 0.683196 0.768953
O O4 0.883177 0.790094 0.000000
O O5 0.000000 0.881410 0.750000
O O6 0.058446 0.000000 0.750000
O O7 0.044186 0.906944 0.000000
O O8 0.245556 0.155016 0.232207
O O9 0.203860 0.000000 0.250000
O O10 0.204390 0.096014 0.000000
O O11 0.328012 0.835356 0.247749
O O12 0.411336 0.862244 0.222361
O O13 0.359940 0.000000 0.250000
O O14 0.361505 0.904560 0.000000
O O15 0.280073 0.315570 0.766783
O O16 0.288932 0.209418 0.000000
O O17 0.500000 0.145840 0.750000
O O18 0.461510 0.097438 0.500000
O O19 0.456884 0.000000 0.750000
O O20 0.269026 0.500000 0.750000
O O21 0.205468 0.391719 0.769403
O O22 0.255385 0.407934 0.000000
O O23 0.141913 0.500000 0.750000
O O24 0.155927 0.591684 0.500000
#
# Coordination Sequence:
#
# PCOD9392845 Si02
#       8
#     8   8   8   8   8   8   8   8
#     4  10  19  34  53  73 100 130 159 197 240 279
#     4  11  22  37  56  78 102 129 161 196 236 283
#     4  10  20  32  45  64  93 127 161 194 229 269
#     4  10  20  31  43  63  91 125 162 198 237 281
#     4  10  19  32  47  64  92 128 162 195 233 279
#     4   9  16  26  41  60  83 112 151 196 238 279
#     4   9  17  31  49  69  92 122 158 198 240 279
#     4   9  17  31  51  73  99 127 157 196 240 282
#
# _framework density 15.56148
#
# number of rings (size 3 to 8) (size 9 to 14) (size 15 to 20)
#    0.000    2.250    1.250    3.375    0.000    5.500 
#    0.000    0.000    0.000    0.375    0.000    2.625 
#    0.000    0.500    0.000    5.500    0.000    4.000 
#
# Total GULP energy -356885.788069 kJ/mol
# GULP energy per Si atom -5576.340439 kJ/mol
# Density = 1.552606 g / cm^3
# Si number density = 15.561480 Si / 1000 Ang^3
#
#
#
# Elastic Constant Matrix: (Units=GPa)
#
#
# Indices 1 2 3 4 5 6 
#
# 1 109.3218 79.5330 38.9837 0.0000 0.0000 0.0000
# 2 79.5330 136.1252 37.8389 0.0000 0.0000 0.0000
# 3 38.9837 37.8389 41.2652 0.0000 0.0000 0.0000
# 4 0.0000 0.0000 0.0000 24.9020 0.0000 0.0000
# 5 0.0000 0.0000 0.0000 0.0000 21.5543 0.0000
# 6 0.0000 0.0000 0.0000 0.0000 0.0000 6.8368
#
#
#
# Elastic Compliance Matrix: (Units=1/GPa)
#
#
# Indices 1 2 3 4 5 6 
#
# 1 0.018660 -0.008055 -0.010242 0.000000 0.000000 0.000000
# 2 -0.008055 0.013337 -0.004619 0.000000 0.000000 0.000000
# 3 -0.010242 -0.004619 0.038145 0.000000 0.000000 0.000000
# 4 0.000000 0.000000 0.000000 0.040157 0.000000 0.000000
# 5 0.000000 0.000000 0.000000 0.000000 0.046394 0.000000
# 6 0.000000 0.000000 0.000000 0.000000 0.000000 0.146268
#
#
# Mechanical properties :
#
#
# Convention : Reuss Voigt Hill
#
# Bulk Modulus (GPa) = 41.13785 66.60262 53.87024
# Shear Modulus (GPa) = 14.00966 19.34905 16.67936
#
# Velocity S-wave (km/s) = 3.00372 3.53001 3.27744
# Velocity P-wave (km/s) = 6.20668 7.71409 7.00107
#
# Compressibility (1/GPa) = 0.02430851
#
# Stress axis : x y z
#
# Youngs Moduli (GPa) = 53.59116 74.98119 26.21604
#
# Poissons Ratio (x) = 0.60400 0.26849
# Poissons Ratio (y) = 0.43170 0.12110
# Poissons Ratio (z) = 0.54886 0.34636
#
# Static dielectric constant tensor:
#      x y z
#    x 1.528300 0.000000 0.000000 
#    y 0.000000 1.498780 0.000000 
#    z 0.000000 0.000000 1.530020 
# 
# From -- ./inp_files/7055.got.cif
#   From: 2010.05.17/outbox.cif.g08.bks.cpg/sg49_4_cif.got.tgz:7055.got - 2010.06.03 21:02:19.
