data_PCOD9392089
_publ_section_title
;
Structure prediction by ZEFSAII (Michael W. Deem and Ramdas Pophale) SiO2 
 PCOD9392089
Probable space group: P C C M
;
_chemical_formula_sum "Si O2"
_cell_formula_units_Z 48
_cell_length_a 13.859358
_cell_length_b 24.679091
_cell_length_c 8.712582
_cell_angle_alpha 90.000000
_cell_angle_beta 90.000000
_cell_angle_gamma 90.000000
_cell_volume 2980.019810
_symmetry_space_group_name_H-M "P C C M"
_symmetry_group_IT_number 49
_symmetry_cell_setting 'orthorhombic'
loop_
_space_group_symop_operation_xyz
x,y,z
-x,-y,z
x,-y,1/2-z
-x,y,1/2-z
-x,-y,-z
x,y,-z
-x,y,1/2+z
x,-y,1/2+z
loop_
_atom_site_type_symbol
_atom_site_label
_atom_site_fract_x
_atom_site_fract_y
_atom_site_fract_z
Si Si1 0.795820 0.281381 0.816319
Si Si2 0.890586 0.055416 0.316481
Si Si3 0.103447 0.613882 0.315865
Si Si4 0.603934 0.330075 0.684347
Si Si5 0.892037 0.167126 0.183911
Si Si6 0.699181 0.557808 0.184073
O O1 0.866483 0.326715 0.744974
O O2 0.690220 0.293556 0.749658
O O3 0.832488 0.221181 0.780560
O O4 0.795363 0.288072 0.000000
O O5 0.893556 0.053503 0.500000
O O6 0.848854 0.112315 0.257259
O O7 0.000000 0.056449 0.250000
O O8 0.845981 0.000000 0.250000
O O9 0.099782 0.615330 0.500000
O O10 0.191655 0.574539 0.269057
O O11 0.000000 0.597900 0.250000
O O12 0.500000 0.315637 0.750000
O O13 0.604437 0.327381 0.500000
O O14 0.631737 0.391882 0.730653
O O15 0.000000 0.174299 0.250000
O O16 0.898036 0.160464 0.000000
O O17 0.671254 0.500000 0.250000
O O18 0.697601 0.555032 0.000000
#
# Coordination Sequence:
#
# PCOD9392089 Si02
#       6
#     8   8   8   8   8   8
#     4  10  20  33  50  71  95 123 155 194 236 279
#     4  10  17  26  40  58  86 124 164 201 235 269
#     4  10  20  33  48  68  94 125 159 192 230 274
#     4  10  21  37  55  74  95 119 149 186 233 285
#     4  10  19  29  43  66  95 127 163 197 231 272
#     4   9  20  35  50  70  94 120 151 189 228 273
#
# _framework density 16.107275999999999
#
# number of rings (size 3 to 8) (size 9 to 14) (size 15 to 20)
#    0.000    2.167    0.000    6.500    0.000    8.667 
#    0.000    3.333    0.000    0.000    0.000    0.000 
#    0.000    0.667    0.000    7.000    0.000    3.000 
#
# Total GULP energy -267787.815217 kJ/mol
# GULP energy per Si atom -5578.912817 kJ/mol
# Density = 1.607061 g / cm^3
# Si number density = 16.107276 Si / 1000 Ang^3
#
#
#
# Elastic Constant Matrix: (Units=GPa)
#
#
# Indices 1 2 3 4 5 6 
#
# 1 57.2793 15.1088 15.8712 0.0000 0.0000 0.0000
# 2 15.1088 105.6974 39.0092 0.0000 0.0000 0.0000
# 3 15.8712 39.0092 67.4040 0.0000 0.0000 0.0000
# 4 0.0000 0.0000 0.0000 29.0778 0.0000 0.0000
# 5 0.0000 0.0000 0.0000 0.0000 -59.5651 0.0000
# 6 0.0000 0.0000 0.0000 0.0000 0.0000 7.9961
#
#
#
# Elastic Compliance Matrix: (Units=1/GPa)
#
#
# Indices 1 2 3 4 5 6 
#
# 1 0.018825 -0.001342 -0.003656 0.000000 0.000000 0.000000
# 2 -0.001342 0.012126 -0.006702 0.000000 0.000000 0.000000
# 3 -0.003656 -0.006702 0.019576 0.000000 0.000000 0.000000
# 4 0.000000 0.000000 0.000000 0.034391 0.000000 0.000000
# 5 0.000000 0.000000 0.000000 0.000000 -0.016788 0.000000
# 6 0.000000 0.000000 0.000000 0.000000 0.000000 0.125061
#
#
# Mechanical properties :
#
#
# Convention : Reuss Voigt Hill
#
# Bulk Modulus (GPa) = 36.86313 41.15100 39.00707
# Shear Modulus (GPa) = 22.15990 6.19452 14.17721
#
# Velocity S-wave (km/s) = 3.71316 1.96320 2.96999
# Velocity P-wave (km/s) = 6.42799 5.54458 6.00256
#
# Compressibility (1/GPa) = 0.02712738
#
# Stress axis : x y z
#
# Youngs Moduli (GPa) = 53.12012 82.46596 51.08415
#
# Poissons Ratio (x) = 0.11063 0.18678
# Poissons Ratio (y) = 0.07126 0.34237
# Poissons Ratio (z) = 0.19422 0.55269
#
# Static dielectric constant tensor:
#      x y z
#    x 1.516410 0.000000 0.000000 
#    y 0.000000 1.565510 0.000000 
#    z 0.000000 0.000000 1.538910 
# 
# From -- ./inp_files/4147.got.cif
#   From: 2010.05.17/outbox.cif.g08.bks.cpg/sg49_3_cif.got.tgz:4147.got - 2010.06.03 21:02:19.
