data_PCOD9392850
_publ_section_title
;
Structure prediction by ZEFSAII (Michael W. Deem and Ramdas Pophale) SiO2 
 PCOD9392850
Probable space group: P C C M
;
_chemical_formula_sum "Si O2"
_cell_formula_units_Z 58
_cell_length_a 27.268645
_cell_length_b 12.773783
_cell_length_c 9.644143
_cell_angle_alpha 90.000000
_cell_angle_beta 90.000000
_cell_angle_gamma 90.000000
_cell_volume 3359.284093
_symmetry_space_group_name_H-M "P C C M"
_symmetry_group_IT_number 49
_symmetry_cell_setting 'orthorhombic'
loop_
_space_group_symop_operation_xyz
x,y,z
-x,-y,z
x,-y,1/2-z
-x,y,1/2-z
-x,-y,-z
x,y,-z
-x,y,1/2+z
x,-y,1/2+z
loop_
_atom_site_type_symbol
_atom_site_label
_atom_site_fract_x
_atom_site_fract_y
_atom_site_fract_z
Si Si1 0.426845 0.894991 0.338533
Si Si2 0.308513 0.897018 0.661600
Si Si3 0.746667 0.722935 0.664431
Si Si4 0.044987 0.611158 0.167303
Si Si5 0.500000 0.500000 0.250000
Si Si6 0.441681 0.702500 0.847091
Si Si7 0.154775 0.607212 0.163811
Si Si8 0.655444 0.412042 0.848806
O O1 0.440449 0.907418 0.500000
O O2 0.367504 0.880631 0.332586
O O3 0.449100 0.789681 0.270533
O O4 0.438457 0.000000 0.250000
O O5 0.295753 0.907764 0.500000
O O6 0.276573 0.808352 0.735413
O O7 0.298763 0.000000 0.750000
O O8 0.743532 0.752393 0.500000
O O9 0.801562 0.686909 0.697282
O O10 0.709826 0.625377 0.682822
O O11 0.048590 0.500000 0.250000
O O12 0.100124 0.654208 0.183700
O O13 0.000000 0.665234 0.250000
O O14 0.035679 0.600638 0.000000
O O15 0.533552 0.412793 0.171316
O O16 0.383178 0.681666 0.846964
O O17 0.455430 0.742369 0.000000
O O18 0.159706 0.500000 0.250000
O O19 0.159045 0.581408 0.000000
O O20 0.636917 0.500000 0.750000
O O21 0.655593 0.459640 0.000000
#
# Coordination Sequence:
#
# PCOD9392850 Si02
#       8
#     8   8   8   8   2   8   8   8
#     4  10  21  38  63  90 115 141 174 217 264 316
#     4  10  20  33  52  78 104 133 166 204 249 301
#     4  10  19  32  48  70 101 135 167 207 254 300
#     4   9  15  24  38  57  82 119 166 212 255 298
#     4  12  26  44  62  86 118 148 180 224 264 304
#     4  11  23  40  61  85 112 144 180 218 262 311
#     4   9  18  29  42  63  95 132 170 211 255 299
#     4  10  20  33  51  74 102 137 174 210 247 298
#
# _framework density 17.265584
#
# number of rings (size 3 to 8) (size 9 to 14) (size 15 to 20)
#    0.000    2.069    2.069    2.276    0.000    4.414 
#    0.000    0.345    0.000    1.655    0.000    0.000 
#    0.000    0.552    0.000    6.345    0.000    1.931 
#
# Total GULP energy -322941.925890 kJ/mol
# GULP energy per Si atom -5567.964239 kJ/mol
# Density = 1.722629 g / cm^3
# Si number density = 17.265584 Si / 1000 Ang^3
#
#
#
# Elastic Constant Matrix: (Units=GPa)
#
#
# Indices 1 2 3 4 5 6 
#
# 1 109.3895 19.5109 41.7256 0.0000 0.0000 0.0000
# 2 19.5109 73.2988 69.3514 0.0000 0.0000 0.0000
# 3 41.7256 69.3514 116.3169 0.0000 0.0000 0.0000
# 4 0.0000 0.0000 0.0000 27.2961 0.0000 0.0000
# 5 0.0000 0.0000 0.0000 0.0000 13.8129 0.0000
# 6 0.0000 0.0000 0.0000 0.0000 0.0000 12.0534
#
#
#
# Elastic Compliance Matrix: (Units=1/GPa)
#
#
# Indices 1 2 3 4 5 6 
#
# 1 0.010693 0.001796 -0.004907 0.000000 0.000000 0.000000
# 2 0.001796 0.031601 -0.019486 0.000000 0.000000 0.000000
# 3 -0.004907 -0.019486 0.021975 0.000000 0.000000 0.000000
# 4 0.000000 0.000000 0.000000 0.036635 0.000000 0.000000
# 5 0.000000 0.000000 0.000000 0.000000 0.072396 0.000000
# 6 0.000000 0.000000 0.000000 0.000000 0.000000 0.082964
#
#
# Mechanical properties :
#
#
# Convention : Reuss Voigt Hill
#
# Bulk Modulus (GPa) = 52.41998 62.24235 57.33116
# Shear Modulus (GPa) = 16.24343 21.86029 19.05186
#
# Velocity S-wave (km/s) = 3.07057 3.56212 3.32544
# Velocity P-wave (km/s) = 6.55729 7.28330 6.92981
#
# Compressibility (1/GPa) = 0.01907670
#
# Stress axis : x y z
#
# Youngs Moduli (GPa) = 93.51996 31.64442 45.50540
#
# Poissons Ratio (x) = -0.05684 0.22328
# Poissons Ratio (y) = -0.16799 0.88671
# Poissons Ratio (z) = 0.45888 0.61662
#
# Static dielectric constant tensor:
#      x y z
#    x 1.634730 0.000000 0.000000 
#    y 0.000000 1.570770 0.000000 
#    z 0.000000 0.000000 1.600030 
# 
# From -- ./inp_files/6977.got.cif
#   From: 2010.05.17/outbox.cif.g08.bks.cpg/sg49_4_cif.got.tgz:6977.got - 2010.06.03 21:02:19.
