data_PCOD9392161
_publ_section_title
;
Structure prediction by ZEFSAII (Michael W. Deem and Ramdas Pophale) SiO2 
 PCOD9392161
Probable space group: P C C M
;
_chemical_formula_sum "Si O2"
_cell_formula_units_Z 48
_cell_length_a 9.284649
_cell_length_b 31.996253
_cell_length_c 8.594943
_cell_angle_alpha 90.000000
_cell_angle_beta 90.000000
_cell_angle_gamma 90.000000
_cell_volume 2553.333911
_symmetry_space_group_name_H-M "P C C M"
_symmetry_group_IT_number 49
_symmetry_cell_setting 'orthorhombic'
loop_
_space_group_symop_operation_xyz
x,y,z
-x,-y,z
x,-y,1/2-z
-x,y,1/2-z
-x,-y,-z
x,y,-z
-x,y,1/2+z
x,-y,1/2+z
loop_
_atom_site_type_symbol
_atom_site_label
_atom_site_fract_x
_atom_site_fract_y
_atom_site_fract_z
Si Si1 0.161122 0.545500 0.813902
Si Si2 0.838472 0.705603 0.187743
Si Si3 0.164362 0.043040 0.314309
Si Si4 0.162941 0.869605 0.687070
Si Si5 0.338587 0.787168 0.687773
Si Si6 0.338873 0.623183 0.687207
O O1 0.205212 0.500000 0.750000
O O2 0.265196 0.581716 0.754398
O O3 0.000000 0.553579 0.750000
O O4 0.157109 0.544492 0.000000
O O5 0.751475 0.746657 0.240416
O O6 0.754539 0.663626 0.234778
O O7 0.000000 0.705784 0.250000
O O8 0.843348 0.706317 0.000000
O O9 0.161352 0.042140 0.500000
O O10 0.225520 0.086903 0.253468
O O11 0.000000 0.043532 0.250000
O O12 0.230994 0.000000 0.250000
O O13 0.156919 0.872309 0.500000
O O14 0.256955 0.829663 0.734005
O O15 0.000000 0.864510 0.750000
O O16 0.500000 0.785891 0.750000
O O17 0.342849 0.786382 0.500000
O O18 0.500000 0.627453 0.750000
O O19 0.340515 0.621003 0.500000
#
# Coordination Sequence:
#
# PCOD9392161 Si02
#       6
#     8   8   8   8   8   8
#     4  11  22  39  62  88 118 153 195 240 287 337
#     4  10  22  39  60  86 114 146 186 230 276 329
#     4  10  17  27  45  71 103 137 174 218 269 318
#     4  10  19  32  51  77 107 139 179 223 268 320
#     4  10  22  38  56  80 110 144 182 224 271 325
#     4  11  23  39  59  86 119 154 193 235 284 338
#
# _framework density 18.798950999999999
#
# number of rings (size 3 to 8) (size 9 to 14) (size 15 to 20)
#    0.000    1.667    0.000    7.500    0.000    5.000 
#    0.000    1.667    0.000    0.500    0.000    3.500 
#    0.000    0.000    0.000    0.000    0.000    0.000 
#
# Total GULP energy -268190.984311 kJ/mol
# GULP energy per Si atom -5587.312173 kJ/mol
# Density = 1.875616 g / cm^3
# Si number density = 18.798951 Si / 1000 Ang^3
#
#
#
# Elastic Constant Matrix: (Units=GPa)
#
#
# Indices 1 2 3 4 5 6 
#
# 1 130.0035 115.0630 39.7607 0.0000 0.0000 0.0000
# 2 115.0630 203.8561 61.9841 0.0000 0.0000 0.0000
# 3 39.7607 61.9841 94.5990 0.0000 0.0000 0.0000
# 4 0.0000 0.0000 0.0000 26.7051 0.0000 0.0000
# 5 0.0000 0.0000 0.0000 0.0000 30.7885 0.0000
# 6 0.0000 0.0000 0.0000 0.0000 0.0000 -15.7608
#
#
#
# Elastic Compliance Matrix: (Units=1/GPa)
#
#
# Indices 1 2 3 4 5 6 
#
# 1 0.015442 -0.008420 -0.000973 0.000000 0.000000 0.000000
# 2 -0.008420 0.010717 -0.003483 0.000000 0.000000 0.000000
# 3 -0.000973 -0.003483 0.013262 0.000000 0.000000 0.000000
# 4 0.000000 0.000000 0.000000 0.037446 0.000000 0.000000
# 5 0.000000 0.000000 0.000000 0.000000 0.032480 0.000000
# 6 0.000000 0.000000 0.000000 0.000000 0.000000 -0.063448
#
#
# Mechanical properties :
#
#
# Convention : Reuss Voigt Hill
#
# Bulk Modulus (GPa) = 73.16146 95.78600 84.47373
# Shear Modulus (GPa) = 65.60951 22.45660 44.03305
#
# Velocity S-wave (km/s) = 5.91408 3.46000 4.84500
# Velocity P-wave (km/s) = 9.25405 8.18692 8.73679
#
# Compressibility (1/GPa) = 0.01366840
#
# Stress axis : x y z
#
# Youngs Moduli (GPa) = 64.75716 93.30870 75.40178
#
# Poissons Ratio (x) = 0.78568 0.07339
# Poissons Ratio (y) = 0.54527 0.26263
# Poissons Ratio (z) = 0.06303 0.32500
#
# Static dielectric constant tensor:
#      x y z
#    x 1.608340 0.000000 0.000000 
#    y 0.000000 1.673770 0.000000 
#    z 0.000000 0.000000 1.637320 
# 
# From -- ./inp_files/2068.got.cif
#   From: 2010.05.17/outbox.cif.g08.bks.cpg/sg49_2_cif.got.tgz:2068.got - 2010.06.03 21:02:19.
