data_PCOD9392348
_publ_section_title
;
Structure prediction by ZEFSAII (Michael W. Deem and Ramdas Pophale) SiO2 
 PCOD9392348
Probable space group: P C C M
;
_chemical_formula_sum "Si O2"
_cell_formula_units_Z 64
_cell_length_a 15.260061
_cell_length_b 29.228991
_cell_length_c 8.510971
_cell_angle_alpha 90.000000
_cell_angle_beta 90.000000
_cell_angle_gamma 90.000000
_cell_volume 3796.201041
_symmetry_space_group_name_H-M "P C C M"
_symmetry_group_IT_number 49
_symmetry_cell_setting 'orthorhombic'
loop_
_space_group_symop_operation_xyz
x,y,z
-x,-y,z
x,-y,1/2-z
-x,y,1/2-z
-x,-y,-z
x,y,-z
-x,y,1/2+z
x,-y,1/2+z
loop_
_atom_site_type_symbol
_atom_site_label
_atom_site_fract_x
_atom_site_fract_y
_atom_site_fract_z
Si Si1 0.900201 0.046921 0.687600
Si Si2 0.278167 0.548291 0.810694
Si Si3 0.905939 0.583837 0.312042
Si Si4 0.596405 0.732927 0.811654
Si Si5 0.099667 0.851788 0.690120
Si Si6 0.094431 0.313058 0.188772
Si Si7 0.221292 0.768558 0.691425
Si Si8 0.596494 0.630784 0.689026
O O1 0.901605 0.044431 0.500000
O O2 0.866864 0.097264 0.734857
O O3 0.000000 0.047067 0.750000
O O4 0.857944 0.000000 0.750000
O O5 0.312693 0.500000 0.750000
O O6 0.178069 0.555601 0.756223
O O7 0.335033 0.592025 0.760609
O O8 0.278693 0.547662 0.000000
O O9 0.908347 0.583315 0.500000
O O10 0.892961 0.636296 0.257159
O O11 0.000000 0.567881 0.250000
O O12 0.500000 0.745512 0.750000
O O13 0.677751 0.764257 0.758412
O O14 0.615956 0.681101 0.755822
O O15 0.593295 0.732871 0.000000
O O16 0.095792 0.850174 0.500000
O O17 0.165229 0.812161 0.745391
O O18 0.000000 0.845430 0.750000
O O19 0.169112 0.277437 0.236822
O O20 0.000000 0.296311 0.250000
O O21 0.092040 0.315997 0.000000
O O22 0.221327 0.769822 0.500000
O O23 0.500000 0.618273 0.750000
O O24 0.595894 0.633479 0.500000
#
# Coordination Sequence:
#
# PCOD9392348 Si02
#       8
#     8   8   8   8   8   8   8   8
#     4   9  15  23  38  56  80 115 156 195 230 263
#     4  10  23  38  53  72  95 119 145 178 218 261
#     4  10  20  35  51  69  91 118 150 184 217 254
#     4  10  19  33  52  72  92 118 149 184 220 262
#     4   9  17  29  42  61  90 125 159 192 227 268
#     4  10  18  29  46  68  91 119 150 181 214 255
#     4   9  18  30  45  65  92 122 152 182 222 270
#     4  10  20  36  55  76  97 118 144 177 216 263
#
# _framework density 16.858961000000001
#
# number of rings (size 3 to 8) (size 9 to 14) (size 15 to 20)
#    0.000    2.375    0.000    4.875    0.000    3.000 
#    0.000    6.250    0.000    0.000    0.000    0.000 
#    0.000    0.500    0.000    6.250    0.000    0.000 
#
# Total GULP energy -356894.197605 kJ/mol
# GULP energy per Si atom -5576.471838 kJ/mol
# Density = 1.682059 g / cm^3
# Si number density = 16.858961 Si / 1000 Ang^3
#
#
#
# Elastic Constant Matrix: (Units=GPa)
#
#
# Indices 1 2 3 4 5 6 
#
# 1 97.4623 59.7394 15.7661 0.0000 0.0000 0.0000
# 2 59.7394 70.9366 10.8597 0.0000 0.0000 0.0000
# 3 15.7661 10.8597 31.4220 0.0000 0.0000 0.0000
# 4 0.0000 0.0000 0.0000 23.4272 0.0000 0.0000
# 5 0.0000 0.0000 0.0000 0.0000 8.0797 0.0000
# 6 0.0000 0.0000 0.0000 0.0000 0.0000 18.2407
#
#
#
# Elastic Compliance Matrix: (Units=1/GPa)
#
#
# Indices 1 2 3 4 5 6 
#
# 1 0.021892 -0.017690 -0.004870 0.000000 0.000000 0.000000
# 2 -0.017690 0.029180 -0.001209 0.000000 0.000000 0.000000
# 3 -0.004870 -0.001209 0.034686 0.000000 0.000000 0.000000
# 4 0.000000 0.000000 0.000000 0.042685 0.000000 0.000000
# 5 0.000000 0.000000 0.000000 0.000000 0.123767 0.000000
# 6 0.000000 0.000000 0.000000 0.000000 0.000000 0.054823
#
#
# Mechanical properties :
#
#
# Convention : Reuss Voigt Hill
#
# Bulk Modulus (GPa) = 26.16480 41.39457 33.77969
# Shear Modulus (GPa) = 13.61243 17.51322 15.56283
#
# Velocity S-wave (km/s) = 2.84461 3.22655 3.04158
# Velocity P-wave (km/s) = 5.13251 6.20384 5.69343
#
# Compressibility (1/GPa) = 0.03821928
#
# Stress axis : x y z
#
# Youngs Moduli (GPa) = 45.67981 34.26990 28.82996
#
# Poissons Ratio (x) = 0.60625 0.14041
# Poissons Ratio (y) = 0.80809 0.03485
# Poissons Ratio (z) = 0.22247 0.04142
#
# Static dielectric constant tensor:
#      x y z
#    x 1.603150 0.000000 0.000000 
#    y 0.000000 1.588970 0.000000 
#    z 0.000000 0.000000 1.575050 
# 
# From -- ./inp_files/4525.got.cif
#   From: 2010.05.17/outbox.cif.g08.bks.cpg/sg49_3_cif.got.tgz:4525.got - 2010.06.03 21:02:19.
