data_PCOD9392896
_publ_section_title
;
Structure prediction by ZEFSAII (Michael W. Deem and Ramdas Pophale) SiO2 
 PCOD9392896
Probable space group: P C C M
;
_chemical_formula_sum "Si O2"
_cell_formula_units_Z 58
_cell_length_a 23.848498
_cell_length_b 15.184740
_cell_length_c 8.205379
_cell_angle_alpha 90.000000
_cell_angle_beta 90.000000
_cell_angle_gamma 90.000000
_cell_volume 2971.440495
_symmetry_space_group_name_H-M "P C C M"
_symmetry_group_IT_number 49
_symmetry_cell_setting 'orthorhombic'
loop_
_space_group_symop_operation_xyz
x,y,z
-x,-y,z
x,-y,1/2-z
-x,y,1/2-z
-x,-y,-z
x,y,-z
-x,y,1/2+z
x,-y,1/2+z
loop_
_atom_site_type_symbol
_atom_site_label
_atom_site_fract_x
_atom_site_fract_y
_atom_site_fract_z
Si Si1 0.160519 0.277370 0.302458
Si Si2 0.340263 0.900795 0.197353
Si Si3 0.264865 0.599224 0.195079
Si Si4 0.787598 0.098335 0.803612
Si Si5 0.561002 0.776503 0.307929
Si Si6 0.609388 0.400542 0.308498
Si Si7 0.922597 0.581962 0.200331
Si Si8 0.000000 0.500000 0.500000
O O1 0.154148 0.281542 0.500000
O O2 0.216015 0.333345 0.258510
O O3 0.171611 0.177052 0.251437
O O4 0.108060 0.326510 0.221629
O O5 0.276340 0.882924 0.253327
O O6 0.386995 0.833332 0.260485
O O7 0.354178 0.000000 0.250000
O O8 0.339109 0.896570 0.000000
O O9 0.252178 0.500000 0.250000
O O10 0.325891 0.621420 0.265909
O O11 0.269942 0.601312 0.000000
O O12 0.802987 0.000000 0.750000
O O13 0.786685 0.100189 0.000000
O O14 0.500000 0.805462 0.250000
O O15 0.562473 0.787805 0.500000
O O16 0.571243 0.674323 0.269252
O O17 0.598659 0.500000 0.250000
O O18 0.601682 0.397829 0.500000
O O19 0.881449 0.500000 0.250000
O O20 0.940157 0.574153 0.000000
O O21 0.964483 0.437583 0.147030
#
# Coordination Sequence:
#
# PCOD9392896 Si02
#       8
#     8   8   8   8   8   8   8   2
#     4  10  20  33  51  79 114 150 190 233 279 330
#     4   9  19  36  58  80 106 141 178 221 277 344
#     4  10  19  32  50  74 108 144 178 220 274 333
#     4   9  18  34  54  78 110 146 184 227 280 338
#     4  11  23  39  56  77 104 135 177 232 288 337
#     4  11  22  37  56  77 101 136 180 223 278 344
#     4  10  20  34  53  77 111 151 192 231 274 316
#     4   8  22  36  54  76 114 154 194 236 270 312
#
# _framework density 19.519152999999999
#
# number of rings (size 3 to 8) (size 9 to 14) (size 15 to 20)
#    0.414    1.655    0.000    4.759    0.000    6.621 
#    0.000    5.517    0.000    0.000    0.000    0.000 
#    0.000    3.310    0.000    0.000    0.000    0.000 
#
# Total GULP energy -322925.330896 kJ/mol
# GULP energy per Si atom -5567.678119 kJ/mol
# Density = 1.947473 g / cm^3
# Si number density = 19.519153 Si / 1000 Ang^3
#
#
#
# Elastic Constant Matrix: (Units=GPa)
#
#
# Indices 1 2 3 4 5 6 
#
# 1 76.0931 73.5613 32.5940 0.0000 0.0000 0.0000
# 2 73.5613 130.7035 33.5846 0.0000 0.0000 0.0000
# 3 32.5940 33.5846 47.6905 0.0000 0.0000 0.0000
# 4 0.0000 0.0000 0.0000 21.1575 0.0000 0.0000
# 5 0.0000 0.0000 0.0000 0.0000 2.8850 0.0000
# 6 0.0000 0.0000 0.0000 0.0000 0.0000 28.9318
#
#
#
# Elastic Compliance Matrix: (Units=1/GPa)
#
#
# Indices 1 2 3 4 5 6 
#
# 1 0.033453 -0.015815 -0.011727 0.000000 0.000000 0.000000
# 2 -0.015815 0.016817 -0.001035 0.000000 0.000000 0.000000
# 3 -0.011727 -0.001035 0.029712 0.000000 0.000000 0.000000
# 4 0.000000 0.000000 0.000000 0.047265 0.000000 0.000000
# 5 0.000000 0.000000 0.000000 0.000000 0.346625 0.000000
# 6 0.000000 0.000000 0.000000 0.000000 0.000000 0.034564
#
#
# Mechanical properties :
#
#
# Convention : Reuss Voigt Hill
#
# Bulk Modulus (GPa) = 43.80095 59.32964 51.56529
# Shear Modulus (GPa) = 8.72299 18.24467 13.48383
#
# Velocity S-wave (km/s) = 2.11628 3.06061 2.63116
# Velocity P-wave (km/s) = 5.33481 6.55373 5.97543
#
# Compressibility (1/GPa) = 0.02283056
#
# Stress axis : x y z
#
# Youngs Moduli (GPa) = 29.89244 59.46212 33.65684
#
# Poissons Ratio (x) = 0.94037 0.39468
# Poissons Ratio (y) = 0.47274 0.03482
# Poissons Ratio (z) = 0.35054 0.06152
#
# Static dielectric constant tensor:
#      x y z
#    x 1.786920 0.000000 0.000000 
#    y 0.000000 1.708810 0.000000 
#    z 0.000000 0.000000 1.718790 
# 
# From -- ./inp_files/6457.got.cif
#   From: 2010.05.17/outbox.cif.g08.bks.cpg/sg49_4_cif.got.tgz:6457.got - 2010.06.03 21:02:19.
