data_PCOD9392874
_publ_section_title
;
Structure prediction by ZEFSAII (Michael W. Deem and Ramdas Pophale) SiO2 
 PCOD9392874
Probable space group: P C C M
;
_chemical_formula_sum "Si O2"
_cell_formula_units_Z 48
_cell_length_a 12.408117
_cell_length_b 18.049607
_cell_length_c 9.701545
_cell_angle_alpha 90.000000
_cell_angle_beta 90.000000
_cell_angle_gamma 90.000000
_cell_volume 2172.773885
_symmetry_space_group_name_H-M "P C C M"
_symmetry_group_IT_number 49
_symmetry_cell_setting 'orthorhombic'
loop_
_space_group_symop_operation_xyz
x,y,z
-x,-y,z
x,-y,1/2-z
-x,y,1/2-z
-x,-y,-z
x,y,-z
-x,y,1/2+z
x,-y,1/2+z
loop_
_atom_site_type_symbol
_atom_site_label
_atom_site_fract_x
_atom_site_fract_y
_atom_site_fract_z
Si Si1 0.102341 0.575957 0.000000
Si Si2 0.339510 0.733339 0.842212
Si Si3 0.129517 0.600408 0.500000
Si Si4 0.093246 0.215990 0.338769
Si Si5 0.161512 0.927306 0.336691
Si Si6 0.271401 0.413424 0.259586
Si Si7 0.403933 0.872470 0.660878
O O1 0.176287 0.589614 0.870114
O O2 0.099378 0.486591 0.000000
O O3 0.994728 0.626239 0.000000
O O4 0.209905 0.745514 0.840631
O O5 0.358535 0.647923 0.801370
O O6 0.383587 0.792704 0.733719
O O7 0.375117 0.747262 0.000000
O O8 0.208257 0.613857 0.374357
O O9 0.064456 0.202043 0.500000
O O10 0.113909 0.142006 0.247485
O O11 0.000000 0.255990 0.250000
O O12 0.131542 0.929810 0.500000
O O13 0.291136 0.915882 0.331238
O O14 0.132596 0.000000 0.250000
O O15 0.306595 0.500000 0.250000
O O16 0.500000 0.907345 0.750000
O O17 0.432031 0.865673 0.500000
#
# Coordination Sequence:
#
# PCOD9392874 Si02
#       7
#     4   8   4   8   8   8   8
#     4   9  16  30  42  64  99 137 182 225 281 329
#     4  10  21  38  56  79 112 149 192 238 287 342
#     4   9  18  26  44  66  97 137 180 233 273 333
#     4  10  21  37  56  80 114 157 201 241 280 326
#     4  10  21  38  61  90 122 153 188 229 272 325
#     4  10  19  32  49  73 104 144 188 237 294 341
#     4  10  22  40  64  90 116 146 181 225 281 342
#
# _framework density 22.091577000000001
#
# number of rings (size 3 to 8) (size 9 to 14) (size 15 to 20)
#    0.000    2.167    0.833    2.000    1.167    6.667 
#    0.000    3.333    0.000    0.500    0.000    2.333 
#    0.000    0.000    0.000    0.000    0.000    0.000 
#
# Total GULP energy -267737.851107 kJ/mol
# GULP energy per Si atom -5577.871898 kJ/mol
# Density = 2.204130 g / cm^3
# Si number density = 22.091577 Si / 1000 Ang^3
#
#
#
# Elastic Constant Matrix: (Units=GPa)
#
#
# Indices 1 2 3 4 5 6 
#
# 1 61.4781 -6.5974 20.9745 0.0000 0.0000 0.0000
# 2 -6.5974 98.2418 28.2147 0.0000 0.0000 0.0000
# 3 20.9745 28.2147 199.8695 0.0000 0.0000 0.0000
# 4 0.0000 0.0000 0.0000 31.4878 0.0000 0.0000
# 5 0.0000 0.0000 0.0000 0.0000 31.4813 0.0000
# 6 0.0000 0.0000 0.0000 0.0000 0.0000 -0.6922
#
#
#
# Elastic Compliance Matrix: (Units=1/GPa)
#
#
# Indices 1 2 3 4 5 6 
#
# 1 0.017150 0.001739 -0.002045 0.000000 0.000000 0.000000
# 2 0.001739 0.010785 -0.001705 0.000000 0.000000 0.000000
# 3 -0.002045 -0.001705 0.005459 0.000000 0.000000 0.000000
# 4 0.000000 0.000000 0.000000 0.031758 0.000000 0.000000
# 5 0.000000 0.000000 0.000000 0.000000 0.031765 0.000000
# 6 0.000000 0.000000 0.000000 0.000000 0.000000 -1.444694
#
#
# Mechanical properties :
#
#
# Convention : Reuss Voigt Hill
#
# Bulk Modulus (GPa) = 34.04603 49.41924 41.73263
# Shear Modulus (GPa) = -3.74823 33.58856 14.92016
#
# Velocity S-wave (km/s) = -1.30398 3.90349 2.60162
# Velocity P-wave (km/s) = 3.63010 6.53721 5.28738
#
# Compressibility (1/GPa) = 0.02937200
#
# Stress axis : x y z
#
# Youngs Moduli (GPa) = 58.30775 92.71766 183.19741
#
# Poissons Ratio (x) = -0.16125 0.37469
# Poissons Ratio (y) = -0.10140 0.31236
# Poissons Ratio (z) = 0.11926 0.15809
#
# Static dielectric constant tensor:
#      x y z
#    x 1.909350 0.000000 0.000000 
#    y 0.000000 1.900330 0.000000 
#    z 0.000000 0.000000 1.513130 
# 
# From -- ./inp_files/3767.got.cif
#   From: 2010.05.17/outbox.cif.g08.bks.cpg/sg49_2_cif.got.tgz:3767.got - 2010.06.03 21:02:19.
