data_PCOD9392190
_publ_section_title
;
Structure prediction by ZEFSAII (Michael W. Deem and Ramdas Pophale) SiO2 
 PCOD9392190
Probable space group: P C C M
;
_chemical_formula_sum "Si O2"
_cell_formula_units_Z 40
_cell_length_a 14.712265
_cell_length_b 16.027022
_cell_length_c 8.534353
_cell_angle_alpha 90.000000
_cell_angle_beta 90.000000
_cell_angle_gamma 90.000000
_cell_volume 2012.347480
_symmetry_space_group_name_H-M "P C C M"
_symmetry_group_IT_number 49
_symmetry_cell_setting 'orthorhombic'
loop_
_space_group_symop_operation_xyz
x,y,z
-x,-y,z
x,-y,1/2-z
-x,y,1/2-z
-x,-y,-z
x,y,-z
-x,y,1/2+z
x,-y,1/2+z
loop_
_atom_site_type_symbol
_atom_site_label
_atom_site_fract_x
_atom_site_fract_y
_atom_site_fract_z
Si Si1 0.285622 0.239044 0.813407
Si Si2 0.397550 0.913449 0.188179
Si Si3 0.603185 0.406242 0.310587
Si Si4 0.103086 0.417429 0.813325
Si Si5 0.101266 0.238494 0.685017
O O1 0.357441 0.169942 0.762535
O O2 0.328486 0.330165 0.763430
O O3 0.192103 0.196369 0.747014
O O4 0.273847 0.245911 0.000000
O O5 0.500000 0.915628 0.250000
O O6 0.353638 0.000000 0.250000
O O7 0.393799 0.910909 0.000000
O O8 0.627217 0.500000 0.250000
O O9 0.500000 0.389238 0.250000
O O10 0.602291 0.408910 0.500000
O O11 0.150655 0.500000 0.750000
O O12 0.131562 0.330980 0.741067
O O13 0.000000 0.421040 0.750000
O O14 0.104491 0.415440 0.000000
O O15 0.094388 0.234888 0.500000
O O16 0.000000 0.220271 0.750000
#
# Coordination Sequence:
#
# PCOD9392190 Si02
#       5
#     8   8   8   8   8
#     4  11  23  39  59  87 119 156 200 247 295 352
#     4  11  22  39  64  95 127 159 191 235 292 353
#     4  10  21  36  57  82 116 156 197 242 290 345
#     4  10  17  28  45  66  93 129 175 230 286 340
#     4  11  22  37  55  77 107 147 192 242 295 349
#
# _framework density 19.877282000000001
#
# number of rings (size 3 to 8) (size 9 to 14) (size 15 to 20)
#    0.000    1.400    0.000   10.200    0.000    5.600 
#    0.000    2.000    0.000    0.600    0.000    4.200 
#    0.000    0.000    0.000    0.000    0.000    0.000 
#
# Total GULP energy -222804.004266 kJ/mol
# GULP energy per Si atom -5570.100107 kJ/mol
# Density = 1.983204 g / cm^3
# Si number density = 19.877282 Si / 1000 Ang^3
#
#
#
# Elastic Constant Matrix: (Units=GPa)
#
#
# Indices 1 2 3 4 5 6 
#
# 1 123.8907 26.3268 38.5773 0.0000 0.0000 0.0000
# 2 26.3268 64.2898 16.2067 0.0000 0.0000 0.0000
# 3 38.5773 16.2067 122.2197 0.0000 0.0000 0.0000
# 4 0.0000 0.0000 0.0000 1.9735 0.0000 0.0000
# 5 0.0000 0.0000 0.0000 0.0000 33.2945 0.0000
# 6 0.0000 0.0000 0.0000 0.0000 0.0000 1.0856
#
#
#
# Elastic Compliance Matrix: (Units=1/GPa)
#
#
# Indices 1 2 3 4 5 6 
#
# 1 0.009572 -0.003267 -0.002588 0.000000 0.000000 0.000000
# 2 -0.003267 0.017208 -0.001251 0.000000 0.000000 0.000000
# 3 -0.002588 -0.001251 0.009165 0.000000 0.000000 0.000000
# 4 0.000000 0.000000 0.000000 0.506705 0.000000 0.000000
# 5 0.000000 0.000000 0.000000 0.000000 0.030035 0.000000
# 6 0.000000 0.000000 0.000000 0.000000 0.000000 0.921138
#
#
# Mechanical properties :
#
#
# Convention : Reuss Voigt Hill
#
# Bulk Modulus (GPa) = 46.01365 52.51353 49.26359
# Shear Modulus (GPa) = 3.29972 22.55669 12.92820
#
# Velocity S-wave (km/s) = 1.28983 3.37233 2.55306
# Velocity P-wave (km/s) = 5.04156 6.45288 5.79038
#
# Compressibility (1/GPa) = 0.02173268
#
# Stress axis : x y z
#
# Youngs Moduli (GPa) = 104.47384 58.11336 109.11462
#
# Poissons Ratio (x) = 0.18987 0.28239
# Poissons Ratio (y) = 0.34134 0.13645
# Poissons Ratio (z) = 0.27038 0.07267
#
# Static dielectric constant tensor:
#      x y z
#    x 1.755080 0.000000 0.000000 
#    y 0.000000 1.783430 0.000000 
#    z 0.000000 0.000000 1.675720 
# 
# From -- ./inp_files/3449.got.cif
#   From: 2010.05.17/outbox.cif.g08.bks.cpg/sg49_2_cif.got.tgz:3449.got - 2010.06.03 21:02:19.
