data_PCOD9392864
_publ_section_title
;
Structure prediction by ZEFSAII (Michael W. Deem and Ramdas Pophale) SiO2 
 PCOD9392864
Probable space group: P C C M
;
_chemical_formula_sum "Si O2"
_cell_formula_units_Z 58
_cell_length_a 14.087721
_cell_length_b 12.281260
_cell_length_c 14.992812
_cell_angle_alpha 90.000000
_cell_angle_beta 90.000000
_cell_angle_gamma 90.000000
_cell_volume 2593.980835
_symmetry_space_group_name_H-M "P C C M"
_symmetry_group_IT_number 49
_symmetry_cell_setting 'orthorhombic'
loop_
_space_group_symop_operation_xyz
x,y,z
-x,-y,z
x,-y,1/2-z
-x,y,1/2-z
-x,-y,-z
x,y,-z
-x,y,1/2+z
x,-y,1/2+z
loop_
_atom_site_type_symbol
_atom_site_label
_atom_site_fract_x
_atom_site_fract_y
_atom_site_fract_z
Si Si1 0.747816 0.974015 0.392182
Si Si2 0.714218 0.368044 0.107647
Si Si3 0.116672 0.794873 0.839617
Si Si4 0.079458 0.703536 0.649345
Si Si5 0.577398 0.814034 0.391496
Si Si6 0.000000 0.500000 0.250000
Si Si7 0.725713 0.612114 0.898924
Si Si8 0.634884 0.821136 0.109888
O O1 0.752785 0.974146 0.500000
O O2 0.715453 0.093321 0.361973
O O3 0.842894 0.914195 0.360197
O O4 0.658872 0.898391 0.364814
O O5 0.802667 0.292504 0.134387
O O6 0.617765 0.304955 0.133802
O O7 0.727457 0.491408 0.140809
O O8 0.716211 0.369911 0.000000
O O9 0.102957 0.777797 0.734547
O O10 0.017787 0.757465 0.886378
O O11 0.174015 0.676051 0.596353
O O12 0.055138 0.583550 0.687494
O O13 0.574706 0.816651 0.500000
O O14 0.472385 0.846616 0.362039
O O15 0.658170 0.701001 0.855054
O O16 0.691031 0.596672 0.000000
O O17 0.636663 0.821412 0.000000
#
# Coordination Sequence:
#
# PCOD9392864 Si02
#       8
#     8   8   8   8   8   2   8   8
#     4   9  16  29  51  76  98 124 164 209 248 290
#     4   9  17  29  48  76 104 128 159 202 248 294
#     4   9  18  32  51  72  93 122 165 211 253 296
#     4  10  19  32  49  70  95 129 167 206 255 303
#     4   8  14  26  47  74  99 123 157 200 243 287
#     4   8  16  32  54  72  90 118 160 206 248 302
#     4  10  20  31  44  68 102 135 166 200 242 295
#     4   9  17  29  46  70 101 133 161 194 240 293
#
# _framework density 22.359456999999999
#
# number of rings (size 3 to 8) (size 9 to 14) (size 15 to 20)
#    0.000    3.034    0.000    3.310    0.000    3.310 
#    0.000    5.862    0.000    9.103    0.000    7.724 
#    0.000    0.000    0.000    0.000    0.000    0.000 
#
# Total GULP energy -323321.473253 kJ/mol
# GULP energy per Si atom -5574.508160 kJ/mol
# Density = 2.230857 g / cm^3
# Si number density = 22.359457 Si / 1000 Ang^3
#
#
#
# Elastic Constant Matrix: (Units=GPa)
#
#
# Indices 1 2 3 4 5 6 
#
# 1 57.2990 32.5133 5.3063 0.0000 0.0000 0.0000
# 2 32.5133 104.7430 13.6812 0.0000 0.0000 0.0000
# 3 5.3063 13.6812 44.6115 0.0000 0.0000 0.0000
# 4 0.0000 0.0000 0.0000 -1.0177 0.0000 0.0000
# 5 0.0000 0.0000 0.0000 0.0000 46.1258 0.0000
# 6 0.0000 0.0000 0.0000 0.0000 0.0000 14.8159
#
#
#
# Elastic Compliance Matrix: (Units=1/GPa)
#
#
# Indices 1 2 3 4 5 6 
#
# 1 0.021195 -0.006511 -0.000524 0.000000 0.000000 0.000000
# 2 -0.006511 0.011946 -0.002889 0.000000 0.000000 0.000000
# 3 -0.000524 -0.002889 0.023364 0.000000 0.000000 0.000000
# 4 0.000000 0.000000 0.000000 -0.982569 0.000000 0.000000
# 5 0.000000 0.000000 0.000000 0.000000 0.021680 0.000000
# 6 0.000000 0.000000 0.000000 0.000000 0.000000 0.067495
#
#
# Mechanical properties :
#
#
# Convention : Reuss Voigt Hill
#
# Bulk Modulus (GPa) = 27.28015 34.40612 30.84313
# Shear Modulus (GPa) = -6.21255 22.32831 8.05788
#
# Velocity S-wave (km/s) = -1.66869 3.16350 1.90042
# Velocity P-wave (km/s) = 2.91796 5.36328 4.31737
#
# Compressibility (1/GPa) = 0.03665670
#
# Stress axis : x y z
#
# Youngs Moduli (GPa) = 47.18033 83.71339 42.80074
#
# Poissons Ratio (x) = 0.54503 0.02244
# Poissons Ratio (y) = 0.30718 0.12365
# Poissons Ratio (z) = 0.02474 0.24185
#
# Static dielectric constant tensor:
#      x y z
#    x 1.856040 0.000000 0.000000 
#    y 0.000000 1.874450 0.000000 
#    z 0.000000 0.000000 1.852650 
# 
# From -- ./inp_files/17910.got.cif
#   From: 2010.05.17/outbox.cif.g08.bks.cpg/sg49_9_cif.got.tgz:17910.got - 2010.06.03 21:02:19.
