data_PCOD9392288
_publ_section_title
;
Structure prediction by ZEFSAII (Michael W. Deem and Ramdas Pophale) SiO2 
 PCOD9392288
Probable space group: P C C M
;
_chemical_formula_sum "Si O2"
_cell_formula_units_Z 40
_cell_length_a 23.789480
_cell_length_b 7.176755
_cell_length_c 10.153524
_cell_angle_alpha 90.000000
_cell_angle_beta 90.000000
_cell_angle_gamma 90.000000
_cell_volume 1733.524043
_symmetry_space_group_name_H-M "P C C M"
_symmetry_group_IT_number 49
_symmetry_cell_setting 'orthorhombic'
loop_
_space_group_symop_operation_xyz
x,y,z
-x,-y,z
x,-y,1/2-z
-x,y,1/2-z
-x,-y,-z
x,y,-z
-x,y,1/2+z
x,-y,1/2+z
loop_
_atom_site_type_symbol
_atom_site_label
_atom_site_fract_x
_atom_site_fract_y
_atom_site_fract_z
Si Si1 0.327275 0.727250 0.268025
Si Si2 0.722966 0.763486 0.500000
Si Si3 0.142591 0.821038 0.000000
Si Si4 0.450438 0.307261 0.838300
Si Si5 0.254212 0.666563 0.500000
Si Si6 0.065102 0.226513 0.743072
Si Si7 0.126977 0.268124 0.000000
O O1 0.327442 0.500000 0.250000
O O2 0.310246 0.818938 0.130765
O O3 0.388632 0.779378 0.322047
O O4 0.277935 0.765896 0.371590
O O5 0.789889 0.800276 0.500000
O O6 0.720178 0.538680 0.500000
O O7 0.108052 0.740611 0.123561
O O8 0.134465 0.044074 0.000000
O O9 0.444978 0.500000 0.750000
O O10 0.500000 0.213745 0.750000
O O11 0.461182 0.326892 0.000000
O O12 0.188201 0.647096 0.500000
O O13 0.000000 0.283714 0.750000
O O14 0.063465 0.000000 0.750000
O O15 0.092957 0.312888 0.870845
#
# Coordination Sequence:
#
# PCOD9392288 Si02
#       7
#     8   4   4   8   4   8   4
#     4   9  18  29  44  63  91 126 163 191 233 286
#     4  10  20  31  48  65  96 130 159 194 230 286
#     4  10  19  32  48  75  95 119 157 200 236 278
#     4  10  18  26  41  64  94 127 162 202 245 285
#     4  10  18  33  46  67  92 130 159 188 232 284
#     4   9  17  30  49  72  95 120 152 193 241 287
#     4  10  19  30  52  71  95 121 155 198 236 278
#
# _framework density 23.074386000000001
#
# number of rings (size 3 to 8) (size 9 to 14) (size 15 to 20)
#    0.000    2.400    1.000    3.000    5.600    2.400 
#    0.000    0.000    0.000    3.600    0.000    0.000 
#    0.000    4.800    0.000    0.000    0.000    0.000 
#
# Total GULP energy -222996.101533 kJ/mol
# GULP energy per Si atom -5574.902538 kJ/mol
# Density = 2.302187 g / cm^3
# Si number density = 23.074386 Si / 1000 Ang^3
#
#
#
# Elastic Constant Matrix: (Units=GPa)
#
#
# Indices 1 2 3 4 5 6 
#
# 1 188.0368 -22.7941 100.0272 0.0000 0.0000 0.0000
# 2 -22.7941 71.0417 -13.9548 0.0000 0.0000 0.0000
# 3 100.0272 -13.9548 209.8932 0.0000 0.0000 0.0000
# 4 0.0000 0.0000 0.0000 -16.1982 0.0000 0.0000
# 5 0.0000 0.0000 0.0000 0.0000 40.0436 0.0000
# 6 0.0000 0.0000 0.0000 0.0000 0.0000 14.7453
#
#
#
# Elastic Compliance Matrix: (Units=1/GPa)
#
#
# Indices 1 2 3 4 5 6 
#
# 1 0.007318 0.001685 -0.003375 0.000000 0.000000 0.000000
# 2 0.001685 0.014650 0.000171 0.000000 0.000000 0.000000
# 3 -0.003375 0.000171 0.006384 0.000000 0.000000 0.000000
# 4 0.000000 0.000000 0.000000 -0.061735 0.000000 0.000000
# 5 0.000000 0.000000 0.000000 0.000000 0.024973 0.000000
# 6 0.000000 0.000000 0.000000 0.000000 0.000000 0.067818
#
#
# Mechanical properties :
#
#
# Convention : Reuss Voigt Hill
#
# Bulk Modulus (GPa) = 39.50400 66.16980 52.83690
# Shear Modulus (GPa) = 70.53643 34.76436 52.65040
#
# Velocity S-wave (km/s) = 5.53494 3.88573 4.78197
# Velocity P-wave (km/s) = 7.61609 6.99077 7.31012
#
# Compressibility (1/GPa) = 0.02531389
#
# Stress axis : x y z
#
# Youngs Moduli (GPa) = 136.65044 68.25715 156.63416
#
# Poissons Ratio (x) = -0.11501 0.52871
# Poissons Ratio (y) = -0.23025 -0.02679
# Poissons Ratio (z) = 0.46125 -0.01168
#
# Static dielectric constant tensor:
#      x y z
#    x 1.828840 0.000000 0.000000 
#    y 0.000000 1.964510 0.000000 
#    z 0.000000 0.000000 1.772020 
# 
# From -- ./inp_files/5628.got.cif
#   From: 2010.05.17/outbox.cif.g08.bks.cpg/sg49_3_cif.got.tgz:5628.got - 2010.06.03 21:02:19.
