data_PCOD9392686
_publ_section_title
;
Structure prediction by ZEFSAII (Michael W. Deem and Ramdas Pophale) SiO2 
 PCOD9392686
Probable space group: P C C M
;
_chemical_formula_sum "Si O2"
_cell_formula_units_Z 56
_cell_length_a 15.755372
_cell_length_b 20.761931
_cell_length_c 8.695131
_cell_angle_alpha 90.000000
_cell_angle_beta 90.000000
_cell_angle_gamma 90.000000
_cell_volume 2844.281225
_symmetry_space_group_name_H-M "P C C M"
_symmetry_group_IT_number 49
_symmetry_cell_setting 'orthorhombic'
loop_
_space_group_symop_operation_xyz
x,y,z
-x,-y,z
x,-y,1/2-z
-x,y,1/2-z
-x,-y,-z
x,y,-z
-x,y,1/2+z
x,-y,1/2+z
loop_
_atom_site_type_symbol
_atom_site_label
_atom_site_fract_x
_atom_site_fract_y
_atom_site_fract_z
Si Si1 0.587854 0.884492 0.684217
Si Si2 0.354768 0.255742 0.319016
Si Si3 0.228728 0.567041 0.315978
Si Si4 0.773496 0.069065 0.814882
Si Si5 0.909494 0.168964 0.685261
Si Si6 0.823058 0.295209 0.316426
Si Si7 0.588817 0.399824 0.820030
O O1 0.500000 0.910639 0.750000
O O2 0.583186 0.887627 0.500000
O O3 0.598414 0.809181 0.729920
O O4 0.675629 0.917926 0.732656
O O5 0.332553 0.248236 0.500000
O O6 0.268661 0.265960 0.225478
O O7 0.406414 0.321938 0.304920
O O8 0.195704 0.500000 0.250000
O O9 0.226296 0.565513 0.500000
O O10 0.179694 0.631180 0.258372
O O11 0.326819 0.575019 0.263500
O O12 0.834648 0.123947 0.748575
O O13 0.800057 0.000000 0.750000
O O14 0.777360 0.070199 0.000000
O O15 0.909388 0.166741 0.500000
O O16 0.890529 0.242577 0.738291
O O17 0.000000 0.147769 0.750000
O O18 0.830816 0.298932 0.500000
O O19 0.500000 0.422193 0.750000
O O20 0.593924 0.416230 0.000000
#
# Coordination Sequence:
#
# PCOD9392686 Si02
#       7
#     8   8   8   8   8   8   8
#     4  10  21  35  55  83 117 158 203 249 295 345
#     4   9  17  31  51  77 109 146 191 241 293 346
#     4  10  20  35  53  77 108 146 191 236 287 347
#     4  11  24  43  64  89 124 163 203 249 298 353
#     4  11  23  41  67  98 125 155 193 240 298 360
#     4   9  19  35  58  85 115 149 188 236 289 346
#     4  10  19  30  46  70 103 143 188 240 294 347
#
# _framework density 19.688631000000001
#
# number of rings (size 3 to 8) (size 9 to 14) (size 15 to 20)
#    0.000    2.000    1.429    2.143    0.000    4.286 
#    0.000    4.286    0.000    0.429    0.000    3.000 
#    0.000    0.000    0.000    0.000    0.000    0.000 
#
# Total GULP energy -312633.053033 kJ/mol
# GULP energy per Si atom -5582.733090 kJ/mol
# Density = 1.964382 g / cm^3
# Si number density = 19.688631 Si / 1000 Ang^3
#
#
#
# Elastic Constant Matrix: (Units=GPa)
#
#
# Indices 1 2 3 4 5 6 
#
# 1 86.1877 35.5669 20.8763 0.0000 0.0000 0.0000
# 2 35.5669 118.5254 29.4572 0.0000 0.0000 0.0000
# 3 20.8763 29.4572 37.2670 0.0000 0.0000 0.0000
# 4 0.0000 0.0000 0.0000 22.5577 0.0000 0.0000
# 5 0.0000 0.0000 0.0000 0.0000 20.1720 0.0000
# 6 0.0000 0.0000 0.0000 0.0000 0.0000 -1.6115
#
#
#
# Elastic Compliance Matrix: (Units=1/GPa)
#
#
# Indices 1 2 3 4 5 6 
#
# 1 0.014149 -0.002832 -0.005687 0.000000 0.000000 0.000000
# 2 -0.002832 0.011067 -0.007161 0.000000 0.000000 0.000000
# 3 -0.005687 -0.007161 0.035679 0.000000 0.000000 0.000000
# 4 0.000000 0.000000 0.000000 0.044331 0.000000 0.000000
# 5 0.000000 0.000000 0.000000 0.000000 0.049574 0.000000
# 6 0.000000 0.000000 0.000000 0.000000 0.000000 -0.620552
#
#
# Mechanical properties :
#
#
# Convention : Reuss Voigt Hill
#
# Bulk Modulus (GPa) = 33.85898 45.97566 39.91732
# Shear Modulus (GPa) = -11.77726 18.62896 3.42585
#
# Velocity S-wave (km/s) = -2.44842 3.07934 1.32053
# Velocity P-wave (km/s) = 3.04000 6.00376 4.75850
#
# Compressibility (1/GPa) = 0.02953426
#
# Stress axis : x y z
#
# Youngs Moduli (GPa) = 70.67655 90.36179 28.02732
#
# Poissons Ratio (x) = 0.25594 0.15940
# Poissons Ratio (y) = 0.20018 0.20070
# Poissons Ratio (z) = 0.40195 0.64707
#
# Static dielectric constant tensor:
#      x y z
#    x 1.662690 0.000000 0.000000 
#    y 0.000000 1.731360 0.000000 
#    z 0.000000 0.000000 1.668630 
# 
# From -- ./inp_files/4061.got.cif
#   From: 2010.05.17/outbox.cif.g08.bks.cpg/sg49_3_cif.got.tgz:4061.got - 2010.06.03 21:02:19.
