data_PCOD9392396
_publ_section_title
;
Structure prediction by ZEFSAII (Michael W. Deem and Ramdas Pophale) SiO2 
 PCOD9392396
Probable space group: P C C M
;
_chemical_formula_sum "Si O2"
_cell_formula_units_Z 56
_cell_length_a 19.413710
_cell_length_b 18.985214
_cell_length_c 8.980617
_cell_angle_alpha 90.000000
_cell_angle_beta 90.000000
_cell_angle_gamma 90.000000
_cell_volume 3310.016891
_symmetry_space_group_name_H-M "P C C M"
_symmetry_group_IT_number 49
_symmetry_cell_setting 'orthorhombic'
loop_
_space_group_symop_operation_xyz
x,y,z
-x,-y,z
x,-y,1/2-z
-x,y,1/2-z
-x,-y,-z
x,y,-z
-x,y,1/2+z
x,-y,1/2+z
loop_
_atom_site_type_symbol
_atom_site_label
_atom_site_fract_x
_atom_site_fract_y
_atom_site_fract_z
Si Si1 0.788543 0.655261 0.323168
Si Si2 0.711076 0.785549 0.177347
Si Si3 0.350682 0.575261 0.821972
Si Si4 0.787936 0.924753 0.820950
Si Si5 0.071565 0.848872 0.678491
Si Si6 0.927711 0.682478 0.177882
Si Si7 0.572461 0.293120 0.677147
O O1 0.798870 0.658605 0.500000
O O2 0.757164 0.728908 0.264090
O O3 0.728427 0.598729 0.291183
O O4 0.861035 0.643564 0.242550
O O5 0.732783 0.864306 0.218170
O O6 0.631912 0.764959 0.203332
O O7 0.725365 0.776489 0.000000
O O8 0.364769 0.500000 0.750000
O O9 0.398694 0.635192 0.750372
O O10 0.360180 0.573865 0.000000
O O11 0.862484 0.893889 0.773762
O O12 0.774583 0.000000 0.750000
O O13 0.788734 0.931335 0.000000
O O14 0.066463 0.853107 0.500000
O O15 0.081163 0.766006 0.715646
O O16 0.000000 0.872777 0.750000
O O17 0.000000 0.659905 0.250000
O O18 0.930547 0.676247 0.000000
O O19 0.500000 0.274432 0.750000
O O20 0.565222 0.302674 0.500000
#
# Coordination Sequence:
#
# PCOD9392396 Si02
#       7
#     8   8   8   8   8   8   8
#     4  10  19  31  51  77 102 131 171 216 256 300
#     4   9  18  35  54  72 100 135 170 208 254 306
#     4  10  21  36  54  80 112 142 174 206 243 298
#     4  10  20  34  49  70  98 132 173 214 259 307
#     4   9  18  31  46  65  95 130 167 210 254 305
#     4  10  18  30  48  71  99 132 171 217 265 310
#     4  10  20  35  58  83 108 138 168 205 251 299
#
# _framework density 16.918341999999999
#
# number of rings (size 3 to 8) (size 9 to 14) (size 15 to 20)
#    0.000    2.286    1.429    1.714    0.000    4.571 
#    0.000    2.857    0.000    0.857    0.000    6.000 
#    0.000    0.000    0.000    0.000    0.000    0.000 
#
# Total GULP energy -312455.967063 kJ/mol
# GULP energy per Si atom -5579.570840 kJ/mol
# Density = 1.687984 g / cm^3
# Si number density = 16.918342 Si / 1000 Ang^3
#
#
#
# Elastic Constant Matrix: (Units=GPa)
#
#
# Indices 1 2 3 4 5 6 
#
# 1 114.7476 29.2992 47.5671 0.0000 0.0000 0.0000
# 2 29.2992 58.0083 19.0533 0.0000 0.0000 0.0000
# 3 47.5671 19.0533 41.7416 0.0000 0.0000 0.0000
# 4 0.0000 0.0000 0.0000 22.7267 0.0000 0.0000
# 5 0.0000 0.0000 0.0000 0.0000 28.6411 0.0000
# 6 0.0000 0.0000 0.0000 0.0000 0.0000 13.9954
#
#
#
# Elastic Compliance Matrix: (Units=1/GPa)
#
#
# Indices 1 2 3 4 5 6 
#
# 1 0.016842 -0.002591 -0.018010 0.000000 0.000000 0.000000
# 2 -0.002591 0.020678 -0.006486 0.000000 0.000000 0.000000
# 3 -0.018010 -0.006486 0.047441 0.000000 0.000000 0.000000
# 4 0.000000 0.000000 0.000000 0.044001 0.000000 0.000000
# 5 0.000000 0.000000 0.000000 0.000000 0.034915 0.000000
# 6 0.000000 0.000000 0.000000 0.000000 0.000000 0.071452
#
#
# Mechanical properties :
#
#
# Convention : Reuss Voigt Hill
#
# Bulk Modulus (GPa) = 32.48111 45.14853 38.81482
# Shear Modulus (GPa) = 16.67972 20.97782 18.82877
#
# Velocity S-wave (km/s) = 3.14330 3.52511 3.33967
# Velocity P-wave (km/s) = 5.69335 6.58123 6.15332
#
# Compressibility (1/GPa) = 0.03078712
#
# Stress axis : x y z
#
# Youngs Moduli (GPa) = 59.37476 48.36053 21.07894
#
# Poissons Ratio (x) = 0.12531 0.37963
# Poissons Ratio (y) = 0.15386 0.13671
# Poissons Ratio (z) = 1.06933 0.31366
#
# Static dielectric constant tensor:
#      x y z
#    x 1.576710 0.000000 0.000000 
#    y 0.000000 1.548620 0.000000 
#    z 0.000000 0.000000 1.563610 
# 
# From -- ./inp_files/5171.got.cif
#   From: 2010.05.17/outbox.cif.g08.bks.cpg/sg49_3_cif.got.tgz:5171.got - 2010.06.03 21:02:19.
