data_PCOD9392965
_publ_section_title
;
Structure prediction by ZEFSAII (Michael W. Deem and Ramdas Pophale) SiO2 
 PCOD9392965
Probable space group: P C C M
;
_chemical_formula_sum "Si O2"
_cell_formula_units_Z 64
_cell_length_a 16.438484
_cell_length_b 22.782568
_cell_length_c 8.919286
_cell_angle_alpha 90.000000
_cell_angle_beta 90.000000
_cell_angle_gamma 90.000000
_cell_volume 3340.369645
_symmetry_space_group_name_H-M "P C C M"
_symmetry_group_IT_number 49
_symmetry_cell_setting 'orthorhombic'
loop_
_space_group_symop_operation_xyz
x,y,z
-x,-y,z
x,-y,1/2-z
-x,y,1/2-z
-x,-y,-z
x,y,-z
-x,y,1/2+z
x,-y,1/2+z
loop_
_atom_site_type_symbol
_atom_site_label
_atom_site_fract_x
_atom_site_fract_y
_atom_site_fract_z
Si Si1 0.888026 0.778983 0.672063
Si Si2 0.585945 0.595568 0.818648
Si Si3 0.081635 0.097679 0.178078
Si Si4 0.699509 0.187586 0.167599
Si Si5 0.769674 0.561442 0.819354
Si Si6 0.250220 0.058673 0.678871
Si Si7 0.580030 0.268927 0.324916
Si Si8 0.914795 0.348265 0.318729
O O1 0.920375 0.781186 0.500000
O O2 0.916040 0.833977 0.771404
O O3 0.791744 0.790052 0.661482
O O4 0.904873 0.716747 0.748654
O O5 0.500000 0.572872 0.750000
O O6 0.674656 0.570775 0.772616
O O7 0.591239 0.664127 0.771904
O O8 0.580285 0.590871 0.000000
O O9 0.161860 0.068753 0.247709
O O10 0.000000 0.072231 0.250000
O O11 0.081436 0.092419 0.000000
O O12 0.701182 0.118884 0.207400
O O13 0.653895 0.227979 0.283453
O O14 0.664202 0.194518 0.000000
O O15 0.797385 0.500000 0.750000
O O16 0.834910 0.612498 0.779785
O O17 0.769130 0.558491 0.000000
O O18 0.241284 0.053118 0.500000
O O19 0.286411 0.000000 0.750000
O O20 0.500000 0.243648 0.250000
O O21 0.568150 0.272398 0.500000
O O22 0.920399 0.345303 0.500000
O O23 0.000000 0.372034 0.250000
#
# Coordination Sequence:
#
# PCOD9392965 Si02
#       8
#     8   8   8   8   8   8   8   8
#     4  10  20  35  55  81 110 140 176 221 273 331
#     4   9  19  36  57  85 116 146 178 218 268 328
#     4  11  21  34  52  75 105 139 174 217 268 321
#     4   9  19  34  53  78 109 140 174 217 265 318
#     4  10  23  41  59  80 110 146 188 232 276 328
#     4  10  21  37  54  75 102 136 180 225 267 317
#     4  10  19  32  54  82 113 143 174 211 260 319
#     4  11  23  39  58  81 109 144 187 236 285 336
#
# _framework density 19.159557
#
# number of rings (size 3 to 8) (size 9 to 14) (size 15 to 20)
#    0.000    2.000    0.000    4.500    0.000    6.750 
#    0.000    3.750    0.000    0.375    0.000    2.625 
#    0.000    0.000    0.000    0.000    0.000    0.000 
#
# Total GULP energy -357111.895558 kJ/mol
# GULP energy per Si atom -5579.873368 kJ/mol
# Density = 1.911595 g / cm^3
# Si number density = 19.159557 Si / 1000 Ang^3
#
#
#
# Elastic Constant Matrix: (Units=GPa)
#
#
# Indices 1 2 3 4 5 6 
#
# 1 65.3595 27.8523 16.1443 0.0000 0.0000 0.0000
# 2 27.8523 88.9752 28.5887 0.0000 0.0000 0.0000
# 3 16.1443 28.5887 56.1901 0.0000 0.0000 0.0000
# 4 0.0000 0.0000 0.0000 47.4687 0.0000 0.0000
# 5 0.0000 0.0000 0.0000 0.0000 32.4823 0.0000
# 6 0.0000 0.0000 0.0000 0.0000 0.0000 63.8977
#
#
#
# Elastic Compliance Matrix: (Units=1/GPa)
#
#
# Indices 1 2 3 4 5 6 
#
# 1 0.018005 -0.004751 -0.002756 0.000000 0.000000 0.000000
# 2 -0.004751 0.014689 -0.006109 0.000000 0.000000 0.000000
# 3 -0.002756 -0.006109 0.021697 0.000000 0.000000 0.000000
# 4 0.000000 0.000000 0.000000 0.021066 0.000000 0.000000
# 5 0.000000 0.000000 0.000000 0.000000 0.030786 0.000000
# 6 0.000000 0.000000 0.000000 0.000000 0.000000 0.015650
#
#
# Mechanical properties :
#
#
# Convention : Reuss Voigt Hill
#
# Bulk Modulus (GPa) = 36.81883 39.52170 38.17027
# Shear Modulus (GPa) = 31.61007 37.96571 34.78789
#
# Velocity S-wave (km/s) = 4.06622 4.45630 4.26572
# Velocity P-wave (km/s) = 6.42683 6.86663 6.65037
#
# Compressibility (1/GPa) = 0.02716001
#
# Stress axis : x y z
#
# Youngs Moduli (GPa) = 55.53941 68.07825 46.09020
#
# Poissons Ratio (x) = 0.32342 0.12703
# Poissons Ratio (y) = 0.26385 0.28155
# Poissons Ratio (z) = 0.15307 0.41586
#
# Static dielectric constant tensor:
#      x y z
#    x 1.727450 0.000000 0.000000 
#    y 0.000000 1.669960 0.000000 
#    z 0.000000 0.000000 1.645160 
# 
# From -- ./inp_files/4345.got.cif
#   From: 2010.05.17/outbox.cif.g08.bks.cpg/sg49_3_cif.got.tgz:4345.got - 2010.06.03 21:02:19.
