data_PCOD9392763
_publ_section_title
;
Structure prediction by ZEFSAII (Michael W. Deem and Ramdas Pophale) SiO2 
 PCOD9392763
Probable space group: P C C M
;
_chemical_formula_sum "Si O2"
_cell_formula_units_Z 64
_cell_length_a 24.193429
_cell_length_b 19.699952
_cell_length_c 8.658476
_cell_angle_alpha 90.000000
_cell_angle_beta 90.000000
_cell_angle_gamma 90.000000
_cell_volume 4126.710965
_symmetry_space_group_name_H-M "P C C M"
_symmetry_group_IT_number 49
_symmetry_cell_setting 'orthorhombic'
loop_
_space_group_symop_operation_xyz
x,y,z
-x,-y,z
x,-y,1/2-z
-x,y,1/2-z
-x,-y,-z
x,y,-z
-x,y,1/2+z
x,-y,1/2+z
loop_
_atom_site_type_symbol
_atom_site_label
_atom_site_fract_x
_atom_site_fract_y
_atom_site_fract_z
Si Si1 0.834333 0.792971 0.185745
Si Si2 0.335658 0.848560 0.185881
Si Si3 0.060248 0.291060 0.185216
Si Si4 0.439676 0.075168 0.815431
Si Si5 0.113918 0.427071 0.685268
Si Si6 0.243909 0.428090 0.685485
Si Si7 0.272214 0.717094 0.186126
Si Si8 0.771291 0.074380 0.685352
O O1 0.893556 0.764056 0.234036
O O2 0.786185 0.746718 0.257130
O O3 0.818428 0.870275 0.225914
O O4 0.830839 0.787270 0.000000
O O5 0.392328 0.874267 0.258590
O O6 0.318222 0.772006 0.233160
O O7 0.285681 0.896500 0.243937
O O8 0.338678 0.852181 0.000000
O O9 0.080497 0.364220 0.246143
O O10 0.000000 0.275532 0.250000
O O11 0.058411 0.292936 0.000000
O O12 0.500000 0.093713 0.750000
O O13 0.426717 0.000000 0.750000
O O14 0.441575 0.072049 0.000000
O O15 0.095284 0.500000 0.750000
O O16 0.109905 0.426630 0.500000
O O17 0.178979 0.419680 0.728527
O O18 0.263410 0.500000 0.750000
O O19 0.246015 0.431063 0.500000
O O20 0.276049 0.360771 0.738961
O O21 0.271338 0.716647 0.000000
O O22 0.765849 0.071986 0.500000
O O23 0.782556 0.000000 0.750000
#
# Coordination Sequence:
#
# PCOD9392763 Si02
#       8
#     8   8   8   8   8   8   8   8
#     4   9  19  33  49  67  90 115 146 185 229 278
#     4  10  19  31  48  71  99 130 162 197 233 271
#     4  11  22  35  50  68  88 115 149 188 231 277
#     4  11  21  34  50  69  97 133 172 205 236 273
#     4  10  19  32  49  68  92 119 151 187 225 271
#     4   9  17  28  44  67  93 123 154 186 225 273
#     4   9  17  30  48  69  94 123 156 191 231 276
#     4  10  19  32  49  72  96 120 149 187 231 277
#
# _framework density 15.508718
#
# number of rings (size 3 to 8) (size 9 to 14) (size 15 to 20)
#    0.000    2.125    1.250    3.375    0.000    2.750 
#    0.000    1.250    0.000    0.375    0.000    2.625 
#    0.000    0.500    0.000    5.750    0.000    1.750 
#
# Total GULP energy -357011.169443 kJ/mol
# GULP energy per Si atom -5578.299523 kJ/mol
# Density = 1.547342 g / cm^3
# Si number density = 15.508718 Si / 1000 Ang^3
#
#
#
# Elastic Constant Matrix: (Units=GPa)
#
#
# Indices 1 2 3 4 5 6 
#
# 1 103.4059 74.8595 36.6343 0.0000 0.0000 0.0000
# 2 74.8595 146.8638 37.2987 0.0000 0.0000 0.0000
# 3 36.6343 37.2987 52.0681 0.0000 0.0000 0.0000
# 4 0.0000 0.0000 0.0000 19.3583 0.0000 0.0000
# 5 0.0000 0.0000 0.0000 0.0000 19.1873 0.0000
# 6 0.0000 0.0000 0.0000 0.0000 0.0000 25.9191
#
#
#
# Elastic Compliance Matrix: (Units=1/GPa)
#
#
# Indices 1 2 3 4 5 6 
#
# 1 0.017254 -0.006982 -0.007138 0.000000 0.000000 0.000000
# 2 -0.006982 0.011148 -0.003074 0.000000 0.000000 0.000000
# 3 -0.007138 -0.003074 0.026430 0.000000 0.000000 0.000000
# 4 0.000000 0.000000 0.000000 0.051657 0.000000 0.000000
# 5 0.000000 0.000000 0.000000 0.000000 0.052118 0.000000
# 6 0.000000 0.000000 0.000000 0.000000 0.000000 0.038582
#
#
# Mechanical properties :
#
#
# Convention : Reuss Voigt Hill
#
# Bulk Modulus (GPa) = 48.91282 66.65809 57.78545
# Shear Modulus (GPa) = 20.97388 23.12929 22.05158
#
# Velocity S-wave (km/s) = 3.68148 3.86602 3.77488
# Velocity P-wave (km/s) = 7.04829 7.93741 7.50603
#
# Compressibility (1/GPa) = 0.02044454
#
# Stress axis : x y z
#
# Youngs Moduli (GPa) = 57.95784 89.69847 37.83597
#
# Poissons Ratio (x) = 0.62626 0.27008
# Poissons Ratio (y) = 0.40465 0.11630
# Poissons Ratio (z) = 0.41371 0.27572
#
# Static dielectric constant tensor:
#      x y z
#    x 1.496140 0.000000 0.000000 
#    y 0.000000 1.529590 0.000000 
#    z 0.000000 0.000000 1.529390 
# 
# From -- ./inp_files/6613.got.cif
#   From: 2010.05.17/outbox.cif.g08.bks.cpg/sg49_4_cif.got.tgz:6613.got - 2010.06.03 21:02:19.
