data_PCOD9392300
_publ_section_title
;
Structure prediction by ZEFSAII (Michael W. Deem and Ramdas Pophale) SiO2 
 PCOD9392300
Probable space group: P C C M
;
_chemical_formula_sum "Si O2"
_cell_formula_units_Z 42
_cell_length_a 13.152326
_cell_length_b 9.251112
_cell_length_c 20.652355
_cell_angle_alpha 90.000000
_cell_angle_beta 90.000000
_cell_angle_gamma 90.000000
_cell_volume 2512.847226
_symmetry_space_group_name_H-M "P C C M"
_symmetry_group_IT_number 49
_symmetry_cell_setting 'orthorhombic'
loop_
_space_group_symop_operation_xyz
x,y,z
-x,-y,z
x,-y,1/2-z
-x,y,1/2-z
-x,-y,-z
x,y,-z
-x,y,1/2+z
x,-y,1/2+z
loop_
_atom_site_type_symbol
_atom_site_label
_atom_site_fract_x
_atom_site_fract_y
_atom_site_fract_z
Si Si1 0.379195 0.843170 0.076918
Si Si2 0.594967 0.158817 0.632907
Si Si3 0.984873 0.835266 0.921334
Si Si4 0.500000 0.000000 0.250000
Si Si5 0.221858 0.670377 0.578388
Si Si6 0.183540 0.664007 0.078572
O O1 0.485578 0.790107 0.106320
O O2 0.280826 0.756583 0.100820
O O3 0.373543 0.012642 0.094375
O O4 0.384381 0.828517 0.000000
O O5 0.681321 0.273976 0.618107
O O6 0.570343 0.100458 0.704674
O O7 0.875719 0.768605 0.905153
O O8 0.078174 0.735059 0.898846
O O9 0.988572 0.836788 0.000000
O O10 0.000000 0.000000 0.899319
O O11 0.240462 0.681464 0.500000
O O12 0.195916 0.504317 0.593754
O O13 0.182330 0.672942 0.000000
#
# Coordination Sequence:
#
# PCOD9392300 Si02
#       6
#     8   8   8   2   8   8
#     4   9  16  27  45  68  93 121 151 186 227 275
#     4  10  18  31  49  66  88 118 156 200 234 279
#     4   9  16  26  41  64  98 135 162 181 212 268
#     4   8  20  36  50  66  86 116 160 200 244 278
#     4  10  18  27  44  71 100 128 155 188 233 280
#     4   9  17  27  40  66 105 135 152 179 225 281
#
# _framework density 16.714108
#
# number of rings (size 3 to 8) (size 9 to 14) (size 15 to 20)
#    0.000    2.857    0.000    4.000    0.000    6.095 
#    0.000    2.857    0.000    9.143    0.000   16.667 
#    0.000   18.286    0.000    0.000    0.000    0.000 
#
# Total GULP energy -233959.458781 kJ/mol
# GULP energy per Si atom -5570.463304 kJ/mol
# Density = 1.667607 g / cm^3
# Si number density = 16.714108 Si / 1000 Ang^3
#
#
#
# Elastic Constant Matrix: (Units=GPa)
#
#
# Indices 1 2 3 4 5 6 
#
# 1 78.9489 30.4043 16.2833 0.0000 0.0000 0.0000
# 2 30.4043 54.3997 7.0729 0.0000 0.0000 0.0000
# 3 16.2833 7.0729 41.8672 0.0000 0.0000 0.0000
# 4 0.0000 0.0000 0.0000 -8.5307 0.0000 0.0000
# 5 0.0000 0.0000 0.0000 0.0000 -3.6082 0.0000
# 6 0.0000 0.0000 0.0000 0.0000 0.0000 30.9617
#
#
#
# Elastic Compliance Matrix: (Units=1/GPa)
#
#
# Indices 1 2 3 4 5 6 
#
# 1 0.017170 -0.008924 -0.005170 0.000000 0.000000 0.000000
# 2 -0.008924 0.023434 -0.000488 0.000000 0.000000 0.000000
# 3 -0.005170 -0.000488 0.025978 0.000000 0.000000 0.000000
# 4 0.000000 0.000000 0.000000 -0.117224 0.000000 0.000000
# 5 0.000000 0.000000 0.000000 0.000000 -0.277148 0.000000
# 6 0.000000 0.000000 0.000000 0.000000 0.000000 0.032298
#
#
# Mechanical properties :
#
#
# Convention : Reuss Voigt Hill
#
# Bulk Modulus (GPa) = 26.72567 31.41520 29.07044
# Shear Modulus (GPa) = -19.69620 11.86159 -3.91731
#
# Velocity S-wave (km/s) = -3.43653 2.66686 -1.53258
# Velocity P-wave (km/s) = 0.52750 5.32159 3.78137
#
# Compressibility (1/GPa) = 0.03741721
#
# Stress axis : x y z
#
# Youngs Moduli (GPa) = 58.24278 42.67384 38.49368
#
# Poissons Ratio (x) = 0.38082 0.19902
# Poissons Ratio (y) = 0.51976 0.01879
# Poissons Ratio (z) = 0.30112 0.02083
#
# Static dielectric constant tensor:
#      x y z
#    x 1.573940 0.000000 0.000000 
#    y 0.000000 1.586740 0.000000 
#    z 0.000000 0.000000 1.547850 
# 
# From -- ./inp_files/22813.got.cif
#   From: 2010.05.17/outbox.cif.g08.bks.cpg/sg49_12_cif.got.tgz:22813.got - 2010.06.03 21:02:19.
