data_PCOD9392352
_publ_section_title
;
Structure prediction by ZEFSAII (Michael W. Deem and Ramdas Pophale) SiO2 
 PCOD9392352
Probable space group: P C C M
;
_chemical_formula_sum "Si O2"
_cell_formula_units_Z 40
_cell_length_a 19.418125
_cell_length_b 14.089944
_cell_length_c 8.378469
_cell_angle_alpha 90.000000
_cell_angle_beta 90.000000
_cell_angle_gamma 90.000000
_cell_volume 2292.351580
_symmetry_space_group_name_H-M "P C C M"
_symmetry_group_IT_number 49
_symmetry_cell_setting 'orthorhombic'
loop_
_space_group_symop_operation_xyz
x,y,z
-x,-y,z
x,-y,1/2-z
-x,y,1/2-z
-x,-y,-z
x,y,-z
-x,y,1/2+z
x,-y,1/2+z
loop_
_atom_site_type_symbol
_atom_site_label
_atom_site_fract_x
_atom_site_fract_y
_atom_site_fract_z
Si Si1 0.214112 0.704461 0.305357
Si Si2 0.354155 0.395499 0.192162
Si Si3 0.714508 0.104157 0.692326
Si Si4 0.575270 0.202961 0.307746
Si Si5 0.925686 0.391801 0.308584
O O1 0.213692 0.703815 0.500000
O O2 0.276844 0.635152 0.256310
O O3 0.235253 0.810545 0.255051
O O4 0.140010 0.668078 0.251075
O O5 0.372288 0.500000 0.250000
O O6 0.404098 0.309906 0.245279
O O7 0.354693 0.395724 0.000000
O O8 0.714461 0.104525 0.500000
O O9 0.637470 0.134628 0.745593
O O10 0.732871 0.000000 0.750000
O O11 0.500000 0.175891 0.250000
O O12 0.575589 0.202848 0.500000
O O13 0.918060 0.500000 0.250000
O O14 0.926000 0.392285 0.500000
O O15 0.000000 0.356458 0.250000
#
# Coordination Sequence:
#
# PCOD9392352 Si02
#       5
#     8   8   8   8   8
#     4   8  16  31  49  66  91 123 152 184 226 268
#     4   9  17  30  46  65  88 119 154 187 221 263
#     4   9  18  34  52  70  89 114 149 190 232 273
#     4   9  19  33  47  64  91 120 148 183 227 274
#     4  10  18  29  46  70  99 129 155 183 218 261
#
# _framework density 17.44933
#
# number of rings (size 3 to 8) (size 9 to 14) (size 15 to 20)
#    0.000    3.000    0.000    4.200    0.000    2.400 
#    0.000   10.000    0.000    0.600    0.000    4.200 
#    0.000    0.000    0.000    0.000    0.000    0.000 
#
# Total GULP energy -222936.373185 kJ/mol
# GULP energy per Si atom -5573.409330 kJ/mol
# Density = 1.740961 g / cm^3
# Si number density = 17.449330 Si / 1000 Ang^3
#
#
#
# Elastic Constant Matrix: (Units=GPa)
#
#
# Indices 1 2 3 4 5 6 
#
# 1 105.9700 18.3703 10.2535 0.0000 0.0000 0.0000
# 2 18.3703 65.8446 4.7798 0.0000 0.0000 0.0000
# 3 10.2535 4.7798 12.1278 0.0000 0.0000 0.0000
# 4 0.0000 0.0000 0.0000 26.0027 0.0000 0.0000
# 5 0.0000 0.0000 0.0000 0.0000 39.6819 0.0000
# 6 0.0000 0.0000 0.0000 0.0000 0.0000 15.1004
#
#
#
# Elastic Compliance Matrix: (Units=1/GPa)
#
#
# Indices 1 2 3 4 5 6 
#
# 1 0.010628 -0.002381 -0.008047 0.000000 0.000000 0.000000
# 2 -0.002381 0.016168 -0.004359 0.000000 0.000000 0.000000
# 3 -0.008047 -0.004359 0.090976 0.000000 0.000000 0.000000
# 4 0.000000 0.000000 0.000000 0.038458 0.000000 0.000000
# 5 0.000000 0.000000 0.000000 0.000000 0.025200 0.000000
# 6 0.000000 0.000000 0.000000 0.000000 0.000000 0.066223
#
#
# Mechanical properties :
#
#
# Convention : Reuss Voigt Hill
#
# Bulk Modulus (GPa) = 11.33812 27.86107 19.59959
# Shear Modulus (GPa) = 16.30644 26.19292 21.24968
#
# Velocity S-wave (km/s) = 3.06028 3.87859 3.49348
# Velocity P-wave (km/s) = 4.35878 6.00495 5.24682
#
# Compressibility (1/GPa) = 0.08819808
#
# Stress axis : x y z
#
# Youngs Moduli (GPa) = 94.09099 61.85064 10.99186
#
# Poissons Ratio (x) = 0.14727 0.08845
# Poissons Ratio (y) = 0.22403 0.04791
# Poissons Ratio (z) = 0.75716 0.26961
#
# Static dielectric constant tensor:
#      x y z
#    x 1.598600 0.000000 0.000000 
#    y 0.000000 1.579040 0.000000 
#    z 0.000000 0.000000 1.610460 
# 
# From -- ./inp_files/2665.got.cif
#   From: 2010.05.17/outbox.cif.g08.bks.cpg/sg49_2_cif.got.tgz:2665.got - 2010.06.03 21:02:19.
