data_PCOD9392210
_publ_section_title
;
Structure prediction by ZEFSAII (Michael W. Deem and Ramdas Pophale) SiO2 
 PCOD9392210
Probable space group: P C C M
;
_chemical_formula_sum "Si O2"
_cell_formula_units_Z 56
_cell_length_a 16.013980
_cell_length_b 20.187641
_cell_length_c 8.712764
_cell_angle_alpha 90.000000
_cell_angle_beta 90.000000
_cell_angle_gamma 90.000000
_cell_volume 2816.701372
_symmetry_space_group_name_H-M "P C C M"
_symmetry_group_IT_number 49
_symmetry_cell_setting 'orthorhombic'
loop_
_space_group_symop_operation_xyz
x,y,z
-x,-y,z
x,-y,1/2-z
-x,y,1/2-z
-x,-y,-z
x,y,-z
-x,y,1/2+z
x,-y,1/2+z
loop_
_atom_site_type_symbol
_atom_site_label
_atom_site_fract_x
_atom_site_fract_y
_atom_site_fract_z
Si Si1 0.083023 0.795071 0.681511
Si Si2 0.759376 0.702956 0.182837
Si Si3 0.344854 0.929352 0.315428
Si Si4 0.851488 0.068992 0.684933
Si Si5 0.241798 0.427403 0.318037
Si Si6 0.418709 0.425657 0.182673
Si Si7 0.591504 0.216041 0.686007
O O1 0.070277 0.798751 0.500000
O O2 0.170772 0.758893 0.704200
O O3 0.097006 0.868840 0.744772
O O4 0.000000 0.763402 0.750000
O O5 0.803121 0.639151 0.265322
O O6 0.669992 0.736336 0.231571
O O7 0.751509 0.687826 0.000000
O O8 0.350269 0.932567 0.500000
O O9 0.246718 0.923754 0.272696
O O10 0.388639 0.860433 0.267633
O O11 0.376165 0.000000 0.250000
O O12 0.854208 0.068483 0.500000
O O13 0.882270 0.000000 0.750000
O O14 0.220326 0.500000 0.250000
O O15 0.246827 0.434511 0.500000
O O16 0.330826 0.404288 0.247257
O O17 0.420764 0.500000 0.250000
O O18 0.500000 0.390773 0.250000
O O19 0.420873 0.426255 0.000000
O O20 0.500000 0.234185 0.750000
O O21 0.588912 0.218975 0.500000
#
# Coordination Sequence:
#
# PCOD9392210 Si02
#       7
#     8   8   8   8   8   8   8
#     4  10  21  38  61  86 116 153 194 236 288 349
#     4  10  21  41  62  81 114 156 189 232 291 347
#     4   9  17  32  53  77 107 149 196 241 288 336
#     4   9  17  32  54  81 113 152 193 235 286 341
#     4  11  22  37  58  85 112 143 185 230 281 346
#     4  10  17  28  46  71 104 141 179 222 270 323
#     4  10  21  37  57  80 112 153 198 241 288 341
#
# _framework density 19.881411
#
# number of rings (size 3 to 8) (size 9 to 14) (size 15 to 20)
#    0.000    2.143    1.429    3.857    0.000    3.429 
#    0.000    4.286    0.000    0.429    0.000    3.000 
#    0.000    0.000    0.000    0.000    0.000    0.000 
#
# Total GULP energy -311929.681521 kJ/mol
# GULP energy per Si atom -5570.172884 kJ/mol
# Density = 1.983616 g / cm^3
# Si number density = 19.881411 Si / 1000 Ang^3
#
#
#
# Elastic Constant Matrix: (Units=GPa)
#
#
# Indices 1 2 3 4 5 6 
#
# 1 64.2588 18.9680 20.3606 0.0000 0.0000 0.0000
# 2 18.9680 129.0283 40.8937 0.0000 0.0000 0.0000
# 3 20.3606 40.8937 64.8920 0.0000 0.0000 0.0000
# 4 0.0000 0.0000 0.0000 35.2240 0.0000 0.0000
# 5 0.0000 0.0000 0.0000 0.0000 20.5517 0.0000
# 6 0.0000 0.0000 0.0000 0.0000 0.0000 -14.9029
#
#
#
# Elastic Compliance Matrix: (Units=1/GPa)
#
#
# Indices 1 2 3 4 5 6 
#
# 1 0.017390 -0.001034 -0.004805 0.000000 0.000000 0.000000
# 2 -0.001034 0.009746 -0.005817 0.000000 0.000000 0.000000
# 3 -0.004805 -0.005817 0.020584 0.000000 0.000000 0.000000
# 4 0.000000 0.000000 0.000000 0.028390 0.000000 0.000000
# 5 0.000000 0.000000 0.000000 0.000000 0.048658 0.000000
# 6 0.000000 0.000000 0.000000 0.000000 0.000000 -0.067101
#
#
# Mechanical properties :
#
#
# Convention : Reuss Voigt Hill
#
# Bulk Modulus (GPa) = 40.97068 46.51374 43.74221
# Shear Modulus (GPa) = 56.10837 20.03835 38.07336
#
# Velocity S-wave (km/s) = 5.31816 3.17818 4.38085
# Velocity P-wave (km/s) = 7.63955 6.07570 6.90206
#
# Compressibility (1/GPa) = 0.02440770
#
# Stress axis : x y z
#
# Youngs Moduli (GPa) = 57.50571 102.60699 48.58184
#
# Poissons Ratio (x) = 0.10605 0.23343
# Poissons Ratio (y) = 0.05944 0.28262
# Poissons Ratio (z) = 0.27631 0.59691
#
# Static dielectric constant tensor:
#      x y z
#    x 1.981400 0.000000 0.000000 
#    y 0.000000 1.761480 0.000000 
#    z 0.000000 0.000000 1.689160 
# 
# From -- ./inp_files/4100.got.cif
#   From: 2010.05.17/outbox.cif.g08.bks.cpg/sg49_3_cif.got.tgz:4100.got - 2010.06.03 21:02:19.
