data_PCOD9392779
_publ_section_title
;
Structure prediction by ZEFSAII (Michael W. Deem and Ramdas Pophale) SiO2 
 PCOD9392779
Probable space group: P C C M
;
_chemical_formula_sum "Si O2"
_cell_formula_units_Z 64
_cell_length_a 20.287404
_cell_length_b 20.379021
_cell_length_c 8.866781
_cell_angle_alpha 90.000000
_cell_angle_beta 90.000000
_cell_angle_gamma 90.000000
_cell_volume 3665.859168
_symmetry_space_group_name_H-M "P C C M"
_symmetry_group_IT_number 49
_symmetry_cell_setting 'orthorhombic'
loop_
_space_group_symop_operation_xyz
x,y,z
-x,-y,z
x,-y,1/2-z
-x,y,1/2-z
-x,-y,-z
x,y,-z
-x,y,1/2+z
x,-y,1/2+z
loop_
_atom_site_type_symbol
_atom_site_label
_atom_site_fract_x
_atom_site_fract_y
_atom_site_fract_z
Si Si1 0.251354 0.606816 0.175034
Si Si2 0.430530 0.072518 0.319486
Si Si3 0.432329 0.292148 0.180105
Si Si4 0.899379 0.567980 0.675651
Si Si5 0.066699 0.292564 0.179388
Si Si6 0.788178 0.744412 0.181254
Si Si7 0.615756 0.433285 0.320739
Si Si8 0.333049 0.175287 0.180196
O O1 0.180315 0.572337 0.185633
O O2 0.239608 0.680658 0.233655
O O3 0.307677 0.574134 0.274847
O O4 0.271971 0.606325 0.000000
O O5 0.500000 0.097790 0.250000
O O6 0.435966 0.069397 0.500000
O O7 0.370119 0.118155 0.268695
O O8 0.421675 0.000000 0.250000
O O9 0.500000 0.267870 0.250000
O O10 0.417239 0.365809 0.235242
O O11 0.373654 0.242024 0.213077
O O12 0.438612 0.294933 0.000000
O O13 0.921066 0.500000 0.750000
O O14 0.918125 0.570411 0.500000
O O15 0.924283 0.633400 0.758097
O O16 0.134097 0.253654 0.216650
O O17 0.000000 0.264773 0.250000
O O18 0.060680 0.295389 0.000000
O O19 0.742608 0.806871 0.217438
O O20 0.781518 0.733043 0.000000
O O21 0.588965 0.500000 0.250000
O O22 0.609958 0.436423 0.500000
O O23 0.337909 0.162442 0.000000
#
# Coordination Sequence:
#
# PCOD9392779 Si02
#       8
#     8   8   8   8   8   8   8   8
#     4  10  19  31  49  72  95 122 158 207 261 317
#     4  11  22  37  57  85 119 158 192 224 261 308
#     4  10  22  37  53  71  97 129 167 213 264 315
#     4  10  20  32  46  67  92 120 159 205 256 319
#     4  10  20  34  52  72  98 133 166 207 260 316
#     4   9  18  34  55  76 103 136 170 211 261 309
#     4  11  22  36  50  67  90 123 163 213 270 325
#     4  10  19  36  58  82 109 141 179 222 263 309
#
# _framework density 17.458390000000001
#
# number of rings (size 3 to 8) (size 9 to 14) (size 15 to 20)
#    0.000    1.875    1.250    3.750    0.000    6.500 
#    0.000    2.500    0.000    0.000    0.000    0.000 
#    0.000    0.500    0.000    5.750    0.000    1.750 
#
# Total GULP energy -357387.586963 kJ/mol
# GULP energy per Si atom -5584.181046 kJ/mol
# Density = 1.741865 g / cm^3
# Si number density = 17.458390 Si / 1000 Ang^3
#
#
#
# Elastic Constant Matrix: (Units=GPa)
#
#
# Indices 1 2 3 4 5 6 
#
# 1 105.0926 37.6513 39.9672 0.0000 0.0000 0.0000
# 2 37.6513 68.6967 35.7653 0.0000 0.0000 0.0000
# 3 39.9672 35.7653 64.6054 0.0000 0.0000 0.0000
# 4 0.0000 0.0000 0.0000 18.3273 0.0000 0.0000
# 5 0.0000 0.0000 0.0000 0.0000 -4.9580 0.0000
# 6 0.0000 0.0000 0.0000 0.0000 0.0000 11.7302
#
#
#
# Elastic Compliance Matrix: (Units=1/GPa)
#
#
# Indices 1 2 3 4 5 6 
#
# 1 0.013256 -0.004209 -0.005871 0.000000 0.000000 0.000000
# 2 -0.004209 0.021787 -0.009458 0.000000 0.000000 0.000000
# 3 -0.005871 -0.009458 0.024346 0.000000 0.000000 0.000000
# 4 0.000000 0.000000 0.000000 0.054563 0.000000 0.000000
# 5 0.000000 0.000000 0.000000 0.000000 -0.201696 0.000000
# 6 0.000000 0.000000 0.000000 0.000000 0.000000 0.085250
#
#
# Mechanical properties :
#
#
# Convention : Reuss Voigt Hill
#
# Bulk Modulus (GPa) = 49.22435 51.68470 50.45452
# Shear Modulus (GPa) = 115.33278 13.35398 64.34338
#
# Velocity S-wave (km/s) = 8.13664 2.76869 6.07744
# Velocity P-wave (km/s) = 10.79489 6.31582 8.84362
#
# Compressibility (1/GPa) = 0.02031515
#
# Stress axis : x y z
#
# Youngs Moduli (GPa) = 75.43787 45.89791 41.07448
#
# Poissons Ratio (x) = 0.19318 0.24113
# Poissons Ratio (y) = 0.31752 0.38847
# Poissons Ratio (z) = 0.44286 0.43409
#
# Static dielectric constant tensor:
#      x y z
#    x 1.626920 0.000000 0.000000 
#    y 0.000000 1.580410 0.000000 
#    z 0.000000 0.000000 1.586450 
# 
# From -- ./inp_files/6089.got.cif
#   From: 2010.05.17/outbox.cif.g08.bks.cpg/sg49_4_cif.got.tgz:6089.got - 2010.06.03 21:02:19.
