data_PCOD9392675
_publ_section_title
;
Structure prediction by ZEFSAII (Michael W. Deem and Ramdas Pophale) SiO2 
 PCOD9392675
Probable space group: P C C M
;
_chemical_formula_sum "Si O2"
_cell_formula_units_Z 64
_cell_length_a 14.550338
_cell_length_b 14.984967
_cell_length_c 16.880511
_cell_angle_alpha 90.000000
_cell_angle_beta 90.000000
_cell_angle_gamma 90.000000
_cell_volume 3680.564747
_symmetry_space_group_name_H-M "P C C M"
_symmetry_group_IT_number 49
_symmetry_cell_setting 'orthorhombic'
loop_
_space_group_symop_operation_xyz
x,y,z
-x,-y,z
x,-y,1/2-z
-x,y,1/2-z
-x,-y,-z
x,y,-z
-x,y,1/2+z
x,-y,1/2+z
loop_
_atom_site_type_symbol
_atom_site_label
_atom_site_fract_x
_atom_site_fract_y
_atom_site_fract_z
Si Si1 0.479019 0.396697 0.091297
Si Si2 0.000787 0.104552 0.596714
Si Si3 0.518407 0.112845 0.343429
Si Si4 0.317672 0.991134 0.592851
Si Si5 0.799662 0.152658 0.093275
Si Si6 0.808756 0.814706 0.906936
Si Si7 0.630136 0.748281 0.366356
Si Si8 0.652689 0.274630 0.321204
O O1 0.500000 0.500000 0.105875
O O2 0.568742 0.333840 0.103490
O O3 0.398112 0.362352 0.147984
O O4 0.449723 0.385889 0.000000
O O5 0.996345 0.103813 0.500000
O O6 0.096138 0.150430 0.623005
O O7 0.910302 0.158438 0.621584
O O8 0.000000 0.000000 0.620870
O O9 0.500000 0.105251 0.250000
O O10 0.583708 0.030329 0.368892
O O11 0.428570 0.160076 0.382195
O O12 0.590069 0.194877 0.355988
O O13 0.336230 0.007573 0.500000
O O14 0.250764 0.905791 0.597175
O O15 0.258392 0.070938 0.630173
O O16 0.732575 0.236956 0.101055
O O17 0.808060 0.132043 0.000000
O O18 0.754195 0.742910 0.854438
O O19 0.811115 0.788056 0.000000
O O20 0.642704 0.735283 0.272540
#
# Coordination Sequence:
#
# PCOD9392675 Si02
#       8
#     8   8   8   8   8   8   8   8
#     4  10  20  35  57  82 103 123 152 193 239 292
#     4   9  15  27  48  71  95 127 173 222 262 292
#     4   8  16  30  42  58  88 127 162 196 234 279
#     4   9  16  26  44  66  86 119 167 211 247 281
#     4  10  19  30  45  67  95 128 169 214 253 290
#     4   9  15  27  49  72  95 126 168 217 253 284
#     4  10  20  33  46  66 100 135 162 194 238 296
#     4   9  18  32  49  71  99 129 162 195 238 292
#
# _framework density 17.388636000000002
#
# number of rings (size 3 to 8) (size 9 to 14) (size 15 to 20)
#    0.000    2.750    1.250    1.875    0.000    5.000 
#    0.000   10.625    0.000    0.750    0.000    0.875 
#    0.000    7.000    0.000    0.000    0.000    0.000 
#
# Total GULP energy -356480.088135 kJ/mol
# GULP energy per Si atom -5570.001377 kJ/mol
# Density = 1.734906 g / cm^3
# Si number density = 17.388636 Si / 1000 Ang^3
#
#
#
# Elastic Constant Matrix: (Units=GPa)
#
#
# Indices 1 2 3 4 5 6 
#
# 1 146.0548 25.0689 29.3816 0.0000 0.0000 0.0000
# 2 25.0689 51.9923 15.3598 0.0000 0.0000 0.0000
# 3 29.3816 15.3598 20.3496 0.0000 0.0000 0.0000
# 4 0.0000 0.0000 0.0000 13.4763 0.0000 0.0000
# 5 0.0000 0.0000 0.0000 0.0000 8.5479 0.0000
# 6 0.0000 0.0000 0.0000 0.0000 0.0000 9.5240
#
#
#
# Elastic Compliance Matrix: (Units=1/GPa)
#
#
# Indices 1 2 3 4 5 6 
#
# 1 0.009669 -0.000692 -0.013438 0.000000 0.000000 0.000000
# 2 -0.000692 0.024803 -0.017722 0.000000 0.000000 0.000000
# 3 -0.013438 -0.017722 0.081919 0.000000 0.000000 0.000000
# 4 0.000000 0.000000 0.000000 0.074204 0.000000 0.000000
# 5 0.000000 0.000000 0.000000 0.000000 0.116988 0.000000
# 6 0.000000 0.000000 0.000000 0.000000 0.000000 0.104998
#
#
# Mechanical properties :
#
#
# Convention : Reuss Voigt Hill
#
# Bulk Modulus (GPa) = 18.97981 39.77969 29.37975
# Shear Modulus (GPa) = 10.12460 16.21541 13.17001
#
# Velocity S-wave (km/s) = 2.41561 3.05705 2.75506
# Velocity P-wave (km/s) = 4.32655 5.94872 5.20126
#
# Compressibility (1/GPa) = 0.05268757
#
# Stress axis : x y z
#
# Youngs Moduli (GPa) = 103.42550 40.31818 12.20717
#
# Poissons Ratio (x) = 0.02790 0.16404
# Poissons Ratio (y) = 0.07158 0.21633
# Poissons Ratio (z) = 1.38981 0.71450
#
# Static dielectric constant tensor:
#      x y z
#    x 1.642970 0.000000 0.000000 
#    y 0.000000 1.617680 0.000000 
#    z 0.000000 0.000000 1.610500 
# 
# From -- ./inp_files/18009.got.cif
#   From: 2010.05.17/outbox.cif.g08.bks.cpg/sg49_10_cif.got.tgz:18009.got - 2010.06.03 21:02:19.
