data_PCOD9392336
_publ_section_title
;
Structure prediction by ZEFSAII (Michael W. Deem and Ramdas Pophale) SiO2 
 PCOD9392336
Probable space group: P C C M
;
_chemical_formula_sum "Si O2"
_cell_formula_units_Z 64
_cell_length_a 24.382199
_cell_length_b 19.714513
_cell_length_c 8.575506
_cell_angle_alpha 90.000000
_cell_angle_beta 90.000000
_cell_angle_gamma 90.000000
_cell_volume 4122.101487
_symmetry_space_group_name_H-M "P C C M"
_symmetry_group_IT_number 49
_symmetry_cell_setting 'orthorhombic'
loop_
_space_group_symop_operation_xyz
x,y,z
-x,-y,z
x,-y,1/2-z
-x,y,1/2-z
-x,-y,-z
x,y,-z
-x,y,1/2+z
x,-y,1/2+z
loop_
_atom_site_type_symbol
_atom_site_label
_atom_site_fract_x
_atom_site_fract_y
_atom_site_fract_z
Si Si1 0.059353 0.423738 0.312122
Si Si2 0.769840 0.217201 0.811189
Si Si3 0.167370 0.346315 0.310532
Si Si4 0.260451 0.927836 0.187468
Si Si5 0.611156 0.072973 0.186894
Si Si6 0.559739 0.789748 0.813341
Si Si7 0.335727 0.296515 0.812834
Si Si8 0.722007 0.575437 0.312946
O O1 0.068660 0.500000 0.250000
O O2 0.058061 0.425675 0.500000
O O3 0.109483 0.376349 0.258725
O O4 0.000000 0.401404 0.250000
O O5 0.816724 0.270105 0.760234
O O6 0.771922 0.139171 0.759599
O O7 0.712676 0.249063 0.753707
O O8 0.768842 0.217651 0.000000
O O9 0.166439 0.346456 0.500000
O O10 0.218383 0.394420 0.263823
O O11 0.324583 0.919685 0.234341
O O12 0.240713 0.000000 0.250000
O O13 0.259354 0.930093 0.000000
O O14 0.577838 0.136319 0.252325
O O15 0.592098 0.000000 0.250000
O O16 0.608505 0.073212 0.000000
O O17 0.500000 0.772378 0.750000
O O18 0.606441 0.735954 0.764640
O O19 0.558516 0.791731 0.000000
O O20 0.322677 0.371409 0.750085
O O21 0.332671 0.296702 0.000000
O O22 0.714880 0.500000 0.250000
O O23 0.720514 0.575441 0.500000
#
# Coordination Sequence:
#
# PCOD9392336 Si02
#       8
#     8   8   8   8   8   8   8   8
#     4  10  18  29  43  62  89 126 162 195 224 259
#     4   9  16  30  48  67  90 121 153 185 227 273
#     4   8  16  28  45  67  93 122 156 191 224 263
#     4   9  17  27  44  66  91 121 150 180 220 271
#     4  10  19  32  49  69  92 120 151 186 224 268
#     4  11  23  36  51  69  90 117 151 189 226 271
#     4  10  20  33  49  70  93 116 145 183 226 274
#     4  10  19  32  51  73  96 121 148 183 225 272
#
# _framework density 15.526061
#
# number of rings (size 3 to 8) (size 9 to 14) (size 15 to 20)
#    0.000    2.375    1.250    3.375    0.000    2.750 
#    0.000    6.875    0.000    0.375    0.000    2.625 
#    0.000    0.500    0.000    6.250    0.000    0.000 
#
# Total GULP energy -356858.511533 kJ/mol
# GULP energy per Si atom -5575.914243 kJ/mol
# Density = 1.549072 g / cm^3
# Si number density = 15.526061 Si / 1000 Ang^3
#
#
#
# Elastic Constant Matrix: (Units=GPa)
#
#
# Indices 1 2 3 4 5 6 
#
# 1 111.6448 74.9051 24.6679 0.0000 0.0000 0.0000
# 2 74.9051 143.9641 23.3427 0.0000 0.0000 0.0000
# 3 24.6679 23.3427 27.4035 0.0000 0.0000 0.0000
# 4 0.0000 0.0000 0.0000 23.1737 0.0000 0.0000
# 5 0.0000 0.0000 0.0000 0.0000 14.0472 0.0000
# 6 0.0000 0.0000 0.0000 0.0000 0.0000 26.2075
#
#
#
# Elastic Compliance Matrix: (Units=1/GPa)
#
#
# Indices 1 2 3 4 5 6 
#
# 1 0.015144 -0.006578 -0.008029 0.000000 0.000000 0.000000
# 2 -0.006578 0.010916 -0.003378 0.000000 0.000000 0.000000
# 3 -0.008029 -0.003378 0.046597 0.000000 0.000000 0.000000
# 4 0.000000 0.000000 0.000000 0.043152 0.000000 0.000000
# 5 0.000000 0.000000 0.000000 0.000000 0.071189 0.000000
# 6 0.000000 0.000000 0.000000 0.000000 0.000000 0.038157
#
#
# Mechanical properties :
#
#
# Convention : Reuss Voigt Hill
#
# Bulk Modulus (GPa) = 27.25707 58.76043 43.00875
# Shear Modulus (GPa) = 18.29132 23.35880 20.82506
#
# Velocity S-wave (km/s) = 3.43608 3.88298 3.66635
# Velocity P-wave (km/s) = 5.77373 7.61787 6.75899
#
# Compressibility (1/GPa) = 0.03668773
#
# Stress axis : x y z
#
# Youngs Moduli (GPa) = 66.03195 91.60697 21.46076
#
# Poissons Ratio (x) = 0.60256 0.17232
# Poissons Ratio (y) = 0.43434 0.07248
# Poissons Ratio (z) = 0.53020 0.30941
#
# Static dielectric constant tensor:
#      x y z
#    x 1.506670 0.000000 0.000000 
#    y 0.000000 1.523200 0.000000 
#    z 0.000000 0.000000 1.527460 
# 
# From -- ./inp_files/6623.got.cif
#   From: 2010.05.17/outbox.cif.g08.bks.cpg/sg49_4_cif.got.tgz:6623.got - 2010.06.03 21:02:19.
