data_PCOD9392800
_publ_section_title
;
Structure prediction by ZEFSAII (Michael W. Deem and Ramdas Pophale) SiO2 
 PCOD9392800
Probable space group: P C C M
;
_chemical_formula_sum "Si O2"
_cell_formula_units_Z 56
_cell_length_a 23.190273
_cell_length_b 15.353727
_cell_length_c 8.633242
_cell_angle_alpha 90.000000
_cell_angle_beta 90.000000
_cell_angle_gamma 90.000000
_cell_volume 3073.927289
_symmetry_space_group_name_H-M "P C C M"
_symmetry_group_IT_number 49
_symmetry_cell_setting 'orthorhombic'
loop_
_space_group_symop_operation_xyz
x,y,z
-x,-y,z
x,-y,1/2-z
-x,y,1/2-z
-x,-y,-z
x,y,-z
-x,y,1/2+z
x,-y,1/2+z
loop_
_atom_site_type_symbol
_atom_site_label
_atom_site_fract_x
_atom_site_fract_y
_atom_site_fract_z
Si Si1 0.208861 0.405545 0.685768
Si Si2 0.834136 0.222166 0.813229
Si Si3 0.739424 0.906348 0.814594
Si Si4 0.439475 0.723381 0.313300
Si Si5 0.064096 0.094699 0.686359
Si Si6 0.395238 0.907485 0.686325
Si Si7 0.337053 0.594640 0.686461
O O1 0.191283 0.500000 0.750000
O O2 0.210404 0.410582 0.500000
O O3 0.170025 0.323198 0.733711
O O4 0.273646 0.387265 0.746340
O O5 0.779164 0.169798 0.750054
O O6 0.890921 0.169051 0.764659
O O7 0.832019 0.219608 0.000000
O O8 0.672231 0.896051 0.769166
O O9 0.759059 0.000000 0.750000
O O10 0.742506 0.907101 0.000000
O O11 0.500000 0.689744 0.250000
O O12 0.441255 0.723401 0.500000
O O13 0.429289 0.822597 0.259200
O O14 0.384691 0.665280 0.267354
O O15 0.062265 0.090591 0.500000
O O16 0.000000 0.111192 0.750000
O O17 0.082532 0.000000 0.750000
O O18 0.397408 0.910318 0.500000
O O19 0.415745 0.000000 0.750000
O O20 0.354308 0.500000 0.750000
O O21 0.333147 0.592503 0.500000
#
# Coordination Sequence:
#
# PCOD9392800 Si02
#       7
#     8   8   8   8   8   8   8
#     4  10  20  35  55  80 107 135 168 209 256 308
#     4  10  21  34  51  77 108 138 172 214 257 301
#     4  10  19  31  50  75 104 134 167 206 253 308
#     4  10  22  37  52  71  97 127 164 206 249 298
#     4  10  20  35  53  76 107 143 180 216 252 294
#     4   9  19  35  51  70  96 128 163 203 248 297
#     4  10  20  36  56  78 103 131 163 203 252 308
#
# _framework density 18.217737
#
# number of rings (size 3 to 8) (size 9 to 14) (size 15 to 20)
#    0.000    2.143    0.000    4.286    0.000    7.429 
#    0.000    2.857    0.000    0.429    0.000    3.000 
#    0.000    0.000    0.000    0.000    0.000    0.000 
#
# Total GULP energy -312660.938979 kJ/mol
# GULP energy per Si atom -5583.231053 kJ/mol
# Density = 1.817627 g / cm^3
# Si number density = 18.217737 Si / 1000 Ang^3
#
#
#
# Elastic Constant Matrix: (Units=GPa)
#
#
# Indices 1 2 3 4 5 6 
#
# 1 63.0645 66.5892 20.7884 0.0000 0.0000 0.0000
# 2 66.5892 146.1854 31.8120 0.0000 0.0000 0.0000
# 3 20.7884 31.8120 26.0194 0.0000 0.0000 0.0000
# 4 0.0000 0.0000 0.0000 16.3072 0.0000 0.0000
# 5 0.0000 0.0000 0.0000 0.0000 9.5224 0.0000
# 6 0.0000 0.0000 0.0000 0.0000 0.0000 59.2659
#
#
#
# Elastic Compliance Matrix: (Units=1/GPa)
#
#
# Indices 1 2 3 4 5 6 
#
# 1 0.032621 -0.012518 -0.010758 0.000000 0.000000 0.000000
# 2 -0.012518 0.014124 -0.007267 0.000000 0.000000 0.000000
# 3 -0.010758 -0.007267 0.055913 0.000000 0.000000 0.000000
# 4 0.000000 0.000000 0.000000 0.061323 0.000000 0.000000
# 5 0.000000 0.000000 0.000000 0.000000 0.105015 0.000000
# 6 0.000000 0.000000 0.000000 0.000000 0.000000 0.016873
#
#
# Mechanical properties :
#
#
# Convention : Reuss Voigt Hill
#
# Bulk Modulus (GPa) = 24.05473 52.62760 38.34117
# Shear Modulus (GPa) = 13.85766 24.75774 19.30770
#
# Velocity S-wave (km/s) = 2.76101 3.69045 3.25903
# Velocity P-wave (km/s) = 4.83704 6.86368 5.93747
#
# Compressibility (1/GPa) = 0.04157186
#
# Stress axis : x y z
#
# Youngs Moduli (GPa) = 30.65545 70.80034 17.88505
#
# Poissons Ratio (x) = 0.88629 0.19240
# Poissons Ratio (y) = 0.38375 0.12997
# Poissons Ratio (z) = 0.32978 0.51452
#
# Static dielectric constant tensor:
#      x y z
#    x 1.611000 0.000000 0.000000 
#    y 0.000000 1.640950 0.000000 
#    z 0.000000 0.000000 1.616850 
# 
# From -- ./inp_files/5768.got.cif
#   From: 2010.05.17/outbox.cif.g08.bks.cpg/sg49_3_cif.got.tgz:5768.got - 2010.06.03 21:02:19.
