data_PCOD9392954
_publ_section_title
;
Structure prediction by ZEFSAII (Michael W. Deem and Ramdas Pophale) SiO2 
 PCOD9392954
Probable space group: P C C M
;
_chemical_formula_sum "Si O2"
_cell_formula_units_Z 52
_cell_length_a 15.403839
_cell_length_b 6.620284
_cell_length_c 28.691175
_cell_angle_alpha 90.000000
_cell_angle_beta 90.000000
_cell_angle_gamma 90.000000
_cell_volume 2925.862587
_symmetry_space_group_name_H-M "P C C M"
_symmetry_group_IT_number 49
_symmetry_cell_setting 'orthorhombic'
loop_
_space_group_symop_operation_xyz
x,y,z
-x,-y,z
x,-y,1/2-z
-x,y,1/2-z
-x,-y,-z
x,y,-z
-x,y,1/2+z
x,-y,1/2+z
loop_
_atom_site_type_symbol
_atom_site_label
_atom_site_fract_x
_atom_site_fract_y
_atom_site_fract_z
Si Si1 0.000000 0.000000 0.824614
Si Si2 0.125567 0.643189 0.703765
Si Si3 0.151329 0.734170 0.140918
Si Si4 0.399320 0.059712 0.113232
Si Si5 0.275633 0.027944 0.197135
Si Si6 0.403187 0.587334 0.450532
Si Si7 0.728125 0.219546 0.946922
O O1 0.069644 0.882377 0.855618
O O2 0.948537 0.819641 0.797206
O O3 0.121345 0.500000 0.750000
O O4 0.124040 0.484759 0.660779
O O5 0.213377 0.774668 0.697798
O O6 0.194721 0.740387 0.089956
O O7 0.219361 0.839084 0.177179
O O8 0.357579 0.042856 0.163663
O O9 0.391935 0.285259 0.095254
O O10 0.500000 0.000000 0.110515
O O11 0.337723 0.936375 0.077789
O O12 0.302024 0.000000 0.250000
O O13 0.500000 0.500000 0.449829
O O14 0.396412 0.704592 0.500000
O O15 0.330280 0.418738 0.450759
O O16 0.753785 0.161439 0.000000
#
# Coordination Sequence:
#
# PCOD9392954 Si02
#       7
#     4   8   8   8   8   8   8
#     4  10  24  37  57  94 118 140 191 234 283 348
#     4  11  21  38  62  84 115 152 182 237 291 338
#     4  10  21  38  58  83 118 154 183 231 288 337
#     4  11  21  34  57  82 114 153 190 242 292 329
#     4  10  21  38  54  80 115 151 198 229 274 348
#     4  10  19  32  53  82 112 140 186 243 290 338
#     4  10  21  37  59  85 114 151 195 236 284 342
#
# _framework density 17.772535000000001
#
# number of rings (size 3 to 8) (size 9 to 14) (size 15 to 20)
#    0.000    1.692    3.077    1.846    0.000    2.769 
#    0.000    0.385    0.000    1.846    0.000    0.000 
#    0.000    0.000    0.000    0.000    0.000    0.000 
#
# Total GULP energy -289797.108712 kJ/mol
# GULP energy per Si atom -5573.021321 kJ/mol
# Density = 1.773208 g / cm^3
# Si number density = 17.772535 Si / 1000 Ang^3
#
#
#
# Elastic Constant Matrix: (Units=GPa)
#
#
# Indices 1 2 3 4 5 6 
#
# 1 51.5133 27.2159 36.3861 0.0000 0.0000 0.0000
# 2 27.2159 84.0918 41.5376 0.0000 0.0000 0.0000
# 3 36.3861 41.5376 139.4087 0.0000 0.0000 0.0000
# 4 0.0000 0.0000 0.0000 20.8164 0.0000 0.0000
# 5 0.0000 0.0000 0.0000 0.0000 15.4273 0.0000
# 6 0.0000 0.0000 0.0000 0.0000 0.0000 21.0973
#
#
#
# Elastic Compliance Matrix: (Units=1/GPa)
#
#
# Indices 1 2 3 4 5 6 
#
# 1 0.026125 -0.005965 -0.005041 0.000000 0.000000 0.000000
# 2 -0.005965 0.015306 -0.003004 0.000000 0.000000 0.000000
# 3 -0.005041 -0.003004 0.009384 0.000000 0.000000 0.000000
# 4 0.000000 0.000000 0.000000 0.048039 0.000000 0.000000
# 5 0.000000 0.000000 0.000000 0.000000 0.064820 0.000000
# 6 0.000000 0.000000 0.000000 0.000000 0.000000 0.047400
#
#
# Mechanical properties :
#
#
# Convention : Reuss Voigt Hill
#
# Bulk Modulus (GPa) = 43.86966 53.92144 48.89555
# Shear Modulus (GPa) = 20.26820 22.79313 21.53066
#
# Velocity S-wave (km/s) = 3.38068 3.58507 3.48438
# Velocity P-wave (km/s) = 6.32267 6.89512 6.61509
#
# Compressibility (1/GPa) = 0.02279480
#
# Stress axis : x y z
#
# Youngs Moduli (GPa) = 38.27777 65.33408 106.56543
#
# Poissons Ratio (x) = 0.38972 0.53724
# Poissons Ratio (y) = 0.22833 0.32008
# Poissons Ratio (z) = 0.19297 0.19624
#
# Static dielectric constant tensor:
#      x y z
#    x 1.446390 0.000000 0.000000 
#    y 0.000000 1.640650 0.000000 
#    z 0.000000 0.000000 1.632650 
# 
# From -- ./inp_files/25139.got.cif
#   From: 2010.05.17/outbox.cif.g08.bks.cpg/sg49_13_cif.got.tgz:25139.got - 2010.06.03 21:02:19.
