data_PCOD9392621
_publ_section_title
;
Structure prediction by ZEFSAII (Michael W. Deem and Ramdas Pophale) SiO2 
 PCOD9392621
Probable space group: P C C M
;
_chemical_formula_sum "Si O2"
_cell_formula_units_Z 52
_cell_length_a 11.165506
_cell_length_b 27.877506
_cell_length_c 10.135112
_cell_angle_alpha 90.000000
_cell_angle_beta 90.000000
_cell_angle_gamma 90.000000
_cell_volume 3154.720439
_symmetry_space_group_name_H-M "P C C M"
_symmetry_group_IT_number 49
_symmetry_cell_setting 'orthorhombic'
loop_
_space_group_symop_operation_xyz
x,y,z
-x,-y,z
x,-y,1/2-z
-x,y,1/2-z
-x,-y,-z
x,y,-z
-x,y,1/2+z
x,-y,1/2+z
loop_
_atom_site_type_symbol
_atom_site_label
_atom_site_fract_x
_atom_site_fract_y
_atom_site_fract_z
Si Si1 0.645737 0.884270 0.258999
Si Si2 0.647273 0.939794 0.000000
Si Si3 0.615128 0.781083 0.655393
Si Si4 0.644568 0.949884 0.500000
Si Si5 0.323083 0.541245 0.644770
Si Si6 0.278237 0.677433 0.849411
Si Si7 0.500000 0.381994 0.750000
Si Si8 0.884458 0.616731 0.157567
O O1 0.500000 0.883149 0.250000
O O2 0.677962 0.829796 0.294252
O O3 0.683397 0.920483 0.372928
O O4 0.685500 0.908564 0.124500
O O5 0.501534 0.945898 0.000000
O O6 0.685955 0.995211 0.000000
O O7 0.500000 0.773628 0.750000
O O8 0.580425 0.787828 0.500000
O O9 0.696486 0.733929 0.663034
O O10 0.341018 0.500000 0.750000
O O11 0.328371 0.519474 0.500000
O O12 0.422239 0.582643 0.659320
O O13 0.197704 0.569034 0.662783
O O14 0.405518 0.650621 0.828259
O O15 0.192205 0.657569 0.734514
O O16 0.235744 0.667271 0.000000
O O17 0.000000 0.610101 0.250000
O O18 0.905734 0.626607 0.000000
#
# Coordination Sequence:
#
# PCOD9392621 Si02
#       8
#     8   4   8   4   8   8   4   8
#     4   9  16  24  33  52  75 108 152 202 247 286
#     4   9  16  22  34  48  68 108 153 201 247 284
#     4  10  19  29  43  63  91 125 160 203 250 294
#     4   9  14  24  34  46  72 104 153 203 243 286
#     4  10  22  36  54  79 107 136 167 200 244 291
#     4  10  20  34  53  76 100 134 171 207 255 299
#     4  10  19  34  52  78 106 138 171 208 242 290
#     4  10  22  40  59  79 102 129 165 208 248 298
#
# _framework density 16.483236000000002
#
# number of rings (size 3 to 8) (size 9 to 14) (size 15 to 20)
#    0.000    2.308    1.538    1.615    3.231    7.692 
#    0.000    1.538    0.000    0.000    0.000    0.000 
#    0.000    0.000    0.000    0.000    0.000    4.615 
#
# Total GULP energy -289620.294524 kJ/mol
# GULP energy per Si atom -5569.621049 kJ/mol
# Density = 1.644572 g / cm^3
# Si number density = 16.483236 Si / 1000 Ang^3
#
#
#
# Elastic Constant Matrix: (Units=GPa)
#
#
# Indices 1 2 3 4 5 6 
#
# 1 47.8706 14.7281 24.6323 0.0000 0.0000 0.0000
# 2 14.7281 115.9461 64.5249 0.0000 0.0000 0.0000
# 3 24.6323 64.5249 149.7983 0.0000 0.0000 0.0000
# 4 0.0000 0.0000 0.0000 24.0780 0.0000 0.0000
# 5 0.0000 0.0000 0.0000 0.0000 9.4971 0.0000
# 6 0.0000 0.0000 0.0000 0.0000 0.0000 5.5818
#
#
#
# Elastic Compliance Matrix: (Units=1/GPa)
#
#
# Indices 1 2 3 4 5 6 
#
# 1 0.022921 -0.001071 -0.003308 0.000000 0.000000 0.000000
# 2 -0.001071 0.011394 -0.004732 0.000000 0.000000 0.000000
# 3 -0.003308 -0.004732 0.009258 0.000000 0.000000 0.000000
# 4 0.000000 0.000000 0.000000 0.041532 0.000000 0.000000
# 5 0.000000 0.000000 0.000000 0.000000 0.105296 0.000000
# 6 0.000000 0.000000 0.000000 0.000000 0.000000 0.179153
#
#
# Mechanical properties :
#
#
# Convention : Reuss Voigt Hill
#
# Bulk Modulus (GPa) = 39.44446 57.93174 48.68810
# Shear Modulus (GPa) = 12.61910 21.81336 17.21623
#
# Velocity S-wave (km/s) = 2.76990 3.64176 3.23533
# Velocity P-wave (km/s) = 5.84908 7.27361 6.59989
#
# Compressibility (1/GPa) = 0.02535210
#
# Stress axis : x y z
#
# Youngs Moduli (GPa) = 43.62783 87.76529 108.01691
#
# Poissons Ratio (x) = 0.09397 0.35731
# Poissons Ratio (y) = 0.04671 0.51112
# Poissons Ratio (z) = 0.14432 0.41529
#
# Static dielectric constant tensor:
#      x y z
#    x 1.543780 0.000000 0.000000 
#    y 0.000000 1.549440 0.000000 
#    z 0.000000 0.000000 1.514210 
# 
# From -- ./inp_files/3050.got.cif
#   From: 2010.05.17/outbox.cif.g08.bks.cpg/sg49_2_cif.got.tgz:3050.got - 2010.06.03 21:02:19.
