data_PCOD9392521
_publ_section_title
;
Structure prediction by ZEFSAII (Michael W. Deem and Ramdas Pophale) SiO2 
 PCOD9392521
Probable space group: P C C M
;
_chemical_formula_sum "Si O2"
_cell_formula_units_Z 48
_cell_length_a 16.396674
_cell_length_b 9.653958
_cell_length_c 17.634686
_cell_angle_alpha 90.000000
_cell_angle_beta 90.000000
_cell_angle_gamma 90.000000
_cell_volume 2791.443862
_symmetry_space_group_name_H-M "P C C M"
_symmetry_group_IT_number 49
_symmetry_cell_setting 'orthorhombic'
loop_
_space_group_symop_operation_xyz
x,y,z
-x,-y,z
x,-y,1/2-z
-x,y,1/2-z
-x,-y,-z
x,y,-z
-x,y,1/2+z
x,-y,1/2+z
loop_
_atom_site_type_symbol
_atom_site_label
_atom_site_fract_x
_atom_site_fract_y
_atom_site_fract_z
Si Si1 0.319414 0.975861 0.090927
Si Si2 0.668115 0.547731 0.668656
Si Si3 0.379760 0.734658 0.588937
Si Si4 0.802698 0.263384 0.090003
Si Si5 0.061321 0.607947 0.191547
Si Si6 0.456736 0.203248 0.670938
O O1 0.237446 0.887641 0.104593
O O2 0.391361 0.905522 0.139333
O O3 0.320296 0.137962 0.110692
O O4 0.337054 0.963522 0.000000
O O5 0.700778 0.500000 0.750000
O O6 0.639626 0.408130 0.629000
O O7 0.733611 0.628411 0.617668
O O8 0.592763 0.653205 0.680909
O O9 0.373166 0.714457 0.500000
O O10 0.470993 0.779092 0.610889
O O11 0.881677 0.301708 0.139468
O O12 0.817193 0.276580 0.000000
O O13 0.105937 0.500000 0.250000
O O14 0.000000 0.500000 0.148534
O O15 0.000000 0.686440 0.250000
O O16 0.500000 0.166630 0.750000
#
# Coordination Sequence:
#
# PCOD9392521 Si02
#       6
#     8   8   8   8   8   8
#     4   9  21  36  51  74 105 144 185 226 278 331
#     4  11  22  35  51  73 106 138 185 238 286 326
#     4  11  22  36  52  72 103 141 184 234 281 331
#     4  10  18  33  55  79 109 144 181 221 267 332
#     4   6  15  30  50  82 115 139 168 212 274 314
#     4  11  21  35  50  73 100 140 190 237 285 327
#
# _framework density 17.195402000000001
#
# number of rings (size 3 to 8) (size 9 to 14) (size 15 to 20)
#    1.000    1.333    1.667    2.500    0.000    5.667 
#    0.000    0.000    0.000    0.000    0.000    2.333 
#    0.000    5.333    0.000    0.000    0.000    0.000 
#
# Total GULP energy -267218.895397 kJ/mol
# GULP energy per Si atom -5567.060321 kJ/mol
# Density = 1.715626 g / cm^3
# Si number density = 17.195402 Si / 1000 Ang^3
#
#
#
# Elastic Constant Matrix: (Units=GPa)
#
#
# Indices 1 2 3 4 5 6 
#
# 1 77.0752 17.9630 28.6831 0.0000 0.0000 0.0000
# 2 17.9630 66.8701 20.4660 0.0000 0.0000 0.0000
# 3 28.6831 20.4660 57.0681 0.0000 0.0000 0.0000
# 4 0.0000 0.0000 0.0000 12.8498 0.0000 0.0000
# 5 0.0000 0.0000 0.0000 0.0000 11.2118 0.0000
# 6 0.0000 0.0000 0.0000 0.0000 0.0000 5.0957
#
#
#
# Elastic Compliance Matrix: (Units=1/GPa)
#
#
# Indices 1 2 3 4 5 6 
#
# 1 0.016216 -0.002091 -0.007400 0.000000 0.000000 0.000000
# 2 -0.002091 0.017068 -0.005070 0.000000 0.000000 0.000000
# 3 -0.007400 -0.005070 0.023061 0.000000 0.000000 0.000000
# 4 0.000000 0.000000 0.000000 0.077822 0.000000 0.000000
# 5 0.000000 0.000000 0.000000 0.000000 0.089192 0.000000
# 6 0.000000 0.000000 0.000000 0.000000 0.000000 0.196245
#
#
# Mechanical properties :
#
#
# Convention : Reuss Voigt Hill
#
# Bulk Modulus (GPa) = 36.73566 37.24862 36.99214
# Shear Modulus (GPa) = 10.92181 14.75820 12.84000
#
# Velocity S-wave (km/s) = 2.52297 2.93279 2.73557
# Velocity P-wave (km/s) = 5.46783 5.75998 5.61581
#
# Compressibility (1/GPa) = 0.02722151
#
# Stress axis : x y z
#
# Youngs Moduli (GPa) = 61.66890 58.58994 43.36400
#
# Poissons Ratio (x) = 0.12251 0.32091
# Poissons Ratio (y) = 0.12895 0.21985
# Poissons Ratio (z) = 0.45637 0.29705
#
# Static dielectric constant tensor:
#      x y z
#    x 1.594960 0.000000 0.000000 
#    y 0.000000 1.596210 0.000000 
#    z 0.000000 0.000000 1.597410 
# 
# From -- ./inp_files/17696.got.cif
#   From: 2010.05.17/outbox.cif.g08.bks.cpg/sg49_9_cif.got.tgz:17696.got - 2010.06.03 21:02:19.
