data_PCOD9392432
_publ_section_title
;
Structure prediction by ZEFSAII (Michael W. Deem and Ramdas Pophale) SiO2 
 PCOD9392432
Probable space group: P C C M
;
_chemical_formula_sum "Si O2"
_cell_formula_units_Z 64
_cell_length_a 20.673442
_cell_length_b 20.338953
_cell_length_c 8.828120
_cell_angle_alpha 90.000000
_cell_angle_beta 90.000000
_cell_angle_gamma 90.000000
_cell_volume 3712.014043
_symmetry_space_group_name_H-M "P C C M"
_symmetry_group_IT_number 49
_symmetry_cell_setting 'orthorhombic'
loop_
_space_group_symop_operation_xyz
x,y,z
-x,-y,z
x,-y,1/2-z
-x,y,1/2-z
-x,-y,-z
x,y,-z
-x,y,1/2+z
x,-y,1/2+z
loop_
_atom_site_type_symbol
_atom_site_label
_atom_site_fract_x
_atom_site_fract_y
_atom_site_fract_z
Si Si1 0.389700 0.205625 0.318430
Si Si2 0.304795 0.572807 0.182835
Si Si3 0.434367 0.347687 0.318523
Si Si4 0.601774 0.931609 0.175122
Si Si5 0.240454 0.933261 0.674391
Si Si6 0.815464 0.347014 0.318274
Si Si7 0.071420 0.429616 0.681945
Si Si8 0.246179 0.791241 0.683233
O O1 0.389446 0.202122 0.500000
O O2 0.426008 0.271764 0.268733
O O3 0.416583 0.136833 0.254392
O O4 0.316240 0.215435 0.259916
O O5 0.307409 0.500000 0.250000
O O6 0.370416 0.611847 0.222884
O O7 0.244376 0.610781 0.254833
O O8 0.298534 0.571336 0.000000
O O9 0.500000 0.375556 0.250000
O O10 0.438796 0.348053 0.500000
O O11 0.680750 0.932291 0.183059
O O12 0.579817 0.000000 0.250000
O O13 0.582785 0.930234 0.000000
O O14 0.222295 0.936705 0.500000
O O15 0.219144 0.862162 0.734601
O O16 0.217660 0.000000 0.750000
O O17 0.820440 0.354789 0.500000
O O18 0.879443 0.374221 0.238562
O O19 0.798421 0.271079 0.284500
O O20 0.093856 0.500000 0.750000
O O21 0.069013 0.433382 0.500000
O O22 0.000000 0.418579 0.750000
O O23 0.256000 0.794297 0.500000
#
# Coordination Sequence:
#
# PCOD9392432 Si02
#       8
#     8   8   8   8   8   8   8   8
#     4  10  18  31  49  71  98 128 164 211 259 310
#     4  11  23  40  57  80 105 132 169 214 264 319
#     4  10  23  39  56  75  99 129 169 215 266 322
#     4   9  16  26  42  67  95 127 163 202 249 305
#     4   8  14  24  37  60  93 129 166 203 244 294
#     4  11  21  35  56  82 110 144 179 218 263 309
#     4  11  22  38  58  81 111 146 183 221 259 309
#     4   9  18  30  47  71 101 136 174 212 256 308
#
# _framework density 17.241313999999999
#
# number of rings (size 3 to 8) (size 9 to 14) (size 15 to 20)
#    0.000    2.125    1.250    4.125    0.000    5.750 
#    0.000    1.250    0.000    0.375    0.000    2.625 
#    0.000    0.500    0.000    5.750    0.000    1.875 
#
# Total GULP energy -357129.295871 kJ/mol
# GULP energy per Si atom -5580.145248 kJ/mol
# Density = 1.720207 g / cm^3
# Si number density = 17.241314 Si / 1000 Ang^3
#
#
#
# Elastic Constant Matrix: (Units=GPa)
#
#
# Indices 1 2 3 4 5 6 
#
# 1 58.1131 45.1574 29.0735 0.0000 0.0000 0.0000
# 2 45.1574 145.3786 50.5704 0.0000 0.0000 0.0000
# 3 29.0735 50.5704 71.7787 0.0000 0.0000 0.0000
# 4 0.0000 0.0000 0.0000 24.9562 0.0000 0.0000
# 5 0.0000 0.0000 0.0000 0.0000 18.5348 0.0000
# 6 0.0000 0.0000 0.0000 0.0000 0.0000 -89.6225
#
#
#
# Elastic Compliance Matrix: (Units=1/GPa)
#
#
# Indices 1 2 3 4 5 6 
#
# 1 0.024516 -0.005512 -0.006047 0.000000 0.000000 0.000000
# 2 -0.005512 0.010351 -0.005060 0.000000 0.000000 0.000000
# 3 -0.006047 -0.005060 0.019946 0.000000 0.000000 0.000000
# 4 0.000000 0.000000 0.000000 0.040070 0.000000 0.000000
# 5 0.000000 0.000000 0.000000 0.000000 0.053953 0.000000
# 6 0.000000 0.000000 0.000000 0.000000 0.000000 -0.011158
#
#
# Mechanical properties :
#
#
# Convention : Reuss Voigt Hill
#
# Bulk Modulus (GPa) = 46.34884 58.31922 52.33403
# Shear Modulus (GPa) = 28.07311 0.80497 14.43904
#
# Velocity S-wave (km/s) = 4.03953 0.68403 2.89704
# Velocity P-wave (km/s) = 6.97839 5.87559 6.45060
#
# Compressibility (1/GPa) = 0.02157551
#
# Stress axis : x y z
#
# Youngs Moduli (GPa) = 40.78974 96.61129 50.13569
#
# Poissons Ratio (x) = 0.53249 0.30316
# Poissons Ratio (y) = 0.22482 0.25368
# Poissons Ratio (z) = 0.24665 0.48885
#
# Static dielectric constant tensor:
#      x y z
#    x 1.563460 0.000000 0.000000 
#    y 0.000000 1.613590 0.000000 
#    z 0.000000 0.000000 1.557700 
# 
# From -- ./inp_files/6048.got.cif
#   From: 2010.05.17/outbox.cif.g08.bks.cpg/sg49_4_cif.got.tgz:6048.got - 2010.06.03 21:02:19.
