data_PCOD9392044
_publ_section_title
;
Structure prediction by ZEFSAII (Michael W. Deem and Ramdas Pophale) SiO2 
 PCOD9392044
Probable space group: P C C M
;
_chemical_formula_sum "Si O2"
_cell_formula_units_Z 30
_cell_length_a 7.164804
_cell_length_b 14.932548
_cell_length_c 9.492969
_cell_angle_alpha 90.000000
_cell_angle_beta 90.000000
_cell_angle_gamma 90.000000
_cell_volume 1015.641168
_symmetry_space_group_name_H-M "P C C M"
_symmetry_group_IT_number 49
_symmetry_cell_setting 'orthorhombic'
loop_
_space_group_symop_operation_xyz
x,y,z
-x,-y,z
x,-y,1/2-z
-x,y,1/2-z
-x,-y,-z
x,y,-z
-x,y,1/2+z
x,-y,1/2+z
loop_
_atom_site_type_symbol
_atom_site_label
_atom_site_fract_x
_atom_site_fract_y
_atom_site_fract_z
Si Si1 0.000000 0.000000 0.250000
Si Si2 0.624594 0.434218 0.500000
Si Si3 0.113036 0.191094 0.000000
Si Si4 0.248335 0.014564 0.500000
Si Si5 0.335416 0.191474 0.500000
Si Si6 0.877842 0.570010 0.500000
Si Si7 0.730389 0.688906 0.252024
O O1 0.143317 0.045015 0.356548
O O2 0.879899 0.456337 0.500000
O O3 0.376562 0.454691 0.500000
O O4 0.637010 0.382617 0.353118
O O5 0.177359 0.241969 0.859128
O O6 0.203541 0.091396 0.000000
O O7 0.890205 0.193585 0.000000
O O8 0.412285 0.088724 0.500000
O O9 0.382525 0.248059 0.362455
O O10 0.858871 0.628903 0.357937
#
# Coordination Sequence:
#
# PCOD9392044 Si02
#       7
#     2   4   4   4   4   4   8
#     4  10  16  26  36  70 108 170 250 252 288 378
#     4  11  26  49  71  88 122 174 231 288 347 415
#     4  11  20  33  56  84 140 188 232 266 331 419
#     4  11  20  30  50  80 128 195 234 259 324 413
#     4  11  20  33  56  86 138 178 228 272 329 413
#     4  11  26  43  65  96 136 168 219 278 363 429
#     4  10  25  38  58  95 126 174 228 282 340 403
#
# _framework density 29.537990000000001
#
# number of rings (size 3 to 8) (size 9 to 14) (size 15 to 20)
#    0.000    1.333    2.667    3.200   11.200    3.200 
#    0.000    2.667    0.000    0.000    0.000    0.000 
#    0.000   74.667    0.000    0.000    0.000    0.000 
#
# Total GULP energy -167636.225351 kJ/mol
# GULP energy per Si atom -5587.874178 kJ/mol
# Density = 2.947076 g / cm^3
# Si number density = 29.537990 Si / 1000 Ang^3
#
#
#
# Elastic Constant Matrix: (Units=GPa)
#
#
# Indices 1 2 3 4 5 6 
#
# 1 162.9145 72.8422 60.2293 0.0000 0.0000 0.0000
# 2 72.8422 285.0351 134.6037 0.0000 0.0000 0.0000
# 3 60.2293 134.6037 317.8530 0.0000 0.0000 0.0000
# 4 0.0000 0.0000 0.0000 48.4057 0.0000 0.0000
# 5 0.0000 0.0000 0.0000 0.0000 62.5038 0.0000
# 6 0.0000 0.0000 0.0000 0.0000 0.0000 9.7850
#
#
#
# Elastic Compliance Matrix: (Units=1/GPa)
#
#
# Indices 1 2 3 4 5 6 
#
# 1 0.007058 -0.001465 -0.000717 0.000000 0.000000 0.000000
# 2 -0.001465 0.004689 -0.001708 0.000000 0.000000 0.000000
# 3 -0.000717 -0.001708 0.004005 0.000000 0.000000 0.000000
# 4 0.000000 0.000000 0.000000 0.020659 0.000000 0.000000
# 5 0.000000 0.000000 0.000000 0.000000 0.015999 0.000000
# 6 0.000000 0.000000 0.000000 0.000000 0.000000 0.102197
#
#
# Mechanical properties :
#
#
# Convention : Reuss Voigt Hill
#
# Bulk Modulus (GPa) = 125.43396 144.57257 135.00327
# Shear Modulus (GPa) = 30.29452 57.34739 43.82095
#
# Velocity S-wave (km/s) = 3.20599 4.41100 3.85586
# Velocity P-wave (km/s) = 7.50080 8.65988 8.10109
#
# Compressibility (1/GPa) = 0.00797232
#
# Stress axis : x y z
#
# Youngs Moduli (GPa) = 141.67547 213.24326 249.66444
#
# Poissons Ratio (x) = 0.31245 0.17901
# Poissons Ratio (y) = 0.20759 0.42649
# Poissons Ratio (z) = 0.10158 0.36427
#
# Static dielectric constant tensor:
#      x y z
#    x 3.290650 0.000000 0.000000 
#    y 0.000000 2.321910 0.000000 
#    z 0.000000 0.000000 2.102140 
# 
# From -- ./inp_files/2539.got.cif
#   From: 2010.05.17/outbox.cif.g08.bks.cpg/sg49_2_cif.got.tgz:2539.got - 2010.06.03 21:02:19.
