data_PCOD9392666
_publ_section_title
;
Structure prediction by ZEFSAII (Michael W. Deem and Ramdas Pophale) SiO2 
 PCOD9392666
Probable space group: P C C M
;
_chemical_formula_sum "Si O2"
_cell_formula_units_Z 64
_cell_length_a 14.707389
_cell_length_b 32.523673
_cell_length_c 8.694500
_cell_angle_alpha 90.000000
_cell_angle_beta 90.000000
_cell_angle_gamma 90.000000
_cell_volume 4158.912441
_symmetry_space_group_name_H-M "P C C M"
_symmetry_group_IT_number 49
_symmetry_cell_setting 'orthorhombic'
loop_
_space_group_symop_operation_xyz
x,y,z
-x,-y,z
x,-y,1/2-z
-x,y,1/2-z
-x,-y,-z
x,y,-z
-x,y,1/2+z
x,-y,1/2+z
loop_
_atom_site_type_symbol
_atom_site_label
_atom_site_fract_x
_atom_site_fract_y
_atom_site_fract_z
Si Si1 0.096446 0.831025 0.815586
Si Si2 0.398567 0.880416 0.815139
Si Si3 0.602233 0.630825 0.185107
Si Si4 0.396747 0.541885 0.315357
Si Si5 0.097504 0.071820 0.315491
Si Si6 0.714060 0.956882 0.183289
Si Si7 0.397458 0.721192 0.315354
Si Si8 0.711484 0.797755 0.685680
O O1 0.107687 0.879468 0.776928
O O2 0.185039 0.806239 0.762742
O O3 0.000000 0.816958 0.750000
O O4 0.093043 0.828830 0.000000
O O5 0.500000 0.879775 0.750000
O O6 0.343659 0.918893 0.748024
O O7 0.347152 0.838140 0.773468
O O8 0.399770 0.883437 0.000000
O O9 0.500000 0.630707 0.250000
O O10 0.644227 0.586533 0.229613
O O11 0.639324 0.675633 0.230603
O O12 0.597818 0.630525 0.000000
O O13 0.353932 0.500000 0.250000
O O14 0.500000 0.542745 0.250000
O O15 0.400351 0.538981 0.500000
O O16 0.099713 0.067435 0.500000
O O17 0.182570 0.049160 0.240930
O O18 0.000000 0.058342 0.250000
O O19 0.679231 0.000000 0.250000
O O20 0.711146 0.957319 0.000000
O O21 0.500000 0.725664 0.250000
O O22 0.402635 0.723085 0.500000
O O23 0.334570 0.757502 0.254358
O O24 0.711151 0.794651 0.500000
#
# Coordination Sequence:
#
# PCOD9392666 Si02
#       8
#     8   8   8   8   8   8   8   8
#     4   9  18  33  53  77 102 126 149 181 220 264
#     4  11  23  41  59  78 102 127 158 195 232 272
#     4   8  15  25  35  49  74 106 142 186 232 272
#     4   9  14  20  30  45  66  95 134 182 230 273
#     4  10  19  36  58  83 109 133 157 188 225 270
#     4  12  25  41  60  81 103 131 160 191 230 274
#     4  10  19  30  44  64  89 121 159 196 234 277
#     4  10  20  35  53  74 100 125 151 188 229 268
#
# _framework density 15.388638
#
# number of rings (size 3 to 8) (size 9 to 14) (size 15 to 20)
#    0.000    2.125    1.250    3.375    0.000    4.500 
#    0.000    2.500    0.000    0.000    0.000    0.000 
#    0.000    0.000    0.000    0.000    0.000    0.625 
#
# Total GULP energy -356825.218463 kJ/mol
# GULP energy per Si atom -5575.394038 kJ/mol
# Density = 1.535361 g / cm^3
# Si number density = 15.388638 Si / 1000 Ang^3
#
#
#
# Elastic Constant Matrix: (Units=GPa)
#
#
# Indices 1 2 3 4 5 6 
#
# 1 80.3395 54.9614 25.8907 0.0000 0.0000 0.0000
# 2 54.9614 155.6823 43.6695 0.0000 0.0000 0.0000
# 3 25.8907 43.6695 47.5920 0.0000 0.0000 0.0000
# 4 0.0000 0.0000 0.0000 20.0482 0.0000 0.0000
# 5 0.0000 0.0000 0.0000 0.0000 22.2583 0.0000
# 6 0.0000 0.0000 0.0000 0.0000 0.0000 -0.7228
#
#
#
# Elastic Compliance Matrix: (Units=1/GPa)
#
#
# Indices 1 2 3 4 5 6 
#
# 1 0.017291 -0.004667 -0.005124 0.000000 0.000000 0.000000
# 2 -0.004667 0.009909 -0.006554 0.000000 0.000000 0.000000
# 3 -0.005124 -0.006554 0.029813 0.000000 0.000000 0.000000
# 4 0.000000 0.000000 0.000000 0.049880 0.000000 0.000000
# 5 0.000000 0.000000 0.000000 0.000000 0.044927 0.000000
# 6 0.000000 0.000000 0.000000 0.000000 0.000000 -1.383508
#
#
# Mechanical properties :
#
#
# Convention : Reuss Voigt Hill
#
# Bulk Modulus (GPa) = 41.11211 59.18409 50.14810
# Shear Modulus (GPa) = -4.19854 18.92290 7.36218
#
# Velocity S-wave (km/s) = -1.65356 3.51047 2.18965
# Velocity P-wave (km/s) = 4.80918 7.41446 6.24910
#
# Compressibility (1/GPa) = 0.02432374
#
# Stress axis : x y z
#
# Youngs Moduli (GPa) = 57.83225 100.91533 33.54229
#
# Poissons Ratio (x) = 0.47098 0.17188
# Poissons Ratio (y) = 0.26991 0.21982
# Poissons Ratio (z) = 0.29635 0.66136
#
# Static dielectric constant tensor:
#      x y z
#    x 1.483670 0.000000 0.000000 
#    y 0.000000 1.558140 0.000000 
#    z 0.000000 0.000000 1.517470 
# 
# From -- ./inp_files/4522.got.cif
#   From: 2010.05.17/outbox.cif.g08.bks.cpg/sg49_3_cif.got.tgz:4522.got - 2010.06.03 21:02:19.
