data_PCOD9392684
_publ_section_title
;
Structure prediction by ZEFSAII (Michael W. Deem and Ramdas Pophale) SiO2 
 PCOD9392684
Probable space group: P C C M
;
_chemical_formula_sum "Si O2"
_cell_formula_units_Z 64
_cell_length_a 18.942522
_cell_length_b 24.040098
_cell_length_c 7.837247
_cell_angle_alpha 90.000000
_cell_angle_beta 90.000000
_cell_angle_gamma 90.000000
_cell_volume 3568.926207
_symmetry_space_group_name_H-M "P C C M"
_symmetry_group_IT_number 49
_symmetry_cell_setting 'orthorhombic'
loop_
_space_group_symop_operation_xyz
x,y,z
-x,-y,z
x,-y,1/2-z
-x,y,1/2-z
-x,-y,-z
x,y,-z
-x,y,1/2+z
x,-y,1/2+z
loop_
_atom_site_type_symbol
_atom_site_label
_atom_site_fract_x
_atom_site_fract_y
_atom_site_fract_z
Si Si1 0.080139 0.064776 0.797115
Si Si2 0.421288 0.683314 0.705275
Si Si3 0.194622 0.148902 0.807101
Si Si4 0.157086 0.325684 0.794319
Si Si5 0.077892 0.227004 0.693823
Si Si6 0.711715 0.245490 0.292292
Si Si7 0.376112 0.561335 0.294640
Si Si8 0.213621 0.559896 0.704575
O O1 0.148133 0.098802 0.726474
O O2 0.000000 0.083303 0.750000
O O3 0.085215 0.000000 0.750000
O O4 0.083875 0.070722 0.000000
O O5 0.500000 0.701240 0.750000
O O6 0.413854 0.681351 0.500000
O O7 0.361566 0.726842 0.766590
O O8 0.410299 0.619251 0.767545
O O9 0.133920 0.196053 0.811693
O O10 0.260186 0.184697 0.730812
O O11 0.215078 0.132312 0.000000
O O12 0.093270 0.292127 0.713111
O O13 0.228011 0.290907 0.751389
O O14 0.169106 0.388028 0.733403
O O15 0.149347 0.324988 0.000000
O O16 0.090645 0.209496 0.500000
O O17 0.000000 0.213565 0.750000
O O18 0.709395 0.241264 0.500000
O O19 0.405853 0.500000 0.250000
O O20 0.376243 0.563569 0.500000
O O21 0.294677 0.562492 0.232037
O O22 0.184053 0.500000 0.750000
O O23 0.218046 0.564757 0.500000
#
# Coordination Sequence:
#
# PCOD9392684 Si02
#       8
#     8   8   8   8   8   8   8   8
#     4  10  19  30  46  70 100 135 167 192 221 258
#     4  10  19  31  46  63  87 119 151 184 230 280
#     4   9  18  32  51  70  90 123 162 194 224 262
#     4   9  16  30  49  64  82 111 144 180 223 272
#     4  11  21  31  45  67  92 117 146 183 226 266
#     4   8  14  29  49  64  83 114 152 187 223 272
#     4   9  17  29  44  62  83 113 147 181 223 272
#     4   9  16  27  45  65  83 106 138 177 221 270
#
# _framework density 17.932562999999998
#
# number of rings (size 3 to 8) (size 9 to 14) (size 15 to 20)
#    0.000    2.625    1.250    3.000    0.000    3.250 
#    0.000    3.750    0.000    0.375    0.000    2.625 
#    0.000    0.500    0.000    6.250    0.000    0.000 
#
# Total GULP energy -356350.054078 kJ/mol
# GULP energy per Si atom -5567.969595 kJ/mol
# Density = 1.789175 g / cm^3
# Si number density = 17.932563 Si / 1000 Ang^3
#
#
#
# Elastic Constant Matrix: (Units=GPa)
#
#
# Indices 1 2 3 4 5 6 
#
# 1 69.1470 49.5127 2.1589 0.0000 0.0000 0.0000
# 2 49.5127 112.1543 2.7079 0.0000 0.0000 0.0000
# 3 2.1589 2.7079 34.9994 0.0000 0.0000 0.0000
# 4 0.0000 0.0000 0.0000 -11.4197 0.0000 0.0000
# 5 0.0000 0.0000 0.0000 0.0000 17.6855 0.0000
# 6 0.0000 0.0000 0.0000 0.0000 0.0000 23.2461
#
#
#
# Elastic Compliance Matrix: (Units=1/GPa)
#
#
# Indices 1 2 3 4 5 6 
#
# 1 0.021159 -0.009327 -0.000584 0.000000 0.000000 0.000000
# 2 -0.009327 0.013044 -0.000434 0.000000 0.000000 0.000000
# 3 -0.000584 -0.000434 0.028642 0.000000 0.000000 0.000000
# 4 0.000000 0.000000 0.000000 -0.087568 0.000000 0.000000
# 5 0.000000 0.000000 0.000000 0.000000 0.056544 0.000000
# 6 0.000000 0.000000 0.000000 0.000000 0.000000 0.043018
#
#
# Mechanical properties :
#
#
# Convention : Reuss Voigt Hill
#
# Bulk Modulus (GPa) = 23.72149 36.11775 29.91962
# Shear Modulus (GPa) = 45.62950 16.69712 31.16331
#
# Velocity S-wave (km/s) = 5.04978 3.05471 4.17322
# Velocity P-wave (km/s) = 6.87439 5.71194 6.31995
#
# Compressibility (1/GPa) = 0.04215586
#
# Stress axis : x y z
#
# Youngs Moduli (GPa) = 47.26211 76.66212 34.91436
#
# Poissons Ratio (x) = 0.71501 0.02037
# Poissons Ratio (y) = 0.44080 0.01515
# Poissons Ratio (z) = 0.02758 0.03327
#
# Static dielectric constant tensor:
#      x y z
#    x 1.612800 0.000000 0.000000 
#    y 0.000000 1.671920 0.000000 
#    z 0.000000 0.000000 1.623450 
# 
# From -- ./inp_files/5436.got.cif
#   From: 2010.05.17/outbox.cif.g08.bks.cpg/sg49_3_cif.got.tgz:5436.got - 2010.06.03 21:02:19.
