data_PCOD9392466
_publ_section_title
;
Structure prediction by ZEFSAII (Michael W. Deem and Ramdas Pophale) SiO2 
 PCOD9392466
Probable space group: P C C M
;
_chemical_formula_sum "Si O2"
_cell_formula_units_Z 64
_cell_length_a 15.858532
_cell_length_b 12.232735
_cell_length_c 17.969511
_cell_angle_alpha 90.000000
_cell_angle_beta 90.000000
_cell_angle_gamma 90.000000
_cell_volume 3485.963291
_symmetry_space_group_name_H-M "P C C M"
_symmetry_group_IT_number 49
_symmetry_cell_setting 'orthorhombic'
loop_
_space_group_symop_operation_xyz
x,y,z
-x,-y,z
x,-y,1/2-z
-x,y,1/2-z
-x,-y,-z
x,y,-z
-x,y,1/2+z
x,-y,1/2+z
loop_
_atom_site_type_symbol
_atom_site_label
_atom_site_fract_x
_atom_site_fract_y
_atom_site_fract_z
Si Si1 0.662202 0.630101 0.087175
Si Si2 0.306256 0.998597 0.082468
Si Si3 0.314706 0.376401 0.412990
Si Si4 0.489537 0.677866 0.166314
Si Si5 0.175606 0.798706 0.083657
Si Si6 0.413814 0.105810 0.697389
Si Si7 0.905248 0.129530 0.229416
Si Si8 0.266937 0.190296 0.196726
O O1 0.695497 0.506383 0.093126
O O2 0.564439 0.637547 0.113611
O O3 0.710046 0.706017 0.146440
O O4 0.669029 0.663042 0.000000
O O5 0.276019 0.088284 0.140798
O O6 0.238820 0.901394 0.079583
O O7 0.387409 0.942591 0.118101
O O8 0.319425 0.043232 0.000000
O O9 0.330512 0.349299 0.500000
O O10 0.398639 0.348318 0.367424
O O11 0.232880 0.305035 0.391958
O O12 0.500000 0.632571 0.250000
O O13 0.488644 0.809829 0.177841
O O14 0.108003 0.837574 0.143557
O O15 0.143151 0.777499 0.000000
O O16 0.336122 0.171006 0.737555
O O17 0.422240 0.000000 0.750000
O O18 0.827005 0.187818 0.270744
O O19 0.000000 0.161513 0.250000
O O20 0.896321 0.000000 0.250000
#
# Coordination Sequence:
#
# PCOD9392466 Si02
#       8
#     8   8   8   8   8   8   8   8
#     4  11  25  40  57  83 117 156 201 248 297 346
#     4  10  18  31  58  84 107 149 197 236 282 347
#     4  10  22  41  62  82 112 157 203 252 295 336
#     4  12  22  37  53  84 115 152 197 251 299 338
#     4  10  19  37  63  89 116 152 201 237 280 351
#     4  10  20  36  56  79 115 155 196 239 296 350
#     4  11  21  38  62  95 128 153 181 234 298 353
#     4  11  19  39  56  81 118 155 191 235 292 358
#
# _framework density 18.359345000000001
#
# number of rings (size 3 to 8) (size 9 to 14) (size 15 to 20)
#    0.000    1.375    5.000    1.500    0.000    2.750 
#    0.000    2.500    0.000    3.750    0.000    2.625 
#    0.000    0.000    0.000    0.000    0.000    0.000 
#
# Total GULP energy -357046.640808 kJ/mol
# GULP energy per Si atom -5578.853763 kJ/mol
# Density = 1.831756 g / cm^3
# Si number density = 18.359345 Si / 1000 Ang^3
#
#
#
# Elastic Constant Matrix: (Units=GPa)
#
#
# Indices 1 2 3 4 5 6 
#
# 1 92.9413 24.5773 46.4296 0.0000 0.0000 0.0000
# 2 24.5773 82.4672 26.1177 0.0000 0.0000 0.0000
# 3 46.4296 26.1177 97.5985 0.0000 0.0000 0.0000
# 4 0.0000 0.0000 0.0000 313.5134 0.0000 0.0000
# 5 0.0000 0.0000 0.0000 0.0000 28.7235 0.0000
# 6 0.0000 0.0000 0.0000 0.0000 0.0000 12.0100
#
#
#
# Elastic Compliance Matrix: (Units=1/GPa)
#
#
# Indices 1 2 3 4 5 6 
#
# 1 0.014514 -0.002337 -0.006279 0.000000 0.000000 0.000000
# 2 -0.002337 0.013625 -0.002534 0.000000 0.000000 0.000000
# 3 -0.006279 -0.002534 0.013912 0.000000 0.000000 0.000000
# 4 0.000000 0.000000 0.000000 0.003190 0.000000 0.000000
# 5 0.000000 0.000000 0.000000 0.000000 0.034815 0.000000
# 6 0.000000 0.000000 0.000000 0.000000 0.000000 0.083264
#
#
# Mechanical properties :
#
#
# Convention : Reuss Voigt Hill
#
# Bulk Modulus (GPa) = 50.63408 51.91734 51.27571
# Shear Modulus (GPa) = 26.01400 82.57488 54.29444
#
# Velocity S-wave (km/s) = 3.76830 6.71377 5.44402
# Velocity P-wave (km/s) = 6.82443 9.40422 8.21621
#
# Compressibility (1/GPa) = 0.01974954
#
# Stress axis : x y z
#
# Youngs Moduli (GPa) = 68.89719 73.39369 71.88290
#
# Poissons Ratio (x) = 0.17152 0.45138
# Poissons Ratio (y) = 0.16101 0.18218
# Poissons Ratio (z) = 0.43263 0.18601
#
# Static dielectric constant tensor:
#      x y z
#    x 1.630210 0.000000 0.000000 
#    y 0.000000 1.667820 0.000000 
#    z 0.000000 0.000000 1.531170 
# 
# From -- ./inp_files/17255.got.cif
#   From: 2010.05.17/outbox.cif.g08.bks.cpg/sg49_9_cif.got.tgz:17255.got - 2010.06.03 21:02:19.
