data_PCOD9392705
_publ_section_title
;
Structure prediction by ZEFSAII (Michael W. Deem and Ramdas Pophale) SiO2 
 PCOD9392705
Probable space group: P C C M
;
_chemical_formula_sum "Si O2"
_cell_formula_units_Z 40
_cell_length_a 11.954816
_cell_length_b 9.392767
_cell_length_c 17.676134
_cell_angle_alpha 90.000000
_cell_angle_beta 90.000000
_cell_angle_gamma 90.000000
_cell_volume 1984.831897
_symmetry_space_group_name_H-M "P C C M"
_symmetry_group_IT_number 49
_symmetry_cell_setting 'orthorhombic'
loop_
_space_group_symop_operation_xyz
x,y,z
-x,-y,z
x,-y,1/2-z
-x,y,1/2-z
-x,-y,-z
x,y,-z
-x,y,1/2+z
x,-y,1/2+z
loop_
_atom_site_type_symbol
_atom_site_label
_atom_site_fract_x
_atom_site_fract_y
_atom_site_fract_z
Si Si1 0.121081 0.068994 0.328391
Si Si2 0.334152 0.986671 0.084144
Si Si3 0.411343 0.756505 0.683565
Si Si4 0.216873 0.362074 0.710989
Si Si5 0.402770 0.655504 0.912318
O O1 0.132014 0.238674 0.315368
O O2 0.164641 0.000000 0.250000
O O3 0.203921 0.028496 0.395531
O O4 0.000000 0.000000 0.339832
O O5 0.385027 0.096995 0.142329
O O6 0.381829 0.827601 0.088968
O O7 0.353237 0.041837 0.000000
O O8 0.500000 0.778811 0.750000
O O9 0.300564 0.699593 0.724593
O O10 0.473950 0.648468 0.625738
O O11 0.163948 0.500000 0.750000
O O12 0.301443 0.398446 0.641206
O O13 0.397788 0.610101 0.000000
#
# Coordination Sequence:
#
# PCOD9392705 Si02
#       5
#     8   8   8   8   8
#     4  10  20  37  61  83 106 138 191 245 288 345
#     4  10  19  32  53  84 116 148 191 242 292 330
#     4  10  19  30  51  80 117 159 195 227 274 323
#     4  10  21  37  57  82 116 152 188 228 284 340
#     4   9  19  32  51  81 119 157 192 231 271 328
#
# _framework density 20.152840000000001
#
# number of rings (size 3 to 8) (size 9 to 14) (size 15 to 20)
#    0.000    2.200    2.000    1.200    0.000    9.600 
#    0.000    5.000    0.000    0.000    0.000    1.400 
#    0.000    0.000    0.000    0.000    0.000    0.000 
#
# Total GULP energy -223335.206743 kJ/mol
# GULP energy per Si atom -5583.380169 kJ/mol
# Density = 2.010697 g / cm^3
# Si number density = 20.152840 Si / 1000 Ang^3
#
#
#
# Elastic Constant Matrix: (Units=GPa)
#
#
# Indices 1 2 3 4 5 6 
#
# 1 87.9053 33.4434 8.3034 0.0000 0.0000 0.0000
# 2 33.4434 84.9494 11.8316 0.0000 0.0000 0.0000
# 3 8.3034 11.8316 83.6124 0.0000 0.0000 0.0000
# 4 0.0000 0.0000 0.0000 15.4281 0.0000 0.0000
# 5 0.0000 0.0000 0.0000 0.0000 7.6872 0.0000
# 6 0.0000 0.0000 0.0000 0.0000 0.0000 25.3479
#
#
#
# Elastic Compliance Matrix: (Units=1/GPa)
#
#
# Indices 1 2 3 4 5 6 
#
# 1 0.013409 -0.005196 -0.000596 0.000000 0.000000 0.000000
# 2 -0.005196 0.014022 -0.001468 0.000000 0.000000 0.000000
# 3 -0.000596 -0.001468 0.012227 0.000000 0.000000 0.000000
# 4 0.000000 0.000000 0.000000 0.064817 0.000000 0.000000
# 5 0.000000 0.000000 0.000000 0.000000 0.130087 0.000000
# 6 0.000000 0.000000 0.000000 0.000000 0.000000 0.039451
#
#
# Mechanical properties :
#
#
# Convention : Reuss Voigt Hill
#
# Bulk Modulus (GPa) = 39.78225 40.40265 40.09245
# Shear Modulus (GPa) = 16.84000 23.21855 20.02928
#
# Velocity S-wave (km/s) = 2.89384 3.39798 3.15599
# Velocity P-wave (km/s) = 5.56317 5.95707 5.76348
#
# Compressibility (1/GPa) = 0.02513684
#
# Stress axis : x y z
#
# Youngs Moduli (GPa) = 74.57696 71.31782 81.78670
#
# Poissons Ratio (x) = 0.37056 0.04878
# Poissons Ratio (y) = 0.38749 0.12008
# Poissons Ratio (z) = 0.04448 0.10471
#
# Static dielectric constant tensor:
#      x y z
#    x 1.721710 0.000000 0.000000 
#    y 0.000000 1.758620 0.000000 
#    z 0.000000 0.000000 1.724190 
# 
# From -- ./inp_files/15962.got.cif
#   From: 2010.05.17/outbox.cif.g08.bks.cpg/sg49_8_cif.got.tgz:15962.got - 2010.06.03 21:02:19.
