data_PCOD9392885
_publ_section_title
;
Structure prediction by ZEFSAII (Michael W. Deem and Ramdas Pophale) SiO2 
 PCOD9392885
Probable space group: P C C M
;
_chemical_formula_sum "Si O2"
_cell_formula_units_Z 64
_cell_length_a 18.771248
_cell_length_b 12.812928
_cell_length_c 16.185664
_cell_angle_alpha 90.000000
_cell_angle_beta 90.000000
_cell_angle_gamma 90.000000
_cell_volume 3892.889297
_symmetry_space_group_name_H-M "P C C M"
_symmetry_group_IT_number 49
_symmetry_cell_setting 'orthorhombic'
loop_
_space_group_symop_operation_xyz
x,y,z
-x,-y,z
x,-y,1/2-z
-x,y,1/2-z
-x,-y,-z
x,y,-z
-x,y,1/2+z
x,-y,1/2+z
loop_
_atom_site_type_symbol
_atom_site_label
_atom_site_fract_x
_atom_site_fract_y
_atom_site_fract_z
Si Si1 0.572873 0.865411 0.099883
Si Si2 0.322788 0.296256 0.350313
Si Si3 0.673326 0.680197 0.158764
Si Si4 0.418209 0.486315 0.401194
Si Si5 0.918299 0.626870 0.750201
Si Si6 0.410363 0.895085 0.900168
Si Si7 0.823475 0.372185 0.592982
Si Si8 0.825473 0.623395 0.591889
O O1 0.622623 0.777264 0.137568
O O2 0.489738 0.856918 0.124419
O O3 0.596009 0.983161 0.122217
O O4 0.575463 0.856414 0.000000
O O5 0.307497 0.318091 0.254795
O O6 0.385162 0.374589 0.379422
O O7 0.351267 0.179975 0.363204
O O8 0.251168 0.322782 0.399277
O O9 0.630082 0.575149 0.139152
O O10 0.746268 0.678289 0.107379
O O11 0.500000 0.500000 0.374600
O O12 0.415490 0.500268 0.500000
O O13 0.919436 0.500000 0.750000
O O14 0.876377 0.658956 0.833110
O O15 0.876131 0.657138 0.667069
O O16 0.000000 0.662790 0.750000
O O17 0.407184 0.888699 0.000000
O O18 0.849404 0.349852 0.500000
O O19 0.813956 0.498123 0.599370
O O20 0.855132 0.642832 0.500000
#
# Coordination Sequence:
#
# PCOD9392885 Si02
#       8
#     8   8   8   8   8   8   8   8
#     4   9  19  36  54  70  93 130 175 221 267 311
#     4  12  22  32  49  72 101 133 172 216 260 308
#     4  12  22  32  49  72 101 133 172 216 260 308
#     4  11  23  35  47  67  95 132 177 217 257 309
#     4   9  18  32  50  74 103 134 169 205 244 300
#     4   9  19  36  54  70  93 130 175 221 267 311
#     4  10  19  32  50  72 102 138 172 207 253 302
#     4  10  19  32  50  72 102 138 172 207 253 302
#
# _framework density 16.440232000000002
#
# number of rings (size 3 to 8) (size 9 to 14) (size 15 to 20)
#    0.000    1.750    2.500    4.125    0.000    5.500 
#    0.000    3.750    0.000    0.000    0.000    0.000 
#    0.000    2.000    0.000    5.250    0.000    0.250 
#
# Total GULP energy -357287.678517 kJ/mol
# GULP energy per Si atom -5582.619977 kJ/mol
# Density = 1.640281 g / cm^3
# Si number density = 16.440232 Si / 1000 Ang^3
#
#
#
# Elastic Constant Matrix: (Units=GPa)
#
#
# Indices 1 2 3 4 5 6 
#
# 1 58.6825 3.0343 20.8030 0.0000 0.0000 0.0000
# 2 3.0343 31.7679 5.0887 0.0000 0.0000 0.0000
# 3 20.8030 5.0887 85.1745 0.0000 0.0000 0.0000
# 4 0.0000 0.0000 0.0000 14.1786 0.0000 0.0000
# 5 0.0000 0.0000 0.0000 0.0000 6.9108 0.0000
# 6 0.0000 0.0000 0.0000 0.0000 0.0000 13.1736
#
#
#
# Elastic Compliance Matrix: (Units=1/GPa)
#
#
# Indices 1 2 3 4 5 6 
#
# 1 0.018692 -0.001064 -0.004502 0.000000 0.000000 0.000000
# 2 -0.001064 0.031843 -0.001643 0.000000 0.000000 0.000000
# 3 -0.004502 -0.001643 0.012938 0.000000 0.000000 0.000000
# 4 0.000000 0.000000 0.000000 0.070529 0.000000 0.000000
# 5 0.000000 0.000000 0.000000 0.000000 0.144701 0.000000
# 6 0.000000 0.000000 0.000000 0.000000 0.000000 0.075909
#
#
# Mechanical properties :
#
#
# Convention : Reuss Voigt Hill
#
# Bulk Modulus (GPa) = 20.38479 25.94188 23.16334
# Shear Modulus (GPa) = 12.97416 16.63253 14.80334
#
# Velocity S-wave (km/s) = 2.81227 3.18417 3.00398
# Velocity P-wave (km/s) = 4.79285 5.41593 5.11389
#
# Compressibility (1/GPa) = 0.04905618
#
# Stress axis : x y z
#
# Youngs Moduli (GPa) = 53.49960 31.40400 77.29039
#
# Poissons Ratio (x) = 0.03342 0.34794
# Poissons Ratio (y) = 0.05694 0.12695
# Poissons Ratio (z) = 0.24084 0.05158
#
# Static dielectric constant tensor:
#      x y z
#    x 1.543050 0.000000 0.000000 
#    y 0.000000 1.522200 0.000000 
#    z 0.000000 0.000000 1.584650 
# 
# From -- ./inp_files/14178.got.cif
#   From: 2010.05.17/outbox.cif.g08.bks.cpg/sg49_8_cif.got.tgz:14178.got - 2010.06.03 21:02:19.
