data_PCOD9392797
_publ_section_title
;
Structure prediction by ZEFSAII (Michael W. Deem and Ramdas Pophale) SiO2 
 PCOD9392797
Probable space group: P C C M
;
_chemical_formula_sum "Si O2"
_cell_formula_units_Z 42
_cell_length_a 12.948216
_cell_length_b 11.355908
_cell_length_c 15.049413
_cell_angle_alpha 90.000000
_cell_angle_beta 90.000000
_cell_angle_gamma 90.000000
_cell_volume 2212.846871
_symmetry_space_group_name_H-M "P C C M"
_symmetry_group_IT_number 49
_symmetry_cell_setting 'orthorhombic'
loop_
_space_group_symop_operation_xyz
x,y,z
-x,-y,z
x,-y,1/2-z
-x,y,1/2-z
-x,-y,-z
x,y,-z
-x,y,1/2+z
x,-y,1/2+z
loop_
_atom_site_type_symbol
_atom_site_label
_atom_site_fract_x
_atom_site_fract_y
_atom_site_fract_z
Si Si1 0.500000 0.000000 0.750000
Si Si2 0.795962 0.319131 0.896360
Si Si3 0.390504 0.839355 0.102909
Si Si4 0.533489 0.371414 0.647651
Si Si5 0.237871 0.585557 0.606217
Si Si6 0.015259 0.367509 0.854815
O O1 0.430678 0.924928 0.819423
O O2 0.717298 0.219821 0.865218
O O3 0.775854 0.450663 0.857619
O O4 0.917848 0.293595 0.888379
O O5 0.771127 0.329589 0.000000
O O6 0.472775 0.732488 0.100206
O O7 0.381484 0.885852 0.000000
O O8 0.500000 0.500000 0.612233
O O9 0.500000 0.367075 0.750000
O O10 0.656343 0.362020 0.641808
O O11 0.246372 0.579571 0.500000
O O12 0.134375 0.658912 0.626927
O O13 0.000000 0.500000 0.893131
O O14 0.000000 0.372760 0.750000
#
# Coordination Sequence:
#
# PCOD9392797 Si02
#       6
#     2   8   8   8   8   8
#     4  12  26  44  58  86 114 156 218 278 306 358
#     4   9  18  33  52  77 111 152 193 234 286 353
#     4  11  23  40  62  84 115 157 202 255 310 359
#     4  11  22  33  55  86 124 158 192 238 300 371
#     4  10  19  31  49  78 119 158 189 224 280 362
#     4   9  18  27  46  74 113 153 191 224 270 338
#
# _framework density 18.980076
#
# number of rings (size 3 to 8) (size 9 to 14) (size 15 to 20)
#    0.000    1.905    2.857    1.429    2.667    4.571 
#    0.000    0.000    0.000    0.000    0.000    6.000 
#    0.000   15.238    0.000    0.000    0.000    0.000 
#
# Total GULP energy -234172.900538 kJ/mol
# GULP energy per Si atom -5575.545251 kJ/mol
# Density = 1.893688 g / cm^3
# Si number density = 18.980076 Si / 1000 Ang^3
#
#
#
# Elastic Constant Matrix: (Units=GPa)
#
#
# Indices 1 2 3 4 5 6 
#
# 1 202.9392 42.5090 36.8629 0.0000 0.0000 0.0000
# 2 42.5090 54.6961 31.2912 0.0000 0.0000 0.0000
# 3 36.8629 31.2912 96.7871 0.0000 0.0000 0.0000
# 4 0.0000 0.0000 0.0000 -6.0511 0.0000 0.0000
# 5 0.0000 0.0000 0.0000 0.0000 30.1948 0.0000
# 6 0.0000 0.0000 0.0000 0.0000 0.0000 29.7327
#
#
#
# Elastic Compliance Matrix: (Units=1/GPa)
#
#
# Indices 1 2 3 4 5 6 
#
# 1 0.005956 -0.004087 -0.000947 0.000000 0.000000 0.000000
# 2 -0.004087 0.025236 -0.006602 0.000000 0.000000 0.000000
# 3 -0.000947 -0.006602 0.012827 0.000000 0.000000 0.000000
# 4 0.000000 0.000000 0.000000 -0.165258 0.000000 0.000000
# 5 0.000000 0.000000 0.000000 0.000000 0.033118 0.000000
# 6 0.000000 0.000000 0.000000 0.000000 0.000000 0.033633
#
#
# Mechanical properties :
#
#
# Convention : Reuss Voigt Hill
#
# Bulk Modulus (GPa) = 48.20052 63.97205 56.08629
# Shear Modulus (GPa) = -205.76313 27.02588 -89.36863
#
# Velocity S-wave (km/s) = -10.42331 3.77756 -6.86933
# Velocity P-wave (km/s) = 10.92749 7.26668 5.77085
#
# Compressibility (1/GPa) = 0.02074666
#
# Stress axis : x y z
#
# Youngs Moduli (GPa) = 167.90718 39.62554 77.95956
#
# Poissons Ratio (x) = 0.16194 0.07383
# Poissons Ratio (y) = 0.68622 0.51471
# Poissons Ratio (z) = 0.15901 0.26162
#
# Static dielectric constant tensor:
#      x y z
#    x 1.684870 0.000000 0.000000 
#    y 0.000000 1.670940 0.000000 
#    z 0.000000 0.000000 1.707410 
# 
# From -- ./inp_files/17004.got.cif
#   From: 2010.05.17/outbox.cif.g08.bks.cpg/sg49_9_cif.got.tgz:17004.got - 2010.06.03 21:02:19.
