data_PCOD9392401
_publ_section_title
;
Structure prediction by ZEFSAII (Michael W. Deem and Ramdas Pophale) SiO2 
 PCOD9392401
Probable space group: P C C M
;
_chemical_formula_sum "Si O2"
_cell_formula_units_Z 56
_cell_length_a 18.924761
_cell_length_b 19.561051
_cell_length_c 8.734907
_cell_angle_alpha 90.000000
_cell_angle_beta 90.000000
_cell_angle_gamma 90.000000
_cell_volume 3233.559631
_symmetry_space_group_name_H-M "P C C M"
_symmetry_group_IT_number 49
_symmetry_cell_setting 'orthorhombic'
loop_
_space_group_symop_operation_xyz
x,y,z
-x,-y,z
x,-y,1/2-z
-x,y,1/2-z
-x,-y,-z
x,y,-z
-x,y,1/2+z
x,-y,1/2+z
loop_
_atom_site_type_symbol
_atom_site_label
_atom_site_fract_x
_atom_site_fract_y
_atom_site_fract_z
Si Si1 0.306804 0.928176 0.684522
Si Si2 0.425185 0.653615 0.817585
Si Si3 0.851951 0.927370 0.683682
Si Si4 0.208390 0.700855 0.316953
Si Si5 0.923574 0.206876 0.684385
Si Si6 0.647738 0.781309 0.182978
Si Si7 0.284001 0.574797 0.182889
O O1 0.300811 0.931483 0.500000
O O2 0.228135 0.918895 0.753458
O O3 0.351950 0.861053 0.725093
O O4 0.334210 0.000000 0.750000
O O5 0.500000 0.632098 0.750000
O O6 0.406224 0.730502 0.764522
O O7 0.359847 0.606055 0.765257
O O8 0.428124 0.651408 0.000000
O O9 0.851268 0.928803 0.500000
O O10 0.898189 0.865138 0.746069
O O11 0.877426 0.000000 0.750000
O O12 0.208249 0.690895 0.500000
O O13 0.135722 0.737225 0.272763
O O14 0.273900 0.751701 0.281855
O O15 0.226028 0.629472 0.237490
O O16 0.925232 0.201757 0.500000
O O17 0.000000 0.224444 0.750000
O O18 0.637488 0.775871 0.000000
O O19 0.273207 0.500000 0.250000
O O20 0.284462 0.571731 0.000000
#
# Coordination Sequence:
#
# PCOD9392401 Si02
#       7
#     8   8   8   8   8   8   8
#     4  10  18  30  48  74 103 135 175 222 273 317
#     4  10  21  35  53  80 111 143 177 211 251 307
#     4  11  21  33  50  72 102 140 179 224 272 322
#     4   9  18  35  56  76 105 138 173 216 260 310
#     4  11  22  37  54  77 106 140 180 221 272 322
#     4   9  17  32  53  74 101 138 176 217 263 310
#     4  10  21  36  57  85 112 140 176 210 252 305
#
# _framework density 17.318373999999999
#
# number of rings (size 3 to 8) (size 9 to 14) (size 15 to 20)
#    0.000    2.000    1.429    3.857    0.000    4.571 
#    0.000    2.857    0.000    0.857    0.000    6.000 
#    0.000    0.000    0.000    0.000    0.000    0.000 
#
# Total GULP energy -312592.379118 kJ/mol
# GULP energy per Si atom -5582.006770 kJ/mol
# Density = 1.727896 g / cm^3
# Si number density = 17.318374 Si / 1000 Ang^3
#
#
#
# Elastic Constant Matrix: (Units=GPa)
#
#
# Indices 1 2 3 4 5 6 
#
# 1 60.4893 43.0216 26.0182 0.0000 0.0000 0.0000
# 2 43.0216 138.8376 45.6167 0.0000 0.0000 0.0000
# 3 26.0182 45.6167 61.0592 0.0000 0.0000 0.0000
# 4 0.0000 0.0000 0.0000 24.5120 0.0000 0.0000
# 5 0.0000 0.0000 0.0000 0.0000 -3.3217 0.0000
# 6 0.0000 0.0000 0.0000 0.0000 0.0000 13.2467
#
#
#
# Elastic Compliance Matrix: (Units=1/GPa)
#
#
# Indices 1 2 3 4 5 6 
#
# 1 0.022679 -0.005106 -0.005850 0.000000 0.000000 0.000000
# 2 -0.005106 0.010695 -0.005815 0.000000 0.000000 0.000000
# 3 -0.005850 -0.005815 0.023214 0.000000 0.000000 0.000000
# 4 0.000000 0.000000 0.000000 0.040796 0.000000 0.000000
# 5 0.000000 0.000000 0.000000 0.000000 -0.301054 0.000000
# 6 0.000000 0.000000 0.000000 0.000000 0.000000 0.075491
#
#
# Mechanical properties :
#
#
# Convention : Reuss Voigt Hill
#
# Bulk Modulus (GPa) = 43.38612 54.41100 48.89856
# Shear Modulus (GPa) = -57.50063 16.60270 -20.44897
#
# Velocity S-wave (km/s) = -5.76838 3.09961 -3.43996
# Velocity P-wave (km/s) = 4.38852 6.65555 3.53817
#
# Compressibility (1/GPa) = 0.02304884
#
# Stress axis : x y z
#
# Youngs Moduli (GPa) = 44.09333 93.49956 43.07701
#
# Poissons Ratio (x) = 0.47738 0.25198
# Poissons Ratio (y) = 0.22513 0.25048
# Poissons Ratio (z) = 0.25793 0.54367
#
# Static dielectric constant tensor:
#      x y z
#    x 1.573400 0.000000 0.000000 
#    y 0.000000 1.584270 0.000000 
#    z 0.000000 0.000000 1.578100 
# 
# From -- ./inp_files/5190.got.cif
#   From: 2010.05.17/outbox.cif.g08.bks.cpg/sg49_3_cif.got.tgz:5190.got - 2010.06.03 21:02:19.
