data_PCOD9392422
_publ_section_title
;
Structure prediction by ZEFSAII (Michael W. Deem and Ramdas Pophale) SiO2 
 PCOD9392422
Probable space group: P C C M
;
_chemical_formula_sum "Si O2"
_cell_formula_units_Z 58
_cell_length_a 19.950889
_cell_length_b 19.930979
_cell_length_c 8.270546
_cell_angle_alpha 90.000000
_cell_angle_beta 90.000000
_cell_angle_gamma 90.000000
_cell_volume 3288.706112
_symmetry_space_group_name_H-M "P C C M"
_symmetry_group_IT_number 49
_symmetry_cell_setting 'orthorhombic'
loop_
_space_group_symop_operation_xyz
x,y,z
-x,-y,z
x,-y,1/2-z
-x,y,1/2-z
-x,-y,-z
x,y,-z
-x,y,1/2+z
x,-y,1/2+z
loop_
_atom_site_type_symbol
_atom_site_label
_atom_site_fract_x
_atom_site_fract_y
_atom_site_fract_z
Si Si1 0.073740 0.240329 0.306104
Si Si2 0.104423 0.395454 0.697844
Si Si3 0.678635 0.290103 0.804761
Si Si4 0.000000 0.500000 0.250000
Si Si5 0.740742 0.573899 0.306081
Si Si6 0.683218 0.075799 0.192498
Si Si7 0.789974 0.180061 0.196925
Si Si8 0.424008 0.183445 0.809016
O O1 0.075057 0.237411 0.500000
O O2 0.088195 0.318246 0.264845
O O3 0.135181 0.194869 0.244317
O O4 0.000000 0.220966 0.250000
O O5 0.093841 0.406334 0.500000
O O6 0.055803 0.444149 0.799381
O O7 0.181571 0.411345 0.736142
O O8 0.694376 0.365066 0.746402
O O9 0.742367 0.243220 0.762157
O O10 0.613516 0.252080 0.740796
O O11 0.674522 0.290472 0.000000
O O12 0.721685 0.500000 0.250000
O O13 0.738273 0.575578 0.500000
O O14 0.686886 0.924708 0.500000
O O15 0.750064 0.114341 0.254370
O O16 0.620524 0.122543 0.239389
O O17 0.677268 0.000000 0.250000
O O18 0.792279 0.177471 0.000000
O O19 0.500000 0.181538 0.750000
O O20 0.422936 0.177528 0.000000
#
# Coordination Sequence:
#
# PCOD9392422 Si02
#       8
#     8   8   8   2   8   8   8   8
#     4  10  18  31  47  67  93 129 174 221 270 318
#     4  10  19  28  41  61  91 131 172 214 265 322
#     4   9  17  33  55  75 100 139 182 223 268 318
#     4  12  18  28  40  58 100 136 178 212 274 328
#     4  10  19  32  49  70  98 134 177 224 274 323
#     4  10  20  36  58  85 114 145 177 211 255 306
#     4   8  15  30  53  72  96 134 177 216 261 317
#     4  11  22  37  58  86 117 146 176 209 249 303
#
# _framework density 17.636116000000001
#
# number of rings (size 3 to 8) (size 9 to 14) (size 15 to 20)
#    0.000    2.207    2.759    2.690    0.000    0.828 
#    0.000    5.517    0.000    0.828    0.000    5.793 
#    0.000    0.000    0.000    0.000    0.000    0.000 
#
# Total GULP energy -323169.789608 kJ/mol
# GULP energy per Si atom -5571.892924 kJ/mol
# Density = 1.759597 g / cm^3
# Si number density = 17.636116 Si / 1000 Ang^3
#
#
#
# Elastic Constant Matrix: (Units=GPa)
#
#
# Indices 1 2 3 4 5 6 
#
# 1 142.7034 90.0927 19.3323 0.0000 0.0000 0.0000
# 2 90.0927 139.1179 23.5261 0.0000 0.0000 0.0000
# 3 19.3323 23.5261 26.5843 0.0000 0.0000 0.0000
# 4 0.0000 0.0000 0.0000 17.8122 0.0000 0.0000
# 5 0.0000 0.0000 0.0000 0.0000 19.9591 0.0000
# 6 0.0000 0.0000 0.0000 0.0000 0.0000 19.2774
#
#
#
# Elastic Compliance Matrix: (Units=1/GPa)
#
#
# Indices 1 2 3 4 5 6 
#
# 1 0.011959 -0.007378 -0.002167 0.000000 0.000000 0.000000
# 2 -0.007378 0.013005 -0.006144 0.000000 0.000000 0.000000
# 3 -0.002167 -0.006144 0.044629 0.000000 0.000000 0.000000
# 4 0.000000 0.000000 0.000000 0.056141 0.000000 0.000000
# 5 0.000000 0.000000 0.000000 0.000000 0.050102 0.000000
# 6 0.000000 0.000000 0.000000 0.000000 0.000000 0.051874
#
#
# Mechanical properties :
#
#
# Convention : Reuss Voigt Hill
#
# Bulk Modulus (GPa) = 26.16757 63.81198 44.98977
# Shear Modulus (GPa) = 18.39391 23.10669 20.75030
#
# Velocity S-wave (km/s) = 3.23301 3.62358 3.43385
# Velocity P-wave (km/s) = 5.36714 7.33268 6.42551
#
# Compressibility (1/GPa) = 0.03821524
#
# Stress axis : x y z
#
# Youngs Moduli (GPa) = 83.61694 76.89179 22.40682
#
# Poissons Ratio (x) = 0.56733 0.04856
# Poissons Ratio (y) = 0.61695 0.13766
# Poissons Ratio (z) = 0.18123 0.47239
#
# Static dielectric constant tensor:
#      x y z
#    x 1.559510 0.000000 0.000000 
#    y 0.000000 1.629380 0.000000 
#    z 0.000000 0.000000 1.641470 
# 
# From -- ./inp_files/5064.got.cif
#   From: 2010.05.17/outbox.cif.g08.bks.cpg/sg49_3_cif.got.tgz:5064.got - 2010.06.03 21:02:19.
