data_PCOD9392629
_publ_section_title
;
Structure prediction by ZEFSAII (Michael W. Deem and Ramdas Pophale) SiO2 
 PCOD9392629
Probable space group: P C C M
;
_chemical_formula_sum "Si O2"
_cell_formula_units_Z 56
_cell_length_a 21.396267
_cell_length_b 18.711163
_cell_length_c 8.912382
_cell_angle_alpha 90.000000
_cell_angle_beta 90.000000
_cell_angle_gamma 90.000000
_cell_volume 3568.063573
_symmetry_space_group_name_H-M "P C C M"
_symmetry_group_IT_number 49
_symmetry_cell_setting 'orthorhombic'
loop_
_space_group_symop_operation_xyz
x,y,z
-x,-y,z
x,-y,1/2-z
-x,y,1/2-z
-x,-y,-z
x,y,-z
-x,y,1/2+z
x,-y,1/2+z
loop_
_atom_site_type_symbol
_atom_site_label
_atom_site_fract_x
_atom_site_fract_y
_atom_site_fract_z
Si Si1 0.064141 0.841153 0.178605
Si Si2 0.742887 0.791403 0.827326
Si Si3 0.875879 0.708002 0.828014
Si Si4 0.566008 0.578642 0.819946
Si Si5 0.807121 0.077831 0.179777
Si Si6 0.680835 0.339652 0.178553
Si Si7 0.811400 0.578067 0.321321
O O1 0.078672 0.762053 0.242044
O O2 0.123823 0.890574 0.216284
O O3 0.000000 0.868090 0.250000
O O4 0.058700 0.838111 0.000000
O O5 0.809202 0.749309 0.828598
O O6 0.757718 0.866299 0.748503
O O7 0.697195 0.739649 0.735810
O O8 0.723093 0.800222 0.000000
O O9 0.861422 0.633163 0.748184
O O10 0.895766 0.698075 0.000000
O O11 0.577292 0.500000 0.750000
O O12 0.500000 0.603204 0.750000
O O13 0.622497 0.628309 0.767144
O O14 0.562125 0.574066 0.000000
O O15 0.800159 0.000000 0.250000
O O16 0.801447 0.075806 0.000000
O O17 0.742438 0.388401 0.208219
O O18 0.669693 0.340491 0.000000
O O19 0.815748 0.500000 0.250000
O O20 0.819186 0.574506 0.500000
#
# Coordination Sequence:
#
# PCOD9392629 Si02
#       7
#     8   8   8   8   8   8   8
#     4  10  20  33  49  68  90 118 153 187 222 267
#     4   9  17  30  48  69  92 120 153 189 230 276
#     4   9  17  30  47  65  87 114 146 185 229 273
#     4  11  21  33  47  65  93 130 169 206 244 283
#     4  10  20  33  49  70  97 126 153 186 228 275
#     4  10  19  31  47  68  94 124 159 197 234 276
#     4  10  19  29  44  66  91 117 148 188 233 277
#
# _framework density 15.694788000000001
#
# number of rings (size 3 to 8) (size 9 to 14) (size 15 to 20)
#    0.000    2.143    0.000    4.714    0.000    8.286 
#    0.000    1.429    0.000    0.429    0.000    3.000 
#    0.000    0.571    0.000    5.714    0.000    3.429 
#
# Total GULP energy -312444.652020 kJ/mol
# GULP energy per Si atom -5579.368786 kJ/mol
# Density = 1.565907 g / cm^3
# Si number density = 15.694788 Si / 1000 Ang^3
#
#
#
# Elastic Constant Matrix: (Units=GPa)
#
#
# Indices 1 2 3 4 5 6 
#
# 1 29.1828 18.5721 16.5875 0.0000 0.0000 0.0000
# 2 18.5721 118.8655 45.5754 0.0000 0.0000 0.0000
# 3 16.5875 45.5754 82.1462 0.0000 0.0000 0.0000
# 4 0.0000 0.0000 0.0000 29.0765 0.0000 0.0000
# 5 0.0000 0.0000 0.0000 0.0000 23.4875 0.0000
# 6 0.0000 0.0000 0.0000 0.0000 0.0000 14.3906
#
#
#
# Elastic Compliance Matrix: (Units=1/GPa)
#
#
# Indices 1 2 3 4 5 6 
#
# 1 0.040168 -0.004022 -0.005880 0.000000 0.000000 0.000000
# 2 -0.004022 0.011089 -0.005340 0.000000 0.000000 0.000000
# 3 -0.005880 -0.005340 0.016323 0.000000 0.000000 0.000000
# 4 0.000000 0.000000 0.000000 0.034392 0.000000 0.000000
# 5 0.000000 0.000000 0.000000 0.000000 0.042576 0.000000
# 6 0.000000 0.000000 0.000000 0.000000 0.000000 0.069490
#
#
# Mechanical properties :
#
#
# Convention : Reuss Voigt Hill
#
# Bulk Modulus (GPa) = 26.95604 43.51827 35.23715
# Shear Modulus (GPa) = 19.46380 23.35487 21.40933
#
# Velocity S-wave (km/s) = 3.52539 3.86173 3.69739
# Velocity P-wave (km/s) = 5.81237 6.90449 6.38183
#
# Compressibility (1/GPa) = 0.03709744
#
# Stress axis : x y z
#
# Youngs Moduli (GPa) = 24.89527 90.18187 61.26171
#
# Poissons Ratio (x) = 0.36268 0.36021
# Poissons Ratio (y) = 0.10012 0.32714
# Poissons Ratio (z) = 0.14638 0.48157
#
# Static dielectric constant tensor:
#      x y z
#    x 1.514170 0.000000 0.000000 
#    y 0.000000 1.505190 0.000000 
#    z 0.000000 0.000000 1.523730 
# 
# From -- ./inp_files/4077.got.cif
#   From: 2010.05.17/outbox.cif.g08.bks.cpg/sg49_3_cif.got.tgz:4077.got - 2010.06.03 21:02:19.
