data_PCOD9392892
_publ_section_title
;
Structure prediction by ZEFSAII (Michael W. Deem and Ramdas Pophale) SiO2 
 PCOD9392892
Probable space group: P C C M
;
_chemical_formula_sum "Si O2"
_cell_formula_units_Z 64
_cell_length_a 15.063910
_cell_length_b 24.988855
_cell_length_c 8.382907
_cell_angle_alpha 90.000000
_cell_angle_beta 90.000000
_cell_angle_gamma 90.000000
_cell_volume 3155.576531
_symmetry_space_group_name_H-M "P C C M"
_symmetry_group_IT_number 49
_symmetry_cell_setting 'orthorhombic'
loop_
_space_group_symop_operation_xyz
x,y,z
-x,-y,z
x,-y,1/2-z
-x,y,1/2-z
-x,-y,-z
x,y,-z
-x,y,1/2+z
x,-y,1/2+z
loop_
_atom_site_type_symbol
_atom_site_label
_atom_site_fract_x
_atom_site_fract_y
_atom_site_fract_z
Si Si1 0.663011 0.670695 0.807479
Si Si2 0.238284 0.851340 0.184914
Si Si3 0.099014 0.939462 0.808025
Si Si4 0.146103 0.445073 0.309338
Si Si5 0.135301 0.330046 0.310784
Si Si6 0.403672 0.788024 0.310902
Si Si7 0.907264 0.220263 0.316571
Si Si8 0.645697 0.557325 0.691418
O O1 0.758612 0.670994 0.720498
O O2 0.617766 0.726791 0.757131
O O3 0.614828 0.614806 0.760326
O O4 0.675237 0.671251 0.000000
O O5 0.178713 0.900768 0.249514
O O6 0.328910 0.830765 0.261495
O O7 0.171207 0.801977 0.208627
O O8 0.255444 0.861883 0.000000
O O9 0.000000 0.923860 0.750000
O O10 0.113795 0.000000 0.750000
O O11 0.097783 0.937692 0.000000
O O12 0.105545 0.500000 0.250000
O O13 0.146827 0.445138 0.500000
O O14 0.105309 0.389014 0.258068
O O15 0.249901 0.444209 0.257489
O O16 0.118416 0.321742 0.500000
O O17 0.094505 0.283767 0.204598
O O18 0.500000 0.803758 0.250000
O O19 0.404248 0.785770 0.500000
O O20 0.893484 0.205332 0.500000
O O21 0.000000 0.199686 0.250000
O O22 0.607836 0.500000 0.750000
O O23 0.639988 0.559081 0.500000
#
# Coordination Sequence:
#
# PCOD9392892 Si02
#       8
#     8   8   8   8   8   8   8   8
#     4  10  19  32  51  77 107 143 189 238 297 365
#     4  11  23  40  63  91 125 163 205 251 299 352
#     4  10  21  37  62  97 135 177 214 252 296 345
#     4   8  15  25  40  64  92 126 170 218 274 336
#     4  10  19  32  50  73 104 142 181 230 289 348
#     4  11  24  40  61  88 119 159 205 255 310 364
#     4  12  24  37  55  82 115 154 195 238 293 353
#     4   9  16  26  43  69 100 136 177 229 292 359
#
# _framework density 20.281555000000001
#
# number of rings (size 3 to 8) (size 9 to 14) (size 15 to 20)
#    0.000    1.875    1.250    4.875    0.000    8.000 
#    0.000    0.000    0.000    1.125    0.000    7.875 
#    0.000    0.000    0.000    0.000    0.000    0.000 
#
# Total GULP energy -357219.477181 kJ/mol
# GULP energy per Si atom -5581.554331 kJ/mol
# Density = 2.023539 g / cm^3
# Si number density = 20.281555 Si / 1000 Ang^3
#
#
#
# Elastic Constant Matrix: (Units=GPa)
#
#
# Indices 1 2 3 4 5 6 
#
# 1 114.9496 51.0333 11.9063 0.0000 0.0000 0.0000
# 2 51.0333 142.8110 18.8659 0.0000 0.0000 0.0000
# 3 11.9063 18.8659 39.5755 0.0000 0.0000 0.0000
# 4 0.0000 0.0000 0.0000 32.9087 0.0000 0.0000
# 5 0.0000 0.0000 0.0000 0.0000 16.3698 0.0000
# 6 0.0000 0.0000 0.0000 0.0000 0.0000 25.6678
#
#
#
# Elastic Compliance Matrix: (Units=1/GPa)
#
#
# Indices 1 2 3 4 5 6 
#
# 1 0.010417 -0.003531 -0.001451 0.000000 0.000000 0.000000
# 2 -0.003531 0.008670 -0.003071 0.000000 0.000000 0.000000
# 3 -0.001451 -0.003071 0.027168 0.000000 0.000000 0.000000
# 4 0.000000 0.000000 0.000000 0.030387 0.000000 0.000000
# 5 0.000000 0.000000 0.000000 0.000000 0.061088 0.000000
# 6 0.000000 0.000000 0.000000 0.000000 0.000000 0.038959
#
#
# Mechanical properties :
#
#
# Convention : Reuss Voigt Hill
#
# Bulk Modulus (GPa) = 33.16676 51.21634 42.19155
# Shear Modulus (GPa) = 24.64934 29.35794 27.00364
#
# Velocity S-wave (km/s) = 3.48998 3.80876 3.65285
# Velocity P-wave (km/s) = 5.71215 6.68204 6.21604
#
# Compressibility (1/GPa) = 0.03015067
#
# Stress axis : x y z
#
# Youngs Moduli (GPa) = 95.99359 115.34440 36.80741
#
# Poissons Ratio (x) = 0.40728 0.05340
# Poissons Ratio (y) = 0.33895 0.11302
# Poissons Ratio (z) = 0.13927 0.35418
#
# Static dielectric constant tensor:
#      x y z
#    x 1.737920 0.000000 0.000000 
#    y 0.000000 1.774640 0.000000 
#    z 0.000000 0.000000 1.684560 
# 
# From -- ./inp_files/4402.got.cif
#   From: 2010.05.17/outbox.cif.g08.bks.cpg/sg49_3_cif.got.tgz:4402.got - 2010.06.03 21:02:19.
