data_PCOD9392112
_publ_section_title
;
Structure prediction by ZEFSAII (Michael W. Deem and Ramdas Pophale) SiO2 
 PCOD9392112
Probable space group: P C C M
;
_chemical_formula_sum "Si O2"
_cell_formula_units_Z 48
_cell_length_a 24.546364
_cell_length_b 13.853301
_cell_length_c 8.690816
_cell_angle_alpha 90.000000
_cell_angle_beta 90.000000
_cell_angle_gamma 90.000000
_cell_volume 2955.296067
_symmetry_space_group_name_H-M "P C C M"
_symmetry_group_IT_number 49
_symmetry_cell_setting 'orthorhombic'
loop_
_space_group_symop_operation_xyz
x,y,z
-x,-y,z
x,-y,1/2-z
-x,y,1/2-z
-x,-y,-z
x,y,-z
-x,y,1/2+z
x,-y,1/2+z
loop_
_atom_site_type_symbol
_atom_site_label
_atom_site_fract_x
_atom_site_fract_y
_atom_site_fract_z
Si Si1 0.389416 0.894521 0.183770
Si Si2 0.557454 0.294656 0.316512
Si Si3 0.944112 0.109613 0.815750
Si Si4 0.275412 0.206520 0.315827
Si Si5 0.168842 0.891531 0.683685
Si Si6 0.329842 0.394685 0.184712
O O1 0.427808 0.811344 0.252080
O O2 0.327384 0.861777 0.222018
O O3 0.400621 0.000000 0.250000
O O4 0.394815 0.895269 0.000000
O O5 0.500000 0.327767 0.250000
O O6 0.554432 0.289789 0.500000
O O7 0.608226 0.363108 0.274106
O O8 0.887097 0.151001 0.754603
O O9 0.000000 0.154172 0.750000
O O10 0.943389 0.000000 0.750000
O O11 0.945406 0.107224 0.000000
O O12 0.268532 0.205762 0.500000
O O13 0.221426 0.167993 0.234847
O O14 0.291789 0.312475 0.257476
O O15 0.164083 0.896672 0.500000
O O16 0.175385 0.000000 0.750000
O O17 0.318143 0.500000 0.250000
O O18 0.324978 0.393043 0.000000
#
# Coordination Sequence:
#
# PCOD9392112 Si02
#       6
#     8   8   8   8   8   8
#     4  10  20  33  50  70  95 126 159 193 233 278
#     4  10  21  36  53  73  97 122 154 192 232 278
#     4  10  17  27  41  60  89 127 169 208 244 281
#     4  10  20  34  51  72  97 125 158 199 241 286
#     4  11  20  30  45  68  98 133 170 205 241 283
#     4  10  21  37  56  76  97 123 152 190 238 290
#
# _framework density 16.242028000000001
#
# number of rings (size 3 to 8) (size 9 to 14) (size 15 to 20)
#    0.000    1.833    0.000    7.000    0.000    6.000 
#    0.000    3.333    0.000    0.000    0.000    0.000 
#    0.000    0.667    0.000    6.667    0.000    4.000 
#
# Total GULP energy -267987.589190 kJ/mol
# GULP energy per Si atom -5583.074775 kJ/mol
# Density = 1.620506 g / cm^3
# Si number density = 16.242028 Si / 1000 Ang^3
#
#
#
# Elastic Constant Matrix: (Units=GPa)
#
#
# Indices 1 2 3 4 5 6 
#
# 1 109.2032 15.6438 44.4140 0.0000 0.0000 0.0000
# 2 15.6438 58.7587 17.3088 0.0000 0.0000 0.0000
# 3 44.4140 17.3088 97.4336 0.0000 0.0000 0.0000
# 4 0.0000 0.0000 0.0000 20.6840 0.0000 0.0000
# 5 0.0000 0.0000 0.0000 0.0000 30.4420 0.0000
# 6 0.0000 0.0000 0.0000 0.0000 0.0000 7.1526
#
#
#
# Elastic Compliance Matrix: (Units=1/GPa)
#
#
# Indices 1 2 3 4 5 6 
#
# 1 0.011379 -0.001585 -0.004906 0.000000 0.000000 0.000000
# 2 -0.001585 0.018179 -0.002507 0.000000 0.000000 0.000000
# 3 -0.004906 -0.002507 0.012945 0.000000 0.000000 0.000000
# 4 0.000000 0.000000 0.000000 0.048346 0.000000 0.000000
# 5 0.000000 0.000000 0.000000 0.000000 0.032849 0.000000
# 6 0.000000 0.000000 0.000000 0.000000 0.000000 0.139808
#
#
# Mechanical properties :
#
#
# Convention : Reuss Voigt Hill
#
# Bulk Modulus (GPa) = 40.80174 46.68098 43.74136
# Shear Modulus (GPa) = 17.26089 24.19101 20.72595
#
# Velocity S-wave (km/s) = 3.26349 3.86347 3.57609
# Velocity P-wave (km/s) = 6.27504 6.97891 6.63631
#
# Compressibility (1/GPa) = 0.02450876
#
# Stress axis : x y z
#
# Youngs Moduli (GPa) = 87.87794 55.00795 77.24997
#
# Poissons Ratio (x) = 0.08716 0.37896
# Poissons Ratio (y) = 0.13925 0.19368
# Poissons Ratio (z) = 0.43110 0.13791
#
# Static dielectric constant tensor:
#      x y z
#    x 1.577060 0.000000 0.000000 
#    y 0.000000 1.509720 0.000000 
#    z 0.000000 0.000000 1.537990 
# 
# From -- ./inp_files/2876.got.cif
#   From: 2010.05.17/outbox.cif.g08.bks.cpg/sg49_2_cif.got.tgz:2876.got - 2010.06.03 21:02:19.
