data_PCOD9392602
_publ_section_title
;
Structure prediction by ZEFSAII (Michael W. Deem and Ramdas Pophale) SiO2 
 PCOD9392602
Probable space group: P C C M
;
_chemical_formula_sum "Si O2"
_cell_formula_units_Z 64
_cell_length_a 18.897155
_cell_length_b 26.799634
_cell_length_c 8.823800
_cell_angle_alpha 90.000000
_cell_angle_beta 90.000000
_cell_angle_gamma 90.000000
_cell_volume 4468.697368
_symmetry_space_group_name_H-M "P C C M"
_symmetry_group_IT_number 49
_symmetry_cell_setting 'orthorhombic'
loop_
_space_group_symop_operation_xyz
x,y,z
-x,-y,z
x,-y,1/2-z
-x,y,1/2-z
-x,-y,-z
x,y,-z
-x,y,1/2+z
x,-y,1/2+z
loop_
_atom_site_type_symbol
_atom_site_label
_atom_site_fract_x
_atom_site_fract_y
_atom_site_fract_z
Si Si1 0.576741 0.054319 0.681297
Si Si2 0.922377 0.254203 0.682933
Si Si3 0.838198 0.355148 0.683812
Si Si4 0.338048 0.143555 0.319458
Si Si5 0.210668 0.195454 0.824668
Si Si6 0.422760 0.755665 0.820049
Si Si7 0.922699 0.554221 0.681801
Si Si8 0.701523 0.700508 0.825501
O O1 0.500000 0.068509 0.750000
O O2 0.571909 0.051502 0.500000
O O3 0.632696 0.095447 0.733861
O O4 0.593729 0.000000 0.750000
O O5 0.924907 0.252974 0.500000
O O6 0.887841 0.307714 0.724628
O O7 0.867444 0.210699 0.730369
O O8 0.000000 0.249051 0.750000
O O9 0.840224 0.359925 0.500000
O O10 0.868269 0.403994 0.762727
O O11 0.757657 0.340931 0.727307
O O12 0.343071 0.136728 0.500000
O O13 0.258443 0.158222 0.272017
O O14 0.387151 0.191199 0.275757
O O15 0.252610 0.248300 0.824224
O O16 0.207514 0.178756 0.000000
O O17 0.500000 0.750757 0.750000
O O18 0.368558 0.712746 0.767206
O O19 0.428094 0.755281 0.000000
O O20 0.904539 0.500000 0.750000
O O21 0.926822 0.551848 0.500000
O O22 0.000000 0.567194 0.750000
O O23 0.682468 0.690346 0.000000
#
# Coordination Sequence:
#
# PCOD9392602 Si02
#       8
#     8   8   8   8   8   8   8   8
#     4  11  21  33  47  63  85 112 142 178 213 248
#     4   9  17  27  41  61  86 114 144 175 210 251
#     4   9  17  30  45  62  84 112 143 175 212 254
#     4  10  19  30  44  63  84 111 145 178 212 251
#     4   8  15  28  42  58  81 111 142 173 209 249
#     4  10  19  28  41  61  86 113 144 177 209 248
#     4  11  21  32  45  61  83 111 143 180 215 250
#     4   8  15  28  44  59  81 110 139 172 210 249
#
# _framework density 14.321847
#
# number of rings (size 3 to 8) (size 9 to 14) (size 15 to 20)
#    0.000    2.500    0.000    6.000    0.000    5.000 
#    0.000    2.500    0.000    0.000    0.000    0.000 
#    0.000    1.000    0.000   10.500    0.000    5.125 
#
# Total GULP energy -356707.304330 kJ/mol
# GULP energy per Si atom -5573.551630 kJ/mol
# Density = 1.428925 g / cm^3
# Si number density = 14.321847 Si / 1000 Ang^3
#
#
#
# Elastic Constant Matrix: (Units=GPa)
#
#
# Indices 1 2 3 4 5 6 
#
# 1 104.5811 42.7966 39.4368 0.0000 0.0000 0.0000
# 2 42.7966 63.1126 35.1123 0.0000 0.0000 0.0000
# 3 39.4368 35.1123 64.7962 0.0000 0.0000 0.0000
# 4 0.0000 0.0000 0.0000 7.3505 0.0000 0.0000
# 5 0.0000 0.0000 0.0000 0.0000 24.9812 0.0000
# 6 0.0000 0.0000 0.0000 0.0000 0.0000 24.9388
#
#
#
# Elastic Compliance Matrix: (Units=1/GPa)
#
#
# Indices 1 2 3 4 5 6 
#
# 1 0.014252 -0.006927 -0.004921 0.000000 0.000000 0.000000
# 2 -0.006927 0.026050 -0.009900 0.000000 0.000000 0.000000
# 3 -0.004921 -0.009900 0.023793 0.000000 0.000000 0.000000
# 4 0.000000 0.000000 0.000000 0.136044 0.000000 0.000000
# 5 0.000000 0.000000 0.000000 0.000000 0.040030 0.000000
# 6 0.000000 0.000000 0.000000 0.000000 0.000000 0.040098
#
#
# Mechanical properties :
#
#
# Convention : Reuss Voigt Hill
#
# Bulk Modulus (GPa) = 48.54570 51.90905 50.22738
# Shear Modulus (GPa) = 15.12270 19.13038 17.12654
#
# Velocity S-wave (km/s) = 3.25301 3.65875 3.46183
# Velocity P-wave (km/s) = 6.93393 7.36016 7.15022
#
# Compressibility (1/GPa) = 0.02059915
#
# Stress axis : x y z
#
# Youngs Moduli (GPa) = 70.16528 38.38829 42.02968
#
# Poissons Ratio (x) = 0.26590 0.20682
# Poissons Ratio (y) = 0.48601 0.41610
# Poissons Ratio (z) = 0.34526 0.38005
#
# Static dielectric constant tensor:
#      x y z
#    x 1.473820 0.000000 0.000000 
#    y 0.000000 1.459520 0.000000 
#    z 0.000000 0.000000 1.479650 
# 
# From -- ./inp_files/5416.got.cif
#   From: 2010.05.17/outbox.cif.g08.bks.cpg/sg49_3_cif.got.tgz:5416.got - 2010.06.03 21:02:19.
