data_PCOD9392776
_publ_section_title
;
Structure prediction by ZEFSAII (Michael W. Deem and Ramdas Pophale) SiO2 
 PCOD9392776
Probable space group: P C C M
;
_chemical_formula_sum "Si O2"
_cell_formula_units_Z 48
_cell_length_a 14.071841
_cell_length_b 24.381970
_cell_length_c 8.665287
_cell_angle_alpha 90.000000
_cell_angle_beta 90.000000
_cell_angle_gamma 90.000000
_cell_volume 2973.053082
_symmetry_space_group_name_H-M "P C C M"
_symmetry_group_IT_number 49
_symmetry_cell_setting 'orthorhombic'
loop_
_space_group_symop_operation_xyz
x,y,z
-x,-y,z
x,-y,1/2-z
-x,y,1/2-z
-x,-y,-z
x,y,-z
-x,y,1/2+z
x,-y,1/2+z
loop_
_atom_site_type_symbol
_atom_site_label
_atom_site_fract_x
_atom_site_fract_y
_atom_site_fract_z
Si Si1 0.103672 0.725002 0.315119
Si Si2 0.603819 0.771926 0.684174
Si Si3 0.293395 0.335268 0.185806
Si Si4 0.605959 0.440725 0.184559
Si Si5 0.218632 0.167277 0.186483
Si Si6 0.105525 0.059232 0.814735
O O1 0.098057 0.724699 0.500000
O O2 0.186046 0.682104 0.270238
O O3 0.143755 0.784927 0.268716
O O4 0.000000 0.714235 0.250000
O O5 0.500000 0.784398 0.750000
O O6 0.601078 0.768024 0.500000
O O7 0.639867 0.714033 0.754147
O O8 0.681945 0.816353 0.737237
O O9 0.327005 0.392080 0.257764
O O10 0.299786 0.337386 0.000000
O O11 0.635704 0.500000 0.250000
O O12 0.500000 0.430187 0.250000
O O13 0.602005 0.442541 0.000000
O O14 0.176112 0.108403 0.228622
O O15 0.229448 0.169838 0.000000
O O16 0.000000 0.070622 0.750000
O O17 0.135002 0.000000 0.750000
O O18 0.100026 0.056667 0.000000
#
# Coordination Sequence:
#
# PCOD9392776 Si02
#       6
#     8   8   8   8   8   8
#     4   9  18  31  49  71  98 128 160 198 241 286
#     4  11  21  33  51  74  99 129 162 200 243 292
#     4  10  20  35  51  72 102 133 164 201 242 287
#     4  11  21  34  52  75 101 131 164 201 244 291
#     4   9  19  34  49  70  99 131 163 201 244 289
#     4  10  19  31  49  72 101 132 165 203 245 291
#
# _framework density 16.145021
#
# number of rings (size 3 to 8) (size 9 to 14) (size 15 to 20)
#    0.000    2.000    0.000    7.000    0.000    4.667 
#    0.000    0.000    0.000    1.000    0.000    7.000 
#    0.000    0.000    0.000    0.000    0.000    0.000 
#
# Total GULP energy -267946.735767 kJ/mol
# GULP energy per Si atom -5582.223662 kJ/mol
# Density = 1.610827 g / cm^3
# Si number density = 16.145021 Si / 1000 Ang^3
#
#
#
# Elastic Constant Matrix: (Units=GPa)
#
#
# Indices 1 2 3 4 5 6 
#
# 1 132.3940 94.2100 53.0981 0.0000 0.0000 0.0000
# 2 94.2100 144.1691 58.3721 0.0000 0.0000 0.0000
# 3 53.0981 58.3721 90.8093 0.0000 0.0000 0.0000
# 4 0.0000 0.0000 0.0000 31.6181 0.0000 0.0000
# 5 0.0000 0.0000 0.0000 0.0000 26.7324 0.0000
# 6 0.0000 0.0000 0.0000 0.0000 0.0000 20.7450
#
#
#
# Elastic Compliance Matrix: (Units=1/GPa)
#
#
# Indices 1 2 3 4 5 6 
#
# 1 0.014814 -0.008346 -0.003298 0.000000 0.000000 0.000000
# 2 -0.008346 0.014078 -0.004170 0.000000 0.000000 0.000000
# 3 -0.003298 -0.004170 0.015621 0.000000 0.000000 0.000000
# 4 0.000000 0.000000 0.000000 0.031627 0.000000 0.000000
# 5 0.000000 0.000000 0.000000 0.000000 0.037408 0.000000
# 6 0.000000 0.000000 0.000000 0.000000 0.000000 0.048204
#
#
# Mechanical properties :
#
#
# Convention : Reuss Voigt Hill
#
# Bulk Modulus (GPa) = 77.59599 86.52588 82.06093
# Shear Modulus (GPa) = 25.29416 26.59859 25.94638
#
# Velocity S-wave (km/s) = 3.96243 4.06332 4.01319
# Velocity P-wave (km/s) = 8.31268 8.70192 8.50952
#
# Compressibility (1/GPa) = 0.01288726
#
# Stress axis : x y z
#
# Youngs Moduli (GPa) = 67.50189 71.03276 64.01825
#
# Poissons Ratio (x) = 0.59280 0.21112
# Poissons Ratio (y) = 0.56334 0.26693
# Poissons Ratio (z) = 0.22261 0.29617
#
# Static dielectric constant tensor:
#      x y z
#    x 1.522620 0.000000 0.000000 
#    y 0.000000 1.531590 0.000000 
#    z 0.000000 0.000000 1.542690 
# 
# From -- ./inp_files/2900.got.cif
#   From: 2010.05.17/outbox.cif.g08.bks.cpg/sg49_2_cif.got.tgz:2900.got - 2010.06.03 21:02:19.
