data_PCOD9392269
_publ_section_title
;
Structure prediction by ZEFSAII (Michael W. Deem and Ramdas Pophale) SiO2 
 PCOD9392269
Probable space group: P C C M
;
_chemical_formula_sum "Si O2"
_cell_formula_units_Z 64
_cell_length_a 16.936800
_cell_length_b 15.737511
_cell_length_c 15.195383
_cell_angle_alpha 90.000000
_cell_angle_beta 90.000000
_cell_angle_gamma 90.000000
_cell_volume 4050.224130
_symmetry_space_group_name_H-M "P C C M"
_symmetry_group_IT_number 49
_symmetry_cell_setting 'orthorhombic'
loop_
_space_group_symop_operation_xyz
x,y,z
-x,-y,z
x,-y,1/2-z
-x,y,1/2-z
-x,-y,-z
x,y,-z
-x,y,1/2+z
x,-y,1/2+z
loop_
_atom_site_type_symbol
_atom_site_label
_atom_site_fract_x
_atom_site_fract_y
_atom_site_fract_z
Si Si1 0.934040 0.332931 0.178041
Si Si2 0.696280 0.339983 0.097152
Si Si3 0.841113 0.475007 0.900146
Si Si4 0.590380 0.505205 0.644331
Si Si5 0.878334 0.899093 0.246631
Si Si6 0.228262 0.248753 0.750342
Si Si7 0.992614 0.835697 0.603332
Si Si8 0.268874 0.622623 0.603391
O O1 0.911926 0.425623 0.143814
O O2 0.855326 0.291944 0.221219
O O3 0.000000 0.340115 0.250000
O O4 0.970431 0.264695 0.109295
O O5 0.771331 0.404303 0.097807
O O6 0.625027 0.403983 0.115982
O O7 0.711935 0.271447 0.171929
O O8 0.690414 0.302521 0.000000
O O9 0.799795 0.558329 0.861295
O O10 0.862409 0.496009 0.000000
O O11 0.500000 0.500000 0.614516
O O12 0.592500 0.500000 0.750000
O O13 0.649677 0.430890 0.612088
O O14 0.796157 0.848776 0.240105
O O15 0.932466 0.863686 0.164673
O O16 0.921791 0.876484 0.339068
O O17 0.871674 0.000000 0.250000
O O18 0.261641 0.294533 0.836963
O O19 0.999134 0.859749 0.500000
O O20 0.256300 0.639073 0.500000
#
# Coordination Sequence:
#
# PCOD9392269 Si02
#       8
#     8   8   8   8   8   8   8   8
#     4  10  17  30  46  67  89 122 163 206 247 276
#     4   9  17  29  48  70  95 128 160 188 229 276
#     4   8  16  28  44  64  87 121 165 199 223 268
#     4  10  18  30  51  78 108 135 161 196 230 267
#     4  10  21  35  50  72  94 116 154 203 260 313
#     4  10  19  34  49  64  93 125 161 203 247 290
#     4  10  18  32  52  72  95 119 149 199 262 316
#     4  10  20  34  49  68  96 136 169 190 230 282
#
# _framework density 15.801595000000001
#
# number of rings (size 3 to 8) (size 9 to 14) (size 15 to 20)
#    0.000    2.375    3.750    2.250    0.000    5.500 
#    0.000    1.250    0.000    1.500    0.000    0.000 
#    0.000    2.000    0.000    2.250    0.000    0.125 
#
# Total GULP energy -356347.627208 kJ/mol
# GULP energy per Si atom -5567.931675 kJ/mol
# Density = 1.576563 g / cm^3
# Si number density = 15.801595 Si / 1000 Ang^3
#
#
#
# Elastic Constant Matrix: (Units=GPa)
#
#
# Indices 1 2 3 4 5 6 
#
# 1 58.1923 36.5159 28.6757 0.0000 0.0000 0.0000
# 2 36.5159 73.1199 45.1073 0.0000 0.0000 0.0000
# 3 28.6757 45.1073 105.9709 0.0000 0.0000 0.0000
# 4 0.0000 0.0000 0.0000 2.3077 0.0000 0.0000
# 5 0.0000 0.0000 0.0000 0.0000 6.0102 0.0000
# 6 0.0000 0.0000 0.0000 0.0000 0.0000 10.8889
#
#
#
# Elastic Compliance Matrix: (Units=1/GPa)
#
#
# Indices 1 2 3 4 5 6 
#
# 1 0.025334 -0.011422 -0.001994 0.000000 0.000000 0.000000
# 2 -0.011422 0.023696 -0.006995 0.000000 0.000000 0.000000
# 3 -0.001994 -0.006995 0.012954 0.000000 0.000000 0.000000
# 4 0.000000 0.000000 0.000000 0.433334 0.000000 0.000000
# 5 0.000000 0.000000 0.000000 0.000000 0.166384 0.000000
# 6 0.000000 0.000000 0.000000 0.000000 0.000000 0.091836
#
#
# Mechanical properties :
#
#
# Convention : Reuss Voigt Hill
#
# Bulk Modulus (GPa) = 47.25560 50.87565 49.06563
# Shear Modulus (GPa) = 6.23898 12.30697 9.27297
#
# Velocity S-wave (km/s) = 1.98919 2.79380 2.42510
# Velocity P-wave (km/s) = 5.93687 6.53250 6.24179
#
# Compressibility (1/GPa) = 0.02116151
#
# Stress axis : x y z
#
# Youngs Moduli (GPa) = 39.47249 42.20164 77.19802
#
# Poissons Ratio (x) = 0.48203 0.15390
# Poissons Ratio (y) = 0.45085 0.54004
# Poissons Ratio (z) = 0.07869 0.29522
#
# Static dielectric constant tensor:
#      x y z
#    x 1.538490 0.000000 0.000000 
#    y 0.000000 1.556640 0.000000 
#    z 0.000000 0.000000 1.560990 
# 
# From -- ./inp_files/14251.got.cif
#   From: 2010.05.17/outbox.cif.g08.bks.cpg/sg49_8_cif.got.tgz:14251.got - 2010.06.03 21:02:19.
