data_PCOD9392706
_publ_section_title
;
Structure prediction by ZEFSAII (Michael W. Deem and Ramdas Pophale) SiO2 
 PCOD9392706
Probable space group: P C C M
;
_chemical_formula_sum "Si O2"
_cell_formula_units_Z 40
_cell_length_a 9.882501
_cell_length_b 19.360896
_cell_length_c 10.552288
_cell_angle_alpha 90.000000
_cell_angle_beta 90.000000
_cell_angle_gamma 90.000000
_cell_volume 2019.012254
_symmetry_space_group_name_H-M "P C C M"
_symmetry_group_IT_number 49
_symmetry_cell_setting 'orthorhombic'
loop_
_space_group_symop_operation_xyz
x,y,z
-x,-y,z
x,-y,1/2-z
-x,y,1/2-z
-x,-y,-z
x,y,-z
-x,y,1/2+z
x,-y,1/2+z
loop_
_atom_site_type_symbol
_atom_site_label
_atom_site_fract_x
_atom_site_fract_y
_atom_site_fract_z
Si Si1 0.336105 0.420918 0.253479
Si Si2 0.576477 0.073507 0.362044
Si Si3 0.849045 0.887766 0.761725
Si Si4 0.679400 0.659536 0.000000
Si Si5 0.353378 0.331156 0.500000
Si Si6 0.812314 0.192706 0.000000
Si Si7 0.118798 0.213674 0.000000
O O1 0.286937 0.500000 0.250000
O O2 0.500000 0.424227 0.250000
O O3 0.290230 0.383245 0.126464
O O4 0.306173 0.374947 0.377131
O O5 0.500000 0.113521 0.250000
O O6 0.570241 0.106883 0.500000
O O7 0.730347 0.065199 0.318242
O O8 0.500000 0.000000 0.372252
O O9 0.807474 0.855143 0.626126
O O10 0.000000 0.918054 0.750000
O O11 0.860575 0.829672 0.870947
O O12 0.517402 0.673163 0.000000
O O13 0.772941 0.726163 0.000000
O O14 0.296066 0.253721 0.500000
O O15 0.959191 0.230090 0.000000
#
# Coordination Sequence:
#
# PCOD9392706 Si02
#       7
#     8   8   8   4   4   4   4
#     4   9  17  30  49  74 105 142 188 240 291 348
#     4  10  22  41  64  92 124 155 191 239 293 343
#     4  10  21  39  62  86 117 159 202 239 287 358
#     4  10  19  30  52  77 104 144 187 237 296 348
#     4  10  19  32  50  79 108 140 191 241 292 352
#     4  10  22  35  56  85 115 153 193 241 298 350
#     4  10  20  37  56  81 115 153 193 241 296 348
#
# _framework density 19.811667
#
# number of rings (size 3 to 8) (size 9 to 14) (size 15 to 20)
#    0.000    2.200    1.000    1.800    1.400    4.000 
#    0.000    2.000    0.000    9.600    0.000    0.000 
#    0.000    0.000    0.000    0.000    0.000    0.000 
#
# Total GULP energy -223060.436342 kJ/mol
# GULP energy per Si atom -5576.510909 kJ/mol
# Density = 1.976657 g / cm^3
# Si number density = 19.811667 Si / 1000 Ang^3
#
#
#
# Elastic Constant Matrix: (Units=GPa)
#
#
# Indices 1 2 3 4 5 6 
#
# 1 98.4456 39.1758 36.6529 0.0000 0.0000 0.0000
# 2 39.1758 68.6342 34.5803 0.0000 0.0000 0.0000
# 3 36.6529 34.5803 189.6474 0.0000 0.0000 0.0000
# 4 0.0000 0.0000 0.0000 10.6083 0.0000 0.0000
# 5 0.0000 0.0000 0.0000 0.0000 11.8524 0.0000
# 6 0.0000 0.0000 0.0000 0.0000 0.0000 -37.0932
#
#
#
# Elastic Compliance Matrix: (Units=1/GPa)
#
#
# Indices 1 2 3 4 5 6 
#
# 1 0.013437 -0.007005 -0.001320 0.000000 0.000000 0.000000
# 2 -0.007005 0.019695 -0.002238 0.000000 0.000000 0.000000
# 3 -0.001320 -0.002238 0.005936 0.000000 0.000000 0.000000
# 4 0.000000 0.000000 0.000000 0.094266 0.000000 0.000000
# 5 0.000000 0.000000 0.000000 0.000000 0.084371 0.000000
# 6 0.000000 0.000000 0.000000 0.000000 0.000000 -0.026959
#
#
# Mechanical properties :
#
#
# Convention : Reuss Voigt Hill
#
# Bulk Modulus (GPa) = 55.72722 64.17170 59.94946
# Shear Modulus (GPa) = 22.95145 13.49472 18.22309
#
# Velocity S-wave (km/s) = 3.40734 2.61272 3.03614
# Velocity P-wave (km/s) = 6.60829 6.44693 6.52811
#
# Compressibility (1/GPa) = 0.01794455
#
# Stress axis : x y z
#
# Youngs Moduli (GPa) = 74.42321 50.77304 168.46416
#
# Poissons Ratio (x) = 0.35565 0.22232
# Poissons Ratio (y) = 0.52131 0.37694
# Poissons Ratio (z) = 0.09821 0.11360
#
# Static dielectric constant tensor:
#      x y z
#    x 1.714630 0.000000 0.000000 
#    y 0.000000 1.768030 0.000000 
#    z 0.000000 0.000000 1.746910 
# 
# From -- ./inp_files/8164.got.cif
#   From: 2010.05.17/outbox.cif.g08.bks.cpg/sg49_5_cif.got.tgz:8164.got - 2010.06.03 21:02:19.
