data_PCOD9392078
_publ_section_title
;
Structure prediction by ZEFSAII (Michael W. Deem and Ramdas Pophale) SiO2 
 PCOD9392078
Probable space group: P C C M
;
_chemical_formula_sum "Si O2"
_cell_formula_units_Z 64
_cell_length_a 21.104107
_cell_length_b 20.598483
_cell_length_c 8.439742
_cell_angle_alpha 90.000000
_cell_angle_beta 90.000000
_cell_angle_gamma 90.000000
_cell_volume 3668.862098
_symmetry_space_group_name_H-M "P C C M"
_symmetry_group_IT_number 49
_symmetry_cell_setting 'orthorhombic'
loop_
_space_group_symop_operation_xyz
x,y,z
-x,-y,z
x,-y,1/2-z
-x,y,1/2-z
-x,-y,-z
x,y,-z
-x,y,1/2+z
x,-y,1/2+z
loop_
_atom_site_type_symbol
_atom_site_label
_atom_site_fract_x
_atom_site_fract_y
_atom_site_fract_z
Si Si1 0.757032 0.292188 0.192628
Si Si2 0.566853 0.846173 0.308905
Si Si3 0.070580 0.927634 0.809730
Si Si4 0.608103 0.705280 0.308906
Si Si5 0.188574 0.157093 0.693610
Si Si6 0.394170 0.432253 0.812231
Si Si7 0.248750 0.433042 0.689532
Si Si8 0.689613 0.926668 0.308566
O O1 0.682611 0.287224 0.236797
O O2 0.796601 0.230275 0.248304
O O3 0.779867 0.363963 0.241443
O O4 0.757915 0.290605 0.000000
O O5 0.500000 0.872370 0.250000
O O6 0.567625 0.845603 0.500000
O O7 0.574909 0.771402 0.255107
O O8 0.626860 0.888281 0.255066
O O9 0.123188 0.876038 0.755405
O O10 0.000000 0.912530 0.750000
O O11 0.087132 0.000000 0.750000
O O12 0.069914 0.929123 0.000000
O O13 0.606175 0.701818 0.500000
O O14 0.580747 0.637601 0.244392
O O15 0.187973 0.158145 0.500000
O O16 0.247665 0.112122 0.742230
O O17 0.422898 0.500000 0.750000
O O18 0.321466 0.431855 0.749482
O O19 0.394315 0.434460 0.000000
O O20 0.219219 0.500000 0.750000
O O21 0.250551 0.434899 0.500000
O O22 0.689344 0.926536 0.500000
O O23 0.690197 0.000000 0.250000
#
# Coordination Sequence:
#
# PCOD9392078 Si02
#       8
#     8   8   8   8   8   8   8   8
#     4   8  13  24  44  66  87 116 156 193 228 273
#     4  10  21  36  54  71  92 122 155 195 241 291
#     4  10  19  31  49  70  97 130 162 197 232 278
#     4   9  16  30  49  66  87 118 153 191 235 282
#     4   9  16  29  50  73  95 124 163 198 232 277
#     4  10  17  25  40  64  92 120 151 188 229 277
#     4   9  15  23  38  59  89 125 156 189 229 275
#     4  10  20  35  54  74  95 121 155 197 240 285
#
# _framework density 17.444099999999999
#
# number of rings (size 3 to 8) (size 9 to 14) (size 15 to 20)
#    0.000    2.625    1.250    4.125    0.000    1.250 
#    0.000    1.875    0.000    7.875    0.000    2.625 
#    0.000    0.500    0.000    6.250    0.000    0.125 
#
# Total GULP energy -356737.318825 kJ/mol
# GULP energy per Si atom -5574.020607 kJ/mol
# Density = 1.740440 g / cm^3
# Si number density = 17.444100 Si / 1000 Ang^3
#
#
#
# Elastic Constant Matrix: (Units=GPa)
#
#
# Indices 1 2 3 4 5 6 
#
# 1 82.4598 67.5310 12.7962 0.0000 0.0000 0.0000
# 2 67.5310 166.8781 22.5247 0.0000 0.0000 0.0000
# 3 12.7962 22.5247 31.5567 0.0000 0.0000 0.0000
# 4 0.0000 0.0000 0.0000 28.6707 0.0000 0.0000
# 5 0.0000 0.0000 0.0000 0.0000 11.6425 0.0000
# 6 0.0000 0.0000 0.0000 0.0000 0.0000 44.1576
#
#
#
# Elastic Compliance Matrix: (Units=1/GPa)
#
#
# Indices 1 2 3 4 5 6 
#
# 1 0.018296 -0.007085 -0.002362 0.000000 0.000000 0.000000
# 2 -0.007085 0.009375 -0.003819 0.000000 0.000000 0.000000
# 3 -0.002362 -0.003819 0.035372 0.000000 0.000000 0.000000
# 4 0.000000 0.000000 0.000000 0.034879 0.000000 0.000000
# 5 0.000000 0.000000 0.000000 0.000000 0.085892 0.000000
# 6 0.000000 0.000000 0.000000 0.000000 0.000000 0.022646
#
#
# Mechanical properties :
#
#
# Convention : Reuss Voigt Hill
#
# Bulk Modulus (GPa) = 27.38809 54.06649 40.72729
# Shear Modulus (GPa) = 20.39464 28.76368 24.57916
#
# Velocity S-wave (km/s) = 3.42298 4.06508 3.75777
# Velocity P-wave (km/s) = 5.59973 7.28660 6.49814
#
# Compressibility (1/GPa) = 0.03651223
#
# Stress axis : x y z
#
# Youngs Moduli (GPa) = 54.65665 106.66675 28.27064
#
# Poissons Ratio (x) = 0.75575 0.06677
# Poissons Ratio (y) = 0.38725 0.10796
# Poissons Ratio (z) = 0.12909 0.40733
#
# Static dielectric constant tensor:
#      x y z
#    x 1.577140 0.000000 0.000000 
#    y 0.000000 1.637040 0.000000 
#    z 0.000000 0.000000 1.588050 
# 
# From -- ./inp_files/6056.got.cif
#   From: 2010.05.17/outbox.cif.g08.bks.cpg/sg49_4_cif.got.tgz:6056.got - 2010.06.03 21:02:19.
