data_PCOD9392236
_publ_section_title
;
Structure prediction by ZEFSAII (Michael W. Deem and Ramdas Pophale) SiO2 
 PCOD9392236
Probable space group: P C C M
;
_chemical_formula_sum "Si O2"
_cell_formula_units_Z 48
_cell_length_a 9.168025
_cell_length_b 32.306320
_cell_length_c 8.598597
_cell_angle_alpha 90.000000
_cell_angle_beta 90.000000
_cell_angle_gamma 90.000000
_cell_volume 2546.776737
_symmetry_space_group_name_H-M "P C C M"
_symmetry_group_IT_number 49
_symmetry_cell_setting 'orthorhombic'
loop_
_space_group_symop_operation_xyz
x,y,z
-x,-y,z
x,-y,1/2-z
-x,y,1/2-z
-x,-y,-z
x,y,-z
-x,y,1/2+z
x,-y,1/2+z
loop_
_atom_site_type_symbol
_atom_site_label
_atom_site_fract_x
_atom_site_fract_y
_atom_site_fract_z
Si Si1 0.334301 0.633677 0.312705
Si Si2 0.336393 0.208511 0.186228
Si Si3 0.163524 0.712353 0.185880
Si Si4 0.834614 0.870651 0.313780
Si Si5 0.833393 0.042716 0.313946
Si Si6 0.334445 0.542067 0.685458
O O1 0.500000 0.636648 0.250000
O O2 0.336512 0.637637 0.500000
O O3 0.240245 0.669979 0.238865
O O4 0.274790 0.587539 0.273275
O O5 0.500000 0.210305 0.250000
O O6 0.251413 0.249144 0.243141
O O7 0.257037 0.168088 0.254054
O O8 0.336301 0.206850 0.000000
O O9 0.000000 0.713408 0.250000
O O10 0.163549 0.715454 0.000000
O O11 0.838988 0.871944 0.500000
O O12 0.771332 0.914098 0.249250
O O13 0.000000 0.866442 0.250000
O O14 0.835717 0.042330 0.500000
O O15 0.000000 0.042999 0.250000
O O16 0.766163 0.000000 0.250000
O O17 0.263662 0.500000 0.750000
O O18 0.500000 0.542706 0.750000
O O19 0.340324 0.539019 0.500000
#
# Coordination Sequence:
#
# PCOD9392236 Si02
#       6
#     8   8   8   8   8   8
#     4  10  20  35  55  83 115 150 188 231 278 330
#     4  12  25  43  63  86 114 147 185 229 278 334
#     4  12  25  42  62  85 112 146 184 229 279 334
#     4  11  21  36  57  85 117 152 191 235 282 333
#     4  10  17  28  47  76 111 149 189 234 281 329
#     4   9  16  26  45  73 108 144 183 226 272 320
#
# _framework density 18.847352999999998
#
# number of rings (size 3 to 8) (size 9 to 14) (size 15 to 20)
#    0.000    1.333    0.000   10.000    0.000    2.000 
#    0.000    0.000    0.000    1.000    0.000    7.000 
#    0.000    0.000    0.000    0.000    0.000    0.000 
#
# Total GULP energy -268143.019351 kJ/mol
# GULP energy per Si atom -5586.312903 kJ/mol
# Density = 1.880446 g / cm^3
# Si number density = 18.847353 Si / 1000 Ang^3
#
#
#
# Elastic Constant Matrix: (Units=GPa)
#
#
# Indices 1 2 3 4 5 6 
#
# 1 80.9792 73.9460 42.9363 0.0000 0.0000 0.0000
# 2 73.9460 224.6628 90.1360 0.0000 0.0000 0.0000
# 3 42.9363 90.1360 191.1060 0.0000 0.0000 0.0000
# 4 0.0000 0.0000 0.0000 45.6436 0.0000 0.0000
# 5 0.0000 0.0000 0.0000 0.0000 25.7295 0.0000
# 6 0.0000 0.0000 0.0000 0.0000 0.0000 23.9809
#
#
#
# Elastic Compliance Matrix: (Units=1/GPa)
#
#
# Indices 1 2 3 4 5 6 
#
# 1 0.018017 -0.005311 -0.001543 0.000000 0.000000 0.000000
# 2 -0.005311 0.007056 -0.002135 0.000000 0.000000 0.000000
# 3 -0.001543 -0.002135 0.006586 0.000000 0.000000 0.000000
# 4 0.000000 0.000000 0.000000 0.021909 0.000000 0.000000
# 5 0.000000 0.000000 0.000000 0.000000 0.038866 0.000000
# 6 0.000000 0.000000 0.000000 0.000000 0.000000 0.041700
#
#
# Mechanical properties :
#
#
# Convention : Reuss Voigt Hill
#
# Bulk Modulus (GPa) = 73.09174 101.19829 87.14501
# Shear Modulus (GPa) = 31.91413 38.38612 35.15013
#
# Velocity S-wave (km/s) = 4.11943 4.51786 4.32324
# Velocity P-wave (km/s) = 7.84164 9.00139 8.44146
#
# Compressibility (1/GPa) = 0.01368144
#
# Stress axis : x y z
#
# Youngs Moduli (GPa) = 55.50414 141.73143 151.83457
#
# Poissons Ratio (x) = 0.75274 0.23426
# Poissons Ratio (y) = 0.29478 0.32410
# Poissons Ratio (z) = 0.08564 0.30253
#
# Static dielectric constant tensor:
#      x y z
#    x 1.640790 0.000000 0.000000 
#    y 0.000000 1.700720 0.000000 
#    z 0.000000 0.000000 1.625980 
# 
# From -- ./inp_files/2077.got.cif
#   From: 2010.05.17/outbox.cif.g08.bks.cpg/sg49_2_cif.got.tgz:2077.got - 2010.06.03 21:02:19.
