data_PCOD9392053
_publ_section_title
;
Structure prediction by ZEFSAII (Michael W. Deem and Ramdas Pophale) SiO2 
 PCOD9392053
Probable space group: P C C M
;
_chemical_formula_sum "Si O2"
_cell_formula_units_Z 56
_cell_length_a 5.197388
_cell_length_b 31.560407
_cell_length_c 17.786022
_cell_angle_alpha 90.000000
_cell_angle_beta 90.000000
_cell_angle_gamma 90.000000
_cell_volume 2917.471080
_symmetry_space_group_name_H-M "P C C M"
_symmetry_group_IT_number 49
_symmetry_cell_setting 'orthorhombic'
loop_
_space_group_symop_operation_xyz
x,y,z
-x,-y,z
x,-y,1/2-z
-x,y,1/2-z
-x,-y,-z
x,y,-z
-x,y,1/2+z
x,-y,1/2+z
loop_
_atom_site_type_symbol
_atom_site_label
_atom_site_fract_x
_atom_site_fract_y
_atom_site_fract_z
Si Si1 0.847532 0.694614 0.410723
Si Si2 0.251864 0.519219 0.835809
Si Si3 0.749047 0.617678 0.698593
Si Si4 0.655691 0.250975 0.410666
Si Si5 0.006884 0.085625 0.664255
Si Si6 0.763973 0.176473 0.297882
Si Si7 0.488970 0.950228 0.589117
O O1 0.851634 0.686155 0.500000
O O2 0.780780 0.652371 0.365806
O O3 0.621373 0.728411 0.396050
O O4 0.120574 0.715505 0.389745
O O5 0.500000 0.500000 0.874003
O O6 0.251248 0.500000 0.750000
O O7 0.263246 0.569521 0.831163
O O8 0.000000 0.500000 0.872263
O O9 0.500000 0.625604 0.750000
O O10 0.000000 0.620167 0.750000
O O11 0.680141 0.242859 0.500000
O O12 0.689709 0.208416 0.363719
O O13 0.900779 0.133771 0.671343
O O14 0.795951 0.063571 0.612428
O O15 0.000000 0.068938 0.750000
O O16 0.291103 0.076886 0.631886
O O17 0.500000 0.167755 0.250000
O O18 0.000000 0.196501 0.250000
O O19 0.529222 0.945318 0.500000
O O20 0.500000 0.000000 0.608182
#
# Coordination Sequence:
#
# PCOD9392053 Si02
#       7
#     8   8   8   8   8   8   8
#     4  10  23  40  55  79 119 151 183 235 292 348
#     4  10  16  30  48  74 107 136 170 229 282 323
#     4  12  21  32  56  86 104 141 190 233 277 340
#     4  10  22  41  61  82 112 158 198 231 289 360
#     4  11  23  41  62  91 125 160 202 246 310 373
#     4  11  23  40  63  90 123 154 192 254 304 345
#     4  11  24  41  62  90 125 163 207 259 303 346
#
# _framework density 19.194707999999999
#
# number of rings (size 3 to 8) (size 9 to 14) (size 15 to 20)
#    0.000    1.286    2.857    4.714    0.000    7.429 
#    0.000    1.429    0.000    0.857    0.000    0.000 
#    0.000    0.000    0.000    0.000    0.000    0.000 
#
# Total GULP energy -312612.403607 kJ/mol
# GULP energy per Si atom -5582.364350 kJ/mol
# Density = 1.915102 g / cm^3
# Si number density = 19.194708 Si / 1000 Ang^3
#
#
#
# Elastic Constant Matrix: (Units=GPa)
#
#
# Indices 1 2 3 4 5 6 
#
# 1 115.1694 -4.8510 7.2276 0.0000 0.0000 0.0000
# 2 -4.8510 74.8700 30.3698 0.0000 0.0000 0.0000
# 3 7.2276 30.3698 27.8252 0.0000 0.0000 0.0000
# 4 0.0000 0.0000 0.0000 13.4450 0.0000 0.0000
# 5 0.0000 0.0000 0.0000 0.0000 36.2207 0.0000
# 6 0.0000 0.0000 0.0000 0.0000 0.0000 18.6520
#
#
#
# Elastic Compliance Matrix: (Units=1/GPa)
#
#
# Indices 1 2 3 4 5 6 
#
# 1 0.009141 0.002791 -0.005420 0.000000 0.000000 0.000000
# 2 0.002791 0.024820 -0.027815 0.000000 0.000000 0.000000
# 3 -0.005420 -0.027815 0.067705 0.000000 0.000000 0.000000
# 4 0.000000 0.000000 0.000000 0.074377 0.000000 0.000000
# 5 0.000000 0.000000 0.000000 0.000000 0.027608 0.000000
# 6 0.000000 0.000000 0.000000 0.000000 0.000000 0.053614
#
#
# Mechanical properties :
#
#
# Convention : Reuss Voigt Hill
#
# Bulk Modulus (GPa) = 24.52358 31.48416 28.00387
# Shear Modulus (GPa) = 15.07181 26.00474 20.53828
#
# Velocity S-wave (km/s) = 2.80519 3.68474 3.27463
# Velocity P-wave (km/s) = 4.82660 5.87717 5.37761
#
# Compressibility (1/GPa) = 0.04077708
#
# Stress axis : x y z
#
# Youngs Moduli (GPa) = 109.40212 40.29036 14.77001
#
# Poissons Ratio (x) = -0.11245 0.08006
# Poissons Ratio (y) = -0.30534 0.41082
# Poissons Ratio (z) = 0.59301 1.12066
#
# Static dielectric constant tensor:
#      x y z
#    x 1.668620 0.000000 0.000000 
#    y 0.000000 1.636510 0.000000 
#    z 0.000000 0.000000 1.640090 
# 
# From -- ./inp_files/10769.got.cif
#   From: 2010.05.17/outbox.cif.g08.bks.cpg/sg49_6_cif.got.tgz:10769.got - 2010.06.03 21:02:19.
