data_PCOD9392832
_publ_section_title
;
Structure prediction by ZEFSAII (Michael W. Deem and Ramdas Pophale) SiO2 
 PCOD9392832
Probable space group: P C C M
;
_chemical_formula_sum "Si O2"
_cell_formula_units_Z 40
_cell_length_a 9.539435
_cell_length_b 9.387650
_cell_length_c 17.675904
_cell_angle_alpha 90.000000
_cell_angle_beta 90.000000
_cell_angle_gamma 90.000000
_cell_volume 1582.928056
_symmetry_space_group_name_H-M "P C C M"
_symmetry_group_IT_number 49
_symmetry_cell_setting 'orthorhombic'
loop_
_space_group_symop_operation_xyz
x,y,z
-x,-y,z
x,-y,1/2-z
-x,y,1/2-z
-x,-y,-z
x,y,-z
-x,y,1/2+z
x,-y,1/2+z
loop_
_atom_site_type_symbol
_atom_site_label
_atom_site_fract_x
_atom_site_fract_y
_atom_site_fract_z
Si Si1 0.997324 0.671806 0.416465
Si Si2 0.840588 0.941612 0.585242
Si Si3 0.432391 0.655531 0.584488
Si Si4 0.194549 0.349343 0.790010
Si Si5 0.621701 0.849182 0.686875
O O1 0.061474 0.705682 0.500000
O O2 0.064761 0.712201 0.336215
O O3 0.000000 0.500000 0.414261
O O4 0.858976 0.768942 0.417727
O O5 0.802495 0.987893 0.500000
O O6 0.718205 0.970589 0.646357
O O7 0.000000 0.000000 0.599653
O O8 0.500000 0.500000 0.581054
O O9 0.392414 0.698896 0.500000
O O10 0.303992 0.634859 0.641222
O O11 0.540654 0.766448 0.620632
O O12 0.167213 0.500000 0.750000
O O13 0.266603 0.248069 0.730140
O O14 0.500000 0.869895 0.750000
#
# Coordination Sequence:
#
# PCOD9392832 Si02
#       5
#     8   8   8   8   8
#     4  10  22  38  59  89 125 171 225 279 334 405
#     4  10  22  43  69  96 131 181 235 285 341 413
#     4  10  19  31  53  84 126 180 227 274 335 414
#     4  11  20  33  52  85 130 172 217 277 346 410
#     4  10  21  35  59  94 133 173 223 284 350 418
#
# _framework density 25.269625000000001
#
# number of rings (size 3 to 8) (size 9 to 14) (size 15 to 20)
#    0.000    1.800    2.000    2.400    0.000    2.800 
#    0.000    2.000    0.000    8.400    0.000   18.200 
#    0.000   16.000    0.000    0.000    0.000    0.000 
#
# Total GULP energy -223426.263649 kJ/mol
# GULP energy per Si atom -5585.656591 kJ/mol
# Density = 2.521211 g / cm^3
# Si number density = 25.269625 Si / 1000 Ang^3
#
#
#
# Elastic Constant Matrix: (Units=GPa)
#
#
# Indices 1 2 3 4 5 6 
#
# 1 117.1519 19.0441 81.8900 0.0000 0.0000 0.0000
# 2 19.0441 78.7908 26.4183 0.0000 0.0000 0.0000
# 3 81.8900 26.4183 228.6377 0.0000 0.0000 0.0000
# 4 0.0000 0.0000 0.0000 -4.8644 0.0000 0.0000
# 5 0.0000 0.0000 0.0000 0.0000 61.5549 0.0000
# 6 0.0000 0.0000 0.0000 0.0000 0.0000 36.0456
#
#
#
# Elastic Compliance Matrix: (Units=1/GPa)
#
#
# Indices 1 2 3 4 5 6 
#
# 1 0.011546 -0.001461 -0.003967 0.000000 0.000000 0.000000
# 2 -0.001461 0.013388 -0.001024 0.000000 0.000000 0.000000
# 3 -0.003967 -0.001024 0.005913 0.000000 0.000000 0.000000
# 4 0.000000 0.000000 0.000000 -0.205574 0.000000 0.000000
# 5 0.000000 0.000000 0.000000 0.000000 0.016246 0.000000
# 6 0.000000 0.000000 0.000000 0.000000 0.000000 0.027743
#
#
# Mechanical properties :
#
#
# Convention : Reuss Voigt Hill
#
# Bulk Modulus (GPa) = 55.72670 75.47611 65.60141
# Shear Modulus (GPa) = -44.70095 38.36241 -3.16927
#
# Velocity S-wave (km/s) = -4.21046 3.90054 -1.12112
# Velocity P-wave (km/s) = 1.23960 7.08652 4.93367
#
# Compressibility (1/GPa) = 0.01794472
#
# Stress axis : x y z
#
# Youngs Moduli (GPa) = 86.60953 74.69277 169.12672
#
# Poissons Ratio (x) = 0.10911 0.67086
# Poissons Ratio (y) = 0.12651 0.17315
# Poissons Ratio (z) = 0.34355 0.07647
#
# Static dielectric constant tensor:
#      x y z
#    x 2.371980 0.000000 0.000000 
#    y 0.000000 2.043240 0.000000 
#    z 0.000000 0.000000 1.978700 
# 
# From -- ./inp_files/15963.got.cif
#   From: 2010.05.17/outbox.cif.g08.bks.cpg/sg49_8_cif.got.tgz:15963.got - 2010.06.03 21:02:19.
