data_PCOD9392339
_publ_section_title
;
Structure prediction by ZEFSAII (Michael W. Deem and Ramdas Pophale) SiO2 
 PCOD9392339
Probable space group: P C C M
;
_chemical_formula_sum "Si O2"
_cell_formula_units_Z 64
_cell_length_a 19.664718
_cell_length_b 24.340534
_cell_length_c 8.697859
_cell_angle_alpha 90.000000
_cell_angle_beta 90.000000
_cell_angle_gamma 90.000000
_cell_volume 4163.227924
_symmetry_space_group_name_H-M "P C C M"
_symmetry_group_IT_number 49
_symmetry_cell_setting 'orthorhombic'
loop_
_space_group_symop_operation_xyz
x,y,z
-x,-y,z
x,-y,1/2-z
-x,y,1/2-z
-x,-y,-z
x,y,-z
-x,y,1/2+z
x,-y,1/2+z
loop_
_atom_site_type_symbol
_atom_site_label
_atom_site_fract_x
_atom_site_fract_y
_atom_site_fract_z
Si Si1 0.706494 0.339574 0.684950
Si Si2 0.788022 0.771514 0.814983
Si Si3 0.928000 0.386043 0.185121
Si Si4 0.212680 0.559718 0.183951
Si Si5 0.575567 0.059512 0.314497
Si Si6 0.574571 0.724587 0.814638
Si Si7 0.655680 0.166883 0.686997
Si Si8 0.072116 0.742233 0.183574
O O1 0.708260 0.345332 0.500000
O O2 0.755036 0.287824 0.724650
O O3 0.734438 0.394280 0.761147
O O4 0.630580 0.320903 0.730191
O O5 0.731860 0.816313 0.764716
O O6 0.862280 0.774526 0.743015
O O7 0.793577 0.773783 0.000000
O O8 0.862447 0.420195 0.236654
O O9 0.919828 0.322021 0.232603
O O10 0.000000 0.406025 0.250000
O O11 0.930662 0.387347 0.000000
O O12 0.227793 0.500000 0.250000
O O13 0.212259 0.557752 0.000000
O O14 0.500000 0.071078 0.250000
O O15 0.572477 0.057491 0.500000
O O16 0.626048 0.108323 0.265733
O O17 0.595937 0.000000 0.250000
O O18 0.500000 0.715583 0.750000
O O19 0.605394 0.783635 0.764937
O O20 0.571848 0.725192 0.000000
O O21 0.656150 0.167632 0.500000
O O22 0.000000 0.761503 0.250000
O O23 0.069883 0.743505 0.000000
#
# Coordination Sequence:
#
# PCOD9392339 Si02
#       8
#     8   8   8   8   8   8   8   8
#     4   9  18  32  49  67  89 115 143 177 221 272
#     4   9  16  29  48  67  88 118 151 186 228 269
#     4   9  19  32  46  64  88 115 145 179 214 257
#     4  11  22  35  49  67  88 113 147 184 220 264
#     4  10  18  29  44  63  92 130 168 201 229 264
#     4   9  17  30  48  71  94 117 146 180 223 271
#     4   8  16  29  45  66  94 125 157 191 227 268
#     4  10  18  29  44  66  92 120 151 182 221 268
#
# _framework density 15.372688
#
# number of rings (size 3 to 8) (size 9 to 14) (size 15 to 20)
#    0.000    2.625    1.250    3.375    0.000    2.250 
#    0.000    5.000    0.000    0.375    0.000    2.625 
#    0.000    0.500    0.000    5.750    0.000    1.750 
#
# Total GULP energy -356769.321532 kJ/mol
# GULP energy per Si atom -5574.520649 kJ/mol
# Density = 1.533770 g / cm^3
# Si number density = 15.372688 Si / 1000 Ang^3
#
#
#
# Elastic Constant Matrix: (Units=GPa)
#
#
# Indices 1 2 3 4 5 6 
#
# 1 148.0157 75.4695 36.4708 0.0000 0.0000 0.0000
# 2 75.4695 108.1770 29.7167 0.0000 0.0000 0.0000
# 3 36.4708 29.7167 23.8808 0.0000 0.0000 0.0000
# 4 0.0000 0.0000 0.0000 -0.3585 0.0000 0.0000
# 5 0.0000 0.0000 0.0000 0.0000 26.7366 0.0000
# 6 0.0000 0.0000 0.0000 0.0000 0.0000 24.3120
#
#
#
# Elastic Compliance Matrix: (Units=1/GPa)
#
#
# Indices 1 2 3 4 5 6 
#
# 1 0.012562 -0.005308 -0.012579 0.000000 0.000000 0.000000
# 2 -0.005308 0.016288 -0.012162 0.000000 0.000000 0.000000
# 3 -0.012579 -0.012162 0.076220 0.000000 0.000000 0.000000
# 4 0.000000 0.000000 0.000000 -2.789476 0.000000 0.000000
# 5 0.000000 0.000000 0.000000 0.000000 0.037402 0.000000
# 6 0.000000 0.000000 0.000000 0.000000 0.000000 0.041132
#
#
# Mechanical properties :
#
#
# Convention : Reuss Voigt Hill
#
# Bulk Modulus (GPa) = 22.23647 62.59860 42.41754
# Shear Modulus (GPa) = -1.97567 19.36578 8.69505
#
# Velocity S-wave (km/s) = -1.13489 3.55315 2.38085
# Velocity P-wave (km/s) = 3.57478 7.59225 5.93385
#
# Compressibility (1/GPa) = 0.04497117
#
# Stress axis : x y z
#
# Youngs Moduli (GPa) = 79.60406 61.39313 13.11991
#
# Poissons Ratio (x) = 0.32590 0.16504
# Poissons Ratio (y) = 0.42257 0.15956
# Poissons Ratio (z) = 1.00137 0.74667
#
# Static dielectric constant tensor:
#      x y z
#    x 1.510600 0.000000 0.000000 
#    y 0.000000 1.498280 0.000000 
#    z 0.000000 0.000000 1.517550 
# 
# From -- ./inp_files/5410.got.cif
#   From: 2010.05.17/outbox.cif.g08.bks.cpg/sg49_3_cif.got.tgz:5410.got - 2010.06.03 21:02:19.
