data_PCOD9392221
_publ_section_title
;
Structure prediction by ZEFSAII (Michael W. Deem and Ramdas Pophale) SiO2 
 PCOD9392221
Probable space group: P C C M
;
_chemical_formula_sum "Si O2"
_cell_formula_units_Z 48
_cell_length_a 32.095112
_cell_length_b 9.593075
_cell_length_c 8.547690
_cell_angle_alpha 90.000000
_cell_angle_beta 90.000000
_cell_angle_gamma 90.000000
_cell_volume 2631.755254
_symmetry_space_group_name_H-M "P C C M"
_symmetry_group_IT_number 49
_symmetry_cell_setting 'orthorhombic'
loop_
_space_group_symop_operation_xyz
x,y,z
-x,-y,z
x,-y,1/2-z
-x,y,1/2-z
-x,-y,-z
x,y,-z
-x,y,1/2+z
x,-y,1/2+z
loop_
_atom_site_type_symbol
_atom_site_label
_atom_site_fract_x
_atom_site_fract_y
_atom_site_fract_z
Si Si1 0.284922 0.655979 0.811279
Si Si2 0.544069 0.842848 0.312040
Si Si3 0.792928 0.157235 0.811535
Si Si4 0.621230 0.655418 0.311147
Si Si5 0.043074 0.340704 0.313144
Si Si6 0.868998 0.658536 0.187004
O O1 0.276395 0.500000 0.750000
O O2 0.249461 0.763677 0.761273
O O3 0.331861 0.696708 0.761125
O O4 0.284408 0.650483 0.000000
O O5 0.500000 0.785246 0.250000
O O6 0.542821 0.844904 0.500000
O O7 0.584080 0.755382 0.258623
O O8 0.547631 0.000000 0.250000
O O9 0.831531 0.246108 0.746507
O O10 0.793867 0.000000 0.750000
O O11 0.794664 0.156818 0.000000
O O12 0.614041 0.500000 0.250000
O O13 0.620829 0.653889 0.500000
O O14 0.043201 0.500000 0.250000
O O15 0.042757 0.342216 0.500000
O O16 0.086756 0.283337 0.249960
O O17 0.000000 0.276071 0.250000
O O18 0.863768 0.500000 0.250000
O O19 0.870069 0.653208 0.000000
#
# Coordination Sequence:
#
# PCOD9392221 Si02
#       6
#     8   8   8   8   8   8
#     4   9  19  36  57  79 105 135 172 214 261 314
#     4  10  20  34  52  74 103 137 176 215 257 306
#     4  11  23  38  55  78 107 140 177 220 266 317
#     4   9  19  35  54  78 105 135 170 213 260 312
#     4  10  17  28  47  75 108 140 176 220 267 314
#     4  11  21  35  55  80 109 143 181 222 267 317
#
# _framework density 18.238776999999999
#
# number of rings (size 3 to 8) (size 9 to 14) (size 15 to 20)
#    0.000    2.000    0.000    6.500    0.000    5.000 
#    0.000    1.667    0.000    0.500    0.000    3.500 
#    0.000    0.000    0.000    0.000    0.000    0.000 
#
# Total GULP energy -267889.877491 kJ/mol
# GULP energy per Si atom -5581.039114 kJ/mol
# Density = 1.819726 g / cm^3
# Si number density = 18.238777 Si / 1000 Ang^3
#
#
#
# Elastic Constant Matrix: (Units=GPa)
#
#
# Indices 1 2 3 4 5 6 
#
# 1 208.6297 101.9167 57.5702 0.0000 0.0000 0.0000
# 2 101.9167 83.8126 31.9449 0.0000 0.0000 0.0000
# 3 57.5702 31.9449 93.6660 0.0000 0.0000 0.0000
# 4 0.0000 0.0000 0.0000 26.3689 0.0000 0.0000
# 5 0.0000 0.0000 0.0000 0.0000 28.9152 0.0000
# 6 0.0000 0.0000 0.0000 0.0000 0.0000 -291.2660
#
#
#
# Elastic Compliance Matrix: (Units=1/GPa)
#
#
# Indices 1 2 3 4 5 6 
#
# 1 0.012438 -0.014036 -0.002858 0.000000 0.000000 0.000000
# 2 -0.014036 0.029553 -0.001452 0.000000 0.000000 0.000000
# 3 -0.002858 -0.001452 0.012928 0.000000 0.000000 0.000000
# 4 0.000000 0.000000 0.000000 0.037923 0.000000 0.000000
# 5 0.000000 0.000000 0.000000 0.000000 0.034584 0.000000
# 6 0.000000 0.000000 0.000000 0.000000 0.000000 -0.003433
#
#
# Mechanical properties :
#
#
# Convention : Reuss Voigt Hill
#
# Bulk Modulus (GPa) = 54.86339 85.44133 70.15236
# Shear Modulus (GPa) = 29.98301 -34.21796 -2.11748
#
# Velocity S-wave (km/s) = 4.05892 -4.33611 -1.07866
# Velocity P-wave (km/s) = 7.21889 4.67745 6.08239
#
# Compressibility (1/GPa) = 0.01822709
#
# Stress axis : x y z
#
# Youngs Moduli (GPa) = 80.39567 33.83799 77.35058
#
# Poissons Ratio (x) = 0.47495 0.22108
# Poissons Ratio (y) = 1.12843 0.11231
# Poissons Ratio (z) = 0.22978 0.04913
#
# Static dielectric constant tensor:
#      x y z
#    x 1.668580 0.000000 0.000000 
#    y 0.000000 1.609360 0.000000 
#    z 0.000000 0.000000 1.588270 
# 
# From -- ./inp_files/6871.got.cif
#   From: 2010.05.17/outbox.cif.g08.bks.cpg/sg49_4_cif.got.tgz:6871.got - 2010.06.03 21:02:19.
