data_PCOD9392891
_publ_section_title
;
Structure prediction by ZEFSAII (Michael W. Deem and Ramdas Pophale) SiO2 
 PCOD9392891
Probable space group: P C C M
;
_chemical_formula_sum "Si O2"
_cell_formula_units_Z 64
_cell_length_a 12.978237
_cell_length_b 18.901827
_cell_length_c 15.505047
_cell_angle_alpha 90.000000
_cell_angle_beta 90.000000
_cell_angle_gamma 90.000000
_cell_volume 3803.580145
_symmetry_space_group_name_H-M "P C C M"
_symmetry_group_IT_number 49
_symmetry_cell_setting 'orthorhombic'
loop_
_space_group_symop_operation_xyz
x,y,z
-x,-y,z
x,-y,1/2-z
-x,y,1/2-z
-x,-y,-z
x,y,-z
-x,y,1/2+z
x,-y,1/2+z
loop_
_atom_site_type_symbol
_atom_site_label
_atom_site_fract_x
_atom_site_fract_y
_atom_site_fract_z
Si Si1 0.121714 0.777811 0.245134
Si Si2 0.275890 0.722783 0.104226
Si Si3 0.573420 0.154145 0.835166
Si Si4 0.742116 0.718014 0.898351
Si Si5 0.617763 0.578212 0.395251
Si Si6 0.632825 0.136389 0.407243
Si Si7 0.381502 0.420022 0.105048
Si Si8 0.757061 0.079917 0.249637
O O1 0.176807 0.744291 0.160830
O O2 0.172118 0.742923 0.330740
O O3 0.156196 0.860149 0.242956
O O4 0.000000 0.769821 0.250000
O O5 0.368668 0.775047 0.134136
O O6 0.309819 0.643179 0.127808
O O7 0.262461 0.728439 0.000000
O O8 0.500000 0.164890 0.750000
O O9 0.488801 0.126430 0.901065
O O10 0.665876 0.099099 0.818008
O O11 0.656177 0.780032 0.893732
O O12 0.692267 0.643946 0.869812
O O13 0.773674 0.713655 0.000000
O O14 0.615027 0.576830 0.500000
O O15 0.499790 0.591245 0.366835
O O16 0.649279 0.499249 0.367201
O O17 0.673738 0.117202 0.500000
O O18 0.695736 0.093822 0.337656
O O19 0.382329 0.419103 0.000000
O O20 0.794113 0.000000 0.250000
#
# Coordination Sequence:
#
# PCOD9392891 Si02
#       8
#     8   8   8   8   8   8   8   8
#     4  10  22  38  55  73  89 115 163 215 260 303
#     4  10  19  32  50  73 103 137 168 206 248 287
#     4   9  17  28  46  72 103 136 164 188 222 278
#     4   9  17  31  53  74  96 126 163 206 246 283
#     4   8  14  24  43  73 108 138 163 189 225 278
#     4   9  16  27  46  73 100 129 160 187 219 274
#     4   8  13  24  45  75 105 135 165 191 225 277
#     4   9  19  35  50  68  95 122 151 193 243 292
#
# _framework density 16.826252
#
# number of rings (size 3 to 8) (size 9 to 14) (size 15 to 20)
#    0.000    3.000    0.000    2.625    0.000    5.000 
#    0.000    4.375    0.000    3.000    0.000   10.500 
#    0.000    0.000    0.000    0.000    0.000    0.000 
#
# Total GULP energy -356317.312517 kJ/mol
# GULP energy per Si atom -5567.458008 kJ/mol
# Density = 1.678795 g / cm^3
# Si number density = 16.826252 Si / 1000 Ang^3
#
#
#
# Elastic Constant Matrix: (Units=GPa)
#
#
# Indices 1 2 3 4 5 6 
#
# 1 85.1890 45.9253 29.3624 0.0000 0.0000 0.0000
# 2 45.9253 128.4681 34.7632 0.0000 0.0000 0.0000
# 3 29.3624 34.7632 56.6802 0.0000 0.0000 0.0000
# 4 0.0000 0.0000 0.0000 13.7291 0.0000 0.0000
# 5 0.0000 0.0000 0.0000 0.0000 2.9139 0.0000
# 6 0.0000 0.0000 0.0000 0.0000 0.0000 6.2382
#
#
#
# Elastic Compliance Matrix: (Units=1/GPa)
#
#
# Indices 1 2 3 4 5 6 
#
# 1 0.015948 -0.004155 -0.005713 0.000000 0.000000 0.000000
# 2 -0.004155 0.010416 -0.004236 0.000000 0.000000 0.000000
# 3 -0.005713 -0.004236 0.023200 0.000000 0.000000 0.000000
# 4 0.000000 0.000000 0.000000 0.072838 0.000000 0.000000
# 5 0.000000 0.000000 0.000000 0.000000 0.343183 0.000000
# 6 0.000000 0.000000 0.000000 0.000000 0.000000 0.160304
#
#
# Mechanical properties :
#
#
# Convention : Reuss Voigt Hill
#
# Bulk Modulus (GPa) = 46.82535 54.49320 50.65928
# Shear Modulus (GPa) = 7.56184 15.26199 11.41191
#
# Velocity S-wave (km/s) = 2.12222 3.01497 2.60709
# Velocity P-wave (km/s) = 5.82188 6.67654 6.26380
#
# Compressibility (1/GPa) = 0.02135595
#
# Stress axis : x y z
#
# Youngs Moduli (GPa) = 62.70463 96.01013 43.10305
#
# Poissons Ratio (x) = 0.39893 0.24625
# Poissons Ratio (y) = 0.26055 0.18257
# Poissons Ratio (z) = 0.35824 0.40666
#
# Static dielectric constant tensor:
#      x y z
#    x 1.527370 0.000000 0.000000 
#    y 0.000000 1.584300 0.000000 
#    z 0.000000 0.000000 1.621240 
# 
# From -- ./inp_files/17380.got.cif
#   From: 2010.05.17/outbox.cif.g08.bks.cpg/sg49_9_cif.got.tgz:17380.got - 2010.06.03 21:02:19.
