data_PCOD9392608
_publ_section_title
;
Structure prediction by ZEFSAII (Michael W. Deem and Ramdas Pophale) SiO2 
 PCOD9392608
Probable space group: P C C M
;
_chemical_formula_sum "Si O2"
_cell_formula_units_Z 56
_cell_length_a 18.745745
_cell_length_b 21.543594
_cell_length_c 8.784357
_cell_angle_alpha 90.000000
_cell_angle_beta 90.000000
_cell_angle_gamma 90.000000
_cell_volume 3547.568895
_symmetry_space_group_name_H-M "P C C M"
_symmetry_group_IT_number 49
_symmetry_cell_setting 'orthorhombic'
loop_
_space_group_symop_operation_xyz
x,y,z
-x,-y,z
x,-y,1/2-z
-x,y,1/2-z
-x,-y,-z
x,y,-z
-x,y,1/2+z
x,-y,1/2+z
loop_
_atom_site_type_symbol
_atom_site_label
_atom_site_fract_x
_atom_site_fract_y
_atom_site_fract_z
Si Si1 0.922314 0.311337 0.817794
Si Si2 0.293791 0.624840 0.674070
Si Si3 0.150303 0.565710 0.315839
Si Si4 0.579118 0.066261 0.682434
Si Si5 0.340215 0.182764 0.682623
Si Si6 0.792352 0.755504 0.824437
Si Si7 0.422033 0.310009 0.680793
O O1 0.894863 0.377426 0.751889
O O2 0.865516 0.260226 0.760617
O O3 0.000000 0.298886 0.750000
O O4 0.923683 0.313868 0.000000
O O5 0.312612 0.609744 0.500000
O O6 0.233427 0.577224 0.729787
O O7 0.250690 0.690098 0.673869
O O8 0.365190 0.638155 0.766714
O O9 0.126165 0.500000 0.250000
O O10 0.146666 0.567573 0.500000
O O11 0.500000 0.077333 0.750000
O O12 0.575515 0.063372 0.500000
O O13 0.628583 0.122087 0.738059
O O14 0.602998 0.000000 0.750000
O O15 0.342171 0.176729 0.500000
O O16 0.260482 0.197796 0.739129
O O17 0.388975 0.242717 0.725607
O O18 0.804350 0.773396 0.000000
O O19 0.500000 0.318170 0.750000
O O20 0.427066 0.310654 0.500000
#
# Coordination Sequence:
#
# PCOD9392608 Si02
#       7
#     8   8   8   8   8   8   8
#     4  11  21  34  51  72  99 128 155 188 229 276
#     4   8  16  30  46  63  87 114 144 182 226 273
#     4  10  20  34  51  71  92 119 153 188 225 273
#     4  11  21  33  47  65  93 131 170 209 248 288
#     4  10  19  31  47  69  94 124 161 198 235 281
#     4   9  17  31  49  70  94 122 154 190 232 278
#     4  10  19  28  43  65  89 115 147 187 233 278
#
# _framework density 15.785456999999999
#
# number of rings (size 3 to 8) (size 9 to 14) (size 15 to 20)
#    0.000    2.143    0.000    6.000    0.000    7.143 
#    0.000    1.429    0.000    0.429    0.000    3.000 
#    0.000    0.571    0.000    5.714    0.000    3.429 
#
# Total GULP energy -312359.080937 kJ/mol
# GULP energy per Si atom -5577.840731 kJ/mol
# Density = 1.574953 g / cm^3
# Si number density = 15.785457 Si / 1000 Ang^3
#
#
#
# Elastic Constant Matrix: (Units=GPa)
#
#
# Indices 1 2 3 4 5 6 
#
# 1 110.1163 18.3015 43.0730 0.0000 0.0000 0.0000
# 2 18.3015 32.9593 14.3482 0.0000 0.0000 0.0000
# 3 43.0730 14.3482 92.1349 0.0000 0.0000 0.0000
# 4 0.0000 0.0000 0.0000 14.9720 0.0000 0.0000
# 5 0.0000 0.0000 0.0000 0.0000 28.1610 0.0000
# 6 0.0000 0.0000 0.0000 0.0000 0.0000 18.5427
#
#
#
# Elastic Compliance Matrix: (Units=1/GPa)
#
#
# Indices 1 2 3 4 5 6 
#
# 1 0.011682 -0.004408 -0.004775 0.000000 0.000000 0.000000
# 2 -0.004408 0.034210 -0.003267 0.000000 0.000000 0.000000
# 3 -0.004775 -0.003267 0.013595 0.000000 0.000000 0.000000
# 4 0.000000 0.000000 0.000000 0.066791 0.000000 0.000000
# 5 0.000000 0.000000 0.000000 0.000000 0.035510 0.000000
# 6 0.000000 0.000000 0.000000 0.000000 0.000000 0.053930
#
#
# Mechanical properties :
#
#
# Convention : Reuss Voigt Hill
#
# Bulk Modulus (GPa) = 28.91225 42.96179 35.93702
# Shear Modulus (GPa) = 19.82983 22.96766 21.39874
#
# Velocity S-wave (km/s) = 3.54815 3.81857 3.68584
# Velocity P-wave (km/s) = 5.92801 6.83499 6.39759
#
# Compressibility (1/GPa) = 0.03458742
#
# Stress axis : x y z
#
# Youngs Moduli (GPa) = 85.60490 29.23098 73.55881
#
# Poissons Ratio (x) = 0.12885 0.35122
# Poissons Ratio (y) = 0.37734 0.24031
# Poissons Ratio (z) = 0.40874 0.09549
#
# Static dielectric constant tensor:
#      x y z
#    x 1.526280 0.000000 0.000000 
#    y 0.000000 1.517080 0.000000 
#    z 0.000000 0.000000 1.528060 
# 
# From -- ./inp_files/5160.got.cif
#   From: 2010.05.17/outbox.cif.g08.bks.cpg/sg49_3_cif.got.tgz:5160.got - 2010.06.03 21:02:19.
