data_PCOD9392145
_publ_section_title
;
Structure prediction by ZEFSAII (Michael W. Deem and Ramdas Pophale) SiO2 
 PCOD9392145
Probable space group: P C C M
;
_chemical_formula_sum "Si O2"
_cell_formula_units_Z 56
_cell_length_a 20.218311
_cell_length_b 16.006458
_cell_length_c 8.745317
_cell_angle_alpha 90.000000
_cell_angle_beta 90.000000
_cell_angle_gamma 90.000000
_cell_volume 2830.190497
_symmetry_space_group_name_H-M "P C C M"
_symmetry_group_IT_number 49
_symmetry_cell_setting 'orthorhombic'
loop_
_space_group_symop_operation_xyz
x,y,z
-x,-y,z
x,-y,1/2-z
-x,y,1/2-z
-x,-y,-z
x,y,-z
-x,y,1/2+z
x,-y,1/2+z
loop_
_atom_site_type_symbol
_atom_site_label
_atom_site_fract_x
_atom_site_fract_y
_atom_site_fract_z
Si Si1 0.785854 0.256525 0.316501
Si Si2 0.570680 0.843108 0.683028
Si Si3 0.569778 0.645505 0.317289
Si Si4 0.715630 0.908267 0.684505
Si Si5 0.928816 0.743295 0.180536
Si Si6 0.073992 0.080604 0.318300
Si Si7 0.702248 0.415011 0.317635
O O1 0.781971 0.242257 0.500000
O O2 0.761747 0.169052 0.240922
O O3 0.858641 0.300419 0.293383
O O4 0.736499 0.329239 0.265766
O O5 0.500000 0.872754 0.750000
O O6 0.566474 0.850250 0.500000
O O7 0.577426 0.744519 0.721509
O O8 0.639112 0.887624 0.731038
O O9 0.500000 0.618516 0.250000
O O10 0.571786 0.637583 0.500000
O O11 0.627891 0.594458 0.240446
O O12 0.719721 0.910582 0.500000
O O13 0.732673 0.000000 0.750000
O O14 0.905877 0.830923 0.254733
O O15 0.000000 0.717481 0.250000
O O16 0.940331 0.753821 0.000000
O O17 0.073350 0.077283 0.500000
O O18 0.000000 0.078198 0.250000
O O19 0.109662 0.000000 0.250000
O O20 0.731693 0.500000 0.250000
O O21 0.705379 0.418242 0.500000
#
# Coordination Sequence:
#
# PCOD9392145 Si02
#       7
#     8   8   8   8   8   8   8
#     4  10  23  42  63  86 118 155 193 241 295 351
#     4   9  19  34  55  82 114 155 200 248 296 343
#     4  10  19  35  58  88 122 158 199 244 296 350
#     4  11  23  39  59  86 119 159 206 250 297 350
#     4  10  20  36  57  83 110 141 183 229 283 347
#     4  10  17  27  44  69 101 138 176 219 268 322
#     4  11  23  40  63  91 120 156 197 242 295 353
#
# _framework density 19.786653999999999
#
# number of rings (size 3 to 8) (size 9 to 14) (size 15 to 20)
#    0.000    1.857    1.429    4.286    0.000    4.571 
#    0.000    2.857    0.000    0.429    0.000    3.000 
#    0.000    0.000    0.000    0.000    0.000    0.000 
#
# Total GULP energy -312069.993792 kJ/mol
# GULP energy per Si atom -5572.678461 kJ/mol
# Density = 1.974162 g / cm^3
# Si number density = 19.786654 Si / 1000 Ang^3
#
#
#
# Elastic Constant Matrix: (Units=GPa)
#
#
# Indices 1 2 3 4 5 6 
#
# 1 134.9732 36.3530 30.4426 0.0000 0.0000 0.0000
# 2 36.3530 79.4180 24.9261 0.0000 0.0000 0.0000
# 3 30.4426 24.9261 60.0104 0.0000 0.0000 0.0000
# 4 0.0000 0.0000 0.0000 21.7668 0.0000 0.0000
# 5 0.0000 0.0000 0.0000 0.0000 18.2907 0.0000
# 6 0.0000 0.0000 0.0000 0.0000 0.0000 0.4006
#
#
#
# Elastic Compliance Matrix: (Units=1/GPa)
#
#
# Indices 1 2 3 4 5 6 
#
# 1 0.008977 -0.003082 -0.003274 0.000000 0.000000 0.000000
# 2 -0.003082 0.015537 -0.004890 0.000000 0.000000 0.000000
# 3 -0.003274 -0.004890 0.020356 0.000000 0.000000 0.000000
# 4 0.000000 0.000000 0.000000 0.045942 0.000000 0.000000
# 5 0.000000 0.000000 0.000000 0.000000 0.054673 0.000000
# 6 0.000000 0.000000 0.000000 0.000000 0.000000 2.496210
#
#
# Mechanical properties :
#
#
# Convention : Reuss Voigt Hill
#
# Bulk Modulus (GPa) = 44.68611 50.87167 47.77889
# Shear Modulus (GPa) = 1.87151 20.27027 11.07089
#
# Velocity S-wave (km/s) = 0.97360 3.20416 2.36797
# Velocity P-wave (km/s) = 4.88844 6.28130 5.62813
#
# Compressibility (1/GPa) = 0.02237832
#
# Stress axis : x y z
#
# Youngs Moduli (GPa) = 111.39152 64.36211 49.12576
#
# Poissons Ratio (x) = 0.19835 0.16084
# Poissons Ratio (y) = 0.34328 0.24024
# Poissons Ratio (z) = 0.36470 0.31475
#
# Static dielectric constant tensor:
#      x y z
#    x 1.740670 0.000000 0.000000 
#    y 0.000000 1.696100 0.000000 
#    z 0.000000 0.000000 1.668730 
# 
# From -- ./inp_files/5820.got.cif
#   From: 2010.05.17/outbox.cif.g08.bks.cpg/sg49_3_cif.got.tgz:5820.got - 2010.06.03 21:02:19.
