data_PCOD9392220
_publ_section_title
;
Structure prediction by ZEFSAII (Michael W. Deem and Ramdas Pophale) SiO2 
 PCOD9392220
Probable space group: P C C M
;
_chemical_formula_sum "Si O2"
_cell_formula_units_Z 40
_cell_length_a 27.247350
_cell_length_b 9.264956
_cell_length_c 8.583961
_cell_angle_alpha 90.000000
_cell_angle_beta 90.000000
_cell_angle_gamma 90.000000
_cell_volume 2166.982317
_symmetry_space_group_name_H-M "P C C M"
_symmetry_group_IT_number 49
_symmetry_cell_setting 'orthorhombic'
loop_
_space_group_symop_operation_xyz
x,y,z
-x,-y,z
x,-y,1/2-z
-x,y,1/2-z
-x,-y,-z
x,y,-z
-x,y,1/2+z
x,-y,1/2+z
loop_
_atom_site_type_symbol
_atom_site_label
_atom_site_fract_x
_atom_site_fract_y
_atom_site_fract_z
Si Si1 0.550147 0.664412 0.186384
Si Si2 0.657725 0.662907 0.812201
Si Si3 0.246150 0.838186 0.687792
Si Si4 0.050669 0.664910 0.313826
Si Si5 0.846670 0.336503 0.813742
O O1 0.550827 0.500000 0.250000
O O2 0.500000 0.733472 0.250000
O O3 0.603783 0.723144 0.233319
O O4 0.547103 0.660709 0.000000
O O5 0.662701 0.500000 0.750000
O O6 0.703680 0.758367 0.761805
O O7 0.658313 0.655810 0.000000
O O8 0.243875 0.836764 0.500000
O O9 0.199511 0.753626 0.754944
O O10 0.246055 0.000000 0.750000
O O11 0.051054 0.500000 0.250000
O O12 0.050096 0.662465 0.500000
O O13 0.101939 0.726623 0.251412
O O14 0.000000 0.731409 0.250000
O O15 0.841756 0.500000 0.750000
O O16 0.848675 0.340864 0.000000
#
# Coordination Sequence:
#
# PCOD9392220 Si02
#       5
#     8   8   8   8   8
#     4   9  15  25  42  69 100 130 160 200 248 300
#     4   9  19  33  52  76 104 133 169 211 256 306
#     4  11  23  39  55  75 102 137 176 219 266 316
#     4  10  17  28  47  75 108 140 172 212 258 307
#     4  11  21  35  55  81 109 140 176 218 261 309
#
# _framework density 18.458850000000002
#
# number of rings (size 3 to 8) (size 9 to 14) (size 15 to 20)
#    0.000    2.000    0.000    7.800    0.000    4.000 
#    0.000    0.000    0.000    1.200    0.000    8.400 
#    0.000    0.000    0.000    0.000    0.000    0.000 
#
# Total GULP energy -223106.644340 kJ/mol
# GULP energy per Si atom -5577.666108 kJ/mol
# Density = 1.841684 g / cm^3
# Si number density = 18.458850 Si / 1000 Ang^3
#
#
#
# Elastic Constant Matrix: (Units=GPa)
#
#
# Indices 1 2 3 4 5 6 
#
# 1 245.0310 67.7442 72.1302 0.0000 0.0000 0.0000
# 2 67.7442 54.4053 23.9187 0.0000 0.0000 0.0000
# 3 72.1302 23.9187 118.8623 0.0000 0.0000 0.0000
# 4 0.0000 0.0000 0.0000 15.9969 0.0000 0.0000
# 5 0.0000 0.0000 0.0000 0.0000 73.8924 0.0000
# 6 0.0000 0.0000 0.0000 0.0000 0.0000 -7.2920
#
#
#
# Elastic Compliance Matrix: (Units=1/GPa)
#
#
# Indices 1 2 3 4 5 6 
#
# 1 0.006938 -0.007447 -0.002712 0.000000 0.000000 0.000000
# 2 -0.007447 0.028158 -0.001147 0.000000 0.000000 0.000000
# 3 -0.002712 -0.001147 0.010290 0.000000 0.000000 0.000000
# 4 0.000000 0.000000 0.000000 0.062512 0.000000 0.000000
# 5 0.000000 0.000000 0.000000 0.000000 0.013533 0.000000
# 6 0.000000 0.000000 0.000000 0.000000 0.000000 -0.137137
#
#
# Mechanical properties :
#
#
# Convention : Reuss Voigt Hill
#
# Bulk Modulus (GPa) = 43.91020 82.87610 63.39315
# Shear Modulus (GPa) = 344.88143 33.48648 189.18395
#
# Velocity S-wave (km/s) = 13.68370 4.26386 10.13470
# Velocity P-wave (km/s) = 16.53777 8.32081 13.09072
#
# Compressibility (1/GPa) = 0.02277375
#
# Stress axis : x y z
#
# Youngs Moduli (GPa) = 144.12616 35.51392 97.18594
#
# Poissons Ratio (x) = 0.26448 0.26355
# Poissons Ratio (y) = 1.07334 0.11147
# Poissons Ratio (z) = 0.39085 0.04073
#
# Static dielectric constant tensor:
#      x y z
#    x 1.712010 0.000000 0.000000 
#    y 0.000000 1.606190 0.000000 
#    z 0.000000 0.000000 1.631040 
# 
# From -- ./inp_files/1933.got.cif
#   From: 2010.05.17/outbox.cif.g08.bks.cpg/sg49_1_cif.got.tgz:1933.got - 2010.06.03 21:02:19.
