data_PCOD9392411
_publ_section_title
;
Structure prediction by ZEFSAII (Michael W. Deem and Ramdas Pophale) SiO2 
 PCOD9392411
Probable space group: P C C M
;
_chemical_formula_sum "Si O2"
_cell_formula_units_Z 40
_cell_length_a 11.253701
_cell_length_b 9.117176
_cell_length_c 15.237524
_cell_angle_alpha 90.000000
_cell_angle_beta 90.000000
_cell_angle_gamma 90.000000
_cell_volume 1563.400021
_symmetry_space_group_name_H-M "P C C M"
_symmetry_group_IT_number 49
_symmetry_cell_setting 'orthorhombic'
loop_
_space_group_symop_operation_xyz
x,y,z
-x,-y,z
x,-y,1/2-z
-x,y,1/2-z
-x,-y,-z
x,y,-z
-x,y,1/2+z
x,-y,1/2+z
loop_
_atom_site_type_symbol
_atom_site_label
_atom_site_fract_x
_atom_site_fract_y
_atom_site_fract_z
Si Si1 0.585736 0.196047 0.368581
Si Si2 0.334855 0.509729 0.648811
Si Si3 0.831442 0.053729 0.597590
Si Si4 0.082357 0.360660 0.893657
Si Si5 0.670623 0.817055 0.664077
O O1 0.578625 0.369275 0.392410
O O2 0.700704 0.127756 0.412270
O O3 0.453495 0.134935 0.380716
O O4 0.627990 0.185704 0.265727
O O5 0.371228 0.500000 0.750000
O O6 0.208897 0.589142 0.642007
O O7 0.310380 0.343302 0.623252
O O8 0.868271 0.005604 0.500000
O O9 0.919522 0.184690 0.630302
O O10 0.789168 0.913129 0.653655
O O11 0.000000 0.500000 0.866673
O O12 0.081062 0.358294 0.000000
#
# Coordination Sequence:
#
# PCOD9392411 Si02
#       5
#     8   8   8   8   8
#     4   9  18  32  49  71 106 147 172 199 261 332
#     4   9  18  32  52  77 101 130 175 222 261 315
#     4  10  20  32  48  73 102 134 176 221 263 313
#     4   9  19  37  55  69  95 137 177 217 276 339
#     4  10  18  30  50  76 105 136 173 215 259 316
#
# _framework density 25.585260999999999
#
# number of rings (size 3 to 8) (size 9 to 14) (size 15 to 20)
#    0.000    2.600    0.000    1.800    0.000    6.800 
#    0.000    1.000    0.000    9.600    0.000    8.400 
#    0.000    0.000    0.000    0.000    0.000    0.000 
#
# Total GULP energy -222674.294842 kJ/mol
# GULP energy per Si atom -5566.857371 kJ/mol
# Density = 2.552703 g / cm^3
# Si number density = 25.585261 Si / 1000 Ang^3
#
#
#
# Elastic Constant Matrix: (Units=GPa)
#
#
# Indices 1 2 3 4 5 6 
#
# 1 102.0709 31.3165 15.4161 0.0000 0.0000 0.0000
# 2 31.3165 140.1993 15.6279 0.0000 0.0000 0.0000
# 3 15.4161 15.6279 41.3035 0.0000 0.0000 0.0000
# 4 0.0000 0.0000 0.0000 12.3703 0.0000 0.0000
# 5 0.0000 0.0000 0.0000 0.0000 4.2241 0.0000
# 6 0.0000 0.0000 0.0000 0.0000 0.0000 54.8014
#
#
#
# Elastic Compliance Matrix: (Units=1/GPa)
#
#
# Indices 1 2 3 4 5 6 
#
# 1 0.010931 -0.002074 -0.003295 0.000000 0.000000 0.000000
# 2 -0.002074 0.007840 -0.002192 0.000000 0.000000 0.000000
# 3 -0.003295 -0.002192 0.026270 0.000000 0.000000 0.000000
# 4 0.000000 0.000000 0.000000 0.080839 0.000000 0.000000
# 5 0.000000 0.000000 0.000000 0.000000 0.236735 0.000000
# 6 0.000000 0.000000 0.000000 0.000000 0.000000 0.018248
#
#
# Mechanical properties :
#
#
# Convention : Reuss Voigt Hill
#
# Bulk Modulus (GPa) = 33.42421 45.36609 39.39515
# Shear Modulus (GPa) = 12.31648 29.02671 20.67160
#
# Velocity S-wave (km/s) = 2.19644 3.37190 2.84553
# Velocity P-wave (km/s) = 4.41867 5.73842 5.12124
#
# Compressibility (1/GPa) = 0.02991843
#
# Stress axis : x y z
#
# Youngs Moduli (GPa) = 91.48098 127.54372 38.06568
#
# Poissons Ratio (x) = 0.26458 0.12543
# Poissons Ratio (y) = 0.18977 0.08345
# Poissons Ratio (z) = 0.30144 0.27961
#
# Static dielectric constant tensor:
#      x y z
#    x 1.951900 0.000000 0.000000 
#    y 0.000000 2.242800 0.000000 
#    z 0.000000 0.000000 2.085430 
# 
# From -- ./inp_files/19634.got.cif
#   From: 2010.05.17/outbox.cif.g08.bks.cpg/sg49_10_cif.got.tgz:19634.got - 2010.06.03 21:02:19.
