data_PCOD9392879
_publ_section_title
;
Structure prediction by ZEFSAII (Michael W. Deem and Ramdas Pophale) SiO2 
 PCOD9392879
Probable space group: P C C M
;
_chemical_formula_sum "Si O2"
_cell_formula_units_Z 48
_cell_length_a 19.558527
_cell_length_b 15.247996
_cell_length_c 8.514147
_cell_angle_alpha 90.000000
_cell_angle_beta 90.000000
_cell_angle_gamma 90.000000
_cell_volume 2539.159939
_symmetry_space_group_name_H-M "P C C M"
_symmetry_group_IT_number 49
_symmetry_cell_setting 'orthorhombic'
loop_
_space_group_symop_operation_xyz
x,y,z
-x,-y,z
x,-y,1/2-z
-x,y,1/2-z
-x,-y,-z
x,y,-z
-x,y,1/2+z
x,-y,1/2+z
loop_
_atom_site_type_symbol
_atom_site_label
_atom_site_fract_x
_atom_site_fract_y
_atom_site_fract_z
Si Si1 0.287522 0.087835 0.312411
Si Si2 0.426430 0.652417 0.688371
Si Si3 0.810760 0.241211 0.810622
Si Si4 0.569691 0.148359 0.811613
Si Si5 0.272860 0.595961 0.688140
Si Si6 0.077097 0.097481 0.310718
O O1 0.286265 0.084756 0.500000
O O2 0.249640 0.175067 0.263781
O O3 0.364649 0.096192 0.255434
O O4 0.254618 0.000000 0.250000
O O5 0.500000 0.615515 0.750000
O O6 0.428881 0.647872 0.500000
O O7 0.425396 0.753275 0.744598
O O8 0.352218 0.614958 0.741611
O O9 0.784034 0.333618 0.744372
O O10 0.877012 0.182398 0.763143
O O11 0.813850 0.249727 0.000000
O O12 0.500000 0.108699 0.750000
O O13 0.569519 0.153380 0.000000
O O14 0.254716 0.500000 0.750000
O O15 0.274153 0.597795 0.500000
O O16 0.078833 0.093473 0.500000
O O17 0.000000 0.110117 0.250000
O O18 0.098489 0.000000 0.250000
#
# Coordination Sequence:
#
# PCOD9392879 Si02
#       6
#     8   8   8   8   8   8
#     4  10  21  34  51  75 104 141 182 226 274 327
#     4  10  20  34  54  79 104 139 184 234 293 346
#     4  10  21  39  59  82 115 152 187 229 282 333
#     4  10  19  32  50  70  98 137 179 228 279 328
#     4  11  24  39  59  85 112 147 190 238 290 346
#     4  10  20  35  60  92 127 162 194 231 273 325
#
# _framework density 18.903888999999999
#
# number of rings (size 3 to 8) (size 9 to 14) (size 15 to 20)
#    0.000    1.833    1.667    4.000    0.000    6.000 
#    0.000    3.333    0.000    0.500    0.000    3.500 
#    0.000    0.000    0.000    0.000    0.000    0.000 
#
# Total GULP energy -267562.256585 kJ/mol
# GULP energy per Si atom -5574.213679 kJ/mol
# Density = 1.886086 g / cm^3
# Si number density = 18.903889 Si / 1000 Ang^3
#
#
#
# Elastic Constant Matrix: (Units=GPa)
#
#
# Indices 1 2 3 4 5 6 
#
# 1 138.6281 69.3941 30.7410 0.0000 0.0000 0.0000
# 2 69.3941 147.3727 25.8838 0.0000 0.0000 0.0000
# 3 30.7410 25.8838 37.4580 0.0000 0.0000 0.0000
# 4 0.0000 0.0000 0.0000 17.1437 0.0000 0.0000
# 5 0.0000 0.0000 0.0000 0.0000 19.5491 0.0000
# 6 0.0000 0.0000 0.0000 0.0000 0.0000 25.2541
#
#
#
# Elastic Compliance Matrix: (Units=1/GPa)
#
#
# Indices 1 2 3 4 5 6 
#
# 1 0.010472 -0.003894 -0.005903 0.000000 0.000000 0.000000
# 2 -0.003894 0.009171 -0.003141 0.000000 0.000000 0.000000
# 3 -0.005903 -0.003141 0.033712 0.000000 0.000000 0.000000
# 4 0.000000 0.000000 0.000000 0.058331 0.000000 0.000000
# 5 0.000000 0.000000 0.000000 0.000000 0.051153 0.000000
# 6 0.000000 0.000000 0.000000 0.000000 0.000000 0.039597
#
#
# Mechanical properties :
#
#
# Convention : Reuss Voigt Hill
#
# Bulk Modulus (GPa) = 36.39357 63.94406 50.16881
# Shear Modulus (GPa) = 21.05507 25.55203 23.30355
#
# Velocity S-wave (km/s) = 3.34098 3.68051 3.51485
# Velocity P-wave (km/s) = 5.84607 7.20839 6.56267
#
# Compressibility (1/GPa) = 0.02747738
#
# Stress axis : x y z
#
# Youngs Moduli (GPa) = 95.49346 109.04056 29.66311
#
# Poissons Ratio (x) = 0.42462 0.17511
# Poissons Ratio (y) = 0.37187 0.09318
# Poissons Ratio (z) = 0.56372 0.34253
#
# Static dielectric constant tensor:
#      x y z
#    x 1.703530 0.000000 0.000000 
#    y 0.000000 1.635440 0.000000 
#    z 0.000000 0.000000 1.640600 
# 
# From -- ./inp_files/3832.got.cif
#   From: 2010.05.17/outbox.cif.g08.bks.cpg/sg49_2_cif.got.tgz:3832.got - 2010.06.03 21:02:19.
