data_PCOD9392138
_publ_section_title
;
Structure prediction by ZEFSAII (Michael W. Deem and Ramdas Pophale) SiO2 
 PCOD9392138
Probable space group: P C C M
;
_chemical_formula_sum "Si O2"
_cell_formula_units_Z 48
_cell_length_a 32.485748
_cell_length_b 9.913360
_cell_length_c 8.559771
_cell_angle_alpha 90.000000
_cell_angle_beta 90.000000
_cell_angle_gamma 90.000000
_cell_volume 2756.613603
_symmetry_space_group_name_H-M "P C C M"
_symmetry_group_IT_number 49
_symmetry_cell_setting 'orthorhombic'
loop_
_space_group_symop_operation_xyz
x,y,z
-x,-y,z
x,-y,1/2-z
-x,y,1/2-z
-x,-y,-z
x,y,-z
-x,y,1/2+z
x,-y,1/2+z
loop_
_atom_site_type_symbol
_atom_site_label
_atom_site_fract_x
_atom_site_fract_y
_atom_site_fract_z
Si Si1 0.295246 0.849738 0.688888
Si Si2 0.871032 0.347377 0.687949
Si Si3 0.042514 0.345906 0.313586
Si Si4 0.542108 0.346374 0.686707
Si Si5 0.202027 0.849842 0.688435
Si Si6 0.632644 0.652347 0.188765
O O1 0.296130 0.852031 0.500000
O O2 0.248614 0.812026 0.737550
O O3 0.330082 0.746126 0.743589
O O4 0.303310 0.000000 0.750000
O O5 0.866267 0.500000 0.750000
O O6 0.873014 0.351778 0.500000
O O7 0.914297 0.289173 0.751798
O O8 0.832664 0.255764 0.738596
O O9 0.042848 0.500000 0.250000
O O10 0.041875 0.348140 0.500000
O O11 0.000000 0.283570 0.250000
O O12 0.542589 0.500000 0.750000
O O13 0.500000 0.281694 0.750000
O O14 0.539589 0.349712 0.500000
O O15 0.587164 0.291997 0.733122
O O16 0.201465 0.853581 0.500000
O O17 0.193637 0.000000 0.750000
O O18 0.636751 0.500000 0.250000
O O19 0.633667 0.647210 0.000000
#
# Coordination Sequence:
#
# PCOD9392138 Si02
#       6
#     8   8   8   8   8   8
#     4   9  18  34  51  69  92 122 157 194 232 278
#     4  10  19  31  47  72 100 126 156 194 234 275
#     4  10  17  27  44  67  95 127 158 192 231 275
#     4   9  15  24  39  61  88 119 149 184 225 271
#     4   9  19  34  52  70  93 124 159 194 233 279
#     4   9  18  30  46  69  97 122 152 192 235 276
#
# _framework density 17.412668
#
# number of rings (size 3 to 8) (size 9 to 14) (size 15 to 20)
#    0.000    2.667    0.000    4.500    0.000    3.333 
#    0.000    0.000    0.000    1.000    0.000    7.000 
#    0.000    0.000    0.000    0.000    0.000    0.000 
#
# Total GULP energy -267357.263984 kJ/mol
# GULP energy per Si atom -5569.943000 kJ/mol
# Density = 1.737304 g / cm^3
# Si number density = 17.412668 Si / 1000 Ang^3
#
#
#
# Elastic Constant Matrix: (Units=GPa)
#
#
# Indices 1 2 3 4 5 6 
#
# 1 210.0948 84.9545 42.9894 0.0000 0.0000 0.0000
# 2 84.9545 50.7223 15.5834 0.0000 0.0000 0.0000
# 3 42.9894 15.5834 49.7982 0.0000 0.0000 0.0000
# 4 0.0000 0.0000 0.0000 18.8310 0.0000 0.0000
# 5 0.0000 0.0000 0.0000 0.0000 116.3861 0.0000
# 6 0.0000 0.0000 0.0000 0.0000 0.0000 -5.8716
#
#
#
# Elastic Compliance Matrix: (Units=1/GPa)
#
#
# Indices 1 2 3 4 5 6 
#
# 1 0.016269 -0.025373 -0.006104 0.000000 0.000000 0.000000
# 2 -0.025373 0.061384 0.002695 0.000000 0.000000 0.000000
# 3 -0.006104 0.002695 0.024507 0.000000 0.000000 0.000000
# 4 0.000000 0.000000 0.000000 0.053104 0.000000 0.000000
# 5 0.000000 0.000000 0.000000 0.000000 0.008592 0.000000
# 6 0.000000 0.000000 0.000000 0.000000 0.000000 -0.170310
#
#
# Mechanical properties :
#
#
# Convention : Reuss Voigt Hill
#
# Bulk Modulus (GPa) = 22.42388 66.40775 44.41581
# Shear Modulus (GPa) = 75.78494 37.00830 56.39662
#
# Velocity S-wave (km/s) = 6.60434 4.61517 5.69724
# Velocity P-wave (km/s) = 8.42985 8.16212 8.29706
#
# Compressibility (1/GPa) = 0.04459532
#
# Stress axis : x y z
#
# Youngs Moduli (GPa) = 61.46791 16.29085 40.80387
#
# Poissons Ratio (x) = 0.41335 0.24908
# Poissons Ratio (y) = 1.55962 -0.10995
# Poissons Ratio (z) = 0.37522 -0.04390
#
# Static dielectric constant tensor:
#      x y z
#    x 1.664650 0.000000 0.000000 
#    y 0.000000 1.549690 0.000000 
#    z 0.000000 0.000000 1.613200 
# 
# From -- ./inp_files/6704.got.cif
#   From: 2010.05.17/outbox.cif.g08.bks.cpg/sg49_4_cif.got.tgz:6704.got - 2010.06.03 21:02:19.
