data_PCOD9392793
_publ_section_title
;
Structure prediction by ZEFSAII (Michael W. Deem and Ramdas Pophale) SiO2 
 PCOD9392793
Probable space group: P C C M
;
_chemical_formula_sum "Si O2"
_cell_formula_units_Z 38
_cell_length_a 18.521791
_cell_length_b 12.492450
_cell_length_c 9.403233
_cell_angle_alpha 90.000000
_cell_angle_beta 90.000000
_cell_angle_gamma 90.000000
_cell_volume 2175.744011
_symmetry_space_group_name_H-M "P C C M"
_symmetry_group_IT_number 49
_symmetry_cell_setting 'orthorhombic'
loop_
_space_group_symop_operation_xyz
x,y,z
-x,-y,z
x,-y,1/2-z
-x,y,1/2-z
-x,-y,-z
x,y,-z
-x,y,1/2+z
x,-y,1/2+z
loop_
_atom_site_type_symbol
_atom_site_label
_atom_site_fract_x
_atom_site_fract_y
_atom_site_fract_z
Si Si1 0.268924 0.393224 0.167367
Si Si2 0.885023 0.000000 0.250000
Si Si3 0.000000 0.000000 0.000000
Si Si4 0.227433 0.182048 0.335047
Si Si5 0.433032 0.677748 0.332240
Si Si6 0.391919 0.107473 0.666406
O O1 0.246588 0.500000 0.250000
O O2 0.234969 0.288021 0.239609
O O3 0.356040 0.380771 0.180641
O O4 0.251996 0.398375 0.000000
O O5 0.833679 0.101239 0.217394
O O6 0.937915 0.979141 0.120615
O O7 0.214385 0.211535 0.500000
O O8 0.305008 0.122623 0.330281
O O9 0.500000 0.625329 0.250000
O O10 0.448476 0.690687 0.500000
O O11 0.421640 0.790938 0.252228
O O12 0.411380 0.000000 0.750000
O O13 0.585958 0.106188 0.000000
#
# Coordination Sequence:
#
# PCOD9392793 Si02
#       6
#     8   4   2   8   8   8
#     4  10  22  38  58  84 112 143 194 245 288 339
#     4  11  20  38  56  92 127 162 186 222 269 330
#     4  10  24  34  56  90 134 158 190 214 264 336
#     4  10  20  34  58  83 116 155 189 233 282 329
#     4  10  21  36  52  73 103 143 184 235 293 345
#     4  10  19  31  49  76 104 141 188 233 277 338
#
# _framework density 17.465288999999999
#
# number of rings (size 3 to 8) (size 9 to 14) (size 15 to 20)
#    0.000    1.895    2.105    1.895    1.474    4.211 
#    0.000    4.211    0.000    0.000    0.000    4.421 
#    0.000    0.000    0.000    0.000    0.000    0.000 
#
# Total GULP energy -211591.683614 kJ/mol
# GULP energy per Si atom -5568.202200 kJ/mol
# Density = 1.742554 g / cm^3
# Si number density = 17.465289 Si / 1000 Ang^3
#
#
#
# Elastic Constant Matrix: (Units=GPa)
#
#
# Indices 1 2 3 4 5 6 
#
# 1 80.3872 15.2287 42.9328 0.0000 0.0000 0.0000
# 2 15.2287 100.4161 65.5914 0.0000 0.0000 0.0000
# 3 42.9328 65.5914 183.2754 0.0000 0.0000 0.0000
# 4 0.0000 0.0000 0.0000 31.9690 0.0000 0.0000
# 5 0.0000 0.0000 0.0000 0.0000 55.3660 0.0000
# 6 0.0000 0.0000 0.0000 0.0000 0.0000 1.5254
#
#
#
# Elastic Compliance Matrix: (Units=1/GPa)
#
#
# Indices 1 2 3 4 5 6 
#
# 1 0.014219 0.000025 -0.003340 0.000000 0.000000 0.000000
# 2 0.000025 0.012997 -0.004657 0.000000 0.000000 0.000000
# 3 -0.003340 -0.004657 0.007905 0.000000 0.000000 0.000000
# 4 0.000000 0.000000 0.000000 0.031280 0.000000 0.000000
# 5 0.000000 0.000000 0.000000 0.000000 0.018062 0.000000
# 6 0.000000 0.000000 0.000000 0.000000 0.000000 0.655565
#
#
# Mechanical properties :
#
#
# Convention : Reuss Voigt Hill
#
# Bulk Modulus (GPa) = 52.14520 67.95382 60.04951
# Shear Modulus (GPa) = 6.55855 33.79380 20.17618
#
# Velocity S-wave (km/s) = 1.93993 4.40354 3.40253
# Velocity P-wave (km/s) = 5.91093 8.05278 7.06351
#
# Compressibility (1/GPa) = 0.01917722
#
# Stress axis : x y z
#
# Youngs Moduli (GPa) = 70.32980 76.94169 126.49595
#
# Poissons Ratio (x) = -0.00194 0.42247
# Poissons Ratio (y) = -0.00177 0.58913
# Poissons Ratio (z) = 0.23489 0.35834
#
# Static dielectric constant tensor:
#      x y z
#    x 1.593570 0.000000 0.000000 
#    y 0.000000 1.582680 0.000000 
#    z 0.000000 0.000000 1.580530 
# 
# From -- ./inp_files/2699.got.cif
#   From: 2010.05.17/outbox.cif.g08.bks.cpg/sg49_2_cif.got.tgz:2699.got - 2010.06.03 21:02:19.
