data_PCOD9392284
_publ_section_title
;
Structure prediction by ZEFSAII (Michael W. Deem and Ramdas Pophale) SiO2 
 PCOD9392284
Probable space group: P C C M
;
_chemical_formula_sum "Si O2"
_cell_formula_units_Z 38
_cell_length_a 4.973919
_cell_length_b 16.447373
_cell_length_c 24.928016
_cell_angle_alpha 90.000000
_cell_angle_beta 90.000000
_cell_angle_gamma 90.000000
_cell_volume 2039.308667
_symmetry_space_group_name_H-M "P C C M"
_symmetry_group_IT_number 49
_symmetry_cell_setting 'orthorhombic'
loop_
_space_group_symop_operation_xyz
x,y,z
-x,-y,z
x,-y,1/2-z
-x,y,1/2-z
-x,-y,-z
x,y,-z
-x,y,1/2+z
x,-y,1/2+z
loop_
_atom_site_type_symbol
_atom_site_label
_atom_site_fract_x
_atom_site_fract_y
_atom_site_fract_z
Si Si1 0.665214 0.752240 0.696972
Si Si2 0.113098 0.192196 0.940173
Si Si3 0.746266 0.440228 0.000000
Si Si4 0.617564 0.697865 0.416603
Si Si5 0.000000 0.000000 0.250000
Si Si6 0.180128 0.861256 0.326554
O O1 0.500000 0.722701 0.750000
O O2 0.645896 0.689747 0.647576
O O3 0.478370 0.827808 0.680468
O O4 0.965230 0.791846 0.694142
O O5 0.321928 0.267291 0.930214
O O6 0.138815 0.131104 0.890244
O O7 0.819078 0.230981 0.935057
O O8 0.158188 0.160182 0.000000
O O9 0.500000 0.500000 0.000000
O O10 0.710809 0.380840 0.948977
O O11 0.000000 0.500000 0.000000
O O12 0.154359 0.939840 0.290008
#
# Coordination Sequence:
#
# PCOD9392284 Si02
#       6
#     8   8   4   8   2   8
#     4  10  18  36  52  79  99 133 192 222 256 303
#     4  10  17  34  53  73 102 135 191 215 261 302
#     4  12  22  34  52  84 118 139 166 209 276 338
#     4  10  20  32  54  79 104 141 169 224 259 306
#     4  12  20  38  46  78 120 134 178 220 312 310
#     4  10  22  29  52  75 104 142 171 228 269 332
#
# _framework density 18.633765
#
# number of rings (size 3 to 8) (size 9 to 14) (size 15 to 20)
#    0.000    1.684    4.211    1.263    0.000    1.684 
#    0.000    0.526    0.000    0.632    0.000   10.316 
#    0.000    0.000    0.000    0.000    0.000    0.000 
#
# Total GULP energy -211582.929094 kJ/mol
# GULP energy per Si atom -5567.971818 kJ/mol
# Density = 1.859135 g / cm^3
# Si number density = 18.633765 Si / 1000 Ang^3
#
#
#
# Elastic Constant Matrix: (Units=GPa)
#
#
# Indices 1 2 3 4 5 6 
#
# 1 68.3296 -1.8861 -10.0350 0.0000 0.0000 0.0000
# 2 -1.8861 65.0229 43.4142 0.0000 0.0000 0.0000
# 3 -10.0350 43.4142 187.1218 0.0000 0.0000 0.0000
# 4 0.0000 0.0000 0.0000 25.7645 0.0000 0.0000
# 5 0.0000 0.0000 0.0000 0.0000 20.8179 0.0000
# 6 0.0000 0.0000 0.0000 0.0000 0.0000 7.2665
#
#
#
# Elastic Compliance Matrix: (Units=1/GPa)
#
#
# Indices 1 2 3 4 5 6 
#
# 1 0.014752 -0.000119 0.000819 0.000000 0.000000 0.000000
# 2 -0.000119 0.018199 -0.004229 0.000000 0.000000 0.000000
# 3 0.000819 -0.004229 0.006369 0.000000 0.000000 0.000000
# 4 0.000000 0.000000 0.000000 0.038813 0.000000 0.000000
# 5 0.000000 0.000000 0.000000 0.000000 0.048036 0.000000
# 6 0.000000 0.000000 0.000000 0.000000 0.000000 0.137618
#
#
# Mechanical properties :
#
#
# Convention : Reuss Voigt Hill
#
# Bulk Modulus (GPa) = 30.99563 42.60672 36.80117
# Shear Modulus (GPa) = 17.75574 30.03518 23.89546
#
# Velocity S-wave (km/s) = 3.09022 4.01916 3.58491
# Velocity P-wave (km/s) = 5.42244 6.66732 6.07684
#
# Compressibility (1/GPa) = 0.03226262
#
# Stress axis : x y z
#
# Youngs Moduli (GPa) = 67.78784 54.94745 157.00721
#
# Poissons Ratio (x) = 0.00652 -0.12854
# Poissons Ratio (y) = 0.00805 0.66395
# Poissons Ratio (z) = -0.05550 0.23236
#
# Static dielectric constant tensor:
#      x y z
#    x 1.646630 0.000000 0.000000 
#    y 0.000000 1.597600 0.000000 
#    z 0.000000 0.000000 1.734650 
# 
# From -- ./inp_files/21763.got.cif
#   From: 2010.05.17/outbox.cif.g08.bks.cpg/sg49_11_cif.got.tgz:21763.got - 2010.06.03 21:02:19.
