data_PCOD9392741
_publ_section_title
;
Structure prediction by ZEFSAII (Michael W. Deem and Ramdas Pophale) SiO2 
 PCOD9392741
Probable space group: P C C M
;
_chemical_formula_sum "Si O2"
_cell_formula_units_Z 64
_cell_length_a 15.173208
_cell_length_b 28.818618
_cell_length_c 8.734742
_cell_angle_alpha 90.000000
_cell_angle_beta 90.000000
_cell_angle_gamma 90.000000
_cell_volume 3819.448366
_symmetry_space_group_name_H-M "P C C M"
_symmetry_group_IT_number 49
_symmetry_cell_setting 'orthorhombic'
loop_
_space_group_symop_operation_xyz
x,y,z
-x,-y,z
x,-y,1/2-z
-x,y,1/2-z
-x,-y,-z
x,y,-z
-x,y,1/2+z
x,-y,1/2+z
loop_
_atom_site_type_symbol
_atom_site_label
_atom_site_fract_x
_atom_site_fract_y
_atom_site_fract_z
Si Si1 0.901029 0.046555 0.682691
Si Si2 0.276817 0.548088 0.682526
Si Si3 0.905468 0.578804 0.315833
Si Si4 0.594838 0.733975 0.684014
Si Si5 0.099044 0.849837 0.683322
Si Si6 0.093180 0.312782 0.316578
Si Si7 0.220415 0.769182 0.185362
Si Si8 0.596241 0.625737 0.684083
O O1 0.905120 0.042149 0.500000
O O2 0.866751 0.097993 0.720997
O O3 0.000000 0.047365 0.750000
O O4 0.857424 0.000000 0.750000
O O5 0.313639 0.500000 0.750000
O O6 0.278757 0.547187 0.500000
O O7 0.177032 0.553180 0.742642
O O8 0.331937 0.591492 0.745949
O O9 0.904353 0.574529 0.500000
O O10 0.894394 0.633482 0.273474
O O11 0.000000 0.563774 0.250000
O O12 0.500000 0.747245 0.750000
O O13 0.590205 0.735851 0.500000
O O14 0.678027 0.764587 0.734501
O O15 0.612396 0.679842 0.724412
O O16 0.092824 0.846116 0.500000
O O17 0.165005 0.811536 0.747905
O O18 0.000000 0.844117 0.750000
O O19 0.087900 0.311597 0.500000
O O20 0.170497 0.278360 0.269009
O O21 0.000000 0.296471 0.250000
O O22 0.218387 0.771859 0.000000
O O23 0.500000 0.613767 0.750000
O O24 0.597120 0.621880 0.500000
#
# Coordination Sequence:
#
# PCOD9392741 Si02
#       8
#     8   8   8   8   8   8   8   8
#     4   9  16  26  41  60  85 120 165 209 249 288
#     4  12  25  40  57  79 103 130 162 197 240 289
#     4  10  20  37  57  77 101 130 164 204 243 283
#     4   9  19  35  55  77 101 128 161 199 240 285
#     4  10  20  31  43  65  97 133 170 209 248 290
#     4   9  18  31  48  70  97 127 160 195 233 277
#     4  10  19  31  47  69  98 132 164 198 240 286
#     4  10  20  38  61  84 107 130 157 194 238 288
#
# _framework density 16.756346000000001
#
# number of rings (size 3 to 8) (size 9 to 14) (size 15 to 20)
#    0.000    2.125    0.000    4.125    0.000    7.000 
#    0.000    3.750    0.000    0.000    0.000    0.000 
#    0.000    0.500    0.000    5.500    0.000    4.000 
#
# Total GULP energy -357146.694475 kJ/mol
# GULP energy per Si atom -5580.417101 kJ/mol
# Density = 1.671821 g / cm^3
# Si number density = 16.756346 Si / 1000 Ang^3
#
#
#
# Elastic Constant Matrix: (Units=GPa)
#
#
# Indices 1 2 3 4 5 6 
#
# 1 105.4615 57.7243 32.6677 0.0000 0.0000 0.0000
# 2 57.7243 78.4064 31.1756 0.0000 0.0000 0.0000
# 3 32.6677 31.1756 55.6749 0.0000 0.0000 0.0000
# 4 0.0000 0.0000 0.0000 18.5953 0.0000 0.0000
# 5 0.0000 0.0000 0.0000 0.0000 26.5338 0.0000
# 6 0.0000 0.0000 0.0000 0.0000 0.0000 43.8845
#
#
#
# Elastic Compliance Matrix: (Units=1/GPa)
#
#
# Indices 1 2 3 4 5 6 
#
# 1 0.016452 -0.010644 -0.003693 0.000000 0.000000 0.000000
# 2 -0.010644 0.023293 -0.006798 0.000000 0.000000 0.000000
# 3 -0.003693 -0.006798 0.023935 0.000000 0.000000 0.000000
# 4 0.000000 0.000000 0.000000 0.053777 0.000000 0.000000
# 5 0.000000 0.000000 0.000000 0.000000 0.037688 0.000000
# 6 0.000000 0.000000 0.000000 0.000000 0.000000 0.022787
#
#
# Mechanical properties :
#
#
# Convention : Reuss Voigt Hill
#
# Bulk Modulus (GPa) = 46.70648 53.63089 50.16869
# Shear Modulus (GPa) = 21.99360 25.66772 23.83066
#
# Velocity S-wave (km/s) = 3.62685 3.91809 3.77528
# Velocity P-wave (km/s) = 6.74338 7.24875 7.00063
#
# Compressibility (1/GPa) = 0.02141030
#
# Stress axis : x y z
#
# Youngs Moduli (GPa) = 60.78273 42.93105 41.77980
#
# Poissons Ratio (x) = 0.45695 0.15431
# Poissons Ratio (y) = 0.64696 0.28401
# Poissons Ratio (z) = 0.22449 0.29184
#
# Static dielectric constant tensor:
#      x y z
#    x 1.551510 0.000000 0.000000 
#    y 0.000000 1.594130 0.000000 
#    z 0.000000 0.000000 1.560590 
# 
# From -- ./inp_files/4527.got.cif
#   From: 2010.05.17/outbox.cif.g08.bks.cpg/sg49_3_cif.got.tgz:4527.got - 2010.06.03 21:02:19.
