data_PCOD9392516
_publ_section_title
;
Structure prediction by ZEFSAII (Michael W. Deem and Ramdas Pophale) SiO2 
 PCOD9392516
Probable space group: P C C M
;
_chemical_formula_sum "Si O2"
_cell_formula_units_Z 48
_cell_length_a 15.972351
_cell_length_b 13.138664
_cell_length_c 10.304297
_cell_angle_alpha 90.000000
_cell_angle_beta 90.000000
_cell_angle_gamma 90.000000
_cell_volume 2162.411885
_symmetry_space_group_name_H-M "P C C M"
_symmetry_group_IT_number 49
_symmetry_cell_setting 'orthorhombic'
loop_
_space_group_symop_operation_xyz
x,y,z
-x,-y,z
x,-y,1/2-z
-x,y,1/2-z
-x,-y,-z
x,y,-z
-x,y,1/2+z
x,-y,1/2+z
loop_
_atom_site_type_symbol
_atom_site_label
_atom_site_fract_x
_atom_site_fract_y
_atom_site_fract_z
Si Si1 0.374960 0.355361 0.000000
Si Si2 0.696053 0.630918 0.725149
Si Si3 0.747011 0.138132 0.767657
Si Si4 0.330615 0.112779 0.000000
Si Si5 0.566468 0.678997 0.500000
Si Si6 0.380686 0.095904 0.500000
Si Si7 0.927887 0.818034 0.350090
Si Si8 0.878207 0.419815 0.145037
O O1 0.337098 0.401808 0.132876
O O2 0.359708 0.231109 0.000000
O O3 0.474553 0.366803 0.000000
O O4 0.733646 0.742169 0.751587
O O5 0.619854 0.644887 0.625246
O O6 0.776905 0.580350 0.659441
O O7 0.724984 0.093902 0.627865
O O8 0.841008 0.125276 0.817246
O O9 0.677885 0.110977 0.874297
O O10 0.402309 0.024677 0.000000
O O11 0.560996 0.803678 0.500000
O O12 0.950627 0.836305 0.500000
O O13 0.910114 0.695885 0.336724
O O14 0.000000 0.846497 0.250000
O O15 0.908936 0.500000 0.250000
O O16 0.900065 0.452324 0.000000
#
# Coordination Sequence:
#
# PCOD9392516 Si02
#       8
#     4   8   8   4   4   4   8   8
#     4  10  20  31  51  83 108 136 182 228 270 316
#     4   9  18  34  53  75 104 143 185 216 254 316
#     4   9  18  34  53  75 104 143 185 216 254 316
#     4  10  20  31  51  83 108 136 182 228 270 316
#     4  10  18  33  55  75 106 146 178 220 274 320
#     4  10  18  33  55  75 106 146 178 220 274 320
#     4  10  21  37  58  83 110 141 175 214 262 315
#     4  10  21  37  58  83 110 141 175 214 262 315
#
# _framework density 22.197436
#
# number of rings (size 3 to 8) (size 9 to 14) (size 15 to 20)
#    0.000    2.333    1.667    1.000    2.333    1.333 
#    0.000    1.667    0.000   12.000    0.000    0.000 
#    0.000    0.000    0.000    0.000    0.000    0.000 
#
# Total GULP energy -267880.205498 kJ/mol
# GULP energy per Si atom -5580.837615 kJ/mol
# Density = 2.214691 g / cm^3
# Si number density = 22.197436 Si / 1000 Ang^3
#
#
#
# Elastic Constant Matrix: (Units=GPa)
#
#
# Indices 1 2 3 4 5 6 
#
# 1 98.7629 -11.9804 34.7991 0.0000 0.0000 0.0000
# 2 -11.9804 55.8035 -7.0153 0.0000 0.0000 0.0000
# 3 34.7991 -7.0153 163.4237 0.0000 0.0000 0.0000
# 4 0.0000 0.0000 0.0000 15.0149 0.0000 0.0000
# 5 0.0000 0.0000 0.0000 0.0000 6.5460 0.0000
# 6 0.0000 0.0000 0.0000 0.0000 0.0000 8.4739
#
#
#
# Elastic Compliance Matrix: (Units=1/GPa)
#
#
# Indices 1 2 3 4 5 6 
#
# 1 0.011189 0.002114 -0.002292 0.000000 0.000000 0.000000
# 2 0.002114 0.018417 0.000340 0.000000 0.000000 0.000000
# 3 -0.002292 0.000340 0.006622 0.000000 0.000000 0.000000
# 4 0.000000 0.000000 0.000000 0.066600 0.000000 0.000000
# 5 0.000000 0.000000 0.000000 0.000000 0.152764 0.000000
# 6 0.000000 0.000000 0.000000 0.000000 0.000000 0.118010
#
#
# Mechanical properties :
#
#
# Convention : Reuss Voigt Hill
#
# Bulk Modulus (GPa) = 27.35762 38.84411 33.10086
# Shear Modulus (GPa) = 12.97148 26.15275 19.56212
#
# Velocity S-wave (km/s) = 2.41999 3.43620 2.97185
# Velocity P-wave (km/s) = 4.48998 5.76894 5.16917
#
# Compressibility (1/GPa) = 0.03655289
#
# Stress axis : x y z
#
# Youngs Moduli (GPa) = 89.37156 54.29858 151.01862
#
# Poissons Ratio (x) = -0.11479 0.34611
# Poissons Ratio (y) = -0.18894 -0.05141
# Poissons Ratio (z) = 0.20483 -0.01848
#
# Static dielectric constant tensor:
#      x y z
#    x 1.766970 0.000000 0.000000 
#    y 0.000000 1.911420 0.000000 
#    z 0.000000 0.000000 1.784530 
# 
# From -- ./inp_files/4922.got.cif
#   From: 2010.05.17/outbox.cif.g08.bks.cpg/sg49_3_cif.got.tgz:4922.got - 2010.06.03 21:02:19.
