data_PCOD9392317
_publ_section_title
;
Structure prediction by ZEFSAII (Michael W. Deem and Ramdas Pophale) SiO2 
 PCOD9392317
Probable space group: P C C M
;
_chemical_formula_sum "Si O2"
_cell_formula_units_Z 64
_cell_length_a 12.254414
_cell_length_b 18.276728
_cell_length_c 14.430224
_cell_angle_alpha 90.000000
_cell_angle_beta 90.000000
_cell_angle_gamma 90.000000
_cell_volume 3231.945804
_symmetry_space_group_name_H-M "P C C M"
_symmetry_group_IT_number 49
_symmetry_cell_setting 'orthorhombic'
loop_
_space_group_symop_operation_xyz
x,y,z
-x,-y,z
x,-y,1/2-z
-x,y,1/2-z
-x,-y,-z
x,y,-z
-x,y,1/2+z
x,-y,1/2+z
loop_
_atom_site_type_symbol
_atom_site_label
_atom_site_fract_x
_atom_site_fract_y
_atom_site_fract_z
Si Si1 0.448055 0.682872 0.154641
Si Si2 0.092730 0.261544 0.387374
Si Si3 0.638323 0.784691 0.894542
Si Si4 0.487400 0.917261 0.112391
Si Si5 0.115586 0.463162 0.887184
Si Si6 0.299108 0.815978 0.887895
Si Si7 0.146864 0.704287 0.613550
Si Si8 0.238938 0.601007 0.890788
O O1 0.500000 0.658254 0.250000
O O2 0.550247 0.718525 0.101757
O O3 0.367734 0.752649 0.162316
O O4 0.365327 0.622171 0.118525
O O5 0.087970 0.265019 0.500000
O O6 0.172781 0.194287 0.364631
O O7 0.157871 0.334681 0.355763
O O8 0.968154 0.260814 0.356836
O O9 0.574808 0.855707 0.853802
O O10 0.748874 0.750621 0.853321
O O11 0.665657 0.805757 0.000000
O O12 0.365085 0.889028 0.131870
O O13 0.500000 0.000000 0.144507
O O14 0.497786 0.917111 0.000000
O O15 0.140849 0.380734 0.856363
O O16 0.205843 0.521502 0.856123
O O17 0.000000 0.500000 0.860365
O O18 0.112815 0.458640 0.000000
O O19 0.310133 0.801301 0.000000
O O20 0.152199 0.703483 0.500000
O O21 0.215720 0.599550 0.000000
#
# Coordination Sequence:
#
# PCOD9392317 Si02
#       8
#     8   8   8   8   8   8   8   8
#     4  10  18  28  43  61  84 116 149 184 216 256
#     4   8  12  20  37  62  86 107 136 176 218 256
#     4   9  17  29  44  63  87 113 142 176 219 267
#     4   8  13  23  41  63  85 113 148 179 210 255
#     4   9  14  22  39  67  92 107 136 186 233 264
#     4   8  14  25  43  65  86 111 146 184 218 257
#     4   9  15  23  39  64  90 111 135 177 224 262
#     4   9  15  25  43  64  87 113 146 186 225 263
#
# _framework density 19.802311
#
# number of rings (size 3 to 8) (size 9 to 14) (size 15 to 20)
#    0.000    3.250    1.250    2.625    0.000    0.000 
#    0.000    0.625    0.000   14.250    0.000    6.125 
#    0.000    0.000    0.000   18.000    0.000   20.500 
#
# Total GULP energy -356407.569527 kJ/mol
# GULP energy per Si atom -5568.868274 kJ/mol
# Density = 1.975724 g / cm^3
# Si number density = 19.802311 Si / 1000 Ang^3
#
#
#
# Elastic Constant Matrix: (Units=GPa)
#
#
# Indices 1 2 3 4 5 6 
#
# 1 176.4777 94.0503 7.7694 0.0000 0.0000 0.0000
# 2 94.0503 130.4956 10.4197 0.0000 0.0000 0.0000
# 3 7.7694 10.4197 49.9730 0.0000 0.0000 0.0000
# 4 0.0000 0.0000 0.0000 -1.0274 0.0000 0.0000
# 5 0.0000 0.0000 0.0000 0.0000 -26.2799 0.0000
# 6 0.0000 0.0000 0.0000 0.0000 0.0000 27.2323
#
#
#
# Elastic Compliance Matrix: (Units=1/GPa)
#
#
# Indices 1 2 3 4 5 6 
#
# 1 0.009200 -0.006627 -0.000049 0.000000 0.000000 0.000000
# 2 -0.006627 0.012566 -0.001590 0.000000 0.000000 0.000000
# 3 -0.000049 -0.001590 0.020350 0.000000 0.000000 0.000000
# 4 0.000000 0.000000 0.000000 -0.973304 0.000000 0.000000
# 5 0.000000 0.000000 0.000000 0.000000 -0.038052 0.000000
# 6 0.000000 0.000000 0.000000 0.000000 0.000000 0.036721
#
#
# Mechanical properties :
#
#
# Convention : Reuss Voigt Hill
#
# Bulk Modulus (GPa) = 39.08453 64.60277 51.84365
# Shear Modulus (GPa) = -5.50989 16.29879 5.39445
#
# Velocity S-wave (km/s) = -1.66988 2.87204 1.65229
# Velocity P-wave (km/s) = 4.00777 6.61006 5.46603
#
# Compressibility (1/GPa) = 0.02558557
#
# Stress axis : x y z
#
# Youngs Moduli (GPa) = 108.69272 79.57892 49.14039
#
# Poissons Ratio (x) = 0.52736 0.00239
# Poissons Ratio (y) = 0.72029 0.07812
# Poissons Ratio (z) = 0.00529 0.12652
#
# Static dielectric constant tensor:
#      x y z
#    x 1.662360 0.000000 0.000000 
#    y 0.000000 1.625240 0.000000 
#    z 0.000000 0.000000 1.785040 
# 
# From -- ./inp_files/17373.got.cif
#   From: 2010.05.17/outbox.cif.g08.bks.cpg/sg49_9_cif.got.tgz:17373.got - 2010.06.03 21:02:19.
