data_PCOD9392506
_publ_section_title
;
Structure prediction by ZEFSAII (Michael W. Deem and Ramdas Pophale) SiO2 
 PCOD9392506
Probable space group: P C C M
;
_chemical_formula_sum "Si O2"
_cell_formula_units_Z 64
_cell_length_a 19.208924
_cell_length_b 21.882390
_cell_length_c 8.637768
_cell_angle_alpha 90.000000
_cell_angle_beta 90.000000
_cell_angle_gamma 90.000000
_cell_volume 3630.774926
_symmetry_space_group_name_H-M "P C C M"
_symmetry_group_IT_number 49
_symmetry_cell_setting 'orthorhombic'
loop_
_space_group_symop_operation_xyz
x,y,z
-x,-y,z
x,-y,1/2-z
-x,y,1/2-z
-x,-y,-z
x,y,-z
-x,y,1/2+z
x,-y,1/2+z
loop_
_atom_site_type_symbol
_atom_site_label
_atom_site_fract_x
_atom_site_fract_y
_atom_site_fract_z
Si Si1 0.925636 0.405096 0.322596
Si Si2 0.632013 0.436297 0.315718
Si Si3 0.074970 0.932094 0.683743
Si Si4 0.926900 0.257456 0.678857
Si Si5 0.279740 0.261079 0.311958
Si Si6 0.176385 0.167122 0.318996
Si Si7 0.573320 0.311702 0.814561
Si Si8 0.222470 0.393477 0.685868
O O1 0.922434 0.426069 0.500000
O O2 0.926020 0.330809 0.320761
O O3 0.852741 0.418769 0.237542
O O4 0.000000 0.424435 0.250000
O O5 0.604985 0.500000 0.250000
O O6 0.630024 0.435554 0.500000
O O7 0.589438 0.379366 0.248543
O O8 0.711910 0.428238 0.258541
O O9 0.069462 0.934858 0.500000
O O10 0.137254 0.887407 0.733098
O O11 0.000000 0.910777 0.750000
O O12 0.086485 0.000000 0.750000
O O13 0.917726 0.237260 0.500000
O O14 0.871958 0.226352 0.791153
O O15 0.000000 0.238244 0.750000
O O16 0.276204 0.260408 0.500000
O O17 0.248643 0.196208 0.259391
O O18 0.359359 0.272308 0.266339
O O19 0.236665 0.322316 0.264333
O O20 0.181082 0.151723 0.500000
O O21 0.500000 0.289653 0.750000
O O22 0.571506 0.313782 0.000000
O O23 0.227028 0.395863 0.500000
#
# Coordination Sequence:
#
# PCOD9392506 Si02
#       8
#     8   8   8   8   8   8   8   8
#     4  10  19  29  43  65  93 126 163 205 252 303
#     4  11  22  37  56  80 104 134 171 212 251 300
#     4  11  22  37  52  70  96 136 182 229 269 313
#     4  10  19  28  39  61  91 124 161 204 247 296
#     4   8  17  31  50  73 101 132 166 201 248 303
#     4  11  19  31  49  70  96 132 170 214 258 303
#     4  10  20  37  57  82 110 142 171 204 248 302
#     4  10  18  33  52  72  99 132 165 209 259 310
#
# _framework density 17.627091
#
# number of rings (size 3 to 8) (size 9 to 14) (size 15 to 20)
#    0.000    1.875    1.250    5.625    0.000    1.250 
#    0.000    3.125    0.000    0.375    0.000    2.625 
#    0.000    0.500    0.000    5.750    0.000    1.750 
#
# Total GULP energy -357121.166936 kJ/mol
# GULP energy per Si atom -5580.018233 kJ/mol
# Density = 1.758697 g / cm^3
# Si number density = 17.627091 Si / 1000 Ang^3
#
#
#
# Elastic Constant Matrix: (Units=GPa)
#
#
# Indices 1 2 3 4 5 6 
#
# 1 109.7379 26.1853 28.7105 0.0000 0.0000 0.0000
# 2 26.1853 69.8032 19.9402 0.0000 0.0000 0.0000
# 3 28.7105 19.9402 91.6393 0.0000 0.0000 0.0000
# 4 0.0000 0.0000 0.0000 14.1052 0.0000 0.0000
# 5 0.0000 0.0000 0.0000 0.0000 25.9598 0.0000
# 6 0.0000 0.0000 0.0000 0.0000 0.0000 11.4099
#
#
#
# Elastic Compliance Matrix: (Units=1/GPa)
#
#
# Indices 1 2 3 4 5 6 
#
# 1 0.010563 -0.003217 -0.002609 0.000000 0.000000 0.000000
# 2 -0.003217 0.016255 -0.002529 0.000000 0.000000 0.000000
# 3 -0.002609 -0.002529 0.012280 0.000000 0.000000 0.000000
# 4 0.000000 0.000000 0.000000 0.070896 0.000000 0.000000
# 5 0.000000 0.000000 0.000000 0.000000 0.038521 0.000000
# 6 0.000000 0.000000 0.000000 0.000000 0.000000 0.087643
#
#
# Mechanical properties :
#
#
# Convention : Reuss Voigt Hill
#
# Bulk Modulus (GPa) = 44.66824 46.76138 45.71481
# Shear Modulus (GPa) = 19.20624 23.38461 21.29543
#
# Velocity S-wave (km/s) = 3.30447 3.64624 3.47956
# Velocity P-wave (km/s) = 6.32100 6.65676 6.49105
#
# Compressibility (1/GPa) = 0.02238727
#
# Stress axis : x y z
#
# Youngs Moduli (GPa) = 94.67047 61.51838 81.43204
#
# Poissons Ratio (x) = 0.19791 0.21248
# Poissons Ratio (y) = 0.30456 0.20595
# Poissons Ratio (z) = 0.24703 0.15559
#
# Static dielectric constant tensor:
#      x y z
#    x 1.669080 0.000000 0.000000 
#    y 0.000000 1.620520 0.000000 
#    z 0.000000 0.000000 1.600670 
# 
# From -- ./inp_files/5424.got.cif
#   From: 2010.05.17/outbox.cif.g08.bks.cpg/sg49_3_cif.got.tgz:5424.got - 2010.06.03 21:02:19.
