data_PCOD9392641
_publ_section_title
;
Structure prediction by ZEFSAII (Michael W. Deem and Ramdas Pophale) SiO2 
 PCOD9392641
Probable space group: P C C M
;
_chemical_formula_sum "Si O2"
_cell_formula_units_Z 56
_cell_length_a 19.411322
_cell_length_b 18.694294
_cell_length_c 8.879810
_cell_angle_alpha 90.000000
_cell_angle_beta 90.000000
_cell_angle_gamma 90.000000
_cell_volume 3222.313981
_symmetry_space_group_name_H-M "P C C M"
_symmetry_group_IT_number 49
_symmetry_cell_setting 'orthorhombic'
loop_
_space_group_symop_operation_xyz
x,y,z
-x,-y,z
x,-y,1/2-z
-x,y,1/2-z
-x,-y,-z
x,y,-z
-x,y,1/2+z
x,-y,1/2+z
loop_
_atom_site_type_symbol
_atom_site_label
_atom_site_fract_x
_atom_site_fract_y
_atom_site_fract_z
Si Si1 0.354961 0.076115 0.680793
Si Si2 0.212755 0.851256 0.179211
Si Si3 0.927189 0.346730 0.680439
Si Si4 0.700507 0.710206 0.320059
Si Si5 0.205150 0.422914 0.680140
Si Si6 0.927729 0.177500 0.321123
Si Si7 0.573836 0.214989 0.320429
O O1 0.362672 0.076992 0.500000
O O2 0.274782 0.094515 0.715897
O O3 0.399861 0.139550 0.752106
O O4 0.373562 0.000000 0.750000
O O5 0.244660 0.773104 0.216761
O O6 0.140477 0.861237 0.261161
O O7 0.201113 0.853182 0.000000
O O8 0.927932 0.353820 0.500000
O O9 0.864791 0.390819 0.750539
O O10 0.919428 0.262143 0.717879
O O11 0.000000 0.370155 0.750000
O O12 0.687291 0.715909 0.500000
O O13 0.734831 0.634402 0.286792
O O14 0.631337 0.728080 0.231214
O O15 0.219206 0.500000 0.750000
O O16 0.197988 0.427773 0.500000
O O17 0.931935 0.171720 0.500000
O O18 0.000000 0.153268 0.250000
O O19 0.500000 0.231987 0.250000
O O20 0.570032 0.210520 0.500000
#
# Coordination Sequence:
#
# PCOD9392641 Si02
#       7
#     8   8   8   8   8   8   8
#     4  10  21  37  56  83 116 149 181 215 258 310
#     4   9  17  32  53  75 103 137 176 219 266 314
#     4  10  20  33  49  72 102 138 180 225 274 328
#     4   9  19  36  56  78 107 140 176 220 266 315
#     4  11  22  36  54  76 106 142 180 225 274 324
#     4  10  19  29  47  73 101 133 175 224 272 320
#     4  11  22  37  60  87 115 145 178 215 257 310
#
# _framework density 17.378817000000002
#
# number of rings (size 3 to 8) (size 9 to 14) (size 15 to 20)
#    0.000    2.000    1.429    3.857    0.000    5.714 
#    0.000    2.857    0.000    0.857    0.000    6.000 
#    0.000    0.000    0.000    0.000    0.000    0.000 
#
# Total GULP energy -312677.017142 kJ/mol
# GULP energy per Si atom -5583.518163 kJ/mol
# Density = 1.733926 g / cm^3
# Si number density = 17.378817 Si / 1000 Ang^3
#
#
#
# Elastic Constant Matrix: (Units=GPa)
#
#
# Indices 1 2 3 4 5 6 
#
# 1 122.8077 21.4519 57.0933 0.0000 0.0000 0.0000
# 2 21.4519 40.6560 27.2441 0.0000 0.0000 0.0000
# 3 57.0933 27.2441 68.5649 0.0000 0.0000 0.0000
# 4 0.0000 0.0000 0.0000 198.4048 0.0000 0.0000
# 5 0.0000 0.0000 0.0000 0.0000 32.1716 0.0000
# 6 0.0000 0.0000 0.0000 0.0000 0.0000 13.7752
#
#
#
# Elastic Compliance Matrix: (Units=1/GPa)
#
#
# Indices 1 2 3 4 5 6 
#
# 1 0.013295 0.000550 -0.011289 0.000000 0.000000 0.000000
# 2 0.000550 0.033545 -0.013787 0.000000 0.000000 0.000000
# 3 -0.011289 -0.013787 0.029463 0.000000 0.000000 0.000000
# 4 0.000000 0.000000 0.000000 0.005040 0.000000 0.000000
# 5 0.000000 0.000000 0.000000 0.000000 0.031083 0.000000
# 6 0.000000 0.000000 0.000000 0.000000 0.000000 0.072594
#
#
# Mechanical properties :
#
#
# Convention : Reuss Voigt Hill
#
# Bulk Modulus (GPa) = 36.69574 49.28969 42.99271
# Shear Modulus (GPa) = 20.56275 57.28625 38.92450
#
# Velocity S-wave (km/s) = 3.44351 5.74759 4.73775
# Velocity P-wave (km/s) = 6.08041 8.51293 7.39734
#
# Compressibility (1/GPa) = 0.02725112
#
# Stress axis : x y z
#
# Youngs Moduli (GPa) = 75.21559 29.81045 33.94037
#
# Poissons Ratio (x) = -0.01639 0.38316
# Poissons Ratio (y) = -0.04137 0.46794
# Poissons Ratio (z) = 0.84913 0.41100
#
# Static dielectric constant tensor:
#      x y z
#    x 1.578770 0.000000 0.000000 
#    y 0.000000 1.579170 0.000000 
#    z 0.000000 0.000000 1.575560 
# 
# From -- ./inp_files/5186.got.cif
#   From: 2010.05.17/outbox.cif.g08.bks.cpg/sg49_3_cif.got.tgz:5186.got - 2010.06.03 21:02:19.
