data_PCOD9392571
_publ_section_title
;
Structure prediction by ZEFSAII (Michael W. Deem and Ramdas Pophale) SiO2 
 PCOD9392571
Probable space group: P C C M
;
_chemical_formula_sum "Si O2"
_cell_formula_units_Z 64
_cell_length_a 20.302214
_cell_length_b 21.271822
_cell_length_c 8.489550
_cell_angle_alpha 90.000000
_cell_angle_beta 90.000000
_cell_angle_gamma 90.000000
_cell_volume 3666.340210
_symmetry_space_group_name_H-M "P C C M"
_symmetry_group_IT_number 49
_symmetry_cell_setting 'orthorhombic'
loop_
_space_group_symop_operation_xyz
x,y,z
-x,-y,z
x,-y,1/2-z
-x,y,1/2-z
-x,-y,-z
x,y,-z
-x,y,1/2+z
x,-y,1/2+z
loop_
_atom_site_type_symbol
_atom_site_label
_atom_site_fract_x
_atom_site_fract_y
_atom_site_fract_z
Si Si1 0.570589 0.620933 0.688612
Si Si2 0.709471 0.567813 0.690224
Si Si3 0.790075 0.689579 0.307828
Si Si4 0.294925 0.188374 0.309324
Si Si5 0.929690 0.115489 0.189682
Si Si6 0.929700 0.262340 0.810263
Si Si7 0.570371 0.236394 0.687264
Si Si8 0.210879 0.932659 0.809859
O O1 0.500000 0.597835 0.750000
O O2 0.569113 0.620993 0.500000
O O3 0.634440 0.582422 0.742503
O O4 0.578955 0.693024 0.744384
O O5 0.730706 0.500000 0.750000
O O6 0.709747 0.567916 0.500000
O O7 0.755648 0.625290 0.744126
O O8 0.790135 0.689299 0.500000
O O9 0.746895 0.750084 0.260660
O O10 0.865226 0.700191 0.256098
O O11 0.297981 0.188914 0.500000
O O12 0.367979 0.195489 0.242789
O O13 0.256590 0.125548 0.259852
O O14 0.923242 0.188943 0.238209
O O15 0.864321 0.079882 0.244792
O O16 0.000000 0.091537 0.250000
O O17 0.930649 0.113995 0.000000
O O18 0.000000 0.285868 0.750000
O O19 0.930340 0.263069 0.000000
O O20 0.500000 0.212921 0.750000
O O21 0.568228 0.240586 0.500000
O O22 0.233819 0.000000 0.750000
O O23 0.210144 0.932554 0.000000
#
# Coordination Sequence:
#
# PCOD9392571 Si02
#       8
#     8   8   8   8   8   8   8   8
#     4  10  19  33  52  74 104 141 177 210 251 304
#     4  10  21  35  52  73 101 138 175 215 259 309
#     4   9  16  32  56  75  97 135 176 210 256 314
#     4  10  18  35  58  77 101 137 179 216 257 310
#     4   9  17  30  48  72 101 138 175 211 254 303
#     4   9  16  29  51  76 101 129 168 213 259 309
#     4  11  21  33  53  82 110 136 169 215 262 305
#     4  10  21  35  53  75 105 143 178 216 261 311
#
# _framework density 17.456099999999999
#
# number of rings (size 3 to 8) (size 9 to 14) (size 15 to 20)
#    0.000    2.250    2.500    2.250    0.000    2.500 
#    0.000    3.750    0.000    0.750    0.000    5.250 
#    0.000    0.000    0.000    0.000    0.000    0.000 
#
# Total GULP energy -357082.435896 kJ/mol
# GULP energy per Si atom -5579.413061 kJ/mol
# Density = 1.741637 g / cm^3
# Si number density = 17.456100 Si / 1000 Ang^3
#
#
#
# Elastic Constant Matrix: (Units=GPa)
#
#
# Indices 1 2 3 4 5 6 
#
# 1 135.9224 69.9844 18.5575 0.0000 0.0000 0.0000
# 2 69.9844 114.5929 15.1289 0.0000 0.0000 0.0000
# 3 18.5575 15.1289 18.9445 0.0000 0.0000 0.0000
# 4 0.0000 0.0000 0.0000 22.4067 0.0000 0.0000
# 5 0.0000 0.0000 0.0000 0.0000 21.0246 0.0000
# 6 0.0000 0.0000 0.0000 0.0000 0.0000 22.8797
#
#
#
# Elastic Compliance Matrix: (Units=1/GPa)
#
#
# Indices 1 2 3 4 5 6 
#
# 1 0.011356 -0.006111 -0.006244 0.000000 0.000000 0.000000
# 2 -0.006111 0.013044 -0.004430 0.000000 0.000000 0.000000
# 3 -0.006244 -0.004430 0.062440 0.000000 0.000000 0.000000
# 4 0.000000 0.000000 0.000000 0.044630 0.000000 0.000000
# 5 0.000000 0.000000 0.000000 0.000000 0.047563 0.000000
# 6 0.000000 0.000000 0.000000 0.000000 0.000000 0.043707
#
#
# Mechanical properties :
#
#
# Convention : Reuss Voigt Hill
#
# Bulk Modulus (GPa) = 18.77253 52.97793 35.87523
# Shear Modulus (GPa) = 18.24374 24.31478 21.27926
#
# Velocity S-wave (km/s) = 3.23634 3.73622 3.49523
# Velocity P-wave (km/s) = 4.97420 7.00197 6.07331
#
# Compressibility (1/GPa) = 0.05326934
#
# Stress axis : x y z
#
# Youngs Moduli (GPa) = 88.05813 76.66581 16.01535
#
# Poissons Ratio (x) = 0.46851 0.10000
# Poissons Ratio (y) = 0.53813 0.07095
# Poissons Ratio (z) = 0.54983 0.33965
#
# Static dielectric constant tensor:
#      x y z
#    x 1.604010 0.000000 0.000000 
#    y 0.000000 1.579600 0.000000 
#    z 0.000000 0.000000 1.598280 
# 
# From -- ./inp_files/5949.got.cif
#   From: 2010.05.17/outbox.cif.g08.bks.cpg/sg49_3_cif.got.tgz:5949.got - 2010.06.03 21:02:19.
