data_PCOD9392790
_publ_section_title
;
Structure prediction by ZEFSAII (Michael W. Deem and Ramdas Pophale) SiO2 
 PCOD9392790
Probable space group: P C C M
;
_chemical_formula_sum "Si O2"
_cell_formula_units_Z 42
_cell_length_a 19.631518
_cell_length_b 14.012543
_cell_length_c 9.179846
_cell_angle_alpha 90.000000
_cell_angle_beta 90.000000
_cell_angle_gamma 90.000000
_cell_volume 2525.260796
_symmetry_space_group_name_H-M "P C C M"
_symmetry_group_IT_number 49
_symmetry_cell_setting 'orthorhombic'
loop_
_space_group_symop_operation_xyz
x,y,z
-x,-y,z
x,-y,1/2-z
-x,y,1/2-z
-x,-y,-z
x,y,-z
-x,y,1/2+z
x,-y,1/2+z
loop_
_atom_site_type_symbol
_atom_site_label
_atom_site_fract_x
_atom_site_fract_y
_atom_site_fract_z
Si Si1 0.500000 0.000000 0.250000
Si Si2 0.366616 0.091826 0.664364
Si Si3 0.069386 0.733851 0.172697
Si Si4 0.150074 0.101545 0.828432
Si Si5 0.282987 0.236029 0.170543
Si Si6 0.201500 0.398124 0.327260
O O1 0.447149 0.067190 0.335696
O O2 0.340613 0.096530 0.500000
O O3 0.346677 0.185425 0.752511
O O4 0.336986 0.000000 0.750000
O O5 0.095181 0.830961 0.248899
O O6 0.129381 0.656364 0.192916
O O7 0.000000 0.702815 0.250000
O O8 0.059679 0.747953 0.000000
O O9 0.221140 0.159519 0.816608
O O10 0.154246 0.000000 0.750000
O O11 0.134629 0.090718 0.000000
O O12 0.257667 0.329976 0.253243
O O13 0.294753 0.253845 0.000000
O O14 0.200159 0.500000 0.250000
O O15 0.213472 0.407179 0.500000
#
# Coordination Sequence:
#
# PCOD9392790 Si02
#       6
#     2   8   8   8   8   8
#     4   8  22  32  50  76 116 152 184 212 246 288
#     4  10  19  31  49  74 109 146 180 212 248 294
#     4  10  21  36  53  73  98 129 166 211 260 315
#     4  10  20  33  49  71  99 132 170 211 253 304
#     4  10  20  33  52  76 103 136 173 214 260 306
#     4  10  21  37  56  77 102 130 167 215 266 315
#
# _framework density 16.631945999999999
#
# number of rings (size 3 to 8) (size 9 to 14) (size 15 to 20)
#    0.571    1.524    0.000    3.714    0.000    6.857 
#    0.000    3.810    0.000    0.000    0.000    0.667 
#    0.000    4.571    0.000    0.000    0.000    0.000 
#
# Total GULP energy -234167.497712 kJ/mol
# GULP energy per Si atom -5575.416612 kJ/mol
# Density = 1.659409 g / cm^3
# Si number density = 16.631946 Si / 1000 Ang^3
#
#
#
# Elastic Constant Matrix: (Units=GPa)
#
#
# Indices 1 2 3 4 5 6 
#
# 1 59.8609 29.6610 44.8176 0.0000 0.0000 0.0000
# 2 29.6610 126.3483 82.5835 0.0000 0.0000 0.0000
# 3 44.8176 82.5835 150.1177 0.0000 0.0000 0.0000
# 4 0.0000 0.0000 0.0000 30.7650 0.0000 0.0000
# 5 0.0000 0.0000 0.0000 0.0000 21.0415 0.0000
# 6 0.0000 0.0000 0.0000 0.0000 0.0000 11.9859
#
#
#
# Elastic Compliance Matrix: (Units=1/GPa)
#
#
# Indices 1 2 3 4 5 6 
#
# 1 0.021659 -0.001340 -0.005729 0.000000 0.000000 0.000000
# 2 -0.001340 0.012441 -0.006444 0.000000 0.000000 0.000000
# 3 -0.005729 -0.006444 0.011917 0.000000 0.000000 0.000000
# 4 0.000000 0.000000 0.000000 0.032504 0.000000 0.000000
# 5 0.000000 0.000000 0.000000 0.000000 0.047525 0.000000
# 6 0.000000 0.000000 0.000000 0.000000 0.000000 0.083431
#
#
# Mechanical properties :
#
#
# Convention : Reuss Voigt Hill
#
# Bulk Modulus (GPa) = 52.65786 72.27235 62.46511
# Shear Modulus (GPa) = 20.59019 24.70947 22.64983
#
# Velocity S-wave (km/s) = 3.52233 3.85861 3.69430
# Velocity P-wave (km/s) = 6.94779 7.96242 7.47235
#
# Compressibility (1/GPa) = 0.01899052
#
# Stress axis : x y z
#
# Youngs Moduli (GPa) = 46.17096 80.37793 83.91386
#
# Poissons Ratio (x) = 0.10770 0.48075
# Poissons Ratio (y) = 0.06186 0.54076
# Poissons Ratio (z) = 0.26452 0.51797
#
# Static dielectric constant tensor:
#      x y z
#    x 1.572430 0.000000 0.000000 
#    y 0.000000 1.531310 0.000000 
#    z 0.000000 0.000000 1.559730 
# 
# From -- ./inp_files/6296.got.cif
#   From: 2010.05.17/outbox.cif.g08.bks.cpg/sg49_4_cif.got.tgz:6296.got - 2010.06.03 21:02:19.
