data_PCOD9392045
_publ_section_title
;
Structure prediction by ZEFSAII (Michael W. Deem and Ramdas Pophale) SiO2 
 PCOD9392045
Probable space group: P C C M
;
_chemical_formula_sum "Si O2"
_cell_formula_units_Z 28
_cell_length_a 6.962369
_cell_length_b 19.727060
_cell_length_c 7.652268
_cell_angle_alpha 90.000000
_cell_angle_beta 90.000000
_cell_angle_gamma 90.000000
_cell_volume 1051.016596
_symmetry_space_group_name_H-M "P C C M"
_symmetry_group_IT_number 49
_symmetry_cell_setting 'orthorhombic'
loop_
_space_group_symop_operation_xyz
x,y,z
-x,-y,z
x,-y,1/2-z
-x,y,1/2-z
-x,-y,-z
x,y,-z
-x,y,1/2+z
x,-y,1/2+z
loop_
_atom_site_type_symbol
_atom_site_label
_atom_site_fract_x
_atom_site_fract_y
_atom_site_fract_z
Si Si1 0.250631 0.681791 0.000000
Si Si2 0.271046 0.422842 0.206115
Si Si3 0.227766 0.219949 0.804021
Si Si4 0.773970 0.925360 0.295291
O O1 0.183774 0.628572 0.845139
O O2 0.317786 0.735556 0.846971
O O3 0.216714 0.500000 0.250000
O O4 0.500000 0.417558 0.250000
O O5 0.248076 0.409592 0.000000
O O6 0.295300 0.141981 0.801239
O O7 0.000000 0.219227 0.750000
O O8 0.238639 0.247531 0.000000
O O9 0.751686 0.913720 0.500000
O O10 0.000000 0.928349 0.250000
O O11 0.699595 0.000000 0.250000
#
# Coordination Sequence:
#
# PCOD9392045 Si02
#       4
#     4   8   8   8
#     4  12  22  35  58  82 110 147 176 222 266 328
#     4  11  20  38  63  89 113 131 163 217 288 347
#     4  11  20  35  51  74 111 152 191 221 259 313
#     4  10  16  26  43  68  99 138 183 225 270 311
#
# _framework density 26.640872999999999
#
# number of rings (size 3 to 8) (size 9 to 14) (size 15 to 20)
#    0.000    1.143    5.714    6.857    0.000    0.000 
#    0.000    0.000    0.000    2.571    0.000    0.000 
#    0.000    3.429    0.000    0.000    0.000    0.000 
#
# Total GULP energy -155930.403970 kJ/mol
# GULP energy per Si atom -5568.942999 kJ/mol
# Density = 2.658024 g / cm^3
# Si number density = 26.640873 Si / 1000 Ang^3
#
#
#
# Elastic Constant Matrix: (Units=GPa)
#
#
# Indices 1 2 3 4 5 6 
#
# 1 119.0889 -11.2632 24.3149 0.0000 0.0000 0.0000
# 2 -11.2632 227.3254 113.5355 0.0000 0.0000 0.0000
# 3 24.3149 113.5355 375.6879 0.0000 0.0000 0.0000
# 4 0.0000 0.0000 0.0000 -34.1572 0.0000 0.0000
# 5 0.0000 0.0000 0.0000 0.0000 9.0815 0.0000
# 6 0.0000 0.0000 0.0000 0.0000 0.0000 -10.7045
#
#
#
# Elastic Compliance Matrix: (Units=1/GPa)
#
#
# Indices 1 2 3 4 5 6 
#
# 1 0.008641 0.000833 -0.000811 0.000000 0.000000 0.000000
# 2 0.000833 0.005261 -0.001644 0.000000 0.000000 0.000000
# 3 -0.000811 -0.001644 0.003211 0.000000 0.000000 0.000000
# 4 0.000000 0.000000 0.000000 -0.029276 0.000000 0.000000
# 5 0.000000 0.000000 0.000000 0.000000 0.110114 0.000000
# 6 0.000000 0.000000 0.000000 0.000000 0.000000 -0.093419
#
#
# Mechanical properties :
#
#
# Convention : Reuss Voigt Hill
#
# Bulk Modulus (GPa) = 72.09633 108.36408 90.23021
# Shear Modulus (GPa) = 403.23512 32.54497 217.89004
#
# Velocity S-wave (km/s) = 12.31617 3.49896 9.05348
# Velocity P-wave (km/s) = 15.14503 7.55565 11.96787
#
# Compressibility (1/GPa) = 0.01387033
#
# Stress axis : x y z
#
# Youngs Moduli (GPa) = 115.72065 190.06670 311.42097
#
# Poissons Ratio (x) = -0.15837 0.25259
# Poissons Ratio (y) = -0.09642 0.51196
# Poissons Ratio (z) = 0.09386 0.31246
#
# Static dielectric constant tensor:
#      x y z
#    x 2.452750 0.000000 0.000000 
#    y 0.000000 2.092160 0.000000 
#    z 0.000000 0.000000 1.936540 
# 
# From -- ./inp_files/2612.got.cif
#   From: 2010.05.17/outbox.cif.g08.bks.cpg/sg49_2_cif.got.tgz:2612.got - 2010.06.03 21:02:19.
