data_PCOD9392171
_publ_section_title
;
Structure prediction by ZEFSAII (Michael W. Deem and Ramdas Pophale) SiO2 
 PCOD9392171
Probable space group: P C C M
;
_chemical_formula_sum "Si O2"
_cell_formula_units_Z 40
_cell_length_a 27.037864
_cell_length_b 9.187834
_cell_length_c 8.633374
_cell_angle_alpha 90.000000
_cell_angle_beta 90.000000
_cell_angle_gamma 90.000000
_cell_volume 2144.697642
_symmetry_space_group_name_H-M "P C C M"
_symmetry_group_IT_number 49
_symmetry_cell_setting 'orthorhombic'
loop_
_space_group_symop_operation_xyz
x,y,z
-x,-y,z
x,-y,1/2-z
-x,y,1/2-z
-x,-y,-z
x,y,-z
-x,y,1/2+z
x,-y,1/2+z
loop_
_atom_site_type_symbol
_atom_site_label
_atom_site_fract_x
_atom_site_fract_y
_atom_site_fract_z
Si Si1 0.846837 0.163494 0.685292
Si Si2 0.747078 0.337691 0.314181
Si Si3 0.550874 0.165943 0.314787
Si Si4 0.653754 0.164134 0.815018
Si Si5 0.949268 0.165776 0.184688
O O1 0.852515 0.155616 0.500000
O O2 0.798189 0.255132 0.723346
O O3 0.897251 0.228769 0.756820
O O4 0.840516 0.000000 0.750000
O O5 0.749073 0.500000 0.250000
O O6 0.741407 0.337743 0.500000
O O7 0.700884 0.254686 0.239205
O O8 0.500000 0.233143 0.250000
O O9 0.549932 0.162803 0.500000
O O10 0.602569 0.228676 0.253384
O O11 0.551444 0.000000 0.250000
O O12 0.659100 0.000000 0.750000
O O13 0.650295 0.158159 0.000000
O O14 0.000000 0.233216 0.250000
O O15 0.948375 0.000000 0.250000
O O16 0.950943 0.161661 0.000000
#
# Coordination Sequence:
#
# PCOD9392171 Si02
#       5
#     8   8   8   8   8
#     4  10  20  34  54  80 108 138 176 218 263 313
#     4  11  24  40  57  78 106 142 181 224 272 323
#     4  10  17  28  47  75 109 141 175 216 265 316
#     4  11  21  35  56  82 111 143 181 224 268 317
#     4  10  17  27  46  73 106 138 170 210 259 309
#
# _framework density 18.650646999999999
#
# number of rings (size 3 to 8) (size 9 to 14) (size 15 to 20)
#    0.000    1.600    0.000   10.800    0.000    4.800 
#    0.000    0.000    0.000    1.200    0.000    8.400 
#    0.000    0.000    0.000    0.000    0.000    0.000 
#
# Total GULP energy -223335.702312 kJ/mol
# GULP energy per Si atom -5583.392558 kJ/mol
# Density = 1.860820 g / cm^3
# Si number density = 18.650647 Si / 1000 Ang^3
#
#
#
# Elastic Constant Matrix: (Units=GPa)
#
#
# Indices 1 2 3 4 5 6 
#
# 1 226.9407 59.3838 106.9195 0.0000 0.0000 0.0000
# 2 59.3838 50.8703 34.0596 0.0000 0.0000 0.0000
# 3 106.9195 34.0596 169.1503 0.0000 0.0000 0.0000
# 4 0.0000 0.0000 0.0000 11.9606 0.0000 0.0000
# 5 0.0000 0.0000 0.0000 0.0000 50.5881 0.0000
# 6 0.0000 0.0000 0.0000 0.0000 0.0000 -8.4607
#
#
#
# Elastic Compliance Matrix: (Units=1/GPa)
#
#
# Indices 1 2 3 4 5 6 
#
# 1 0.007887 -0.006783 -0.003619 0.000000 0.000000 0.000000
# 2 -0.006783 0.028555 -0.001462 0.000000 0.000000 0.000000
# 3 -0.003619 -0.001462 0.008494 0.000000 0.000000 0.000000
# 4 0.000000 0.000000 0.000000 0.083608 0.000000 0.000000
# 5 0.000000 0.000000 0.000000 0.000000 0.019768 0.000000
# 6 0.000000 0.000000 0.000000 0.000000 0.000000 -0.118194
#
#
# Mechanical properties :
#
#
# Convention : Reuss Voigt Hill
#
# Bulk Modulus (GPa) = 47.15507 94.18746 70.67127
# Shear Modulus (GPa) = 82.08092 27.25749 54.66920
#
# Velocity S-wave (km/s) = 6.64118 3.82707 5.41995
# Velocity P-wave (km/s) = 9.17307 8.37491 8.78306
#
# Compressibility (1/GPa) = 0.02120663
#
# Stress axis : x y z
#
# Youngs Moduli (GPa) = 126.79825 35.01990 117.73000
#
# Poissons Ratio (x) = 0.23755 0.42609
# Poissons Ratio (y) = 0.86010 0.17214
# Poissons Ratio (z) = 0.45891 0.05120
#
# Static dielectric constant tensor:
#      x y z
#    x 1.709470 0.000000 0.000000 
#    y 0.000000 1.630550 0.000000 
#    z 0.000000 0.000000 1.625050 
# 
# From -- ./inp_files/6674.got.cif
#   From: 2010.05.17/outbox.cif.g08.bks.cpg/sg49_4_cif.got.tgz:6674.got - 2010.06.03 21:02:19.
