data_PCOD9392289
_publ_section_title
;
Structure prediction by ZEFSAII (Michael W. Deem and Ramdas Pophale) SiO2 
 PCOD9392289
Probable space group: P C C M
;
_chemical_formula_sum "Si O2"
_cell_formula_units_Z 40
_cell_length_a 8.474255
_cell_length_b 23.964510
_cell_length_c 10.110766
_cell_angle_alpha 90.000000
_cell_angle_beta 90.000000
_cell_angle_gamma 90.000000
_cell_volume 2053.308198
_symmetry_space_group_name_H-M "P C C M"
_symmetry_group_IT_number 49
_symmetry_cell_setting 'orthorhombic'
loop_
_space_group_symop_operation_xyz
x,y,z
-x,-y,z
x,-y,1/2-z
-x,y,1/2-z
-x,-y,-z
x,y,-z
-x,y,1/2+z
x,-y,1/2+z
loop_
_atom_site_type_symbol
_atom_site_label
_atom_site_fract_x
_atom_site_fract_y
_atom_site_fract_z
Si Si1 0.334113 0.949585 0.335425
Si Si2 0.189300 0.628092 0.500000
Si Si3 0.671161 0.249884 0.500000
Si Si4 0.307593 0.827035 0.737608
Si Si5 0.689497 0.564914 0.253979
Si Si6 0.291414 0.764955 0.000000
Si Si7 0.184493 0.636255 0.000000
O O1 0.500000 0.945391 0.250000
O O2 0.350071 0.957487 0.500000
O O3 0.259249 0.888989 0.308180
O O4 0.254705 0.000000 0.250000
O O5 0.278607 0.686765 0.500000
O O6 0.241703 0.593860 0.373829
O O7 0.003274 0.635635 0.500000
O O8 0.733986 0.217678 0.626983
O O9 0.481829 0.242636 0.500000
O O10 0.500000 0.827815 0.750000
O O11 0.245919 0.802273 0.874158
O O12 0.737791 0.500000 0.250000
O O13 0.500000 0.566601 0.250000
O O14 0.749330 0.601582 0.376054
O O15 0.231196 0.701539 0.000000
#
# Coordination Sequence:
#
# PCOD9392289 Si02
#       7
#     8   4   4   8   8   4   4
#     4  10  18  26  41  67 106 149 188 236 300 363
#     4  12  25  39  64  90 125 161 193 260 309 360
#     4  10  18  35  52  76 104 149 193 236 293 344
#     4   9  18  29  47  71 101 141 193 237 288 350
#     4  11  24  43  66  91 121 161 205 246 296 367
#     4  10  20  33  54  74 108 149 193 246 283 360
#     4  12  25  41  60  94 125 155 205 250 315 364
#
# _framework density 19.480758999999999
#
# number of rings (size 3 to 8) (size 9 to 14) (size 15 to 20)
#    0.000    1.600    1.000    5.400    5.600    5.600 
#    0.000    0.000    0.000    0.000    0.000    0.000 
#    0.000    4.800    0.000    0.000    0.000    0.000 
#
# Total GULP energy -222925.163424 kJ/mol
# GULP energy per Si atom -5573.129086 kJ/mol
# Density = 1.943642 g / cm^3
# Si number density = 19.480759 Si / 1000 Ang^3
#
#
#
# Elastic Constant Matrix: (Units=GPa)
#
#
# Indices 1 2 3 4 5 6 
#
# 1 21.6842 17.4493 21.3359 0.0000 0.0000 0.0000
# 2 17.4493 193.9331 102.7562 0.0000 0.0000 0.0000
# 3 21.3359 102.7562 223.8174 0.0000 0.0000 0.0000
# 4 0.0000 0.0000 0.0000 41.6399 0.0000 0.0000
# 5 0.0000 0.0000 0.0000 0.0000 14.5659 0.0000
# 6 0.0000 0.0000 0.0000 0.0000 0.0000 13.9055
#
#
#
# Elastic Compliance Matrix: (Units=1/GPa)
#
#
# Indices 1 2 3 4 5 6 
#
# 1 0.051945 -0.002709 -0.003708 0.000000 0.000000 0.000000
# 2 -0.002709 0.006955 -0.002935 0.000000 0.000000 0.000000
# 3 -0.003708 -0.002935 0.006169 0.000000 0.000000 0.000000
# 4 0.000000 0.000000 0.000000 0.024015 0.000000 0.000000
# 5 0.000000 0.000000 0.000000 0.000000 0.068654 0.000000
# 6 0.000000 0.000000 0.000000 0.000000 0.000000 0.071914
#
#
# Mechanical properties :
#
#
# Convention : Reuss Voigt Hill
#
# Bulk Modulus (GPa) = 21.56802 80.27972 50.92387
# Shear Modulus (GPa) = 18.95297 33.88181 26.41739
#
# Velocity S-wave (km/s) = 3.12253 4.17495 3.68649
# Velocity P-wave (km/s) = 4.90874 8.03365 6.65715
#
# Compressibility (1/GPa) = 0.04636494
#
# Stress axis : x y z
#
# Youngs Moduli (GPa) = 19.25116 143.77581 162.10432
#
# Poissons Ratio (x) = 0.38950 0.60109
# Poissons Ratio (y) = 0.05215 0.47577
# Poissons Ratio (z) = 0.07138 0.42198
#
# Static dielectric constant tensor:
#      x y z
#    x 1.662950 0.000000 0.000000 
#    y 0.000000 1.701740 0.000000 
#    z 0.000000 0.000000 1.622000 
# 
# From -- ./inp_files/1808.got.cif
#   From: 2010.05.17/outbox.cif.g08.bks.cpg/sg49_1_cif.got.tgz:1808.got - 2010.06.03 21:02:19.
