data_PCOD9392829
_publ_section_title
;
Structure prediction by ZEFSAII (Michael W. Deem and Ramdas Pophale) SiO2 
 PCOD9392829
Probable space group: P C C M
;
_chemical_formula_sum "Si O2"
_cell_formula_units_Z 52
_cell_length_a 18.571170
_cell_length_b 17.011803
_cell_length_c 8.167893
_cell_angle_alpha 90.000000
_cell_angle_beta 90.000000
_cell_angle_gamma 90.000000
_cell_volume 2580.474966
_symmetry_space_group_name_H-M "P C C M"
_symmetry_group_IT_number 49
_symmetry_cell_setting 'orthorhombic'
loop_
_space_group_symop_operation_xyz
x,y,z
-x,-y,z
x,-y,1/2-z
-x,y,1/2-z
-x,-y,-z
x,y,-z
-x,y,1/2+z
x,-y,1/2+z
loop_
_atom_site_type_symbol
_atom_site_label
_atom_site_fract_x
_atom_site_fract_y
_atom_site_fract_z
Si Si1 0.702734 0.000000 0.250000
Si Si2 0.644778 0.252104 0.189806
Si Si3 0.306694 0.414968 0.195565
Si Si4 0.215242 0.147375 0.697293
Si Si5 0.140642 0.585417 0.304766
Si Si6 0.920043 0.248430 0.194938
Si Si7 0.579253 0.104789 0.689946
O O1 0.759195 0.930446 0.205270
O O2 0.639882 0.936947 0.303240
O O3 0.648600 0.342497 0.236289
O O4 0.724282 0.214784 0.217247
O O5 0.592155 0.197504 0.293575
O O6 0.626291 0.242588 0.000000
O O7 0.333715 0.500000 0.250000
O O8 0.223535 0.408482 0.256859
O O9 0.305303 0.410350 0.000000
O O10 0.213240 0.127060 0.500000
O O11 0.140613 0.186477 0.751928
O O12 0.111996 0.500000 0.250000
O O13 0.142144 0.585356 0.500000
O O14 0.098697 0.662806 0.249461
O O15 0.000000 0.227631 0.250000
O O16 0.916094 0.247520 0.000000
O O17 0.500000 0.085445 0.750000
O O18 0.591804 0.082137 0.500000
#
# Coordination Sequence:
#
# PCOD9392829 Si02
#       7
#     4   8   8   8   8   8   8
#     4  10  21  38  63  90 114 148 186 234 285 340
#     4  10  19  35  58  83 114 153 195 237 287 336
#     4  10  19  31  52  83 117 151 194 241 287 334
#     4   9  19  36  57  81 109 144 187 235 287 343
#     4  10  20  34  54  82 114 149 191 238 289 342
#     4  11  22  38  57  79 111 151 193 240 294 347
#     4  11  23  38  59  89 124 155 188 228 280 343
#
# _framework density 20.151330000000002
#
# number of rings (size 3 to 8) (size 9 to 14) (size 15 to 20)
#    0.000    1.846    1.538    3.000    0.000    4.000 
#    0.000    4.231    0.000    2.308    0.000    3.231 
#    0.000    0.000    0.000    0.000    0.000    0.000 
#
# Total GULP energy -289663.904150 kJ/mol
# GULP energy per Si atom -5570.459695 kJ/mol
# Density = 2.010546 g / cm^3
# Si number density = 20.151330 Si / 1000 Ang^3
#
#
#
# Elastic Constant Matrix: (Units=GPa)
#
#
# Indices 1 2 3 4 5 6 
#
# 1 97.6569 59.2227 18.5197 0.0000 0.0000 0.0000
# 2 59.2227 152.2439 24.6095 0.0000 0.0000 0.0000
# 3 18.5197 24.6095 62.3126 0.0000 0.0000 0.0000
# 4 0.0000 0.0000 0.0000 -1.8666 0.0000 0.0000
# 5 0.0000 0.0000 0.0000 0.0000 5.2971 0.0000
# 6 0.0000 0.0000 0.0000 0.0000 0.0000 10.6214
#
#
#
# Elastic Compliance Matrix: (Units=1/GPa)
#
#
# Indices 1 2 3 4 5 6 
#
# 1 0.013652 -0.004972 -0.002094 0.000000 0.000000 0.000000
# 2 -0.004972 0.008827 -0.002008 0.000000 0.000000 0.000000
# 3 -0.002094 -0.002008 0.017464 0.000000 0.000000 0.000000
# 4 0.000000 0.000000 0.000000 -0.535738 0.000000 0.000000
# 5 0.000000 0.000000 0.000000 0.000000 0.188782 0.000000
# 6 0.000000 0.000000 0.000000 0.000000 0.000000 0.094149
#
#
# Mechanical properties :
#
#
# Convention : Reuss Voigt Hill
#
# Bulk Modulus (GPa) = 45.88381 57.43525 51.65953
# Shear Modulus (GPa) = -26.67390 16.80116 -4.93637
#
# Velocity S-wave (km/s) = -3.64219 2.89060 -1.56683
# Velocity P-wave (km/s) = 2.26532 6.30116 4.73478
#
# Compressibility (1/GPa) = 0.02179418
#
# Stress axis : x y z
#
# Youngs Moduli (GPa) = 73.24723 113.28521 57.26193
#
# Poissons Ratio (x) = 0.56329 0.11990
# Poissons Ratio (y) = 0.36421 0.11501
# Poissons Ratio (z) = 0.15337 0.22752
#
# Static dielectric constant tensor:
#      x y z
#    x 1.762810 0.000000 0.000000 
#    y 0.000000 1.739780 0.000000 
#    z 0.000000 0.000000 1.764040 
# 
# From -- ./inp_files/5029.got.cif
#   From: 2010.05.17/outbox.cif.g08.bks.cpg/sg49_3_cif.got.tgz:5029.got - 2010.06.03 21:02:19.
