data_PCOD9392846
_publ_section_title
;
Structure prediction by ZEFSAII (Michael W. Deem and Ramdas Pophale) SiO2 
 PCOD9392846
Probable space group: P C C M
;
_chemical_formula_sum "Si O2"
_cell_formula_units_Z 56
_cell_length_a 19.707267
_cell_length_b 19.180457
_cell_length_c 8.636762
_cell_angle_alpha 90.000000
_cell_angle_beta 90.000000
_cell_angle_gamma 90.000000
_cell_volume 3264.647560
_symmetry_space_group_name_H-M "P C C M"
_symmetry_group_IT_number 49
_symmetry_cell_setting 'orthorhombic'
loop_
_space_group_symop_operation_xyz
x,y,z
-x,-y,z
x,-y,1/2-z
-x,y,1/2-z
-x,-y,-z
x,y,-z
-x,y,1/2+z
x,-y,1/2+z
loop_
_atom_site_type_symbol
_atom_site_label
_atom_site_fract_x
_atom_site_fract_y
_atom_site_fract_z
Si Si1 0.710906 0.153659 0.313278
Si Si2 0.845331 0.075344 0.313702
Si Si3 0.074627 0.786893 0.687042
Si Si4 0.206412 0.707834 0.688177
Si Si5 0.709474 0.423197 0.686928
Si Si6 0.428230 0.811077 0.815949
Si Si7 0.571807 0.653970 0.185962
O O1 0.704128 0.152578 0.500000
O O2 0.768931 0.098434 0.267813
O O3 0.742574 0.229221 0.269752
O O4 0.637584 0.146366 0.237948
O O5 0.846544 0.073820 0.500000
O O6 0.895862 0.137425 0.264450
O O7 0.863177 0.000000 0.250000
O O8 0.072929 0.786276 0.500000
O O9 0.131281 0.730667 0.737966
O O10 0.000000 0.774662 0.750000
O O11 0.205987 0.706907 0.500000
O O12 0.235599 0.634098 0.740942
O O13 0.720876 0.500000 0.750000
O O14 0.711201 0.425078 0.500000
O O15 0.635475 0.393354 0.732154
O O16 0.500000 0.837475 0.750000
O O17 0.419533 0.732509 0.749341
O O18 0.431912 0.807564 0.000000
O O19 0.500000 0.627410 0.250000
O O20 0.569489 0.657806 0.000000
#
# Coordination Sequence:
#
# PCOD9392846 Si02
#       7
#     8   8   8   8   8   8   8
#     4   9  16  32  53  70  93 129 170 205 245 293
#     4   9  19  33  52  76 106 140 166 196 238 289
#     4   9  18  33  54  78 102 133 166 198 239 287
#     4   8  15  32  53  69  93 129 165 198 245 298
#     4  10  20  33  50  69  94 130 166 207 252 299
#     4  11  20  29  46  72  98 126 163 211 256 294
#     4  10  19  32  48  66  94 131 166 204 252 299
#
# _framework density 17.153459000000002
#
# number of rings (size 3 to 8) (size 9 to 14) (size 15 to 20)
#    0.000    2.571    1.429    4.286    0.000    2.857 
#    0.000    5.714    0.000    0.857    0.000    6.000 
#    0.000    0.000    0.000    0.000    0.000    0.000 
#
# Total GULP energy -312244.052822 kJ/mol
# GULP energy per Si atom -5575.786658 kJ/mol
# Density = 1.711442 g / cm^3
# Si number density = 17.153459 Si / 1000 Ang^3
#
#
#
# Elastic Constant Matrix: (Units=GPa)
#
#
# Indices 1 2 3 4 5 6 
#
# 1 149.3012 43.2779 27.8933 0.0000 0.0000 0.0000
# 2 43.2779 59.4257 11.4019 0.0000 0.0000 0.0000
# 3 27.8933 11.4019 31.7441 0.0000 0.0000 0.0000
# 4 0.0000 0.0000 0.0000 39.0306 0.0000 0.0000
# 5 0.0000 0.0000 0.0000 0.0000 29.1250 0.0000
# 6 0.0000 0.0000 0.0000 0.0000 0.0000 16.4447
#
#
#
# Elastic Compliance Matrix: (Units=1/GPa)
#
#
# Indices 1 2 3 4 5 6 
#
# 1 0.009542 -0.005736 -0.006324 0.000000 0.000000 0.000000
# 2 -0.005736 0.021521 -0.002690 0.000000 0.000000 0.000000
# 3 -0.006324 -0.002690 0.038025 0.000000 0.000000 0.000000
# 4 0.000000 0.000000 0.000000 0.025621 0.000000 0.000000
# 5 0.000000 0.000000 0.000000 0.000000 0.034335 0.000000
# 6 0.000000 0.000000 0.000000 0.000000 0.000000 0.060810
#
#
# Mechanical properties :
#
#
# Convention : Reuss Voigt Hill
#
# Bulk Modulus (GPa) = 25.26006 45.06857 35.16431
# Shear Modulus (GPa) = 21.50073 27.44658 24.47366
#
# Velocity S-wave (km/s) = 3.54423 4.00442 3.78133
# Velocity P-wave (km/s) = 5.61308 6.90733 6.29356
#
# Compressibility (1/GPa) = 0.03958820
#
# Stress axis : x y z
#
# Youngs Moduli (GPa) = 104.79941 46.46621 26.29828
#
# Poissons Ratio (x) = 0.26652 0.16632
# Poissons Ratio (y) = 0.60110 0.07074
# Poissons Ratio (z) = 0.66279 0.12499
#
# Static dielectric constant tensor:
#      x y z
#    x 1.592530 0.000000 0.000000 
#    y 0.000000 1.565440 0.000000 
#    z 0.000000 0.000000 1.583930 
# 
# From -- ./inp_files/5161.got.cif
#   From: 2010.05.17/outbox.cif.g08.bks.cpg/sg49_3_cif.got.tgz:5161.got - 2010.06.03 21:02:19.
