data_PCOD9392421
_publ_section_title
;
Structure prediction by ZEFSAII (Michael W. Deem and Ramdas Pophale) SiO2 
 PCOD9392421
Probable space group: P C C M
;
_chemical_formula_sum "Si O2"
_cell_formula_units_Z 30
_cell_length_a 8.583355
_cell_length_b 5.425154
_cell_length_c 31.672079
_cell_angle_alpha 90.000000
_cell_angle_beta 90.000000
_cell_angle_gamma 90.000000
_cell_volume 1474.842750
_symmetry_space_group_name_H-M "P C C M"
_symmetry_group_IT_number 49
_symmetry_cell_setting 'orthorhombic'
loop_
_space_group_symop_operation_xyz
x,y,z
-x,-y,z
x,-y,1/2-z
-x,y,1/2-z
-x,-y,-z
x,y,-z
-x,y,1/2+z
x,-y,1/2+z
loop_
_atom_site_type_symbol
_atom_site_label
_atom_site_fract_x
_atom_site_fract_y
_atom_site_fract_z
Si Si1 0.000000 0.500000 0.750000
Si Si2 0.310594 0.748260 0.093610
Si Si3 0.396149 0.250327 0.500000
Si Si4 0.334780 0.752828 0.371655
Si Si5 0.293961 0.255023 0.775092
O O1 0.890120 0.678115 0.777490
O O2 0.250999 0.497865 0.114540
O O3 0.496737 0.750471 0.105158
O O4 0.249353 0.999684 0.113769
O O5 0.299747 0.747971 0.043291
O O6 0.500000 0.500000 0.500000
O O7 0.500000 0.000000 0.500000
O O8 0.362070 0.758600 0.321700
O O9 0.346558 0.500000 0.750000
O O10 0.317756 0.000000 0.750000
#
# Coordination Sequence:
#
# PCOD9392421 Si02
#       5
#     2   8   4   8   8
#     4   8  22  36  54  70  86 122 162 212 258 278
#     4  10  19  30  45  71 103 132 159 194 223 285
#     4  12  16  30  46  66 100 138 165 188 235 262
#     4  10  18  31  46  68  98 128 162 198 229 278
#     4  10  20  35  52  68  92 125 160 206 246 287
#
# _framework density 20.341149999999999
#
# number of rings (size 3 to 8) (size 9 to 14) (size 15 to 20)
#    0.800    1.067    5.333    2.000    0.000    0.000 
#    0.000   16.000    0.000    0.000    0.000    0.000 
#    0.000   11.733    0.000    0.000    0.000    0.000 
#
# Total GULP energy -167148.975013 kJ/mol
# GULP energy per Si atom -5571.632500 kJ/mol
# Density = 2.029485 g / cm^3
# Si number density = 20.341150 Si / 1000 Ang^3
#
#
#
# Elastic Constant Matrix: (Units=GPa)
#
#
# Indices 1 2 3 4 5 6 
#
# 1 29.3294 -9.9668 -6.4515 0.0000 0.0000 0.0000
# 2 -9.9668 248.5393 75.5179 0.0000 0.0000 0.0000
# 3 -6.4515 75.5179 187.6058 0.0000 0.0000 0.0000
# 4 0.0000 0.0000 0.0000 37.1625 0.0000 0.0000
# 5 0.0000 0.0000 0.0000 0.0000 -2.5393 0.0000
# 6 0.0000 0.0000 0.0000 0.0000 0.0000 118.9864
#
#
#
# Elastic Compliance Matrix: (Units=1/GPa)
#
#
# Indices 1 2 3 4 5 6 
#
# 1 0.034652 0.001171 0.000720 0.000000 0.000000 0.000000
# 2 0.001171 0.004624 -0.001821 0.000000 0.000000 0.000000
# 3 0.000720 -0.001821 0.006088 0.000000 0.000000 0.000000
# 4 0.000000 0.000000 0.000000 0.026909 0.000000 0.000000
# 5 0.000000 0.000000 0.000000 0.000000 -0.393804 0.000000
# 6 0.000000 0.000000 0.000000 0.000000 0.000000 0.008404
#
#
# Mechanical properties :
#
#
# Convention : Reuss Voigt Hill
#
# Bulk Modulus (GPa) = 21.97615 64.85264 43.41440
# Shear Modulus (GPa) = -16.77291 57.81358 20.52033
#
# Velocity S-wave (km/s) = -2.87467 5.33701 3.17962
# Velocity P-wave (km/s) = 0.43707 8.36241 5.90504
#
# Compressibility (1/GPa) = 0.04550388
#
# Stress axis : x y z
#
# Youngs Moduli (GPa) = 28.85853 216.27470 164.25491
#
# Poissons Ratio (x) = -0.25319 -0.11832
# Poissons Ratio (y) = -0.03378 0.29910
# Poissons Ratio (z) = -0.02079 0.39383
#
# Static dielectric constant tensor:
#      x y z
#    x 1.771210 0.000000 0.000000 
#    y 0.000000 1.548620 0.000000 
#    z 0.000000 0.000000 1.642220 
# 
# From -- ./inp_files/23827.got.cif
#   From: 2010.05.17/outbox.cif.g08.bks.cpg/sg49_12_cif.got.tgz:23827.got - 2010.06.03 21:02:19.
