data_PCOD9392315
_publ_section_title
;
Structure prediction by ZEFSAII (Michael W. Deem and Ramdas Pophale) SiO2 
 PCOD9392315
Probable space group: P C C M
;
_chemical_formula_sum "Si O2"
_cell_formula_units_Z 56
_cell_length_a 19.096920
_cell_length_b 21.792835
_cell_length_c 8.595767
_cell_angle_alpha 90.000000
_cell_angle_beta 90.000000
_cell_angle_gamma 90.000000
_cell_volume 3577.352155
_symmetry_space_group_name_H-M "P C C M"
_symmetry_group_IT_number 49
_symmetry_cell_setting 'orthorhombic'
loop_
_space_group_symop_operation_xyz
x,y,z
-x,-y,z
x,-y,1/2-z
-x,y,1/2-z
-x,-y,-z
x,y,-z
-x,y,1/2+z
x,-y,1/2+z
loop_
_atom_site_type_symbol
_atom_site_label
_atom_site_fract_x
_atom_site_fract_y
_atom_site_fract_z
Si Si1 0.078014 0.307167 0.688071
Si Si2 0.423848 0.685820 0.684741
Si Si3 0.717204 0.257955 0.684901
Si Si4 0.652421 0.565058 0.687164
Si Si5 0.078270 0.934118 0.815147
Si Si6 0.152400 0.815869 0.314906
Si Si7 0.209456 0.623920 0.182875
O O1 0.078285 0.305453 0.500000
O O2 0.108903 0.242490 0.749951
O O3 0.131480 0.361266 0.742638
O O4 0.000000 0.315779 0.750000
O O5 0.500000 0.699656 0.750000
O O6 0.428424 0.678139 0.500000
O O7 0.365242 0.738101 0.716920
O O8 0.393680 0.622261 0.754732
O O9 0.726344 0.273293 0.500000
O O10 0.765431 0.198996 0.713111
O O11 0.751391 0.311511 0.787648
O O12 0.626926 0.500000 0.750000
O O13 0.652265 0.565200 0.500000
O O14 0.732947 0.576262 0.745670
O O15 0.126267 0.878019 0.762096
O O16 0.000000 0.923303 0.750000
O O17 0.102021 0.000000 0.750000
O O18 0.074549 0.937216 0.000000
O O19 0.140810 0.819086 0.500000
O O20 0.202587 0.611412 0.000000
#
# Coordination Sequence:
#
# PCOD9392315 Si02
#       7
#     8   8   8   8   8   8   8
#     4  10  18  28  42  63  86 110 140 179 222 265
#     4  10  19  32  48  69  94 120 144 173 212 257
#     4   8  16  29  46  65  87 113 144 177 214 256
#     4  10  19  32  48  66  85 111 144 179 214 257
#     4  11  21  33  46  63  89 124 160 194 227 262
#     4  10  18  30  46  65  88 117 150 185 219 258
#     4   8  16  29  44  60  82 108 138 175 218 260
#
# _framework density 15.654037000000001
#
# number of rings (size 3 to 8) (size 9 to 14) (size 15 to 20)
#    0.000    2.429    0.000    3.857    0.000    2.571 
#    0.000    1.429    0.000    0.429    0.000    3.000 
#    0.000    0.571    0.000    6.571    0.000    2.000 
#
# Total GULP energy -311838.288422 kJ/mol
# GULP energy per Si atom -5568.540865 kJ/mol
# Density = 1.561841 g / cm^3
# Si number density = 15.654037 Si / 1000 Ang^3
#
#
#
# Elastic Constant Matrix: (Units=GPa)
#
#
# Indices 1 2 3 4 5 6 
#
# 1 112.0231 17.3185 26.8020 0.0000 0.0000 0.0000
# 2 17.3185 30.9597 13.7992 0.0000 0.0000 0.0000
# 3 26.8020 13.7992 61.1472 0.0000 0.0000 0.0000
# 4 0.0000 0.0000 0.0000 14.9060 0.0000 0.0000
# 5 0.0000 0.0000 0.0000 0.0000 17.9926 0.0000
# 6 0.0000 0.0000 0.0000 0.0000 0.0000 14.4160
#
#
#
# Elastic Compliance Matrix: (Units=1/GPa)
#
#
# Indices 1 2 3 4 5 6 
#
# 1 0.010448 -0.004229 -0.003625 0.000000 0.000000 0.000000
# 2 -0.004229 0.037624 -0.006637 0.000000 0.000000 0.000000
# 3 -0.003625 -0.006637 0.019441 0.000000 0.000000 0.000000
# 4 0.000000 0.000000 0.000000 0.067087 0.000000 0.000000
# 5 0.000000 0.000000 0.000000 0.000000 0.055578 0.000000
# 6 0.000000 0.000000 0.000000 0.000000 0.000000 0.069367
#
#
# Mechanical properties :
#
#
# Convention : Reuss Voigt Hill
#
# Bulk Modulus (GPa) = 25.95348 35.55215 30.75281
# Shear Modulus (GPa) = 16.59086 19.21027 17.90057
#
# Velocity S-wave (km/s) = 3.25906 3.50691 3.38525
# Velocity P-wave (km/s) = 5.54773 6.25766 5.91336
#
# Compressibility (1/GPa) = 0.03853048
#
# Stress axis : x y z
#
# Youngs Moduli (GPa) = 95.71397 26.57894 51.43817
#
# Poissons Ratio (x) = 0.11239 0.18647
# Poissons Ratio (y) = 0.40473 0.34140
# Poissons Ratio (z) = 0.34698 0.17641
#
# Static dielectric constant tensor:
#      x y z
#    x 1.558840 0.000000 0.000000 
#    y 0.000000 1.500110 0.000000 
#    z 0.000000 0.000000 1.536160 
# 
# From -- ./inp_files/5210.got.cif
#   From: 2010.05.17/outbox.cif.g08.bks.cpg/sg49_3_cif.got.tgz:5210.got - 2010.06.03 21:02:19.
