data_PCOD9392632
_publ_section_title
;
Structure prediction by ZEFSAII (Michael W. Deem and Ramdas Pophale) SiO2 
 PCOD9392632
Probable space group: P C C M
;
_chemical_formula_sum "Si O2"
_cell_formula_units_Z 64
_cell_length_a 24.156034
_cell_length_b 19.655218
_cell_length_c 8.714151
_cell_angle_alpha 90.000000
_cell_angle_beta 90.000000
_cell_angle_gamma 90.000000
_cell_volume 4137.410177
_symmetry_space_group_name_H-M "P C C M"
_symmetry_group_IT_number 49
_symmetry_cell_setting 'orthorhombic'
loop_
_space_group_symop_operation_xyz
x,y,z
-x,-y,z
x,-y,1/2-z
-x,y,1/2-z
-x,-y,-z
x,y,-z
-x,y,1/2+z
x,-y,1/2+z
loop_
_atom_site_type_symbol
_atom_site_label
_atom_site_fract_x
_atom_site_fract_y
_atom_site_fract_z
Si Si1 0.835271 0.794334 0.186537
Si Si2 0.339227 0.843889 0.315018
Si Si3 0.060166 0.291623 0.184605
Si Si4 0.439365 0.074177 0.682943
Si Si5 0.114245 0.426908 0.684268
Si Si6 0.244385 0.427571 0.682810
Si Si7 0.274170 0.711631 0.684811
Si Si8 0.772492 0.074821 0.684660
O O1 0.893339 0.762875 0.235869
O O2 0.784647 0.745033 0.232847
O O3 0.818496 0.870188 0.236383
O O4 0.835084 0.794783 0.000000
O O5 0.345625 0.846638 0.500000
O O6 0.393860 0.871691 0.235545
O O7 0.320574 0.767292 0.273395
O O8 0.287159 0.892565 0.274540
O O9 0.080104 0.365012 0.245102
O O10 0.000000 0.275760 0.250000
O O11 0.058725 0.292906 0.000000
O O12 0.500000 0.090174 0.750000
O O13 0.442318 0.069688 0.500000
O O14 0.423518 0.000000 0.750000
O O15 0.096368 0.500000 0.750000
O O16 0.109807 0.426594 0.500000
O O17 0.179342 0.418461 0.726935
O O18 0.262568 0.500000 0.750000
O O19 0.247006 0.429898 0.500000
O O20 0.277548 0.362878 0.744876
O O21 0.273636 0.706505 0.500000
O O22 0.774253 0.071618 0.500000
O O23 0.779295 0.000000 0.750000
#
# Coordination Sequence:
#
# PCOD9392632 Si02
#       8
#     8   8   8   8   8   8   8   8
#     4   8  16  31  49  65  87 118 147 178 225 282
#     4   9  18  31  48  71 100 129 161 197 236 281
#     4  11  21  34  51  67  87 114 148 188 230 279
#     4  11  21  33  49  68  97 135 175 209 240 278
#     4  10  20  33  48  68  91 118 151 187 225 270
#     4  10  19  29  45  68  95 124 156 192 229 279
#     4   9  16  30  50  69  92 124 157 191 235 283
#     4   9  17  30  48  71  94 119 149 184 229 277
#
# _framework density 15.468614000000001
#
# number of rings (size 3 to 8) (size 9 to 14) (size 15 to 20)
#    0.000    2.375    1.250    4.500    0.000    3.250 
#    0.000    4.375    0.000    0.375    0.000    2.625 
#    0.000    0.500    0.000    5.250    0.000    2.250 
#
# Total GULP energy -356945.864638 kJ/mol
# GULP energy per Si atom -5577.279135 kJ/mol
# Density = 1.543341 g / cm^3
# Si number density = 15.468614 Si / 1000 Ang^3
#
#
#
# Elastic Constant Matrix: (Units=GPa)
#
#
# Indices 1 2 3 4 5 6 
#
# 1 86.6756 64.3894 36.0949 0.0000 0.0000 0.0000
# 2 64.3894 140.0538 37.9292 0.0000 0.0000 0.0000
# 3 36.0949 37.9292 44.9975 0.0000 0.0000 0.0000
# 4 0.0000 0.0000 0.0000 25.8949 0.0000 0.0000
# 5 0.0000 0.0000 0.0000 0.0000 30.9038 0.0000
# 6 0.0000 0.0000 0.0000 0.0000 0.0000 24.8177
#
#
#
# Elastic Compliance Matrix: (Units=1/GPa)
#
#
# Indices 1 2 3 4 5 6 
#
# 1 0.021255 -0.006679 -0.011419 0.000000 0.000000 0.000000
# 2 -0.006679 0.011351 -0.004210 0.000000 0.000000 0.000000
# 3 -0.011419 -0.004210 0.034933 0.000000 0.000000 0.000000
# 4 0.000000 0.000000 0.000000 0.038618 0.000000 0.000000
# 5 0.000000 0.000000 0.000000 0.000000 0.032358 0.000000
# 6 0.000000 0.000000 0.000000 0.000000 0.000000 0.040294
#
#
# Mechanical properties :
#
#
# Convention : Reuss Voigt Hill
#
# Bulk Modulus (GPa) = 43.62935 60.95044 52.28989
# Shear Modulus (GPa) = 21.63885 25.21085 23.42485
#
# Velocity S-wave (km/s) = 3.74423 4.04147 3.89568
# Velocity P-wave (km/s) = 6.85264 7.82727 7.35611
#
# Compressibility (1/GPa) = 0.02292035
#
# Stress axis : x y z
#
# Youngs Moduli (GPa) = 47.04876 88.09746 28.62661
#
# Poissons Ratio (x) = 0.58841 0.32690
# Poissons Ratio (y) = 0.31424 0.12053
# Poissons Ratio (z) = 0.53727 0.37092
#
# Static dielectric constant tensor:
#      x y z
#    x 1.503970 0.000000 0.000000 
#    y 0.000000 1.511020 0.000000 
#    z 0.000000 0.000000 1.519230 
# 
# From -- ./inp_files/6612.got.cif
#   From: 2010.05.17/outbox.cif.g08.bks.cpg/sg49_4_cif.got.tgz:6612.got - 2010.06.03 21:02:19.
