data_PCOD9392601
_publ_section_title
;
Structure prediction by ZEFSAII (Michael W. Deem and Ramdas Pophale) SiO2 
 PCOD9392601
Probable space group: P C C M
;
_chemical_formula_sum "Si O2"
_cell_formula_units_Z 56
_cell_length_a 18.078137
_cell_length_b 24.208140
_cell_length_c 8.770223
_cell_angle_alpha 90.000000
_cell_angle_beta 90.000000
_cell_angle_gamma 90.000000
_cell_volume 3838.183480
_symmetry_space_group_name_H-M "P C C M"
_symmetry_group_IT_number 49
_symmetry_cell_setting 'orthorhombic'
loop_
_space_group_symop_operation_xyz
x,y,z
-x,-y,z
x,-y,1/2-z
-x,y,1/2-z
-x,-y,-z
x,y,-z
-x,y,1/2+z
x,-y,1/2+z
loop_
_atom_site_type_symbol
_atom_site_label
_atom_site_fract_x
_atom_site_fract_y
_atom_site_fract_z
Si Si1 0.325689 0.060119 0.319798
Si Si2 0.416463 0.679747 0.818253
Si Si3 0.305198 0.233587 0.173297
Si Si4 0.582631 0.444981 0.181878
Si Si5 0.917074 0.058833 0.816203
Si Si6 0.799220 0.860451 0.183997
Si Si7 0.429384 0.860455 0.328037
O O1 0.313567 0.059736 0.500000
O O2 0.263372 0.096619 0.238100
O O3 0.402443 0.089447 0.276306
O O4 0.323728 0.000000 0.250000
O O5 0.500000 0.688995 0.750000
O O6 0.350800 0.720083 0.763601
O O7 0.390852 0.616846 0.781076
O O8 0.424867 0.684614 0.000000
O O9 0.231439 0.200791 0.230070
O O10 0.364770 0.184132 0.165968
O O11 0.291162 0.252979 0.000000
O O12 0.620179 0.500000 0.250000
O O13 0.500000 0.444599 0.250000
O O14 0.579597 0.450649 0.000000
O O15 0.871699 0.112212 0.758339
O O16 0.000000 0.062593 0.750000
O O17 0.886367 0.000000 0.750000
O O18 0.917031 0.056032 0.000000
O O19 0.804909 0.860521 0.000000
O O20 0.500000 0.833719 0.250000
O O21 0.444471 0.878883 0.500000
#
# Coordination Sequence:
#
# PCOD9392601 Si02
#       7
#     8   8   8   8   8   8   8
#     4  11  21  33  47  62  78 100 128 160 200 246
#     4  10  19  28  41  60  83 109 144 184 222 259
#     4   9  19  32  46  61  80 106 137 170 207 247
#     4   9  16  25  37  55  77 105 137 176 219 260
#     4  11  21  34  52  74  96 117 139 167 203 246
#     4  10  20  35  50  66  87 110 136 167 201 244
#     4  10  20  33  45  59  76  97 127 166 207 248
#
# _framework density 14.590235
#
# number of rings (size 3 to 8) (size 9 to 14) (size 15 to 20)
#    0.000    2.000    0.000    6.857    0.000    6.571 
#    0.000    1.429    0.000    0.000    0.000    0.000 
#    0.000    0.000    0.000    0.000    0.000    0.714 
#
# Total GULP energy -311788.695572 kJ/mol
# GULP energy per Si atom -5567.655278 kJ/mol
# Density = 1.455703 g / cm^3
# Si number density = 14.590235 Si / 1000 Ang^3
#
#
#
# Elastic Constant Matrix: (Units=GPa)
#
#
# Indices 1 2 3 4 5 6 
#
# 1 46.7878 27.2149 22.4838 0.0000 0.0000 0.0000
# 2 27.2149 105.6754 45.4303 0.0000 0.0000 0.0000
# 3 22.4838 45.4303 76.4328 0.0000 0.0000 0.0000
# 4 0.0000 0.0000 0.0000 -3.5666 0.0000 0.0000
# 5 0.0000 0.0000 0.0000 0.0000 19.3393 0.0000
# 6 0.0000 0.0000 0.0000 0.0000 0.0000 8.3644
#
#
#
# Elastic Compliance Matrix: (Units=1/GPa)
#
#
# Indices 1 2 3 4 5 6 
#
# 1 0.026500 -0.004666 -0.005022 0.000000 0.000000 0.000000
# 2 -0.004666 0.013532 -0.006671 0.000000 0.000000 0.000000
# 3 -0.005022 -0.006671 0.018526 0.000000 0.000000 0.000000
# 4 0.000000 0.000000 0.000000 -0.280381 0.000000 0.000000
# 5 0.000000 0.000000 0.000000 0.000000 0.051708 0.000000
# 6 0.000000 0.000000 0.000000 0.000000 0.000000 0.119554
#
#
# Mechanical properties :
#
#
# Convention : Reuss Voigt Hill
#
# Bulk Modulus (GPa) = 38.69836 46.57267 42.63551
# Shear Modulus (GPa) = -541.77277 13.74522 -264.01378
#
# Velocity S-wave (km/s) = -19.29072 3.07267 -13.46645
# Velocity P-wave (km/s) = 21.67013 6.67668 14.57766
#
# Compressibility (1/GPa) = 0.02584089
#
# Stress axis : x y z
#
# Youngs Moduli (GPa) = 37.73525 73.89696 53.97858
#
# Poissons Ratio (x) = 0.34477 0.27110
# Poissons Ratio (y) = 0.17606 0.36009
# Poissons Ratio (z) = 0.18952 0.49296
#
# Static dielectric constant tensor:
#      x y z
#    x 1.507540 0.000000 0.000000 
#    y 0.000000 1.519250 0.000000 
#    z 0.000000 0.000000 1.503830 
# 
# From -- ./inp_files/5360.got.cif
#   From: 2010.05.17/outbox.cif.g08.bks.cpg/sg49_3_cif.got.tgz:5360.got - 2010.06.03 21:02:19.
