data_PCOD9392689
_publ_section_title
;
Structure prediction by ZEFSAII (Michael W. Deem and Ramdas Pophale) SiO2 
 PCOD9392689
Probable space group: P C C M
;
_chemical_formula_sum "Si O2"
_cell_formula_units_Z 64
_cell_length_a 15.362976
_cell_length_b 25.183261
_cell_length_c 8.926069
_cell_angle_alpha 90.000000
_cell_angle_beta 90.000000
_cell_angle_gamma 90.000000
_cell_volume 3453.405357
_symmetry_space_group_name_H-M "P C C M"
_symmetry_group_IT_number 49
_symmetry_cell_setting 'orthorhombic'
loop_
_space_group_symop_operation_xyz
x,y,z
-x,-y,z
x,-y,1/2-z
-x,y,1/2-z
-x,-y,-z
x,y,-z
-x,y,1/2+z
x,-y,1/2+z
loop_
_atom_site_type_symbol
_atom_site_label
_atom_site_fract_x
_atom_site_fract_y
_atom_site_fract_z
Si Si1 0.721809 0.141961 0.819846
Si Si2 0.909871 0.181837 0.820541
Si Si3 0.587076 0.765848 0.676586
Si Si4 0.847925 0.298645 0.174478
Si Si5 0.273084 0.554134 0.320640
Si Si6 0.089408 0.583539 0.174005
Si Si7 0.592154 0.941502 0.819839
Si Si8 0.330048 0.668635 0.677104
O O1 0.822281 0.150531 0.775947
O O2 0.669291 0.196541 0.790210
O O3 0.669923 0.096387 0.733610
O O4 0.717862 0.132576 0.000000
O O5 0.894464 0.244097 0.782334
O O6 0.000000 0.163204 0.750000
O O7 0.916232 0.178790 0.000000
O O8 0.500000 0.788316 0.750000
O O9 0.575911 0.764000 0.500000
O O10 0.604395 0.707283 0.739344
O O11 0.904990 0.351998 0.180194
O O12 0.765391 0.309790 0.278222
O O13 0.818175 0.292624 0.000000
O O14 0.307550 0.500000 0.250000
O O15 0.269590 0.550815 0.500000
O O16 0.175373 0.563030 0.257664
O O17 0.327722 0.606706 0.278807
O O18 0.000000 0.566133 0.250000
O O19 0.092845 0.567678 0.000000
O O20 0.500000 0.922404 0.750000
O O21 0.605615 0.000000 0.750000
O O22 0.585953 0.943848 0.000000
O O23 0.343385 0.672464 0.500000
#
# Coordination Sequence:
#
# PCOD9392689 Si02
#       8
#     8   8   8   8   8   8   8   8
#     4  10  21  38  58  84 122 160 197 241 285 334
#     4  10  20  34  52  78 113 154 198 241 285 333
#     4  11  22  37  58  85 119 153 186 224 279 341
#     4   9  17  32  50  71 102 143 184 225 276 328
#     4  10  21  36  53  73  96 128 174 222 274 334
#     4  10  19  30  47  69  98 131 171 220 275 334
#     4  11  22  38  62  91 123 159 200 241 290 344
#     4  10  20  34  54  79 107 138 177 223 273 334
#
# _framework density 18.532432
#
# number of rings (size 3 to 8) (size 9 to 14) (size 15 to 20)
#    0.000    1.875    1.250    3.750    0.000    5.250 
#    0.000    1.250    0.000    0.750    0.000    5.250 
#    0.000    0.000    0.000    0.000    0.000    0.000 
#
# Total GULP energy -357400.211846 kJ/mol
# GULP energy per Si atom -5584.378310 kJ/mol
# Density = 1.849025 g / cm^3
# Si number density = 18.532432 Si / 1000 Ang^3
#
#
#
# Elastic Constant Matrix: (Units=GPa)
#
#
# Indices 1 2 3 4 5 6 
#
# 1 105.8065 48.5353 43.4680 0.0000 0.0000 0.0000
# 2 48.5353 98.9357 48.2170 0.0000 0.0000 0.0000
# 3 43.4680 48.2170 69.0609 0.0000 0.0000 0.0000
# 4 0.0000 0.0000 0.0000 -63.1054 0.0000 0.0000
# 5 0.0000 0.0000 0.0000 0.0000 29.9877 0.0000
# 6 0.0000 0.0000 0.0000 0.0000 0.0000 7.6186
#
#
#
# Elastic Compliance Matrix: (Units=1/GPa)
#
#
# Indices 1 2 3 4 5 6 
#
# 1 0.013628 -0.003797 -0.005926 0.000000 0.000000 0.000000
# 2 -0.003797 0.016379 -0.009045 0.000000 0.000000 0.000000
# 3 -0.005926 -0.009045 0.024525 0.000000 0.000000 0.000000
# 4 0.000000 0.000000 0.000000 -0.015847 0.000000 0.000000
# 5 0.000000 0.000000 0.000000 0.000000 0.033347 0.000000
# 6 0.000000 0.000000 0.000000 0.000000 0.000000 0.131257
#
#
# Mechanical properties :
#
#
# Convention : Reuss Voigt Hill
#
# Bulk Modulus (GPa) = 58.84394 61.58263 60.21328
# Shear Modulus (GPa) = 20.28463 3.80572 12.04517
#
# Velocity S-wave (km/s) = 3.31198 1.43457 2.55218
# Velocity P-wave (km/s) = 6.81516 6.00381 6.42231
#
# Compressibility (1/GPa) = 0.01699410
#
# Stress axis : x y z
#
# Youngs Moduli (GPa) = 73.37965 61.05508 40.77406
#
# Poissons Ratio (x) = 0.23184 0.24164
# Poissons Ratio (y) = 0.27863 0.36881
# Poissons Ratio (z) = 0.43488 0.55226
#
# Static dielectric constant tensor:
#      x y z
#    x 1.636920 0.000000 0.000000 
#    y 0.000000 1.657330 0.000000 
#    z 0.000000 0.000000 1.620570 
# 
# From -- ./inp_files/4312.got.cif
#   From: 2010.05.17/outbox.cif.g08.bks.cpg/sg49_3_cif.got.tgz:4312.got - 2010.06.03 21:02:19.
