data_PCOD9392743
_publ_section_title
;
Structure prediction by ZEFSAII (Michael W. Deem and Ramdas Pophale) SiO2 
 PCOD9392743
Probable space group: P C C M
;
_chemical_formula_sum "Si O2"
_cell_formula_units_Z 56
_cell_length_a 15.409450
_cell_length_b 20.402212
_cell_length_c 8.836738
_cell_angle_alpha 90.000000
_cell_angle_beta 90.000000
_cell_angle_gamma 90.000000
_cell_volume 2778.154363
_symmetry_space_group_name_H-M "P C C M"
_symmetry_group_IT_number 49
_symmetry_cell_setting 'orthorhombic'
loop_
_space_group_symop_operation_xyz
x,y,z
-x,-y,z
x,-y,1/2-z
-x,y,1/2-z
-x,-y,-z
x,y,-z
-x,y,1/2+z
x,-y,1/2+z
loop_
_atom_site_type_symbol
_atom_site_label
_atom_site_fract_x
_atom_site_fract_y
_atom_site_fract_z
Si Si1 0.329111 0.790194 0.821805
Si Si2 0.908919 0.390932 0.678798
Si Si3 0.725546 0.066763 0.180612
Si Si4 0.152414 0.755247 0.327162
Si Si5 0.591189 0.331275 0.679528
Si Si6 0.272317 0.431323 0.680857
Si Si7 0.910274 0.099618 0.675316
O O1 0.325378 0.866696 0.777462
O O2 0.231853 0.763833 0.787485
O O3 0.391774 0.743925 0.726924
O O4 0.347931 0.784365 0.000000
O O5 0.905359 0.405991 0.500000
O O6 0.898188 0.312057 0.696665
O O7 0.826105 0.420847 0.762805
O O8 0.000000 0.411719 0.750000
O O9 0.823896 0.075205 0.241393
O O10 0.689341 0.000000 0.250000
O O11 0.727787 0.062882 0.000000
O O12 0.188478 0.752873 0.500000
O O13 0.095764 0.820937 0.317678
O O14 0.500000 0.352863 0.750000
O O15 0.591346 0.338531 0.500000
O O16 0.668420 0.373750 0.751843
O O17 0.303592 0.500000 0.750000
O O18 0.276174 0.431582 0.500000
O O19 0.906737 0.079845 0.500000
O O20 0.000000 0.078394 0.750000
#
# Coordination Sequence:
#
# PCOD9392743 Si02
#       7
#     8   8   8   8   8   8   8
#     4  10  20  36  61  91 123 160 203 253 310 369
#     4  11  22  37  59  90 126 170 219 267 318 372
#     4  10  21  36  55  81 114 156 204 251 306 371
#     4   9  18  32  53  80 115 157 203 254 312 370
#     4  12  25  44  71 103 134 166 207 255 312 378
#     4  12  26  46  69  96 131 172 214 262 318 376
#     4  10  19  31  47  72 107 150 199 255 312 367
#
# _framework density 20.157267000000001
#
# number of rings (size 3 to 8) (size 9 to 14) (size 15 to 20)
#    0.000    1.429    1.429    4.714    0.000    3.714 
#    0.000    4.286    0.000    0.429    0.000    3.000 
#    0.000    0.000    0.000    0.000    0.000    0.000 
#
# Total GULP energy -313134.503510 kJ/mol
# GULP energy per Si atom -5591.687563 kJ/mol
# Density = 2.011139 g / cm^3
# Si number density = 20.157267 Si / 1000 Ang^3
#
#
#
# Elastic Constant Matrix: (Units=GPa)
#
#
# Indices 1 2 3 4 5 6 
#
# 1 77.8855 24.0023 41.7758 0.0000 0.0000 0.0000
# 2 24.0023 111.1522 54.5730 0.0000 0.0000 0.0000
# 3 41.7758 54.5730 134.9315 0.0000 0.0000 0.0000
# 4 0.0000 0.0000 0.0000 35.9682 0.0000 0.0000
# 5 0.0000 0.0000 0.0000 0.0000 29.0141 0.0000
# 6 0.0000 0.0000 0.0000 0.0000 0.0000 -3.6342
#
#
#
# Elastic Compliance Matrix: (Units=1/GPa)
#
#
# Indices 1 2 3 4 5 6 
#
# 1 0.015532 -0.001239 -0.004308 0.000000 0.000000 0.000000
# 2 -0.001239 0.011325 -0.004197 0.000000 0.000000 0.000000
# 3 -0.004308 -0.004197 0.010442 0.000000 0.000000 0.000000
# 4 0.000000 0.000000 0.000000 0.027802 0.000000 0.000000
# 5 0.000000 0.000000 0.000000 0.000000 0.034466 0.000000
# 6 0.000000 0.000000 0.000000 0.000000 0.000000 -0.275160
#
#
# Mechanical properties :
#
#
# Convention : Reuss Voigt Hill
#
# Bulk Modulus (GPa) = 56.14191 62.74126 59.44159
# Shear Modulus (GPa) = -33.29575 25.84417 -3.72579
#
# Velocity S-wave (km/s) = -4.06864 3.58456 -1.36102
# Velocity P-wave (km/s) = 2.41674 6.95166 5.20414
#
# Compressibility (1/GPa) = 0.01781200
#
# Stress axis : x y z
#
# Youngs Moduli (GPa) = 64.38455 88.30272 95.76541
#
# Poissons Ratio (x) = 0.10941 0.41252
# Poissons Ratio (y) = 0.07977 0.40190
# Poissons Ratio (z) = 0.27734 0.37058
#
# Static dielectric constant tensor:
#      x y z
#    x 1.685230 0.000000 0.000000 
#    y 0.000000 1.756410 0.000000 
#    z 0.000000 0.000000 1.680630 
# 
# From -- ./inp_files/4062.got.cif
#   From: 2010.05.17/outbox.cif.g08.bks.cpg/sg49_3_cif.got.tgz:4062.got - 2010.06.03 21:02:19.
