data_PCOD9392948
_publ_section_title
;
Structure prediction by ZEFSAII (Michael W. Deem and Ramdas Pophale) SiO2 
 PCOD9392948
Probable space group: P C C M
;
_chemical_formula_sum "Si O2"
_cell_formula_units_Z 58
_cell_length_a 14.815056
_cell_length_b 23.726619
_cell_length_c 9.235196
_cell_angle_alpha 90.000000
_cell_angle_beta 90.000000
_cell_angle_gamma 90.000000
_cell_volume 3246.274728
_symmetry_space_group_name_H-M "P C C M"
_symmetry_group_IT_number 49
_symmetry_cell_setting 'orthorhombic'
loop_
_space_group_symop_operation_xyz
x,y,z
-x,-y,z
x,-y,1/2-z
-x,y,1/2-z
-x,-y,-z
x,y,-z
-x,y,1/2+z
x,-y,1/2+z
loop_
_atom_site_type_symbol
_atom_site_label
_atom_site_fract_x
_atom_site_fract_y
_atom_site_fract_z
Si Si1 0.500000 0.500000 0.750000
Si Si2 0.085660 0.275862 0.171240
Si Si3 0.287337 0.321169 0.826973
Si Si4 0.322873 0.446904 0.163000
Si Si5 0.788211 0.058797 0.327294
Si Si6 0.413678 0.895135 0.671118
Si Si7 0.148089 0.833094 0.834819
Si Si8 0.352853 0.785940 0.835452
O O1 0.569893 0.539146 0.836210
O O2 0.181269 0.307118 0.193340
O O3 0.097536 0.214578 0.243996
O O4 0.000000 0.303485 0.250000
O O5 0.070075 0.271165 0.000000
O O6 0.306847 0.384718 0.776551
O O7 0.344920 0.274413 0.741852
O O8 0.306006 0.316942 0.000000
O O9 0.283343 0.500000 0.250000
O O10 0.288142 0.447272 0.000000
O O11 0.803755 0.057189 0.500000
O O12 0.681612 0.073403 0.304907
O O13 0.844688 0.108534 0.251335
O O14 0.807898 0.000000 0.250000
O O15 0.500000 0.921878 0.750000
O O16 0.429317 0.891934 0.500000
O O17 0.401806 0.832873 0.739302
O O18 0.250423 0.809410 0.843885
O O19 0.114596 0.839357 0.000000
O O20 0.388227 0.782577 0.000000
#
# Coordination Sequence:
#
# PCOD9392948 Si02
#       8
#     2   8   8   8   8   8   8   8
#     4   8  18  32  54  72 100 128 178 216 256 288
#     4  10  19  32  53  79 107 134 165 203 249 302
#     4   9  18  33  51  73 102 136 168 206 254 305
#     4   9  18  32  51  73 100 134 173 214 256 298
#     4  10  20  33  50  71  94 125 166 208 252 300
#     4  10  20  33  47  64  91 126 163 207 257 307
#     4   9  17  31  51  73  99 127 161 200 243 295
#     4   9  17  30  48  70  93 123 161 202 248 302
#
# _framework density 17.866633
#
# number of rings (size 3 to 8) (size 9 to 14) (size 15 to 20)
#    0.414    2.207    0.000    2.276    0.000    6.345 
#    1.241    1.379    0.000    0.828    0.000    5.793 
#    0.000    0.000    0.000    0.000    0.000    0.000 
#
# Total GULP energy -323101.952233 kJ/mol
# GULP energy per Si atom -5570.723314 kJ/mol
# Density = 1.782597 g / cm^3
# Si number density = 17.866633 Si / 1000 Ang^3
#
#
#
# Elastic Constant Matrix: (Units=GPa)
#
#
# Indices 1 2 3 4 5 6 
#
# 1 34.3569 2.0839 10.6848 0.0000 0.0000 0.0000
# 2 2.0839 125.3110 38.4861 0.0000 0.0000 0.0000
# 3 10.6848 38.4861 82.2740 0.0000 0.0000 0.0000
# 4 0.0000 0.0000 0.0000 26.8721 0.0000 0.0000
# 5 0.0000 0.0000 0.0000 0.0000 21.6216 0.0000
# 6 0.0000 0.0000 0.0000 0.0000 0.0000 10.5495
#
#
#
# Elastic Compliance Matrix: (Units=1/GPa)
#
#
# Indices 1 2 3 4 5 6 
#
# 1 0.030404 0.000826 -0.004335 0.000000 0.000000 0.000000
# 2 0.000826 0.009341 -0.004477 0.000000 0.000000 0.000000
# 3 -0.004335 -0.004477 0.014812 0.000000 0.000000 0.000000
# 4 0.000000 0.000000 0.000000 0.037213 0.000000 0.000000
# 5 0.000000 0.000000 0.000000 0.000000 0.046250 0.000000
# 6 0.000000 0.000000 0.000000 0.000000 0.000000 0.094791
#
#
# Mechanical properties :
#
#
# Convention : Reuss Voigt Hill
#
# Bulk Modulus (GPa) = 25.91665 38.27241 32.09453
# Shear Modulus (GPa) = 19.10983 24.52112 21.81547
#
# Velocity S-wave (km/s) = 3.27399 3.70868 3.49810
# Velocity P-wave (km/s) = 5.36928 6.30926 5.85815
#
# Compressibility (1/GPa) = 0.03858523
#
# Stress axis : x y z
#
# Youngs Moduli (GPa) = 32.89016 107.05043 67.51431
#
# Poissons Ratio (x) = -0.08839 0.29266
# Poissons Ratio (y) = -0.02716 0.30226
# Poissons Ratio (z) = 0.14257 0.47926
#
# Static dielectric constant tensor:
#      x y z
#    x 1.637860 0.000000 0.000000 
#    y 0.000000 1.594090 0.000000 
#    z 0.000000 0.000000 1.613010 
# 
# From -- ./inp_files/4253.got.cif
#   From: 2010.05.17/outbox.cif.g08.bks.cpg/sg49_3_cif.got.tgz:4253.got - 2010.06.03 21:02:19.
