data_PCOD9392286
_publ_section_title
;
Structure prediction by ZEFSAII (Michael W. Deem and Ramdas Pophale) SiO2 
 PCOD9392286
Probable space group: P C C M
;
_chemical_formula_sum "Si O2"
_cell_formula_units_Z 40
_cell_length_a 24.226994
_cell_length_b 7.886423
_cell_length_c 10.126178
_cell_angle_alpha 90.000000
_cell_angle_beta 90.000000
_cell_angle_gamma 90.000000
_cell_volume 1934.751341
_symmetry_space_group_name_H-M "P C C M"
_symmetry_group_IT_number 49
_symmetry_cell_setting 'orthorhombic'
loop_
_space_group_symop_operation_xyz
x,y,z
-x,-y,z
x,-y,1/2-z
-x,y,1/2-z
-x,-y,-z
x,y,-z
-x,y,1/2+z
x,-y,1/2+z
loop_
_atom_site_type_symbol
_atom_site_label
_atom_site_fract_x
_atom_site_fract_y
_atom_site_fract_z
Si Si1 0.265044 0.281536 0.500000
Si Si2 0.062350 0.798836 0.247988
Si Si3 0.671194 0.707067 0.239626
Si Si4 0.869995 0.686689 0.000000
Si Si5 0.746552 0.303120 0.500000
Si Si6 0.138095 0.286372 0.500000
Si Si7 0.550170 0.679014 0.165299
O O1 0.302092 0.232049 0.375122
O O2 0.258561 0.489185 0.500000
O O3 0.201311 0.219611 0.500000
O O4 0.094924 0.736609 0.374470
O O5 0.000000 0.726750 0.250000
O O6 0.057046 0.000000 0.250000
O O7 0.101123 0.760170 0.124839
O O8 0.670373 0.500000 0.250000
O O9 0.714047 0.755537 0.127447
O O10 0.609736 0.760034 0.195886
O O11 0.859017 0.488151 0.000000
O O12 0.808754 0.761497 0.000000
O O13 0.554106 0.500000 0.250000
O O14 0.500000 0.763437 0.250000
O O15 0.543083 0.662977 0.000000
#
# Coordination Sequence:
#
# PCOD9392286 Si02
#       7
#     4   8   8   4   4   4   8
#     4   9  18  28  45  67  93 126 160 225 270 324
#     4  11  24  41  59  82 115 152 186 225 282 351
#     4   9  16  25  39  56  85 122 164 212 271 319
#     4  11  22  36  61  85 110 147 184 245 282 324
#     4   9  16  30  43  67  93 120 168 213 274 322
#     4  11  22  38  59  87 114 139 196 239 284 334
#     4  10  18  24  34  51  79 120 175 228 262 309
#
# _framework density 20.674492999999998
#
# number of rings (size 3 to 8) (size 9 to 14) (size 15 to 20)
#    0.000    2.000    1.000    4.200    5.600    7.200 
#    0.000    0.000    0.000    0.000    0.000    0.000 
#    0.000    0.000    0.000    0.000    0.000   70.000 
#
# Total GULP energy -222775.114876 kJ/mol
# GULP energy per Si atom -5569.377872 kJ/mol
# Density = 2.062744 g / cm^3
# Si number density = 20.674493 Si / 1000 Ang^3
#
#
#
# Elastic Constant Matrix: (Units=GPa)
#
#
# Indices 1 2 3 4 5 6 
#
# 1 251.8009 8.8374 127.6356 0.0000 0.0000 0.0000
# 2 8.8374 20.0002 5.2868 0.0000 0.0000 0.0000
# 3 127.6356 5.2868 240.9450 0.0000 0.0000 0.0000
# 4 0.0000 0.0000 0.0000 14.6467 0.0000 0.0000
# 5 0.0000 0.0000 0.0000 0.0000 38.8596 0.0000
# 6 0.0000 0.0000 0.0000 0.0000 0.0000 3.2988
#
#
#
# Elastic Compliance Matrix: (Units=1/GPa)
#
#
# Indices 1 2 3 4 5 6 
#
# 1 0.005484 -0.001665 -0.002868 0.000000 0.000000 0.000000
# 2 -0.001665 0.050797 -0.000233 0.000000 0.000000 0.000000
# 3 -0.002868 -0.000233 0.005675 0.000000 0.000000 0.000000
# 4 0.000000 0.000000 0.000000 0.068275 0.000000 0.000000
# 5 0.000000 0.000000 0.000000 0.000000 0.025734 0.000000
# 6 0.000000 0.000000 0.000000 0.000000 0.000000 0.303141
#
#
# Mechanical properties :
#
#
# Convention : Reuss Voigt Hill
#
# Bulk Modulus (GPa) = 19.07541 88.47398 53.77469
# Shear Modulus (GPa) = 10.28571 36.09344 23.18957
#
# Velocity S-wave (km/s) = 2.23291 4.18280 3.35274
# Velocity P-wave (km/s) = 3.98678 8.13723 6.40737
#
# Compressibility (1/GPa) = 0.05242353
#
# Stress axis : x y z
#
# Youngs Moduli (GPa) = 182.35585 19.68633 176.21463
#
# Poissons Ratio (x) = 0.03278 0.50545
# Poissons Ratio (y) = 0.30360 0.04100
# Poissons Ratio (z) = 0.52307 0.00458
#
# Static dielectric constant tensor:
#      x y z
#    x 1.789590 0.000000 0.000000 
#    y 0.000000 1.761960 0.000000 
#    z 0.000000 0.000000 1.614550 
# 
# From -- ./inp_files/1806.got.cif
#   From: 2010.05.17/outbox.cif.g08.bks.cpg/sg49_1_cif.got.tgz:1806.got - 2010.06.03 21:02:19.
