data_PCOD9392316
_publ_section_title
;
Structure prediction by ZEFSAII (Michael W. Deem and Ramdas Pophale) SiO2 
 PCOD9392316
Probable space group: P C C M
;
_chemical_formula_sum "Si O2"
_cell_formula_units_Z 64
_cell_length_a 21.962796
_cell_length_b 19.023194
_cell_length_c 8.579150
_cell_angle_alpha 90.000000
_cell_angle_beta 90.000000
_cell_angle_gamma 90.000000
_cell_volume 3584.390567
_symmetry_space_group_name_H-M "P C C M"
_symmetry_group_IT_number 49
_symmetry_cell_setting 'orthorhombic'
loop_
_space_group_symop_operation_xyz
x,y,z
-x,-y,z
x,-y,1/2-z
-x,y,1/2-z
-x,-y,-z
x,y,-z
-x,y,1/2+z
x,-y,1/2+z
loop_
_atom_site_type_symbol
_atom_site_label
_atom_site_fract_x
_atom_site_fract_y
_atom_site_fract_z
Si Si1 0.931346 0.923641 0.186457
Si Si2 0.434948 0.622449 0.314130
Si Si3 0.608252 0.779493 0.186052
Si Si4 0.691882 0.574717 0.684972
Si Si5 0.166646 0.817459 0.186968
Si Si6 0.406313 0.925627 0.186141
Si Si7 0.260541 0.720021 0.686399
Si Si8 0.733539 0.071726 0.813460
O O1 0.891681 0.857132 0.243566
O O2 0.000000 0.916122 0.250000
O O3 0.909011 0.000000 0.250000
O O4 0.931295 0.926606 0.000000
O O5 0.500000 0.599792 0.250000
O O6 0.430345 0.612075 0.500000
O O7 0.425911 0.706115 0.283242
O O8 0.378979 0.584372 0.231035
O O9 0.575373 0.847620 0.259185
O O10 0.678434 0.763831 0.241771
O O11 0.610592 0.790381 0.000000
O O12 0.713121 0.500000 0.750000
O O13 0.698603 0.578169 0.500000
O O14 0.725515 0.640501 0.763836
O O15 0.195471 0.744667 0.245867
O O16 0.222465 0.867484 0.237687
O O17 0.161043 0.816483 0.000000
O O18 0.335683 0.924109 0.242816
O O19 0.431560 0.000000 0.250000
O O20 0.409873 0.928778 0.000000
O O21 0.259554 0.726271 0.500000
O O22 0.760076 0.000000 0.750000
O O23 0.731418 0.071128 0.000000
#
# Coordination Sequence:
#
# PCOD9392316 Si02
#       8
#     8   8   8   8   8   8   8   8
#     4  11  22  37  53  72 100 142 191 239 284 328
#     4  10  21  37  56  81 106 134 172 212 254 305
#     4   9  18  32  49  69  98 129 162 206 256 307
#     4  11  22  38  59  82 111 144 173 208 253 308
#     4  11  20  32  49  73 102 135 176 222 267 315
#     4  10  18  28  42  63  90 122 159 199 248 302
#     4  10  20  34  52  77 106 137 172 211 257 314
#     4   9  18  27  38  60  90 123 160 201 247 299
#
# _framework density 17.855197
#
# number of rings (size 3 to 8) (size 9 to 14) (size 15 to 20)
#    0.000    1.875    1.250    5.250    0.000    5.250 
#    0.000    1.250    0.000    0.375    0.000    2.625 
#    0.000    0.500    0.000    5.000    0.000    3.000 
#
# Total GULP energy -356987.754705 kJ/mol
# GULP energy per Si atom -5577.933667 kJ/mol
# Density = 1.781456 g / cm^3
# Si number density = 17.855197 Si / 1000 Ang^3
#
#
#
# Elastic Constant Matrix: (Units=GPa)
#
#
# Indices 1 2 3 4 5 6 
#
# 1 80.3563 21.7373 22.1426 0.0000 0.0000 0.0000
# 2 21.7373 94.4487 20.5831 0.0000 0.0000 0.0000
# 3 22.1426 20.5831 58.2055 0.0000 0.0000 0.0000
# 4 0.0000 0.0000 0.0000 28.1269 0.0000 0.0000
# 5 0.0000 0.0000 0.0000 0.0000 21.2358 0.0000
# 6 0.0000 0.0000 0.0000 0.0000 0.0000 -26.2172
#
#
#
# Elastic Compliance Matrix: (Units=1/GPa)
#
#
# Indices 1 2 3 4 5 6 
#
# 1 0.014344 -0.002288 -0.004648 0.000000 0.000000 0.000000
# 2 -0.002288 0.011837 -0.003315 0.000000 0.000000 0.000000
# 3 -0.004648 -0.003315 0.020121 0.000000 0.000000 0.000000
# 4 0.000000 0.000000 0.000000 0.035553 0.000000 0.000000
# 5 0.000000 0.000000 0.000000 0.000000 0.047090 0.000000
# 6 0.000000 0.000000 0.000000 0.000000 0.000000 -0.038143
#
#
# Mechanical properties :
#
#
# Convention : Reuss Voigt Hill
#
# Bulk Modulus (GPa) = 38.76054 40.21517 39.48786
# Shear Modulus (GPa) = 41.69958 15.86560 28.78259
#
# Velocity S-wave (km/s) = 4.83787 2.98412 4.01933
# Velocity P-wave (km/s) = 7.27750 5.86900 6.61087
#
# Compressibility (1/GPa) = 0.02579943
#
# Stress axis : x y z
#
# Youngs Moduli (GPa) = 69.71406 84.48128 49.69949
#
# Poissons Ratio (x) = 0.19333 0.23098
# Poissons Ratio (y) = 0.15954 0.16477
# Poissons Ratio (z) = 0.32400 0.28008
#
# Static dielectric constant tensor:
#      x y z
#    x 1.631490 0.000000 0.000000 
#    y 0.000000 1.677840 0.000000 
#    z 0.000000 0.000000 1.600920 
# 
# From -- ./inp_files/5972.got.cif
#   From: 2010.05.17/outbox.cif.g08.bks.cpg/sg49_3_cif.got.tgz:5972.got - 2010.06.03 21:02:19.
