data_PCOD9392323
_publ_section_title
;
Structure prediction by ZEFSAII (Michael W. Deem and Ramdas Pophale) SiO2 
 PCOD9392323
Probable space group: P C C M
;
_chemical_formula_sum "Si O2"
_cell_formula_units_Z 56
_cell_length_a 11.496913
_cell_length_b 13.216989
_cell_length_c 22.961536
_cell_angle_alpha 90.000000
_cell_angle_beta 90.000000
_cell_angle_gamma 90.000000
_cell_volume 3489.110390
_symmetry_space_group_name_H-M "P C C M"
_symmetry_group_IT_number 49
_symmetry_cell_setting 'orthorhombic'
loop_
_space_group_symop_operation_xyz
x,y,z
-x,-y,z
x,-y,1/2-z
-x,y,1/2-z
-x,-y,-z
x,y,-z
-x,y,1/2+z
x,-y,1/2+z
loop_
_atom_site_type_symbol
_atom_site_label
_atom_site_fract_x
_atom_site_fract_y
_atom_site_fract_z
Si Si1 0.141622 0.612671 0.930094
Si Si2 0.639092 0.387365 0.747280
Si Si3 0.501276 0.879158 0.820819
Si Si4 0.272909 0.761116 0.154048
Si Si5 0.133034 0.379681 0.069864
Si Si6 0.271248 0.238592 0.846141
Si Si7 0.861730 0.115521 0.752504
O O1 0.217768 0.699544 0.899372
O O2 0.170453 0.495307 0.913455
O O3 0.004668 0.628152 0.915720
O O4 0.153226 0.618976 0.000000
O O5 0.684436 0.500000 0.750000
O O6 0.500000 0.387931 0.750000
O O7 0.688615 0.324546 0.800515
O O8 0.678951 0.333928 0.688951
O O9 0.500000 0.854230 0.750000
O O10 0.388631 0.829636 0.851256
O O11 0.616384 0.833921 0.851124
O O12 0.500000 0.000000 0.824560
O O13 0.181237 0.831193 0.188482
O O14 0.204159 0.289134 0.100101
O O15 0.143873 0.373228 0.000000
O O16 0.186642 0.178066 0.802340
O O17 0.000000 0.113945 0.750000
O O18 0.816475 0.000000 0.750000
#
# Coordination Sequence:
#
# PCOD9392323 Si02
#       7
#     8   8   8   8   8   8   8
#     4   9  19  36  56  77 103 137 175 213 255 307
#     4  10  18  28  43  71 106 133 158 195 249 304
#     4  11  20  34  53  76 103 139 178 210 256 312
#     4  11  18  32  51  76 100 138 171 213 250 312
#     4   9  19  36  56  77 103 137 175 213 255 307
#     4  11  18  32  51  76 100 138 171 213 250 312
#     4  10  20  31  48  76 105 131 167 216 262 305
#
# _framework density 16.049937
#
# number of rings (size 3 to 8) (size 9 to 14) (size 15 to 20)
#    0.000    1.857    4.286    3.429    0.000    0.000 
#    0.000    0.714    0.000   12.857    0.000   10.000 
#    0.000    0.000    0.000    0.000    0.000    0.000 
#
# Total GULP energy -311969.056757 kJ/mol
# GULP energy per Si atom -5570.876014 kJ/mol
# Density = 1.601341 g / cm^3
# Si number density = 16.049937 Si / 1000 Ang^3
#
#
#
# Elastic Constant Matrix: (Units=GPa)
#
#
# Indices 1 2 3 4 5 6 
#
# 1 81.3973 40.5512 29.8439 0.0000 0.0000 0.0000
# 2 40.5512 115.3537 30.5510 0.0000 0.0000 0.0000
# 3 29.8439 30.5510 46.9141 0.0000 0.0000 0.0000
# 4 0.0000 0.0000 0.0000 29.0362 0.0000 0.0000
# 5 0.0000 0.0000 0.0000 0.0000 -0.4979 0.0000
# 6 0.0000 0.0000 0.0000 0.0000 0.0000 48.9382
#
#
#
# Elastic Compliance Matrix: (Units=1/GPa)
#
#
# Indices 1 2 3 4 5 6 
#
# 1 0.017319 -0.003831 -0.008522 0.000000 0.000000 0.000000
# 2 -0.003831 0.011323 -0.004937 0.000000 0.000000 0.000000
# 3 -0.008522 -0.004937 0.029952 0.000000 0.000000 0.000000
# 4 0.000000 0.000000 0.000000 0.034440 0.000000 0.000000
# 5 0.000000 0.000000 0.000000 0.000000 -2.008578 0.000000
# 6 0.000000 0.000000 0.000000 0.000000 0.000000 0.020434
#
#
# Mechanical properties :
#
#
# Convention : Reuss Voigt Hill
#
# Bulk Modulus (GPa) = 41.64316 49.50635 45.57475
# Shear Modulus (GPa) = -2.69902 25.00991 11.15545
#
# Velocity S-wave (km/s) = -1.29819 3.95176 2.63923
# Velocity P-wave (km/s) = 4.87394 7.19264 6.14367
#
# Compressibility (1/GPa) = 0.02401355
#
# Stress axis : x y z
#
# Youngs Moduli (GPa) = 57.74126 88.31400 33.38712
#
# Poissons Ratio (x) = 0.33834 0.28453
# Poissons Ratio (y) = 0.22121 0.16482
# Poissons Ratio (z) = 0.49208 0.43598
#
# Static dielectric constant tensor:
#      x y z
#    x 1.557280 0.000000 0.000000 
#    y 0.000000 1.508160 0.000000 
#    z 0.000000 0.000000 1.505450 
# 
# From -- ./inp_files/22954.got.cif
#   From: 2010.05.17/outbox.cif.g08.bks.cpg/sg49_12_cif.got.tgz:22954.got - 2010.06.03 21:02:19.
