data_PCOD9392027
_publ_section_title
;
Structure prediction by ZEFSAII (Michael W. Deem and Ramdas Pophale) SiO2 
 PCOD9392027
Probable space group: P C C M
;
_chemical_formula_sum "Si O2"
_cell_formula_units_Z 64
_cell_length_a 31.131682
_cell_length_b 15.799067
_cell_length_c 8.730690
_cell_angle_alpha 90.000000
_cell_angle_beta 90.000000
_cell_angle_gamma 90.000000
_cell_volume 4294.203232
_symmetry_space_group_name_H-M "P C C M"
_symmetry_group_IT_number 49
_symmetry_cell_setting 'orthorhombic'
loop_
_space_group_symop_operation_xyz
x,y,z
-x,-y,z
x,-y,1/2-z
-x,y,1/2-z
-x,-y,-z
x,y,-z
-x,y,1/2+z
x,-y,1/2+z
loop_
_atom_site_type_symbol
_atom_site_label
_atom_site_fract_x
_atom_site_fract_y
_atom_site_fract_z
Si Si1 0.208366 0.734011 0.316295
Si Si2 0.788073 0.912240 0.675719
Si Si3 0.047477 0.590773 0.817162
Si Si4 0.107455 0.088109 0.322973
Si Si5 0.632339 0.404060 0.815965
Si Si6 0.544193 0.403684 0.315837
Si Si7 0.891184 0.733029 0.183276
Si Si8 0.722046 0.405171 0.684953
O O1 0.208042 0.737789 0.500000
O O2 0.224349 0.824807 0.256454
O O3 0.158748 0.722045 0.267623
O O4 0.239043 0.656815 0.271244
O O5 0.774956 0.909656 0.500000
O O6 0.840325 0.914246 0.681735
O O7 0.772979 0.000000 0.750000
O O8 0.061565 0.500000 0.750000
O O9 0.079419 0.663739 0.763341
O O10 0.000000 0.607035 0.750000
O O11 0.045215 0.586006 0.000000
O O12 0.094521 0.094488 0.500000
O O13 0.095031 0.172337 0.231669
O O14 0.092225 0.000000 0.250000
O O15 0.633128 0.500000 0.750000
O O16 0.588595 0.364908 0.747611
O O17 0.677494 0.369220 0.754361
O O18 0.630869 0.405639 0.000000
O O19 0.544449 0.500000 0.250000
O O20 0.500000 0.365198 0.250000
O O21 0.543797 0.406043 0.500000
O O22 0.893629 0.724237 0.000000
O O23 0.728593 0.500000 0.750000
O O24 0.718635 0.409738 0.500000
#
# Coordination Sequence:
#
# PCOD9392027 Si02
#       8
#     8   8   8   8   8   8   8   8
#     4   9  19  32  46  65  91 118 148 182 218 256
#     4   9  16  26  43  64  88 114 143 177 216 257
#     4  11  22  38  57  76  95 118 147 181 219 263
#     4   9  16  27  44  69  96 124 151 178 211 252
#     4  10  17  26  38  52  70  98 135 174 214 258
#     4  10  16  23  34  50  70  92 122 166 215 259
#     4  10  19  33  51  73  97 121 147 181 219 258
#     4  10  19  31  43  57  79 112 149 185 219 256
#
# _framework density 14.903812
#
# number of rings (size 3 to 8) (size 9 to 14) (size 15 to 20)
#    0.000    2.250    0.000    7.125    0.000    5.000 
#    0.000    1.250    0.000    0.375    0.000    2.625 
#    0.000    0.000    0.000    0.000    0.000    0.625 
#
# Total GULP energy -356627.549895 kJ/mol
# GULP energy per Si atom -5572.305467 kJ/mol
# Density = 1.486989 g / cm^3
# Si number density = 14.903812 Si / 1000 Ang^3
#
#
#
# Elastic Constant Matrix: (Units=GPa)
#
#
# Indices 1 2 3 4 5 6 
#
# 1 66.7932 60.5648 39.9482 0.0000 0.0000 0.0000
# 2 60.5648 94.1679 42.5801 0.0000 0.0000 0.0000
# 3 39.9482 42.5801 103.7482 0.0000 0.0000 0.0000
# 4 0.0000 0.0000 0.0000 23.0532 0.0000 0.0000
# 5 0.0000 0.0000 0.0000 0.0000 25.7175 0.0000
# 6 0.0000 0.0000 0.0000 0.0000 0.0000 -1.3814
#
#
#
# Elastic Compliance Matrix: (Units=1/GPa)
#
#
# Indices 1 2 3 4 5 6 
#
# 1 0.038502 -0.022174 -0.005724 0.000000 0.000000 0.000000
# 2 -0.022174 0.025810 -0.002055 0.000000 0.000000 0.000000
# 3 -0.005724 -0.002055 0.012686 0.000000 0.000000 0.000000
# 4 0.000000 0.000000 0.000000 0.043378 0.000000 0.000000
# 5 0.000000 0.000000 0.000000 0.000000 0.038884 0.000000
# 6 0.000000 0.000000 0.000000 0.000000 0.000000 -0.723915
#
#
# Mechanical properties :
#
#
# Convention : Reuss Voigt Hill
#
# Bulk Modulus (GPa) = 58.50952 61.21063 59.86008
# Shear Modulus (GPa) = -10.01903 17.58560 3.78329
#
# Velocity S-wave (km/s) = -2.59558 3.43875 1.59499
# Velocity P-wave (km/s) = 5.51004 7.54495 6.60632
#
# Compressibility (1/GPa) = 0.01709123
#
# Stress axis : x y z
#
# Youngs Moduli (GPa) = 25.97269 38.74458 78.82605
#
# Poissons Ratio (x) = 0.85914 0.45123
# Poissons Ratio (y) = 0.57593 0.16196
# Poissons Ratio (z) = 0.14868 0.07961
#
# Static dielectric constant tensor:
#      x y z
#    x 1.530250 0.000000 0.000000 
#    y 0.000000 1.477240 0.000000 
#    z 0.000000 0.000000 1.499660 
# 
# From -- ./inp_files/7069.got.cif
#   From: 2010.05.17/outbox.cif.g08.bks.cpg/sg49_4_cif.got.tgz:7069.got - 2010.06.03 21:02:19.
