data_PCOD9392961
_publ_section_title
;
Structure prediction by ZEFSAII (Michael W. Deem and Ramdas Pophale) SiO2 
 PCOD9392961
Probable space group: P C C M
;
_chemical_formula_sum "Si O2"
_cell_formula_units_Z 56
_cell_length_a 28.369651
_cell_length_b 5.160694
_cell_length_c 19.515342
_cell_angle_alpha 90.000000
_cell_angle_beta 90.000000
_cell_angle_gamma 90.000000
_cell_volume 2857.184388
_symmetry_space_group_name_H-M "P C C M"
_symmetry_group_IT_number 49
_symmetry_cell_setting 'orthorhombic'
loop_
_space_group_symop_operation_xyz
x,y,z
-x,-y,z
x,-y,1/2-z
-x,y,1/2-z
-x,-y,-z
x,y,-z
-x,y,1/2+z
x,-y,1/2+z
loop_
_atom_site_type_symbol
_atom_site_label
_atom_site_fract_x
_atom_site_fract_y
_atom_site_fract_z
Si Si1 0.954846 0.643510 0.921879
Si Si2 0.712908 0.257986 0.795670
Si Si3 0.582149 0.329390 0.424339
Si Si4 0.107880 0.866196 0.920869
Si Si5 0.822923 0.254706 0.203365
Si Si6 0.645600 0.171734 0.922870
Si Si7 0.447483 0.749770 0.719847
O O1 0.928402 0.904448 0.897051
O O2 0.000000 0.500000 0.887822
O O3 0.917949 0.409975 0.924496
O O4 0.969995 0.713860 0.000000
O O5 0.696621 0.500000 0.750000
O O6 0.767968 0.305394 0.813320
O O7 0.682773 0.223017 0.863894
O O8 0.709887 0.000000 0.750000
O O9 0.560864 0.304280 0.500000
O O10 0.604012 0.614854 0.416722
O O11 0.548905 0.266689 0.361076
O O12 0.623457 0.114982 0.418441
O O13 0.148546 0.816118 0.865351
O O14 0.122411 0.933012 0.000000
O O15 0.839847 0.500000 0.250000
O O16 0.825332 0.000000 0.250000
O O17 0.665188 0.203756 0.000000
O O18 0.422410 0.500000 0.750000
O O19 0.500000 0.751350 0.750000
O O20 0.422403 0.000000 0.750000
#
# Coordination Sequence:
#
# PCOD9392961 Si02
#       7
#     8   8   8   8   8   8   8
#     4   9  17  30  50  78 108 133 169 226 277 317
#     4  10  21  36  55  80 108 143 183 220 266 323
#     4  10  21  37  56  80 111 144 176 217 274 330
#     4  10  19  32  54  80 102 136 184 222 263 321
#     4  10  21  37  54  75 109 147 180 219 271 327
#     4  10  21  36  56  83 112 142 178 223 275 324
#     4  10  21  37  55  80 108 138 181 226 264 311
#
# _framework density 19.599716999999998
#
# number of rings (size 3 to 8) (size 9 to 14) (size 15 to 20)
#    0.000    2.143    0.000    3.000    0.000    5.714 
#    0.000    2.857    0.000   16.714    0.000    0.000 
#    0.000    0.000    0.000    0.000    0.000    0.000 
#
# Total GULP energy -312215.177796 kJ/mol
# GULP energy per Si atom -5575.271032 kJ/mol
# Density = 1.955511 g / cm^3
# Si number density = 19.599717 Si / 1000 Ang^3
#
#
#
# Elastic Constant Matrix: (Units=GPa)
#
#
# Indices 1 2 3 4 5 6 
#
# 1 50.5176 -3.1249 50.2369 0.0000 0.0000 0.0000
# 2 -3.1249 110.3928 -1.1387 0.0000 0.0000 0.0000
# 3 50.2369 -1.1387 128.7568 0.0000 0.0000 0.0000
# 4 0.0000 0.0000 0.0000 24.9704 0.0000 0.0000
# 5 0.0000 0.0000 0.0000 0.0000 29.7230 0.0000
# 6 0.0000 0.0000 0.0000 0.0000 0.0000 -21.2840
#
#
#
# Elastic Compliance Matrix: (Units=1/GPa)
#
#
# Indices 1 2 3 4 5 6 
#
# 1 0.032413 0.000787 -0.012640 0.000000 0.000000 0.000000
# 2 0.000787 0.009079 -0.000227 0.000000 0.000000 0.000000
# 3 -0.012640 -0.000227 0.012696 0.000000 0.000000 0.000000
# 4 0.000000 0.000000 0.000000 0.040047 0.000000 0.000000
# 5 0.000000 0.000000 0.000000 0.000000 0.033644 0.000000
# 6 0.000000 0.000000 0.000000 0.000000 0.000000 -0.046984
#
#
# Mechanical properties :
#
#
# Convention : Reuss Voigt Hill
#
# Bulk Modulus (GPa) = 33.30096 42.40155 37.85125
# Shear Modulus (GPa) = 43.45401 22.92813 33.19107
#
# Velocity S-wave (km/s) = 4.71369 3.42397 4.11961
# Velocity P-wave (km/s) = 6.83027 6.10837 6.47938
#
# Compressibility (1/GPa) = 0.03002917
#
# Stress axis : x y z
#
# Youngs Moduli (GPa) = 30.85163 110.15030 78.76386
#
# Poissons Ratio (x) = -0.08670 0.99555
# Poissons Ratio (y) = -0.02428 0.01787
# Poissons Ratio (z) = 0.38995 0.02499
#
# Static dielectric constant tensor:
#      x y z
#    x 1.666750 0.000000 0.000000 
#    y 0.000000 1.721030 0.000000 
#    z 0.000000 0.000000 1.693580 
# 
# From -- ./inp_files/10766.got.cif
#   From: 2010.05.17/outbox.cif.g08.bks.cpg/sg49_6_cif.got.tgz:10766.got - 2010.06.03 21:02:19.
