data_PCOD9392001
_publ_section_title
;
Structure prediction by ZEFSAII (Michael W. Deem and Ramdas Pophale) SiO2 
 PCOD9392001
Probable space group: P C C M
;
_chemical_formula_sum "Si O2"
_cell_formula_units_Z 48
_cell_length_a 32.393631
_cell_length_b 9.320559
_cell_length_c 8.600598
_cell_angle_alpha 90.000000
_cell_angle_beta 90.000000
_cell_angle_gamma 90.000000
_cell_volume 2596.750593
_symmetry_space_group_name_H-M "P C C M"
_symmetry_group_IT_number 49
_symmetry_cell_setting 'orthorhombic'
loop_
_space_group_symop_operation_xyz
x,y,z
-x,-y,z
x,-y,1/2-z
-x,y,1/2-z
-x,-y,-z
x,y,-z
-x,y,1/2+z
x,-y,1/2+z
loop_
_atom_site_type_symbol
_atom_site_label
_atom_site_fract_x
_atom_site_fract_y
_atom_site_fract_z
Si Si1 0.957491 0.163969 0.685174
Si Si2 0.218112 0.838041 0.812417
Si Si3 0.621312 0.160523 0.812951
Si Si4 0.544822 0.660601 0.814022
Si Si5 0.872784 0.163260 0.186464
Si Si6 0.297617 0.660373 0.187670
O O1 0.958727 0.158936 0.500000
O O2 0.914261 0.230561 0.742415
O O3 0.000000 0.229726 0.750000
O O4 0.956914 0.000000 0.750000
O O5 0.172536 0.777986 0.770690
O O6 0.256067 0.740940 0.758478
O O7 0.222288 0.000000 0.750000
O O8 0.219340 0.845877 0.000000
O O9 0.580855 0.236866 0.745397
O O10 0.661903 0.250221 0.765810
O O11 0.624592 0.000000 0.750000
O O12 0.619003 0.159213 0.000000
O O13 0.552433 0.500000 0.750000
O O14 0.500000 0.705887 0.750000
O O15 0.543778 0.656575 0.000000
O O16 0.871348 0.000000 0.250000
O O17 0.876832 0.160499 0.000000
O O18 0.299670 0.500000 0.250000
O O19 0.296796 0.656296 0.000000
#
# Coordination Sequence:
#
# PCOD9392001 Si02
#       6
#     8   8   8   8   8   8
#     4  10  16  22  32  49  77 113 154 194 237 289
#     4   9  18  32  50  73 100 131 168 210 256 307
#     4  11  23  39  59  85 115 147 185 227 273 322
#     4  11  22  39  62  88 118 152 190 229 272 320
#     4   9  15  24  38  57  84 117 154 196 243 293
#     4  10  22  38  56  79 107 139 176 217 262 314
#
# _framework density 18.484639999999999
#
# number of rings (size 3 to 8) (size 9 to 14) (size 15 to 20)
#    0.000    2.000    0.000    7.000    0.000    4.333 
#    0.000    1.667    0.000    0.000    0.000    0.000 
#    0.000    0.667    0.000    7.667    0.000    4.833 
#
# Total GULP energy -267838.772351 kJ/mol
# GULP energy per Si atom -5579.974424 kJ/mol
# Density = 1.844257 g / cm^3
# Si number density = 18.484640 Si / 1000 Ang^3
#
#
#
# Elastic Constant Matrix: (Units=GPa)
#
#
# Indices 1 2 3 4 5 6 
#
# 1 220.2586 96.6901 67.0838 0.0000 0.0000 0.0000
# 2 96.6901 80.4791 31.1930 0.0000 0.0000 0.0000
# 3 67.0838 31.1930 97.2872 0.0000 0.0000 0.0000
# 4 0.0000 0.0000 0.0000 22.7038 0.0000 0.0000
# 5 0.0000 0.0000 0.0000 0.0000 39.0405 0.0000
# 6 0.0000 0.0000 0.0000 0.0000 0.0000 -21.1635
#
#
#
# Elastic Compliance Matrix: (Units=1/GPa)
#
#
# Indices 1 2 3 4 5 6 
#
# 1 0.010661 -0.011372 -0.003705 0.000000 0.000000 0.000000
# 2 -0.011372 0.026320 -0.000597 0.000000 0.000000 0.000000
# 3 -0.003705 -0.000597 0.013025 0.000000 0.000000 0.000000
# 4 0.000000 0.000000 0.000000 0.044046 0.000000 0.000000
# 5 0.000000 0.000000 0.000000 0.000000 0.025614 0.000000
# 6 0.000000 0.000000 0.000000 0.000000 0.000000 -0.047251
#
#
# Mechanical properties :
#
#
# Convention : Reuss Voigt Hill
#
# Bulk Modulus (GPa) = 53.59889 87.55096 70.57493
# Shear Modulus (GPa) = 45.46213 21.65336 33.55774
#
# Velocity S-wave (km/s) = 4.96467 3.42632 4.26542
# Velocity P-wave (km/s) = 7.86914 7.94480 7.90706
#
# Compressibility (1/GPa) = 0.01865710
#
# Stress axis : x y z
#
# Youngs Moduli (GPa) = 93.80298 37.99411 76.77560
#
# Poissons Ratio (x) = 0.43207 0.28444
# Poissons Ratio (y) = 1.06674 0.04586
# Poissons Ratio (z) = 0.34752 0.02270
#
# Static dielectric constant tensor:
#      x y z
#    x 1.695120 0.000000 0.000000 
#    y 0.000000 1.595360 0.000000 
#    z 0.000000 0.000000 1.622600 
# 
# From -- ./inp_files/6875.got.cif
#   From: 2010.05.17/outbox.cif.g08.bks.cpg/sg49_4_cif.got.tgz:6875.got - 2010.06.03 21:02:19.
