data_PCOD9392035
_publ_section_title
;
Structure prediction by ZEFSAII (Michael W. Deem and Ramdas Pophale) SiO2 
 PCOD9392035
Probable space group: P C C M
;
_chemical_formula_sum "Si O2"
_cell_formula_units_Z 40
_cell_length_a 27.783332
_cell_length_b 7.826430
_cell_length_c 8.551694
_cell_angle_alpha 90.000000
_cell_angle_beta 90.000000
_cell_angle_gamma 90.000000
_cell_volume 1859.517142
_symmetry_space_group_name_H-M "P C C M"
_symmetry_group_IT_number 49
_symmetry_cell_setting 'orthorhombic'
loop_
_space_group_symop_operation_xyz
x,y,z
-x,-y,z
x,-y,1/2-z
-x,y,1/2-z
-x,-y,-z
x,y,-z
-x,y,1/2+z
x,-y,1/2+z
loop_
_atom_site_type_symbol
_atom_site_label
_atom_site_fract_x
_atom_site_fract_y
_atom_site_fract_z
Si Si1 0.850392 0.696633 0.813172
Si Si2 0.248441 0.691559 0.813305
Si Si3 0.648688 0.191585 0.313307
Si Si4 0.049875 0.696374 0.813082
Si Si5 0.549852 0.803386 0.313178
O O1 0.850948 0.500000 0.750000
O O2 0.800486 0.777124 0.751644
O O3 0.900253 0.774343 0.749962
O O4 0.850403 0.693190 0.000000
O O5 0.245314 0.500000 0.750000
O O6 0.299873 0.749875 0.749873
O O7 0.247911 0.698521 0.000000
O O8 0.648060 0.198495 0.500000
O O9 0.599777 0.277129 0.248170
O O10 0.645666 0.000000 0.250000
O O11 0.049774 0.500000 0.750000
O O12 0.049916 0.306333 0.500000
O O13 0.000000 0.774128 0.750000
O O14 0.500000 0.725364 0.250000
O O15 0.549754 0.806844 0.500000
O O16 0.549440 0.000000 0.250000
#
# Coordination Sequence:
#
# PCOD9392035 Si02
#       5
#     8   8   8   8   8
#     4  10  17  27  41  60  85 118 156 196 238 288
#     4  11  21  35  52  73  99 133 170 207 247 296
#     4  11  21  35  53  77 104 133 166 207 250 294
#     4  10  16  23  34  52  78 111 148 190 236 286
#     4  10  17  28  46  71  99 129 161 200 244 292
#
# _framework density 21.510963
#
# number of rings (size 3 to 8) (size 9 to 14) (size 15 to 20)
#    0.000    1.600    0.000   13.800    0.000    0.000 
#    0.000    0.000    0.000    0.600    0.000    4.200 
#    0.000    0.800    0.000    8.000    0.000    7.800 
#
# Total GULP energy -223239.695780 kJ/mol
# GULP energy per Si atom -5580.992395 kJ/mol
# Density = 2.146200 g / cm^3
# Si number density = 21.510963 Si / 1000 Ang^3
#
#
#
# Elastic Constant Matrix: (Units=GPa)
#
#
# Indices 1 2 3 4 5 6 
#
# 1 304.1189 22.9164 120.4302 0.0000 0.0000 0.0000
# 2 22.9164 18.9857 5.3031 0.0000 0.0000 0.0000
# 3 120.4302 5.3031 275.6314 0.0000 0.0000 0.0000
# 4 0.0000 0.0000 0.0000 8.6926 0.0000 0.0000
# 5 0.0000 0.0000 0.0000 0.0000 49.0146 0.0000
# 6 0.0000 0.0000 0.0000 0.0000 0.0000 16.1661
#
#
#
# Elastic Compliance Matrix: (Units=1/GPa)
#
#
# Indices 1 2 3 4 5 6 
#
# 1 0.004366 -0.004763 -0.001816 0.000000 0.000000 0.000000
# 2 -0.004763 0.058152 0.000962 0.000000 0.000000 0.000000
# 3 -0.001816 0.000962 0.004403 0.000000 0.000000 0.000000
# 4 0.000000 0.000000 0.000000 0.115040 0.000000 0.000000
# 5 0.000000 0.000000 0.000000 0.000000 0.020402 0.000000
# 6 0.000000 0.000000 0.000000 0.000000 0.000000 0.061858
#
#
# Mechanical properties :
#
#
# Convention : Reuss Voigt Hill
#
# Bulk Modulus (GPa) = 17.95742 99.55948 58.75845
# Shear Modulus (GPa) = 17.00581 44.78041 30.89311
#
# Velocity S-wave (km/s) = 2.81475 4.56757 3.79378
# Velocity P-wave (km/s) = 4.35085 8.61397 6.82387
#
# Compressibility (1/GPa) = 0.05568727
#
# Stress axis : x y z
#
# Youngs Moduli (GPa) = 229.02899 17.19642 227.11707
#
# Poissons Ratio (x) = 0.08191 0.41246
# Poissons Ratio (y) = 1.09086 -0.21854
# Poissons Ratio (z) = 0.41594 -0.01655
#
# Static dielectric constant tensor:
#      x y z
#    x 1.978840 0.000000 0.000000 
#    y 0.000000 1.841070 0.000000 
#    z 0.000000 0.000000 1.703190 
# 
# From -- ./inp_files/6676.got.cif
#   From: 2010.05.17/outbox.cif.g08.bks.cpg/sg49_4_cif.got.tgz:6676.got - 2010.06.03 21:02:19.
