data_PCOD9392499
_publ_section_title
;
Structure prediction by ZEFSAII (Michael W. Deem and Ramdas Pophale) SiO2 
 PCOD9392499
Probable space group: P C C M
;
_chemical_formula_sum "Si O2"
_cell_formula_units_Z 48
_cell_length_a 15.113228
_cell_length_b 8.166752
_cell_length_c 17.684161
_cell_angle_alpha 90.000000
_cell_angle_beta 90.000000
_cell_angle_gamma 90.000000
_cell_volume 2182.684990
_symmetry_space_group_name_H-M "P C C M"
_symmetry_group_IT_number 49
_symmetry_cell_setting 'orthorhombic'
loop_
_space_group_symop_operation_xyz
x,y,z
-x,-y,z
x,-y,1/2-z
-x,y,1/2-z
-x,-y,-z
x,y,-z
-x,y,1/2+z
x,-y,1/2+z
loop_
_atom_site_type_symbol
_atom_site_label
_atom_site_fract_x
_atom_site_fract_y
_atom_site_fract_z
Si Si1 0.029997 0.305003 0.832541
Si Si2 0.205068 0.482351 0.500000
Si Si3 0.401714 0.574197 0.000000
Si Si4 0.963539 0.311444 0.000000
Si Si5 0.382528 0.896201 0.590648
Si Si6 0.439911 0.238902 0.644848
Si Si7 0.223435 0.311243 0.138436
Si Si8 0.354390 0.500000 0.750000
O O1 0.995920 0.244658 0.916889
O O2 0.133880 0.260252 0.822841
O O3 0.000000 0.500000 0.832605
O O4 0.000000 0.242361 0.750000
O O5 0.311338 0.523762 0.500000
O O6 0.145071 0.319692 0.500000
O O7 0.180366 0.573319 0.424605
O O8 0.500000 0.500000 0.000000
O O9 0.392723 0.681731 0.926457
O O10 0.000000 0.500000 0.000000
O O11 0.398361 0.924326 0.500000
O O12 0.456838 0.768200 0.620729
O O13 0.284801 0.830782 0.604302
O O14 0.404122 0.054138 0.642372
O O15 0.412778 0.355386 0.713007
O O16 0.289731 0.417554 0.189175
#
# Coordination Sequence:
#
# PCOD9392499 Si02
#       8
#     8   4   4   4   8   8   8   4
#     4  10  19  34  57  90 142 175 222 298 368 421
#     4  12  20  35  60  97 132 170 237 300 339 404
#     4  12  22  38  66  94 128 174 226 282 333 407
#     4  10  18  32  54  88 133 176 214 294 357 420
#     4  11  23  43  72  94 132 185 243 281 348 425
#     4  11  24  44  64  96 135 184 224 287 348 414
#     4  12  23  37  63 100 126 180 236 287 351 421
#     4  12  28  39  61  94 138 170 227 282 351 422
#
# _framework density 21.991261999999999
#
# number of rings (size 3 to 8) (size 9 to 14) (size 15 to 20)
#    0.000    0.833    7.500    2.500    0.000    2.000 
#    0.000    1.667    0.000    0.000    0.000   18.667 
#    0.000    0.000    0.000    0.000    0.000    0.000 
#
# Total GULP energy -267225.354517 kJ/mol
# GULP energy per Si atom -5567.194886 kJ/mol
# Density = 2.194121 g / cm^3
# Si number density = 21.991262 Si / 1000 Ang^3
#
#
#
# Elastic Constant Matrix: (Units=GPa)
#
#
# Indices 1 2 3 4 5 6 
#
# 1 164.4677 33.1017 48.1960 0.0000 0.0000 0.0000
# 2 33.1017 45.6729 37.1916 0.0000 0.0000 0.0000
# 3 48.1960 37.1916 153.3905 0.0000 0.0000 0.0000
# 4 0.0000 0.0000 0.0000 80.2330 0.0000 0.0000
# 5 0.0000 0.0000 0.0000 0.0000 35.5749 0.0000
# 6 0.0000 0.0000 0.0000 0.0000 0.0000 16.6774
#
#
#
# Elastic Compliance Matrix: (Units=1/GPa)
#
#
# Indices 1 2 3 4 5 6 
#
# 1 0.007309 -0.004270 -0.001261 0.000000 0.000000 0.000000
# 2 -0.004270 0.029776 -0.005878 0.000000 0.000000 0.000000
# 3 -0.001261 -0.005878 0.008341 0.000000 0.000000 0.000000
# 4 0.000000 0.000000 0.000000 0.012464 0.000000 0.000000
# 5 0.000000 0.000000 0.000000 0.000000 0.028110 0.000000
# 6 0.000000 0.000000 0.000000 0.000000 0.000000 0.059961
#
#
# Mechanical properties :
#
#
# Convention : Reuss Voigt Hill
#
# Bulk Modulus (GPa) = 44.23355 66.72331 55.47843
# Shear Modulus (GPa) = 28.35821 42.83319 35.59570
#
# Velocity S-wave (km/s) = 3.59489 4.41810 4.02758
# Velocity P-wave (km/s) = 6.11464 7.51218 6.84915
#
# Compressibility (1/GPa) = 0.02260727
#
# Stress axis : x y z
#
# Youngs Moduli (GPa) = 136.81192 33.58382 119.89350
#
# Poissons Ratio (x) = 0.14342 0.15121
# Poissons Ratio (y) = 0.58425 0.70471
# Poissons Ratio (z) = 0.17254 0.19740
#
# Static dielectric constant tensor:
#      x y z
#    x 1.835740 0.000000 0.000000 
#    y 0.000000 1.868280 0.000000 
#    z 0.000000 0.000000 1.877330 
# 
# From -- ./inp_files/17812.got.cif
#   From: 2010.05.17/outbox.cif.g08.bks.cpg/sg49_9_cif.got.tgz:17812.got - 2010.06.03 21:02:19.
