data_PCOD9392732
_publ_section_title
;
Structure prediction by ZEFSAII (Michael W. Deem and Ramdas Pophale) SiO2 
 PCOD9392732
Probable space group: P C C M
;
_chemical_formula_sum "Si O2"
_cell_formula_units_Z 56
_cell_length_a 16.188787
_cell_length_b 20.609902
_cell_length_c 8.181835
_cell_angle_alpha 90.000000
_cell_angle_beta 90.000000
_cell_angle_gamma 90.000000
_cell_volume 2729.863631
_symmetry_space_group_name_H-M "P C C M"
_symmetry_group_IT_number 49
_symmetry_cell_setting 'orthorhombic'
loop_
_space_group_symop_operation_xyz
x,y,z
-x,-y,z
x,-y,1/2-z
-x,y,1/2-z
-x,-y,-z
x,y,-z
-x,y,1/2+z
x,-y,1/2+z
loop_
_atom_site_type_symbol
_atom_site_label
_atom_site_fract_x
_atom_site_fract_y
_atom_site_fract_z
Si Si1 0.382421 0.069859 0.195664
Si Si2 0.722661 0.319975 0.194833
Si Si3 0.196012 0.066924 0.196085
Si Si4 0.592720 0.574218 0.195017
Si Si5 0.084736 0.817992 0.304019
Si Si6 0.908500 0.673004 0.311899
Si Si7 0.410766 0.216126 0.694864
O O1 0.288677 0.067235 0.259957
O O2 0.411399 0.140411 0.254612
O O3 0.417324 0.000000 0.250000
O O4 0.385953 0.071160 0.000000
O O5 0.660761 0.379182 0.226914
O O6 0.815247 0.337673 0.260866
O O7 0.669813 0.256829 0.257685
O O8 0.733726 0.310118 0.000000
O O9 0.155299 0.133423 0.248113
O O10 0.154343 0.000000 0.250000
O O11 0.197747 0.067167 0.000000
O O12 0.605903 0.500000 0.250000
O O13 0.500000 0.592241 0.250000
O O14 0.597682 0.578575 0.000000
O O15 0.087136 0.806460 0.500000
O O16 0.087471 0.750663 0.209263
O O17 0.000000 0.851032 0.250000
O O18 0.905861 0.652779 0.500000
O O19 0.000000 0.649854 0.250000
O O20 0.500000 0.243982 0.750000
O O21 0.408188 0.219737 0.500000
#
# Coordination Sequence:
#
# PCOD9392732 Si02
#       7
#     8   8   8   8   8   8   8
#     4  10  20  36  55  74  98 133 179 229 281 339
#     4  10  22  39  60  88 122 157 196 241 291 344
#     4   9  19  32  47  66  89 120 161 212 269 331
#     4  11  22  38  63  93 129 168 205 242 284 337
#     4  10  19  31  46  67  95 128 169 217 273 337
#     4  10  20  35  56  82 112 147 187 234 283 336
#     4  11  23  38  56  81 112 146 185 233 287 342
#
# _framework density 20.513845
#
# number of rings (size 3 to 8) (size 9 to 14) (size 15 to 20)
#    0.000    1.857    0.000    5.571    0.000    5.714 
#    0.000    2.857    0.000    0.429    0.000    3.000 
#    0.000    0.000    0.000    0.000    0.000    0.000 
#
# Total GULP energy -312012.170949 kJ/mol
# GULP energy per Si atom -5571.645910 kJ/mol
# Density = 2.046715 g / cm^3
# Si number density = 20.513845 Si / 1000 Ang^3
#
#
#
# Elastic Constant Matrix: (Units=GPa)
#
#
# Indices 1 2 3 4 5 6 
#
# 1 158.4683 45.6235 2.5215 0.0000 0.0000 0.0000
# 2 45.6235 69.4097 -7.0907 0.0000 0.0000 0.0000
# 3 2.5215 -7.0907 26.2033 0.0000 0.0000 0.0000
# 4 0.0000 0.0000 0.0000 18.0446 0.0000 0.0000
# 5 0.0000 0.0000 0.0000 0.0000 25.6857 0.0000
# 6 0.0000 0.0000 0.0000 0.0000 0.0000 15.5959
#
#
#
# Elastic Compliance Matrix: (Units=1/GPa)
#
#
# Indices 1 2 3 4 5 6 
#
# 1 0.007908 -0.005426 -0.002229 0.000000 0.000000 0.000000
# 2 -0.005426 0.018539 0.005539 0.000000 0.000000 0.000000
# 3 -0.002229 0.005539 0.039877 0.000000 0.000000 0.000000
# 4 0.000000 0.000000 0.000000 0.055418 0.000000 0.000000
# 5 0.000000 0.000000 0.000000 0.000000 0.038932 0.000000
# 6 0.000000 0.000000 0.000000 0.000000 0.000000 0.064119
#
#
# Mechanical properties :
#
#
# Convention : Reuss Voigt Hill
#
# Bulk Modulus (GPa) = 16.10514 37.35443 26.72979
# Shear Modulus (GPa) = 20.02220 26.06703 23.04461
#
# Velocity S-wave (km/s) = 3.12754 3.56856 3.35531
# Velocity P-wave (km/s) = 4.57274 5.93535 5.29804
#
# Compressibility (1/GPa) = 0.06209197
#
# Stress axis : x y z
#
# Youngs Moduli (GPa) = 126.45508 53.93928 25.07740
#
# Poissons Ratio (x) = 0.29266 0.05590
# Poissons Ratio (y) = 0.68610 -0.13890
# Poissons Ratio (z) = 0.28189 -0.29876
#
# Static dielectric constant tensor:
#      x y z
#    x 1.857950 0.000000 0.000000 
#    y 0.000000 1.717730 0.000000 
#    z 0.000000 0.000000 1.732860 
# 
# From -- ./inp_files/4021.got.cif
#   From: 2010.05.17/outbox.cif.g08.bks.cpg/sg49_3_cif.got.tgz:4021.got - 2010.06.03 21:02:19.
