data_PCOD9392492
_publ_section_title
;
Structure prediction by ZEFSAII (Michael W. Deem and Ramdas Pophale) SiO2 
 PCOD9392492
Probable space group: P C C M
;
_chemical_formula_sum "Si O2"
_cell_formula_units_Z 56
_cell_length_a 15.728689
_cell_length_b 20.387046
_cell_length_c 8.931494
_cell_angle_alpha 90.000000
_cell_angle_beta 90.000000
_cell_angle_gamma 90.000000
_cell_volume 2863.986318
_symmetry_space_group_name_H-M "P C C M"
_symmetry_group_IT_number 49
_symmetry_cell_setting 'orthorhombic'
loop_
_space_group_symop_operation_xyz
x,y,z
-x,-y,z
x,-y,1/2-z
-x,y,1/2-z
-x,-y,-z
x,y,-z
-x,y,1/2+z
x,-y,1/2+z
loop_
_atom_site_type_symbol
_atom_site_label
_atom_site_fract_x
_atom_site_fract_y
_atom_site_fract_z
Si Si1 0.647692 0.209289 0.818474
Si Si2 0.585682 0.342790 0.679519
Si Si3 0.164254 0.202043 0.179724
Si Si4 0.911631 0.341286 0.320397
Si Si5 0.363242 0.066275 0.672190
Si Si6 0.751146 0.428318 0.319811
Si Si7 0.844684 0.932634 0.673564
O O1 0.599821 0.271101 0.750517
O O2 0.744033 0.212501 0.756743
O O3 0.611862 0.138088 0.768481
O O4 0.648172 0.210887 0.000000
O O5 0.500000 0.371120 0.750000
O O6 0.579635 0.337596 0.500000
O O7 0.666769 0.387294 0.718051
O O8 0.108527 0.265546 0.217930
O O9 0.128846 0.133128 0.240130
O O10 0.175184 0.199205 0.000000
O O11 0.916541 0.345068 0.500000
O O12 0.833151 0.386455 0.270858
O O13 0.000000 0.362338 0.250000
O O14 0.388564 0.062834 0.500000
O O15 0.259327 0.066506 0.678483
O O16 0.392829 0.000000 0.750000
O O17 0.750348 0.500000 0.250000
O O18 0.754028 0.433583 0.500000
O O19 0.869427 0.929841 0.500000
O O20 0.873866 0.000000 0.750000
#
# Coordination Sequence:
#
# PCOD9392492 Si02
#       7
#     8   8   8   8   8   8   8
#     4  10  19  32  53  82 114 153 202 247 296 356
#     4  11  23  41  63  90 124 158 199 245 295 354
#     4  10  18  32  53  78 114 155 196 249 303 353
#     4  10  22  40  61  89 123 159 201 245 296 354
#     4   8  15  25  40  68 105 143 189 240 287 344
#     4  10  23  44  66  92 125 158 195 239 292 353
#     4   9  16  26  42  71 107 147 197 247 300 359
#
# _framework density 19.553165
#
# number of rings (size 3 to 8) (size 9 to 14) (size 15 to 20)
#    0.000    2.286    1.429    2.571    0.000    7.429 
#    0.000    2.857    0.000    0.857    0.000    6.000 
#    0.000    0.000    0.000    0.000    0.000    0.000 
#
# Total GULP energy -312640.903749 kJ/mol
# GULP energy per Si atom -5582.873281 kJ/mol
# Density = 1.950866 g / cm^3
# Si number density = 19.553165 Si / 1000 Ang^3
#
#
#
# Elastic Constant Matrix: (Units=GPa)
#
#
# Indices 1 2 3 4 5 6 
#
# 1 105.3624 68.4338 38.1886 0.0000 0.0000 0.0000
# 2 68.4338 165.9975 54.8558 0.0000 0.0000 0.0000
# 3 38.1886 54.8558 57.8172 0.0000 0.0000 0.0000
# 4 0.0000 0.0000 0.0000 37.5436 0.0000 0.0000
# 5 0.0000 0.0000 0.0000 0.0000 -29.1817 0.0000
# 6 0.0000 0.0000 0.0000 0.0000 0.0000 -8.5210
#
#
#
# Elastic Compliance Matrix: (Units=1/GPa)
#
#
# Indices 1 2 3 4 5 6 
#
# 1 0.014077 -0.003978 -0.005524 0.000000 0.000000 0.000000
# 2 -0.003978 0.009900 -0.006765 0.000000 0.000000 0.000000
# 3 -0.005524 -0.006765 0.027363 0.000000 0.000000 0.000000
# 4 0.000000 0.000000 0.000000 0.026636 0.000000 0.000000
# 5 0.000000 0.000000 0.000000 0.000000 -0.034268 0.000000
# 6 0.000000 0.000000 0.000000 0.000000 0.000000 -0.117357
#
#
# Mechanical properties :
#
#
# Convention : Reuss Voigt Hill
#
# Bulk Modulus (GPa) = 53.17465 72.45928 62.81696
# Shear Modulus (GPa) = -143.48363 11.14809 -66.16777
#
# Velocity S-wave (km/s) = -8.57558 2.39036 -5.82352
# Velocity P-wave (km/s) = 8.41428 6.69002 3.60858
#
# Compressibility (1/GPa) = 0.01880595
#
# Stress axis : x y z
#
# Youngs Moduli (GPa) = 71.03895 101.01233 36.54568
#
# Poissons Ratio (x) = 0.40182 0.20186
# Poissons Ratio (y) = 0.28259 0.24724
# Poissons Ratio (z) = 0.39239 0.68338
#
# Static dielectric constant tensor:
#      x y z
#    x 1.708350 0.000000 0.000000 
#    y 0.000000 1.681370 0.000000 
#    z 0.000000 0.000000 1.657040 
# 
# From -- ./inp_files/4051.got.cif
#   From: 2010.05.17/outbox.cif.g08.bks.cpg/sg49_3_cif.got.tgz:4051.got - 2010.06.03 21:02:19.
