data_PCOD9392986
_publ_section_title
;
Structure prediction by ZEFSAII (Michael W. Deem and Ramdas Pophale) SiO2 
 PCOD9392986
Probable space group: P C C M
;
_chemical_formula_sum "Si O2"
_cell_formula_units_Z 40
_cell_length_a 8.559709
_cell_length_b 12.289380
_cell_length_c 18.455562
_cell_angle_alpha 90.000000
_cell_angle_beta 90.000000
_cell_angle_gamma 90.000000
_cell_volume 1941.405467
_symmetry_space_group_name_H-M "P C C M"
_symmetry_group_IT_number 49
_symmetry_cell_setting 'orthorhombic'
loop_
_space_group_symop_operation_xyz
x,y,z
-x,-y,z
x,-y,1/2-z
-x,y,1/2-z
-x,-y,-z
x,y,-z
-x,y,1/2+z
x,-y,1/2+z
loop_
_atom_site_type_symbol
_atom_site_label
_atom_site_fract_x
_atom_site_fract_y
_atom_site_fract_z
Si Si1 0.453629 0.229926 0.833260
Si Si2 0.742037 0.946121 0.912349
Si Si3 0.922483 0.847894 0.412672
Si Si4 0.740402 0.349179 0.914294
Si Si5 0.681079 0.457023 0.673957
O O1 0.500000 0.209550 0.750000
O O2 0.391409 0.122133 0.872735
O O3 0.595684 0.287417 0.876071
O O4 0.324778 0.327660 0.832262
O O5 0.906400 0.887875 0.892765
O O6 0.783324 0.069838 0.889375
O O7 0.717456 0.942564 0.000000
O O8 0.919825 0.856033 0.500000
O O9 0.886759 0.725037 0.392508
O O10 0.756337 0.472944 0.889459
O O11 0.716607 0.344228 0.000000
O O12 0.500000 0.500000 0.673518
O O13 0.746850 0.500000 0.750000
#
# Coordination Sequence:
#
# PCOD9392986 Si02
#       5
#     8   8   8   8   8
#     4  11  20  33  54  79 113 146 183 230 277 324
#     4   9  18  35  59  81 111 151 186 220 277 338
#     4   8  17  36  57  81 112 145 180 231 279 320
#     4  10  19  32  57  84 106 138 188 233 272 323
#     4   9  16  33  52  71 107 149 172 218 285 331
#
# _framework density 20.603631
#
# number of rings (size 3 to 8) (size 9 to 14) (size 15 to 20)
#    0.000    2.600    4.000    1.800    0.000    5.200 
#    0.000    7.000    0.000    7.200    0.000    0.000 
#    0.000    0.000    0.000    0.000    0.000    0.000 
#
# Total GULP energy -222882.963317 kJ/mol
# GULP energy per Si atom -5572.074083 kJ/mol
# Density = 2.055674 g / cm^3
# Si number density = 20.603631 Si / 1000 Ang^3
#
#
#
# Elastic Constant Matrix: (Units=GPa)
#
#
# Indices 1 2 3 4 5 6 
#
# 1 24.6419 11.2542 9.9989 0.0000 0.0000 0.0000
# 2 11.2542 67.8081 20.2639 0.0000 0.0000 0.0000
# 3 9.9989 20.2639 75.6350 0.0000 0.0000 0.0000
# 4 0.0000 0.0000 0.0000 2.9286 0.0000 0.0000
# 5 0.0000 0.0000 0.0000 0.0000 -28.9904 0.0000
# 6 0.0000 0.0000 0.0000 0.0000 0.0000 11.6420
#
#
#
# Elastic Compliance Matrix: (Units=1/GPa)
#
#
# Indices 1 2 3 4 5 6 
#
# 1 0.045165 -0.006209 -0.004307 0.000000 0.000000 0.000000
# 2 -0.006209 0.016885 -0.003703 0.000000 0.000000 0.000000
# 3 -0.004307 -0.003703 0.014783 0.000000 0.000000 0.000000
# 4 0.000000 0.000000 0.000000 0.341459 0.000000 0.000000
# 5 0.000000 0.000000 0.000000 0.000000 -0.034494 0.000000
# 6 0.000000 0.000000 0.000000 0.000000 0.000000 0.085896
#
#
# Mechanical properties :
#
#
# Convention : Reuss Voigt Hill
#
# Bulk Modulus (GPa) = 20.66368 27.90213 24.28290
# Shear Modulus (GPa) = 9.72267 5.55392 7.63830
#
# Velocity S-wave (km/s) = 2.17466 1.64361 1.92751
# Velocity P-wave (km/s) = 4.04431 4.14411 4.09452
#
# Compressibility (1/GPa) = 0.04839410
#
# Stress axis : x y z
#
# Youngs Moduli (GPa) = 22.14124 59.22575 67.64588
#
# Poissons Ratio (x) = 0.36772 0.29137
# Poissons Ratio (y) = 0.13747 0.25048
# Poissons Ratio (z) = 0.09537 0.21930
#
# Static dielectric constant tensor:
#      x y z
#    x 1.779190 0.000000 0.000000 
#    y 0.000000 1.775490 0.000000 
#    z 0.000000 0.000000 1.725090 
# 
# From -- ./inp_files/15985.got.cif
#   From: 2010.05.17/outbox.cif.g08.bks.cpg/sg49_8_cif.got.tgz:15985.got - 2010.06.03 21:02:19.
