data_PCOD9392921
_publ_section_title
;
Structure prediction by ZEFSAII (Michael W. Deem and Ramdas Pophale) SiO2 
 PCOD9392921
Probable space group: P C C M
;
_chemical_formula_sum "Si O2"
_cell_formula_units_Z 56
_cell_length_a 23.039060
_cell_length_b 15.186455
_cell_length_c 8.648632
_cell_angle_alpha 90.000000
_cell_angle_beta 90.000000
_cell_angle_gamma 90.000000
_cell_volume 3025.997617
_symmetry_space_group_name_H-M "P C C M"
_symmetry_group_IT_number 49
_symmetry_cell_setting 'orthorhombic'
loop_
_space_group_symop_operation_xyz
x,y,z
-x,-y,z
x,-y,1/2-z
-x,y,1/2-z
-x,-y,-z
x,y,-z
-x,y,1/2+z
x,-y,1/2+z
loop_
_atom_site_type_symbol
_atom_site_label
_atom_site_fract_x
_atom_site_fract_y
_atom_site_fract_z
Si Si1 0.290752 0.096026 0.184543
Si Si2 0.564320 0.595161 0.314710
Si Si3 0.666080 0.271609 0.814737
Si Si4 0.837825 0.096642 0.814767
Si Si5 0.895811 0.593144 0.814774
Si Si6 0.938758 0.781005 0.186000
Si Si7 0.759963 0.595225 0.814216
O O1 0.331325 0.175410 0.239832
O O2 0.226440 0.116565 0.250708
O O3 0.307241 0.000000 0.250000
O O4 0.287814 0.092000 0.000000
O O5 0.583385 0.500000 0.250000
O O6 0.500000 0.612057 0.250000
O O7 0.561799 0.589357 0.500000
O O8 0.609583 0.671149 0.271617
O O9 0.721043 0.328172 0.756659
O O10 0.668335 0.263645 0.000000
O O11 0.885104 0.164507 0.752830
O O12 0.852839 0.000000 0.750000
O O13 0.836371 0.095615 0.000000
O O14 0.916488 0.500000 0.750000
O O15 0.930224 0.679352 0.764065
O O16 0.827870 0.605169 0.770979
O O17 0.897890 0.588801 0.000000
O O18 0.000000 0.814306 0.250000
O O19 0.937784 0.785353 0.000000
O O20 0.740881 0.500000 0.750000
O O21 0.755383 0.596472 0.000000
#
# Coordination Sequence:
#
# PCOD9392921 Si02
#       7
#     8   8   8   8   8   8   8
#     4  11  22  38  60  86 115 147 181 224 274 330
#     4  10  21  36  56  81 115 155 197 238 278 324
#     4  11  22  35  54  83 114 148 188 232 278 330
#     4  11  22  39  62  86 112 143 176 219 273 332
#     4   9  20  36  54  74 102 137 176 220 268 321
#     4  11  23  39  56  79 107 139 181 227 273 326
#     4  10  19  32  51  78 109 143 179 223 277 333
#
# _framework density 18.506294
#
# number of rings (size 3 to 8) (size 9 to 14) (size 15 to 20)
#    0.000    1.571    0.000    6.857    0.000    6.857 
#    0.000    2.857    0.000    0.429    0.000    3.000 
#    0.000    0.000    0.000    0.000    0.000    0.000 
#
# Total GULP energy -313051.437823 kJ/mol
# GULP energy per Si atom -5590.204247 kJ/mol
# Density = 1.846417 g / cm^3
# Si number density = 18.506294 Si / 1000 Ang^3
#
#
#
# Elastic Constant Matrix: (Units=GPa)
#
#
# Indices 1 2 3 4 5 6 
#
# 1 64.6860 67.0732 36.5219 0.0000 0.0000 0.0000
# 2 67.0732 138.8582 53.2156 0.0000 0.0000 0.0000
# 3 36.5219 53.2156 101.6097 0.0000 0.0000 0.0000
# 4 0.0000 0.0000 0.0000 34.2783 0.0000 0.0000
# 5 0.0000 0.0000 0.0000 0.0000 21.1465 0.0000
# 6 0.0000 0.0000 0.0000 0.0000 0.0000-3092.5709
#
#
#
# Elastic Compliance Matrix: (Units=1/GPa)
#
#
# Indices 1 2 3 4 5 6 
#
# 1 0.032418 -0.014004 -0.004318 0.000000 0.000000 0.000000
# 2 -0.014004 0.015060 -0.002854 0.000000 0.000000 0.000000
# 3 -0.004318 -0.002854 0.012888 0.000000 0.000000 0.000000
# 4 0.000000 0.000000 0.000000 0.029173 0.000000 0.000000
# 5 0.000000 0.000000 0.000000 0.000000 0.047289 0.000000
# 6 0.000000 0.000000 0.000000 0.000000 0.000000 -0.000323
#
#
# Mechanical properties :
#
#
# Convention : Reuss Voigt Hill
#
# Bulk Modulus (GPa) = 55.51021 68.75278 62.13150
# Shear Modulus (GPa) = 27.04730 -597.53967 -285.24619
#
# Velocity S-wave (km/s) = 3.82713 -17.98848 -12.42857
# Velocity P-wave (km/s) = 7.04199 19.85487 13.12681
#
# Compressibility (1/GPa) = 0.01801470
#
# Stress axis : x y z
#
# Youngs Moduli (GPa) = 30.84669 66.40196 77.59158
#
# Poissons Ratio (x) = 0.92992 0.33502
# Poissons Ratio (y) = 0.43199 0.22141
# Poissons Ratio (z) = 0.13319 0.18948
#
# Static dielectric constant tensor:
#      x y z
#    x 1.628630 0.000000 0.000000 
#    y 0.000000 1.641960 0.000000 
#    z 0.000000 0.000000 1.745700 
# 
# From -- ./inp_files/4003.got.cif
#   From: 2010.05.17/outbox.cif.g08.bks.cpg/sg49_3_cif.got.tgz:4003.got - 2010.06.03 21:02:19.
