data_PCOD9392487
_publ_section_title
;
Structure prediction by ZEFSAII (Michael W. Deem and Ramdas Pophale) SiO2 
 PCOD9392487
Probable space group: P C C M
;
_chemical_formula_sum "Si O2"
_cell_formula_units_Z 56
_cell_length_a 18.919740
_cell_length_b 19.695641
_cell_length_c 8.709187
_cell_angle_alpha 90.000000
_cell_angle_beta 90.000000
_cell_angle_gamma 90.000000
_cell_volume 3245.360150
_symmetry_space_group_name_H-M "P C C M"
_symmetry_group_IT_number 49
_symmetry_cell_setting 'orthorhombic'
loop_
_space_group_symop_operation_xyz
x,y,z
-x,-y,z
x,-y,1/2-z
-x,y,1/2-z
-x,-y,-z
x,y,-z
-x,y,1/2+z
x,-y,1/2+z
loop_
_atom_site_type_symbol
_atom_site_label
_atom_site_fract_x
_atom_site_fract_y
_atom_site_fract_z
Si Si1 0.315037 0.928616 0.684648
Si Si2 0.424520 0.653794 0.815907
Si Si3 0.849971 0.928601 0.815429
Si Si4 0.208223 0.709594 0.184761
Si Si5 0.922275 0.212003 0.684790
Si Si6 0.652767 0.780742 0.184694
Si Si7 0.284645 0.573825 0.184067
O O1 0.315950 0.932091 0.500000
O O2 0.232380 0.921225 0.732686
O O3 0.354581 0.859560 0.730780
O O4 0.341605 0.000000 0.750000
O O5 0.500000 0.633450 0.750000
O O6 0.402977 0.728413 0.755485
O O7 0.361149 0.603510 0.766603
O O8 0.426344 0.655060 0.000000
O O9 0.894166 0.862886 0.767604
O O10 0.876628 0.000000 0.750000
O O11 0.850965 0.931630 0.000000
O O12 0.134122 0.734822 0.249294
O O13 0.270641 0.755179 0.257305
O O14 0.228174 0.632057 0.225678
O O15 0.210804 0.716107 0.000000
O O16 0.922383 0.214930 0.500000
O O17 0.000000 0.223295 0.750000
O O18 0.650727 0.776487 0.000000
O O19 0.270858 0.500000 0.250000
O O20 0.285875 0.569496 0.000000
#
# Coordination Sequence:
#
# PCOD9392487 Si02
#       7
#     8   8   8   8   8   8   8
#     4   9  17  29  46  71  99 130 171 217 265 313
#     4  10  21  36  53  80 112 144 178 210 250 304
#     4   9  18  32  47  68  99 134 174 216 263 317
#     4  10  20  35  54  78 105 135 174 217 256 307
#     4  11  22  36  52  74 103 138 179 221 268 318
#     4  10  18  32  53  76 103 137 176 219 262 308
#     4   9  20  36  56  83 111 138 172 206 248 303
#
# _framework density 17.255405
#
# number of rings (size 3 to 8) (size 9 to 14) (size 15 to 20)
#    0.000    2.286    1.429    2.571    0.000    6.286 
#    0.000    2.857    0.000    0.857    0.000    6.000 
#    0.000    0.000    0.000    0.000    0.000    0.000 
#
# Total GULP energy -312411.801378 kJ/mol
# GULP energy per Si atom -5578.782167 kJ/mol
# Density = 1.721613 g / cm^3
# Si number density = 17.255405 Si / 1000 Ang^3
#
#
#
# Elastic Constant Matrix: (Units=GPa)
#
#
# Indices 1 2 3 4 5 6 
#
# 1 55.9995 36.9963 15.4433 0.0000 0.0000 0.0000
# 2 36.9963 144.2674 29.6896 0.0000 0.0000 0.0000
# 3 15.4433 29.6896 36.1309 0.0000 0.0000 0.0000
# 4 0.0000 0.0000 0.0000 30.7323 0.0000 0.0000
# 5 0.0000 0.0000 0.0000 0.0000 27.4021 0.0000
# 6 0.0000 0.0000 0.0000 0.0000 0.0000 14.0314
#
#
#
# Elastic Compliance Matrix: (Units=1/GPa)
#
#
# Indices 1 2 3 4 5 6 
#
# 1 0.022487 -0.004560 -0.005865 0.000000 0.000000 0.000000
# 2 -0.004560 0.009267 -0.005666 0.000000 0.000000 0.000000
# 3 -0.005865 -0.005666 0.034840 0.000000 0.000000 0.000000
# 4 0.000000 0.000000 0.000000 0.032539 0.000000 0.000000
# 5 0.000000 0.000000 0.000000 0.000000 0.036494 0.000000
# 6 0.000000 0.000000 0.000000 0.000000 0.000000 0.071269
#
#
# Mechanical properties :
#
#
# Convention : Reuss Voigt Hill
#
# Bulk Modulus (GPa) = 29.05880 44.51735 36.78808
# Shear Modulus (GPa) = 19.95638 24.71773 22.33705
#
# Velocity S-wave (km/s) = 3.40447 3.78890 3.60181
# Velocity P-wave (km/s) = 5.68602 6.70791 6.21799
#
# Compressibility (1/GPa) = 0.03441298
#
# Stress axis : x y z
#
# Youngs Moduli (GPa) = 44.47014 107.91104 28.70288
#
# Poissons Ratio (x) = 0.49204 0.16833
# Poissons Ratio (y) = 0.20277 0.16263
# Poissons Ratio (z) = 0.26080 0.61141
#
# Static dielectric constant tensor:
#      x y z
#    x 1.573540 0.000000 0.000000 
#    y 0.000000 1.590070 0.000000 
#    z 0.000000 0.000000 1.619140 
# 
# From -- ./inp_files/5192.got.cif
#   From: 2010.05.17/outbox.cif.g08.bks.cpg/sg49_3_cif.got.tgz:5192.got - 2010.06.03 21:02:19.
