data_PCOD9392547
_publ_section_title
;
Structure prediction by ZEFSAII (Michael W. Deem and Ramdas Pophale) SiO2 
 PCOD9392547
Probable space group: P C C M
;
_chemical_formula_sum "Si O2"
_cell_formula_units_Z 34
_cell_length_a 5.582863
_cell_length_b 12.278694
_cell_length_c 19.156754
_cell_angle_alpha 90.000000
_cell_angle_beta 90.000000
_cell_angle_gamma 90.000000
_cell_volume 1313.200590
_symmetry_space_group_name_H-M "P C C M"
_symmetry_group_IT_number 49
_symmetry_cell_setting 'orthorhombic'
loop_
_space_group_symop_operation_xyz
x,y,z
-x,-y,z
x,-y,1/2-z
-x,y,1/2-z
-x,-y,-z
x,y,-z
-x,y,1/2+z
x,-y,1/2+z
loop_
_atom_site_type_symbol
_atom_site_label
_atom_site_fract_x
_atom_site_fract_y
_atom_site_fract_z
Si Si1 0.500000 0.000000 0.750000
Si Si2 0.266128 0.140721 0.631321
Si Si3 0.237534 0.796666 0.611917
Si Si4 0.751466 0.543970 0.919802
Si Si5 0.249925 0.679781 0.241154
O O1 0.322197 0.060722 0.695661
O O2 0.516656 0.144323 0.590024
O O3 0.252489 0.260605 0.667164
O O4 0.004058 0.135527 0.597419
O O5 0.237292 0.674702 0.581937
O O6 0.249164 0.772169 0.696397
O O7 0.500000 0.500000 0.889898
O O8 0.000000 0.500000 0.888625
O O9 0.750931 0.504594 0.000000
O O10 0.500000 0.621662 0.250000
O O11 0.000000 0.621847 0.250000
#
# Coordination Sequence:
#
# PCOD9392547 Si02
#       5
#     2   8   8   8   8
#     4  12  20  34  52  90 112 146 196 238 248 310
#     4  10  20  30  51  77 113 144 176 226 261 316
#     4  10  18  34  50  75 109 145 169 219 285 331
#     4  10  21  37  59  84 104 131 185 246 281 327
#     4   8  14  27  42  65  94 137 160 203 245 311
#
# _framework density 25.890941000000002
#
# number of rings (size 3 to 8) (size 9 to 14) (size 15 to 20)
#    0.000    2.353    3.529    1.412    0.000    1.882 
#    0.000    0.000    0.000   38.118    0.000    4.941 
#    0.000    0.000    0.000    0.000    0.000    0.000 
#
# Total GULP energy -189697.675983 kJ/mol
# GULP energy per Si atom -5579.343411 kJ/mol
# Density = 2.583201 g / cm^3
# Si number density = 25.890941 Si / 1000 Ang^3
#
#
#
# Elastic Constant Matrix: (Units=GPa)
#
#
# Indices 1 2 3 4 5 6 
#
# 1 364.0013 55.3929 4.4368 0.0000 0.0000 0.0000
# 2 55.3929 81.8142 -5.1083 0.0000 0.0000 0.0000
# 3 4.4368 -5.1083 49.4687 0.0000 0.0000 0.0000
# 4 0.0000 0.0000 0.0000 8.9747 0.0000 0.0000
# 5 0.0000 0.0000 0.0000 0.0000 -6.5656 0.0000
# 6 0.0000 0.0000 0.0000 0.0000 0.0000 40.0563
#
#
#
# Elastic Compliance Matrix: (Units=1/GPa)
#
#
# Indices 1 2 3 4 5 6 
#
# 1 0.003075 -0.002113 -0.000494 0.000000 0.000000 0.000000
# 2 -0.002113 0.013754 0.001610 0.000000 0.000000 0.000000
# 3 -0.000494 0.001610 0.020425 0.000000 0.000000 0.000000
# 4 0.000000 0.000000 0.000000 0.111425 0.000000 0.000000
# 5 0.000000 0.000000 0.000000 0.000000 -0.152309 0.000000
# 6 0.000000 0.000000 0.000000 0.000000 0.000000 0.024965
#
#
# Mechanical properties :
#
#
# Convention : Reuss Voigt Hill
#
# Bulk Modulus (GPa) = 28.36064 67.19189 47.77626
# Shear Modulus (GPa) = 142.52463 37.86393 90.19428
#
# Velocity S-wave (km/s) = 7.42749 3.82833 5.90863
# Velocity P-wave (km/s) = 9.19426 6.74906 8.06487
#
# Compressibility (1/GPa) = 0.03526013
#
# Stress axis : x y z
#
# Youngs Moduli (GPa) = 325.22880 72.70771 48.95886
#
# Poissons Ratio (x) = 0.15360 0.02418
# Poissons Ratio (y) = 0.68709 -0.07881
# Poissons Ratio (z) = 0.16064 -0.11704
#
# Static dielectric constant tensor:
#      x y z
#    x 2.186680 0.000000 0.000000 
#    y 0.000000 2.019080 0.000000 
#    z 0.000000 0.000000 2.021260 
# 
# From -- ./inp_files/21625.got.cif
#   From: 2010.05.17/outbox.cif.g08.bks.cpg/sg49_11_cif.got.tgz:21625.got - 2010.06.03 21:02:19.
