data_PCOD9392794
_publ_section_title
;
Structure prediction by ZEFSAII (Michael W. Deem and Ramdas Pophale) SiO2 
 PCOD9392794
Probable space group: P C C M
;
_chemical_formula_sum "Si O2"
_cell_formula_units_Z 34
_cell_length_a 5.408828
_cell_length_b 13.316347
_cell_length_c 24.579272
_cell_angle_alpha 90.000000
_cell_angle_beta 90.000000
_cell_angle_gamma 90.000000
_cell_volume 1770.342479
_symmetry_space_group_name_H-M "P C C M"
_symmetry_group_IT_number 49
_symmetry_cell_setting 'orthorhombic'
loop_
_space_group_symop_operation_xyz
x,y,z
-x,-y,z
x,-y,1/2-z
-x,y,1/2-z
-x,-y,-z
x,y,-z
-x,y,1/2+z
x,-y,1/2+z
loop_
_atom_site_type_symbol
_atom_site_label
_atom_site_fract_x
_atom_site_fract_y
_atom_site_fract_z
Si Si1 0.249907 0.531282 0.664660
Si Si2 0.000000 0.000000 0.750000
Si Si3 0.752930 0.618775 0.439881
Si Si4 0.253383 0.718788 0.402785
Si Si5 0.758638 0.940852 0.856462
O O1 0.500000 0.500000 0.692205
O O2 0.248775 0.465330 0.607595
O O3 0.251369 0.647626 0.650349
O O4 0.000000 0.500000 0.692305
O O5 0.169274 0.936405 0.708109
O O6 0.754340 0.572594 0.500000
O O7 0.504532 0.684884 0.433031
O O8 0.999609 0.686055 0.432580
O O9 0.258400 0.833617 0.385017
O O10 0.500000 0.000000 0.862223
O O11 0.000000 0.000000 0.879297
#
# Coordination Sequence:
#
# PCOD9392794 Si02
#       5
#     8   2   8   8   8
#     4   8  16  27  43  70 102 131 173 205 247 280
#     4   8  22  36  62  84  94 116 162 224 270 316
#     4  10  19  31  49  76 108 142 184 214 235 282
#     4  10  19  31  50  75 104 140 167 216 261 291
#     4  10  20  36  57  80 106 120 166 217 265 318
#
# _framework density 19.205324000000001
#
# number of rings (size 3 to 8) (size 9 to 14) (size 15 to 20)
#    0.706    1.882    0.000    2.471    0.000    8.471 
#    0.000    0.000    0.000   14.118    0.000    7.412 
#    0.000    0.000    0.000    0.000    0.000    0.000 
#
# Total GULP energy -189304.327887 kJ/mol
# GULP energy per Si atom -5567.774350 kJ/mol
# Density = 1.916161 g / cm^3
# Si number density = 19.205324 Si / 1000 Ang^3
#
#
#
# Elastic Constant Matrix: (Units=GPa)
#
#
# Indices 1 2 3 4 5 6 
#
# 1 204.7120 55.2728 21.4032 0.0000 0.0000 0.0000
# 2 55.2728 127.7073 30.9371 0.0000 0.0000 0.0000
# 3 21.4032 30.9371 85.3658 0.0000 0.0000 0.0000
# 4 0.0000 0.0000 0.0000 27.5247 0.0000 0.0000
# 5 0.0000 0.0000 0.0000 0.0000 1.3945 0.0000
# 6 0.0000 0.0000 0.0000 0.0000 0.0000 29.0059
#
#
#
# Elastic Compliance Matrix: (Units=1/GPa)
#
#
# Indices 1 2 3 4 5 6 
#
# 1 0.005557 -0.002266 -0.000572 0.000000 0.000000 0.000000
# 2 -0.002266 0.009508 -0.002878 0.000000 0.000000 0.000000
# 3 -0.000572 -0.002878 0.012901 0.000000 0.000000 0.000000
# 4 0.000000 0.000000 0.000000 0.036331 0.000000 0.000000
# 5 0.000000 0.000000 0.000000 0.000000 0.717094 0.000000
# 6 0.000000 0.000000 0.000000 0.000000 0.000000 0.034476
#
#
# Mechanical properties :
#
#
# Convention : Reuss Voigt Hill
#
# Bulk Modulus (GPa) = 60.48217 70.33459 65.40838
# Shear Modulus (GPa) = 6.00378 32.26314 19.13346
#
# Velocity S-wave (km/s) = 1.77000 4.10311 3.15978
# Velocity P-wave (km/s) = 5.97812 7.69086 6.88793
#
# Compressibility (1/GPa) = 0.01653380
#
# Stress axis : x y z
#
# Youngs Moduli (GPa) = 179.96481 105.16946 77.51605
#
# Poissons Ratio (x) = 0.23836 0.04432
# Poissons Ratio (y) = 0.40788 0.22307
# Poissons Ratio (z) = 0.10290 0.30264
#
# Static dielectric constant tensor:
#      x y z
#    x 1.750420 0.000000 0.000000 
#    y 0.000000 1.615370 0.000000 
#    z 0.000000 0.000000 1.673200 
# 
# From -- ./inp_files/25637.got.cif
#   From: 2010.05.17/outbox.cif.g08.bks.cpg/sg49_13_cif.got.tgz:25637.got - 2010.06.03 21:02:19.
