data_PCOD9392775
_publ_section_title
;
Structure prediction by ZEFSAII (Michael W. Deem and Ramdas Pophale) SiO2 
 PCOD9392775
Probable space group: P C C M
;
_chemical_formula_sum "Si O2"
_cell_formula_units_Z 64
_cell_length_a 17.230127
_cell_length_b 13.400708
_cell_length_c 14.884575
_cell_angle_alpha 90.000000
_cell_angle_beta 90.000000
_cell_angle_gamma 90.000000
_cell_volume 3436.787352
_symmetry_space_group_name_H-M "P C C M"
_symmetry_group_IT_number 49
_symmetry_cell_setting 'orthorhombic'
loop_
_space_group_symop_operation_xyz
x,y,z
-x,-y,z
x,-y,1/2-z
-x,y,1/2-z
-x,-y,-z
x,y,-z
-x,y,1/2+z
x,-y,1/2+z
loop_
_atom_site_type_symbol
_atom_site_label
_atom_site_fract_x
_atom_site_fract_y
_atom_site_fract_z
Si Si1 0.410281 0.500000 0.642368
Si Si2 0.187021 0.386705 0.250000
Si Si3 0.696959 0.797190 0.250000
Si Si4 0.092335 0.725177 0.895046
Si Si5 0.907665 0.725177 0.104954
Si Si6 0.590428 0.278667 0.603201
Si Si7 0.409571 0.721333 0.103201
Si Si8 0.141119 0.113882 0.750000
O O1 0.500000 0.500000 0.610543
O O2 0.409707 0.500000 0.750000
O O3 0.378944 0.606744 0.611005
O O4 0.378944 0.393256 0.611005
O O5 0.213236 0.500000 0.250000
O O6 0.256107 0.307479 0.250000
O O7 0.135976 0.360338 0.338174
O O8 0.135976 0.360338 0.161826
O O9 0.641845 0.792717 0.163998
O O10 0.641846 0.792717 0.336002
O O11 0.765212 0.877414 0.250000
O O12 0.111970 0.824869 0.837496
O O13 0.000000 0.709436 0.891503
O O14 0.115682 0.730780 0.000000
O O15 0.888030 0.824869 0.162504
O O16 0.884318 0.730780 0.000000
O O17 0.592715 0.249284 0.500000
O O18 0.500000 0.280017 0.633482
O O19 0.407285 0.750716 0.000000
O O20 0.115479 0.000000 0.750000
#
# Coordination Sequence:
#
# PCOD9392775 Si02
#       8
#     8   8   8   8   8   8   8   8
#     4   9  15  25  43  66  97 129 162 207 256 302
#     4  10  22  35  50  77 117 158 189 212 244 300
#     4  10  21  34  52  72 104 137 176 217 261 315
#     4   9  19  37  60  85 111 138 175 222 264 307
#     4   9  19  37  60  85 111 138 175 222 264 307
#     4  10  19  31  49  71  97 133 176 221 265 306
#     4  10  19  31  49  71  97 133 176 221 265 306
#     4  10  22  39  58  80 108 138 170 216 276 337
#
# _framework density 18.622042
#
# number of rings (size 3 to 8) (size 9 to 14) (size 15 to 20)
#    0.000    2.625    1.250    2.250    1.750    8.500 
#    0.000    2.500    0.000    1.500    0.000    1.750 
#    0.000    0.000    0.000    0.000    0.000    0.000 
#
# Total GULP energy -356848.127901 kJ/mol
# GULP energy per Si atom -5575.751998 kJ/mol
# Density = 1.857966 g / cm^3
# Si number density = 18.622042 Si / 1000 Ang^3
#
#
#
# Elastic Constant Matrix: (Units=GPa)
#
#
# Indices 1 2 3 4 5 6 
#
# 1 56.9074 -11.2601 25.8437 0.0000 0.0000 0.0000
# 2 -11.2601 42.1626 1.0032 0.0000 0.0000 0.0000
# 3 25.8437 1.0032 130.9954 0.0000 0.0000 0.0000
# 4 0.0000 0.0000 0.0000 8.0676 0.0000 0.0000
# 5 0.0000 0.0000 0.0000 0.0000 0.2645 0.0000
# 6 0.0000 0.0000 0.0000 0.0000 0.0000 6.9188
#
#
#
# Elastic Compliance Matrix: (Units=1/GPa)
#
#
# Indices 1 2 3 4 5 6 
#
# 1 0.020536 0.005582 -0.004094 0.000000 0.000000 0.000000
# 2 0.005582 0.025239 -0.001295 0.000000 0.000000 0.000000
# 3 -0.004094 -0.001295 0.008452 0.000000 0.000000 0.000000
# 4 0.000000 0.000000 0.000000 0.123953 0.000000 0.000000
# 5 0.000000 0.000000 0.000000 0.000000 3.780280 0.000000
# 6 0.000000 0.000000 0.000000 0.000000 0.000000 0.144533
#
#
# Mechanical properties :
#
#
# Convention : Reuss Voigt Hill
#
# Bulk Modulus (GPa) = 18.31057 29.02654 23.66855
# Shear Modulus (GPa) = 1.21335 17.34876 9.28106
#
# Velocity S-wave (km/s) = 0.80807 3.05556 2.23489
# Velocity P-wave (km/s) = 3.27486 5.29808 4.40422
#
# Compressibility (1/GPa) = 0.05461328
#
# Stress axis : x y z
#
# Youngs Moduli (GPa) = 48.69434 39.62082 118.32194
#
# Poissons Ratio (x) = -0.22116 0.48444
# Poissons Ratio (y) = -0.27181 0.15317
# Poissons Ratio (z) = 0.19937 0.05129
#
# Static dielectric constant tensor:
#      x y z
#    x 1.675700 0.000000 0.000000 
#    y 0.000000 1.628770 0.000000 
#    z 0.000000 0.000000 1.645170 
# 
# From -- ./inp_files/14236.got.cif
#   From: 2010.05.17/outbox.cif.g08.bks.cpg/sg49_8_cif.got.tgz:14236.got - 2010.06.03 21:02:19.
