data_PCOD9392309
_publ_section_title
;
Structure prediction by ZEFSAII (Michael W. Deem and Ramdas Pophale) SiO2 
 PCOD9392309
Probable space group: P C C M
;
_chemical_formula_sum "Si O2"
_cell_formula_units_Z 56
_cell_length_a 30.519738
_cell_length_b 13.757970
_cell_length_c 8.802935
_cell_angle_alpha 90.000000
_cell_angle_beta 90.000000
_cell_angle_gamma 90.000000
_cell_volume 3696.261206
_symmetry_space_group_name_H-M "P C C M"
_symmetry_group_IT_number 49
_symmetry_cell_setting 'orthorhombic'
loop_
_space_group_symop_operation_xyz
x,y,z
-x,-y,z
x,-y,1/2-z
-x,y,1/2-z
-x,-y,-z
x,y,-z
-x,y,1/2+z
x,-y,1/2+z
loop_
_atom_site_type_symbol
_atom_site_label
_atom_site_fract_x
_atom_site_fract_y
_atom_site_fract_z
Si Si1 0.178153 0.196758 0.318401
Si Si2 0.735211 0.109070 0.317261
Si Si3 0.544229 0.890275 0.182531
Si Si4 0.867489 0.601210 0.318957
Si Si5 0.092508 0.101983 0.818508
Si Si6 0.360847 0.108429 0.817538
Si Si7 0.952764 0.695361 0.818424
O O1 0.178558 0.184212 0.500000
O O2 0.224816 0.169717 0.249538
O O3 0.163604 0.307114 0.283144
O O4 0.140205 0.128602 0.248718
O O5 0.738519 0.104240 0.500000
O O6 0.686768 0.150288 0.275479
O O7 0.738197 0.000000 0.250000
O O8 0.500000 0.844185 0.250000
O O9 0.591931 0.846148 0.224436
O O10 0.545442 0.000000 0.250000
O O11 0.540512 0.895055 0.000000
O O12 0.851834 0.500000 0.250000
O O13 0.871187 0.593742 0.500000
O O14 0.914805 0.627889 0.249617
O O15 0.061443 0.193490 0.780319
O O16 0.077300 0.000000 0.750000
O O17 0.095488 0.094835 0.000000
O O18 0.360749 0.000000 0.750000
O O19 0.361183 0.100746 0.000000
O O20 0.000000 0.673602 0.750000
O O21 0.953370 0.685881 0.000000
#
# Coordination Sequence:
#
# PCOD9392309 Si02
#       7
#     8   8   8   8   8   8   8
#     4  10  20  33  48  67  89 112 139 173 210 250
#     4  10  18  28  42  60  84 114 145 178 214 252
#     4   9  14  20  29  42  61  88 126 170 212 249
#     4  10  21  37  56  74  92 112 137 170 208 249
#     4  10  20  33  49  68  91 120 149 177 206 242
#     4   8  15  24  33  47  69  98 133 172 211 248
#     4  10  21  36  53  73  96 119 145 174 206 243
#
# _framework density 15.150444
#
# number of rings (size 3 to 8) (size 9 to 14) (size 15 to 20)
#    0.000    2.429    0.000    3.429    0.000    5.143 
#    0.000    2.857    0.000    0.000    0.000    0.000 
#    0.000    0.000    0.000    0.000    0.000    0.714 
#
# Total GULP energy -312026.091578 kJ/mol
# GULP energy per Si atom -5571.894492 kJ/mol
# Density = 1.511596 g / cm^3
# Si number density = 15.150444 Si / 1000 Ang^3
#
#
#
# Elastic Constant Matrix: (Units=GPa)
#
#
# Indices 1 2 3 4 5 6 
#
# 1 122.0056 10.7687 29.8951 0.0000 0.0000 0.0000
# 2 10.7687 43.3211 18.9582 0.0000 0.0000 0.0000
# 3 29.8951 18.9582 40.7665 0.0000 0.0000 0.0000
# 4 0.0000 0.0000 0.0000 19.8594 0.0000 0.0000
# 5 0.0000 0.0000 0.0000 0.0000 23.2304 0.0000
# 6 0.0000 0.0000 0.0000 0.0000 0.0000 9.4359
#
#
#
# Elastic Compliance Matrix: (Units=1/GPa)
#
#
# Indices 1 2 3 4 5 6 
#
# 1 0.010020 0.000910 -0.007771 0.000000 0.000000 0.000000
# 2 0.000910 0.029064 -0.014183 0.000000 0.000000 0.000000
# 3 -0.007771 -0.014183 0.036825 0.000000 0.000000 0.000000
# 4 0.000000 0.000000 0.000000 0.050354 0.000000 0.000000
# 5 0.000000 0.000000 0.000000 0.000000 0.043047 0.000000
# 6 0.000000 0.000000 0.000000 0.000000 0.000000 0.105978
#
#
# Mechanical properties :
#
#
# Convention : Reuss Voigt Hill
#
# Bulk Modulus (GPa) = 29.56853 36.14858 32.85856
# Shear Modulus (GPa) = 15.21372 20.26990 17.74181
#
# Velocity S-wave (km/s) = 3.17231 3.66171 3.42576
# Velocity P-wave (km/s) = 5.74257 6.46444 6.11417
#
# Compressibility (1/GPa) = 0.03381973
#
# Stress axis : x y z
#
# Youngs Moduli (GPa) = 99.79814 34.40660 27.15564
#
# Poissons Ratio (x) = -0.03131 0.21103
# Poissons Ratio (y) = -0.09082 0.38516
# Poissons Ratio (z) = 0.77556 0.48801
#
# Static dielectric constant tensor:
#      x y z
#    x 1.546260 0.000000 0.000000 
#    y 0.000000 1.479420 0.000000 
#    z 0.000000 0.000000 1.504570 
# 
# From -- ./inp_files/7030.got.cif
#   From: 2010.05.17/outbox.cif.g08.bks.cpg/sg49_4_cif.got.tgz:7030.got - 2010.06.03 21:02:19.
