data_PCOD9392057
_publ_section_title
;
Structure prediction by ZEFSAII (Michael W. Deem and Ramdas Pophale) SiO2 
 PCOD9392057
Probable space group: P C C M
;
_chemical_formula_sum "Si O2"
_cell_formula_units_Z 48
_cell_length_a 5.366877
_cell_length_b 28.062511
_cell_length_c 14.320198
_cell_angle_alpha 90.000000
_cell_angle_beta 90.000000
_cell_angle_gamma 90.000000
_cell_volume 2156.737023
_symmetry_space_group_name_H-M "P C C M"
_symmetry_group_IT_number 49
_symmetry_cell_setting 'orthorhombic'
loop_
_space_group_symop_operation_xyz
x,y,z
-x,-y,z
x,-y,1/2-z
-x,y,1/2-z
-x,-y,-z
x,y,-z
-x,y,1/2+z
x,-y,1/2+z
loop_
_atom_site_type_symbol
_atom_site_label
_atom_site_fract_x
_atom_site_fract_y
_atom_site_fract_z
Si Si1 0.004817 0.054984 0.113503
Si Si2 0.375083 0.216509 0.114327
Si Si3 0.127025 0.270497 0.387925
Si Si4 0.747146 0.479350 0.141991
Si Si5 0.754446 0.373521 0.809127
Si Si6 0.503221 0.890898 0.613483
O O1 0.273150 0.075607 0.139485
O O2 0.769492 0.087453 0.144366
O O3 0.993762 0.055441 0.000000
O O4 0.000000 0.000000 0.142620
O O5 0.624520 0.243617 0.143548
O O6 0.419043 0.161939 0.143265
O O7 0.125766 0.244343 0.145842
O O8 0.364869 0.216459 0.000000
O O9 0.118794 0.267513 0.500000
O O10 0.167167 0.325283 0.361014
O O11 0.500000 0.500000 0.099475
O O12 0.747249 0.500000 0.250000
O O13 0.721878 0.422550 0.135589
O O14 0.000000 0.500000 0.102321
O O15 0.500000 0.365782 0.750000
O O16 0.000000 0.385124 0.750000
O O17 0.517252 0.889245 0.500000
#
# Coordination Sequence:
#
# PCOD9392057 Si02
#       6
#     8   8   8   8   8   8
#     4   9  15  21  30  50  79 108 146 203 253 281
#     4   9  17  31  47  63  87 127 172 207 241 295
#     4  10  21  35  50  71 102 132 164 212 259 293
#     4  10  16  30  49  75  97 124 159 201 233 285
#     4  12  21  33  55  81 101 129 168 207 249 301
#     4   9  15  23  37  53  73 111 161 199 232 288
#
# _framework density 22.255844
#
# number of rings (size 3 to 8) (size 9 to 14) (size 15 to 20)
#    0.000    2.167    3.333    2.500    0.000    6.000 
#    0.000    0.000    0.000    1.000    0.000    0.000 
#    0.000    0.000    0.000    0.000    0.000  175.000 
#
# Total GULP energy -267992.670726 kJ/mol
# GULP energy per Si atom -5583.180640 kJ/mol
# Density = 2.220519 g / cm^3
# Si number density = 22.255844 Si / 1000 Ang^3
#
#
#
# Elastic Constant Matrix: (Units=GPa)
#
#
# Indices 1 2 3 4 5 6 
#
# 1 -905.3133-1352.7586 -293.6423 0.0000 0.0000 0.0000
# 2 -1352.7586-1630.1487 -392.2599 0.0000 0.0000 0.0000
# 3 -293.6423 -392.2599 -12.3830 0.0000 0.0000 0.0000
# 4 0.0000 0.0000 0.0000 6.3491 0.0000 0.0000
# 5 0.0000 0.0000 0.0000 0.0000 -7.1345 0.0000
# 6 0.0000 0.0000 0.0000 0.0000 0.0000 50.2051
#
#
#
# Elastic Compliance Matrix: (Units=1/GPa)
#
#
# Indices 1 2 3 4 5 6 
#
# 1 0.004881 -0.003594 -0.001897 0.000000 0.000000 0.000000
# 2 -0.003594 0.002739 -0.001538 0.000000 0.000000 0.000000
# 3 -0.001897 -0.001538 0.012931 0.000000 0.000000 0.000000
# 4 0.000000 0.000000 0.000000 0.157502 0.000000 0.000000
# 5 0.000000 0.000000 0.000000 0.000000 -0.140164 0.000000
# 6 0.000000 0.000000 0.000000 0.000000 0.000000 0.019918
#
#
# Mechanical properties :
#
#
# Convention : Reuss Voigt Hill
#
# Bulk Modulus (GPa) = 153.97585 -736.12962 -291.07688
# Shear Modulus (GPa) = 67.54041 -24.06165 21.73938
#
# Velocity S-wave (km/s) = 5.51481 -3.29163 3.12876
# Velocity P-wave (km/s) = 10.48263 18.59899 10.86363
#
# Compressibility (1/GPa) = 0.00649452
#
# Stress axis : x y z
#
# Youngs Moduli (GPa) = 204.87117 365.09264 77.33082
#
# Poissons Ratio (x) = 1.31217 0.14669
# Poissons Ratio (y) = 0.73632 0.11890
# Poissons Ratio (z) = 0.38863 0.56134
#
# Static dielectric constant tensor:
#      x y z
#    x 1.769130 0.000000 0.000000 
#    y 0.000000 1.895720 0.000000 
#    z 0.000000 0.000000 1.844460 
# 
# From -- ./inp_files/14576.got.cif
#   From: 2010.05.17/outbox.cif.g08.bks.cpg/sg49_8_cif.got.tgz:14576.got - 2010.06.03 21:02:19.
