data_PCOD9392083
_publ_section_title
;
Structure prediction by ZEFSAII (Michael W. Deem and Ramdas Pophale) SiO2 
 PCOD9392083
Probable space group: P C C M
;
_chemical_formula_sum "Si O2"
_cell_formula_units_Z 48
_cell_length_a 24.676104
_cell_length_b 13.800245
_cell_length_c 8.731944
_cell_angle_alpha 90.000000
_cell_angle_beta 90.000000
_cell_angle_gamma 90.000000
_cell_volume 2973.543734
_symmetry_space_group_name_H-M "P C C M"
_symmetry_group_IT_number 49
_symmetry_cell_setting 'orthorhombic'
loop_
_space_group_symop_operation_xyz
x,y,z
-x,-y,z
x,-y,1/2-z
-x,y,1/2-z
-x,-y,-z
x,y,-z
-x,y,1/2+z
x,-y,1/2+z
loop_
_atom_site_type_symbol
_atom_site_label
_atom_site_fract_x
_atom_site_fract_y
_atom_site_fract_z
Si Si1 0.555432 0.390121 0.183403
Si Si2 0.835205 0.898299 0.816963
Si Si3 0.111791 0.397453 0.317492
Si Si4 0.217492 0.303790 0.183732
Si Si5 0.667148 0.608609 0.815808
Si Si6 0.058516 0.805160 0.183674
O O1 0.556406 0.500000 0.250000
O O2 0.500000 0.345459 0.250000
O O3 0.612183 0.348038 0.243634
O O4 0.553744 0.393083 0.000000
O O5 0.797608 0.806565 0.775157
O O6 0.894318 0.872871 0.749865
O O7 0.816106 0.000000 0.750000
O O8 0.838397 0.903776 0.000000
O O9 0.093996 0.500000 0.250000
O O10 0.111706 0.403317 0.500000
O O11 0.172385 0.371850 0.260637
O O12 0.075114 0.305258 0.271389
O O13 0.278414 0.333379 0.223575
O O14 0.211538 0.313897 0.000000
O O15 0.673679 0.500000 0.750000
O O16 0.661408 0.603766 0.000000
O O17 0.000000 0.829182 0.250000
O O18 0.058351 0.811250 0.000000
#
# Coordination Sequence:
#
# PCOD9392083 Si02
#       6
#     8   8   8   8   8   8
#     4  10  17  26  39  57  84 121 160 196 228 261
#     4  10  20  36  55  74  94 118 146 183 230 279
#     4  10  20  32  48  68  93 123 155 187 224 266
#     4   9  19  33  49  68  93 121 152 189 229 271
#     4  10  18  28  42  64  92 124 158 191 224 262
#     4  10  21  36  52  72  94 119 150 187 225 269
#
# _framework density 16.142354999999998
#
# number of rings (size 3 to 8) (size 9 to 14) (size 15 to 20)
#    0.000    2.167    0.000    5.500    0.000    6.000 
#    0.000    3.333    0.000    0.000    0.000    0.000 
#    0.000    0.667    0.000    7.667    0.000    2.333 
#
# Total GULP energy -267798.255805 kJ/mol
# GULP energy per Si atom -5579.130329 kJ/mol
# Density = 1.610561 g / cm^3
# Si number density = 16.142355 Si / 1000 Ang^3
#
#
#
# Elastic Constant Matrix: (Units=GPa)
#
#
# Indices 1 2 3 4 5 6 
#
# 1 106.9936 11.7945 32.9855 0.0000 0.0000 0.0000
# 2 11.7945 54.7644 16.9015 0.0000 0.0000 0.0000
# 3 32.9855 16.9015 61.8800 0.0000 0.0000 0.0000
# 4 0.0000 0.0000 0.0000 21.2110 0.0000 0.0000
# 5 0.0000 0.0000 0.0000 0.0000 60.2001 0.0000
# 6 0.0000 0.0000 0.0000 0.0000 0.0000 8.9351
#
#
#
# Elastic Compliance Matrix: (Units=1/GPa)
#
#
# Indices 1 2 3 4 5 6 
#
# 1 0.011204 -0.000622 -0.005802 0.000000 0.000000 0.000000
# 2 -0.000622 0.019976 -0.005124 0.000000 0.000000 0.000000
# 3 -0.005802 -0.005124 0.020653 0.000000 0.000000 0.000000
# 4 0.000000 0.000000 0.000000 0.047145 0.000000 0.000000
# 5 0.000000 0.000000 0.000000 0.000000 0.016611 0.000000
# 6 0.000000 0.000000 0.000000 0.000000 0.000000 0.111918
#
#
# Mechanical properties :
#
#
# Convention : Reuss Voigt Hill
#
# Bulk Modulus (GPa) = 34.80133 38.55567 36.67850
# Shear Modulus (GPa) = 19.21731 28.86635 24.04183
#
# Velocity S-wave (km/s) = 3.45409 4.23334 3.86341
# Velocity P-wave (km/s) = 6.12482 6.91604 6.53242
#
# Compressibility (1/GPa) = 0.02873453
#
# Stress axis : x y z
#
# Youngs Moduli (GPa) = 89.25585 50.06126 48.41940
#
# Poissons Ratio (x) = 0.03115 0.28094
# Poissons Ratio (y) = 0.05554 0.24812
# Poissons Ratio (z) = 0.51789 0.25653
#
# Static dielectric constant tensor:
#      x y z
#    x 1.561760 0.000000 0.000000 
#    y 0.000000 1.531840 0.000000 
#    z 0.000000 0.000000 1.538550 
# 
# From -- ./inp_files/2887.got.cif
#   From: 2010.05.17/outbox.cif.g08.bks.cpg/sg49_2_cif.got.tgz:2887.got - 2010.06.03 21:02:19.
