data_PCOD9392365
_publ_section_title
;
Structure prediction by ZEFSAII (Michael W. Deem and Ramdas Pophale) SiO2 
 PCOD9392365
Probable space group: P C C M
;
_chemical_formula_sum "Si O2"
_cell_formula_units_Z 32
_cell_length_a 9.045028
_cell_length_b 5.544734
_cell_length_c 24.037767
_cell_angle_alpha 90.000000
_cell_angle_beta 90.000000
_cell_angle_gamma 90.000000
_cell_volume 1205.548684
_symmetry_space_group_name_H-M "P C C M"
_symmetry_group_IT_number 49
_symmetry_cell_setting 'orthorhombic'
loop_
_space_group_symop_operation_xyz
x,y,z
-x,-y,z
x,-y,1/2-z
-x,y,1/2-z
-x,-y,-z
x,y,-z
-x,y,1/2+z
x,-y,1/2+z
loop_
_atom_site_type_symbol
_atom_site_label
_atom_site_fract_x
_atom_site_fract_y
_atom_site_fract_z
Si Si1 0.278455 0.886248 0.562938
Si Si2 0.000000 0.000000 0.356435
Si Si3 0.317820 0.615211 0.100010
Si Si4 0.668087 0.252812 0.772166
Si Si5 0.000000 0.500000 0.641168
O O1 0.235788 0.820902 0.500000
O O2 0.371720 0.657579 0.586886
O O3 0.139876 0.944104 0.603599
O O4 0.348565 0.154354 0.561860
O O5 0.005404 0.252000 0.324639
O O6 0.346474 0.711677 0.162079
O O7 0.141451 0.547344 0.101696
O O8 0.738471 0.500000 0.750000
O O9 0.500000 0.250281 0.750000
O O10 0.732776 0.000000 0.750000
#
# Coordination Sequence:
#
# PCOD9392365 Si02
#       5
#     8   4   8   8   4
#     4  10  18  29  48  78 113 152 182 211 260 324
#     4   8  15  26  42  68 107 150 191 212 234 300
#     4  10  19  33  52  78 113 144 180 229 268 323
#     4  10  21  38  60  84 101 131 189 247 292 329
#     4   8  16  28  46  72 108 148 174 210 272 316
#
# _framework density 26.543928999999999
#
# number of rings (size 3 to 8) (size 9 to 14) (size 15 to 20)
#    0.000    2.500    0.000    2.625    0.000    0.000 
#    0.000    8.125    0.000    1.500    0.000   70.000 
#    0.000    0.000    0.000    0.000    0.000    0.000 
#
# Total GULP energy -178450.959890 kJ/mol
# GULP energy per Si atom -5576.592497 kJ/mol
# Density = 2.648351 g / cm^3
# Si number density = 26.543929 Si / 1000 Ang^3
#
#
#
# Elastic Constant Matrix: (Units=GPa)
#
#
# Indices 1 2 3 4 5 6 
#
# 1 59.3446 24.5268 15.9955 0.0000 0.0000 0.0000
# 2 24.5268 374.4999 59.2478 0.0000 0.0000 0.0000
# 3 15.9955 59.2478 146.5283 0.0000 0.0000 0.0000
# 4 0.0000 0.0000 0.0000 32.3455 0.0000 0.0000
# 5 0.0000 0.0000 0.0000 0.0000 6.8411 0.0000
# 6 0.0000 0.0000 0.0000 0.0000 0.0000 36.5817
#
#
#
# Elastic Compliance Matrix: (Units=1/GPa)
#
#
# Indices 1 2 3 4 5 6 
#
# 1 0.017647 -0.000909 -0.001559 0.000000 0.000000 0.000000
# 2 -0.000909 0.002900 -0.001073 0.000000 0.000000 0.000000
# 3 -0.001559 -0.001073 0.007429 0.000000 0.000000 0.000000
# 4 0.000000 0.000000 0.000000 0.030916 0.000000 0.000000
# 5 0.000000 0.000000 0.000000 0.000000 0.146174 0.000000
# 6 0.000000 0.000000 0.000000 0.000000 0.000000 0.027336
#
#
# Mechanical properties :
#
#
# Convention : Reuss Voigt Hill
#
# Bulk Modulus (GPa) = 47.86345 86.65699 67.26022
# Shear Modulus (GPa) = 20.28826 47.19383 33.74105
#
# Velocity S-wave (km/s) = 2.76765 4.22115 3.56917
# Velocity P-wave (km/s) = 5.31828 7.51498 6.50996
#
# Compressibility (1/GPa) = 0.02089277
#
# Stress axis : x y z
#
# Youngs Moduli (GPa) = 56.66815 344.88121 134.61283
#
# Poissons Ratio (x) = 0.31353 0.20983
# Poissons Ratio (y) = 0.05152 0.14446
# Poissons Ratio (z) = 0.08833 0.37012
#
# Static dielectric constant tensor:
#      x y z
#    x 2.032340 0.000000 0.000000 
#    y 0.000000 2.326750 0.000000 
#    z 0.000000 0.000000 1.968150 
# 
# From -- ./inp_files/21590.got.cif
#   From: 2010.05.17/outbox.cif.g08.bks.cpg/sg49_11_cif.got.tgz:21590.got - 2010.06.03 21:02:19.
