data_PCOD9392710
_publ_section_title
;
Structure prediction by ZEFSAII (Michael W. Deem and Ramdas Pophale) SiO2 
 PCOD9392710
Probable space group: P C C M
;
_chemical_formula_sum "Si O2"
_cell_formula_units_Z 34
_cell_length_a 19.859250
_cell_length_b 7.133226
_cell_length_c 10.557195
_cell_angle_alpha 90.000000
_cell_angle_beta 90.000000
_cell_angle_gamma 90.000000
_cell_volume 1495.537717
_symmetry_space_group_name_H-M "P C C M"
_symmetry_group_IT_number 49
_symmetry_cell_setting 'orthorhombic'
loop_
_space_group_symop_operation_xyz
x,y,z
-x,-y,z
x,-y,1/2-z
-x,y,1/2-z
-x,-y,-z
x,y,-z
-x,y,1/2+z
x,-y,1/2+z
loop_
_atom_site_type_symbol
_atom_site_label
_atom_site_fract_x
_atom_site_fract_y
_atom_site_fract_z
Si Si1 0.335615 0.689321 0.500000
Si Si2 0.886500 0.773241 0.267242
Si Si3 0.000000 0.500000 0.750000
Si Si4 0.647285 0.759963 0.500000
Si Si5 0.174030 0.255292 0.000000
Si Si6 0.421869 0.727721 0.744075
Si Si7 0.800718 0.826659 0.500000
O O1 0.346663 0.465761 0.500000
O O2 0.254465 0.707689 0.500000
O O3 0.374780 0.767938 0.622971
O O4 0.950042 0.651797 0.314685
O O5 0.827667 0.741465 0.369767
O O6 0.899314 0.000000 0.250000
O O7 0.862541 0.693111 0.131039
O O8 0.610137 0.807839 0.628790
O O9 0.721445 0.840568 0.500000
O O10 0.168635 0.031729 0.000000
O O11 0.422137 0.500000 0.750000
O O12 0.500000 0.783525 0.750000
#
# Coordination Sequence:
#
# PCOD9392710 Si02
#       7
#     4   8   2   4   4   8   4
#     4  10  19  30  54  81 107 145 198 243 284 345
#     4  10  24  42  62  91 122 158 199 240 295 355
#     4  12  26  42  72  92 124 162 188 250 288 360
#     4  10  19  30  54  81 107 145 198 243 284 345
#     4  10  22  41  60  83 121 157 193 244 294 347
#     4   9  17  30  48  78 114 148 186 242 299 342
#     4  10  22  41  60  83 121 157 193 244 294 347
#
# _framework density 22.734297000000002
#
# number of rings (size 3 to 8) (size 9 to 14) (size 15 to 20)
#    0.000    2.118    0.000    2.471    3.294    4.706 
#    0.000    3.529    0.000    4.235    0.000    0.000 
#    0.000    0.000    0.000    0.000    0.000    0.000 
#
# Total GULP energy -189699.529398 kJ/mol
# GULP energy per Si atom -5579.397923 kJ/mol
# Density = 2.268255 g / cm^3
# Si number density = 22.734297 Si / 1000 Ang^3
#
#
#
# Elastic Constant Matrix: (Units=GPa)
#
#
# Indices 1 2 3 4 5 6 
#
# 1 123.2114 1.3675 53.1646 0.0000 0.0000 0.0000
# 2 1.3675 107.2592 4.5844 0.0000 0.0000 0.0000
# 3 53.1646 4.5844 158.0519 0.0000 0.0000 0.0000
# 4 0.0000 0.0000 0.0000 -22.9231 0.0000 0.0000
# 5 0.0000 0.0000 0.0000 0.0000 338.8482 0.0000
# 6 0.0000 0.0000 0.0000 0.0000 0.0000 23.9856
#
#
#
# Elastic Compliance Matrix: (Units=1/GPa)
#
#
# Indices 1 2 3 4 5 6 
#
# 1 0.009494 0.000015 -0.003194 0.000000 0.000000 0.000000
# 2 0.000015 0.009335 -0.000276 0.000000 0.000000 0.000000
# 3 -0.003194 -0.000276 0.007409 0.000000 0.000000 0.000000
# 4 0.000000 0.000000 0.000000 -0.043624 0.000000 0.000000
# 5 0.000000 0.000000 0.000000 0.000000 0.002951 0.000000
# 6 0.000000 0.000000 0.000000 0.000000 0.000000 0.041692
#
#
# Mechanical properties :
#
#
# Convention : Reuss Voigt Hill
#
# Bulk Modulus (GPa) = 51.73485 56.30617 54.02051
# Shear Modulus (GPa) = 123.12451 89.94254 106.53353
#
# Velocity S-wave (km/s) = 7.36720 6.29670 6.85288
# Velocity P-wave (km/s) = 9.75567 8.81393 9.29673
#
# Compressibility (1/GPa) = 0.01932933
#
# Stress axis : x y z
#
# Youngs Moduli (GPa) = 105.32795 107.12595 134.96310
#
# Poissons Ratio (x) = -0.00166 0.43108
# Poissons Ratio (y) = -0.00163 0.03725
# Poissons Ratio (z) = 0.33642 0.02956
#
# Static dielectric constant tensor:
#      x y z
#    x 1.782340 0.000000 0.000000 
#    y 0.000000 1.900170 0.000000 
#    z 0.000000 0.000000 1.838400 
# 
# From -- ./inp_files/1600.got.cif
#   From: 2010.05.17/outbox.cif.g08.bks.cpg/sg49_1_cif.got.tgz:1600.got - 2010.06.03 21:02:19.
