data_PCOD9392540
_publ_section_title
;
Structure prediction by ZEFSAII (Michael W. Deem and Ramdas Pophale) SiO2 
 PCOD9392540
Probable space group: P C C M
;
_chemical_formula_sum "Si O2"
_cell_formula_units_Z 56
_cell_length_a 10.357526
_cell_length_b 16.014834
_cell_length_c 15.821665
_cell_angle_alpha 90.000000
_cell_angle_beta 90.000000
_cell_angle_gamma 90.000000
_cell_volume 2624.403802
_symmetry_space_group_name_H-M "P C C M"
_symmetry_group_IT_number 49
_symmetry_cell_setting 'orthorhombic'
loop_
_space_group_symop_operation_xyz
x,y,z
-x,-y,z
x,-y,1/2-z
-x,y,1/2-z
-x,-y,-z
x,y,-z
-x,y,1/2+z
x,-y,1/2+z
loop_
_atom_site_type_symbol
_atom_site_label
_atom_site_fract_x
_atom_site_fract_y
_atom_site_fract_z
Si Si1 0.509036 0.769088 0.096121
Si Si2 0.260446 0.670072 0.159408
Si Si3 0.871478 0.966224 0.653461
Si Si4 0.771399 0.312626 0.363275
Si Si5 0.618961 0.937463 0.094257
Si Si6 0.972461 0.779602 0.349867
Si Si7 0.149257 0.496370 0.146939
O O1 0.390062 0.719352 0.136094
O O2 0.636390 0.713242 0.097733
O O3 0.562612 0.854724 0.139349
O O4 0.467384 0.789376 0.000000
O O5 0.245903 0.681615 0.260937
O O6 0.132535 0.712932 0.121531
O O7 0.244558 0.574255 0.129575
O O8 0.896896 0.867829 0.643510
O O9 0.875461 0.000000 0.750000
O O10 0.740551 0.008576 0.623361
O O11 0.000000 0.000000 0.608852
O O12 0.804381 0.407344 0.385983
O O13 0.886305 0.246383 0.385567
O O14 0.500000 0.000000 0.092010
O O15 0.654646 0.908740 0.000000
O O16 0.000000 0.772242 0.250000
O O17 0.144113 0.500000 0.250000
O O18 0.000000 0.500000 0.119035
#
# Coordination Sequence:
#
# PCOD9392540 Si02
#       7
#     8   8   8   8   8   8   8
#     4  11  24  41  57  83 120 160 203 243 292 348
#     4  10  20  35  62  88 115 153 197 243 295 354
#     4  11  21  35  55  89 122 146 189 245 303 350
#     4  10  20  36  62  89 120 150 192 245 301 351
#     4  10  23  43  60  77 113 161 205 244 283 343
#     4  10  18  33  58  89 117 147 187 248 298 350
#     4   9  16  33  59  93 118 146 190 244 298 355
#
# _framework density 21.338180000000001
#
# number of rings (size 3 to 8) (size 9 to 14) (size 15 to 20)
#    0.000    1.857    2.857    2.143    2.000    1.143 
#    2.571    5.000    0.000    0.857    0.000    0.000 
#    0.000    0.000    0.000    0.000    0.000    0.000 
#
# Total GULP energy -311810.180038 kJ/mol
# GULP energy per Si atom -5568.038929 kJ/mol
# Density = 2.128961 g / cm^3
# Si number density = 21.338180 Si / 1000 Ang^3
#
#
#
# Elastic Constant Matrix: (Units=GPa)
#
#
# Indices 1 2 3 4 5 6 
#
# 1 181.0219 73.3499 20.0177 0.0000 0.0000 0.0000
# 2 73.3499 149.5472 14.4489 0.0000 0.0000 0.0000
# 3 20.0177 14.4489 23.7528 0.0000 0.0000 0.0000
# 4 0.0000 0.0000 0.0000 12.4377 0.0000 0.0000
# 5 0.0000 0.0000 0.0000 0.0000 -24.3161 0.0000
# 6 0.0000 0.0000 0.0000 0.0000 0.0000 44.7528
#
#
#
# Elastic Compliance Matrix: (Units=1/GPa)
#
#
# Indices 1 2 3 4 5 6 
#
# 1 0.007269 -0.003159 -0.004204 0.000000 0.000000 0.000000
# 2 -0.003159 0.008477 -0.002494 0.000000 0.000000 0.000000
# 3 -0.004204 -0.002494 0.047161 0.000000 0.000000 0.000000
# 4 0.000000 0.000000 0.000000 0.080400 0.000000 0.000000
# 5 0.000000 0.000000 0.000000 0.000000 -0.041125 0.000000
# 6 0.000000 0.000000 0.000000 0.000000 0.000000 0.022345
#
#
# Mechanical properties :
#
#
# Convention : Reuss Voigt Hill
#
# Bulk Modulus (GPa) = 23.15268 63.32833 43.24051
# Shear Modulus (GPa) = 31.51767 23.00857 27.26312
#
# Velocity S-wave (km/s) = 3.84742 3.28728 3.57833
# Velocity P-wave (km/s) = 5.53270 6.64463 6.11400
#
# Compressibility (1/GPa) = 0.04319154
#
# Stress axis : x y z
#
# Youngs Moduli (GPa) = 137.56632 117.96102 21.20398
#
# Poissons Ratio (x) = 0.37266 0.08915
# Poissons Ratio (y) = 0.43460 0.05289
# Poissons Ratio (z) = 0.57838 0.29424
#
# Static dielectric constant tensor:
#      x y z
#    x 1.759170 0.000000 0.000000 
#    y 0.000000 1.874200 0.000000 
#    z 0.000000 0.000000 1.815030 
# 
# From -- ./inp_files/19903.got.cif
#   From: 2010.05.17/outbox.cif.g08.bks.cpg/sg49_10_cif.got.tgz:19903.got - 2010.06.03 21:02:19.
