data_PCOD9392370
_publ_section_title
;
Structure prediction by ZEFSAII (Michael W. Deem and Ramdas Pophale) SiO2 
 PCOD9392370
Probable space group: P C C M
;
_chemical_formula_sum "Si O2"
_cell_formula_units_Z 64
_cell_length_a 24.289183
_cell_length_b 19.529504
_cell_length_c 8.637617
_cell_angle_alpha 90.000000
_cell_angle_beta 90.000000
_cell_angle_gamma 90.000000
_cell_volume 4097.302829
_symmetry_space_group_name_H-M "P C C M"
_symmetry_group_IT_number 49
_symmetry_cell_setting 'orthorhombic'
loop_
_space_group_symop_operation_xyz
x,y,z
-x,-y,z
x,-y,1/2-z
-x,y,1/2-z
-x,-y,-z
x,y,-z
-x,y,1/2+z
x,-y,1/2+z
loop_
_atom_site_type_symbol
_atom_site_label
_atom_site_fract_x
_atom_site_fract_y
_atom_site_fract_z
Si Si1 0.241560 0.926632 0.315321
Si Si2 0.838172 0.294770 0.314945
Si Si3 0.732529 0.214957 0.185953
Si Si4 0.939698 0.212158 0.815293
Si Si5 0.111386 0.926200 0.685607
Si Si6 0.440578 0.423254 0.313161
Si Si7 0.779158 0.424107 0.813715
Si Si8 0.668023 0.654269 0.687542
O O1 0.245763 0.926276 0.500000
O O2 0.273120 0.861951 0.245401
O O3 0.176449 0.918655 0.275035
O O4 0.259455 0.000000 0.250000
O O5 0.838714 0.293420 0.500000
O O6 0.789051 0.245878 0.254115
O O7 0.894847 0.265180 0.249766
O O8 0.822790 0.369999 0.253297
O O9 0.685216 0.268930 0.234121
O O10 0.736473 0.215517 0.000000
O O11 0.921157 0.136800 0.758404
O O12 0.000000 0.227027 0.750000
O O13 0.939756 0.213893 0.000000
O O14 0.106122 0.924628 0.500000
O O15 0.093383 0.000000 0.750000
O O16 0.430964 0.500000 0.250000
O O17 0.500000 0.400809 0.250000
O O18 0.442158 0.425549 0.500000
O O19 0.390350 0.375104 0.260520
O O20 0.786852 0.500000 0.750000
O O21 0.718773 0.395036 0.766551
O O22 0.781825 0.423492 0.000000
O O23 0.666887 0.653667 0.500000
#
# Coordination Sequence:
#
# PCOD9392370 Si02
#       8
#     8   8   8   8   8   8   8   8
#     4  10  19  30  47  70  98 129 161 195 235 286
#     4  11  21  35  52  73  98 125 156 193 237 290
#     4  10  18  31  50  71  96 127 160 199 245 288
#     4  12  24  38  55  73  95 124 158 198 239 285
#     4  10  20  34  51  72  98 126 160 196 235 281
#     4  10  18  30  45  65  95 133 174 209 242 281
#     4  10  19  33  52  76 100 127 158 196 243 288
#     4   8  17  30  46  69  99 131 165 203 242 284
#
# _framework density 15.620032
#
# number of rings (size 3 to 8) (size 9 to 14) (size 15 to 20)
#    0.000    1.875    1.250    5.625    0.000    1.250 
#    0.000    8.125    0.000    0.375    0.000    2.625 
#    0.000    0.500    0.000    5.750    0.000    1.750 
#
# Total GULP energy -357251.644958 kJ/mol
# GULP energy per Si atom -5582.056952 kJ/mol
# Density = 1.558448 g / cm^3
# Si number density = 15.620032 Si / 1000 Ang^3
#
#
#
# Elastic Constant Matrix: (Units=GPa)
#
#
# Indices 1 2 3 4 5 6 
#
# 1 113.5335 77.3637 39.6673 0.0000 0.0000 0.0000
# 2 77.3637 146.6744 46.8065 0.0000 0.0000 0.0000
# 3 39.6673 46.8065 79.4111 0.0000 0.0000 0.0000
# 4 0.0000 0.0000 0.0000 28.6181 0.0000 0.0000
# 5 0.0000 0.0000 0.0000 0.0000 9.4488 0.0000
# 6 0.0000 0.0000 0.0000 0.0000 0.0000 25.6411
#
#
#
# Elastic Compliance Matrix: (Units=1/GPa)
#
#
# Indices 1 2 3 4 5 6 
#
# 1 0.014441 -0.006546 -0.003355 0.000000 0.000000 0.000000
# 2 -0.006546 0.011365 -0.003429 0.000000 0.000000 0.000000
# 3 -0.003355 -0.003429 0.016290 0.000000 0.000000 0.000000
# 4 0.000000 0.000000 0.000000 0.034943 0.000000 0.000000
# 5 0.000000 0.000000 0.000000 0.000000 0.105834 0.000000
# 6 0.000000 0.000000 0.000000 0.000000 0.000000 0.039000
#
#
# Mechanical properties :
#
#
# Convention : Reuss Voigt Hill
#
# Bulk Modulus (GPa) = 64.78628 74.14380 69.46504
# Shear Modulus (GPa) = 19.71012 24.46036 22.08524
#
# Velocity S-wave (km/s) = 3.55611 3.96152 3.76427
# Velocity P-wave (km/s) = 7.64380 8.27617 7.96626
#
# Compressibility (1/GPa) = 0.01543537
#
# Stress axis : x y z
#
# Youngs Moduli (GPa) = 69.24779 87.99093 61.38917
#
# Poissons Ratio (x) = 0.57601 0.20596
# Poissons Ratio (y) = 0.45331 0.21048
# Poissons Ratio (z) = 0.23233 0.30169
#
# Static dielectric constant tensor:
#      x y z
#    x 1.507700 0.000000 0.000000 
#    y 0.000000 1.520010 0.000000 
#    z 0.000000 0.000000 1.521880 
# 
# From -- ./inp_files/6611.got.cif
#   From: 2010.05.17/outbox.cif.g08.bks.cpg/sg49_4_cif.got.tgz:6611.got - 2010.06.03 21:02:19.
