data_PCOD9392866
_publ_section_title
;
Structure prediction by ZEFSAII (Michael W. Deem and Ramdas Pophale) SiO2 
 PCOD9392866
Probable space group: P C C M
;
_chemical_formula_sum "Si O2"
_cell_formula_units_Z 56
_cell_length_a 15.644229
_cell_length_b 20.202791
_cell_length_c 9.113912
_cell_angle_alpha 90.000000
_cell_angle_beta 90.000000
_cell_angle_gamma 90.000000
_cell_volume 2880.516495
_symmetry_space_group_name_H-M "P C C M"
_symmetry_group_IT_number 49
_symmetry_cell_setting 'orthorhombic'
loop_
_space_group_symop_operation_xyz
x,y,z
-x,-y,z
x,-y,1/2-z
-x,y,1/2-z
-x,-y,-z
x,y,-z
-x,y,1/2+z
x,-y,1/2+z
loop_
_atom_site_type_symbol
_atom_site_label
_atom_site_fract_x
_atom_site_fract_y
_atom_site_fract_z
Si Si1 0.409587 0.428073 0.677975
Si Si2 0.283068 0.675745 0.322000
Si Si3 0.916639 0.841854 0.834464
Si Si4 0.413393 0.206987 0.824212
Si Si5 0.086191 0.317206 0.167479
Si Si6 0.611210 0.933569 0.665717
Si Si7 0.814750 0.936202 0.337605
O O1 0.392598 0.500000 0.750000
O O2 0.500000 0.406837 0.750000
O O3 0.415026 0.431369 0.500000
O O4 0.337518 0.378135 0.734177
O O5 0.287220 0.665944 0.500000
O O6 0.331200 0.746051 0.294066
O O7 0.183018 0.670151 0.277732
O O8 0.918076 0.762765 0.834836
O O9 0.836704 0.870283 0.749379
O O10 0.000000 0.866154 0.750000
O O11 0.915361 0.865721 0.000000
O O12 0.500000 0.235390 0.750000
O O13 0.404104 0.133694 0.755750
O O14 0.423476 0.203417 0.000000
O O15 0.000000 0.340197 0.250000
O O16 0.081491 0.341198 0.000000
O O17 0.575251 0.928988 0.500000
O O18 0.713248 0.940549 0.652085
O O19 0.584957 0.000000 0.750000
O O20 0.851781 0.933948 0.500000
O O21 0.846936 0.000000 0.250000
#
# Coordination Sequence:
#
# PCOD9392866 Si02
#       7
#     8   8   8   8   8   8   8
#     4  11  22  38  62  92 127 166 204 242 285 339
#     4  10  21  38  60  88 122 158 195 240 291 343
#     4  10  19  32  49  70  97 130 169 216 273 335
#     4  11  23  38  57  82 114 149 189 237 291 346
#     4   9  19  35  56  82 113 148 187 232 282 335
#     4  10  21  37  56  76 101 136 182 232 284 342
#     4  10  20  33  49  69  92 122 163 215 272 334
#
# _framework density 19.440957999999998
#
# number of rings (size 3 to 8) (size 9 to 14) (size 15 to 20)
#    0.000    1.857    0.000    4.714    0.000    6.857 
#    0.000    2.857    0.000    0.429    0.000    3.000 
#    0.000    0.000    0.000    0.000    0.000    0.000 
#
# Total GULP energy -312435.248477 kJ/mol
# GULP energy per Si atom -5579.200866 kJ/mol
# Density = 1.939671 g / cm^3
# Si number density = 19.440958 Si / 1000 Ang^3
#
#
#
# Elastic Constant Matrix: (Units=GPa)
#
#
# Indices 1 2 3 4 5 6 
#
# 1 140.4331 50.3776 67.6557 0.0000 0.0000 0.0000
# 2 50.3776 68.6403 48.7987 0.0000 0.0000 0.0000
# 3 67.6557 48.7987 138.9076 0.0000 0.0000 0.0000
# 4 0.0000 0.0000 0.0000 28.7152 0.0000 0.0000
# 5 0.0000 0.0000 0.0000 0.0000 28.0784 0.0000
# 6 0.0000 0.0000 0.0000 0.0000 0.0000 24.6994
#
#
#
# Elastic Compliance Matrix: (Units=1/GPa)
#
#
# Indices 1 2 3 4 5 6 
#
# 1 0.010669 -0.005513 -0.003260 0.000000 0.000000 0.000000
# 2 -0.005513 0.022267 -0.005137 0.000000 0.000000 0.000000
# 3 -0.003260 -0.005137 0.010591 0.000000 0.000000 0.000000
# 4 0.000000 0.000000 0.000000 0.034825 0.000000 0.000000
# 5 0.000000 0.000000 0.000000 0.000000 0.035615 0.000000
# 6 0.000000 0.000000 0.000000 0.000000 0.000000 0.040487
#
#
# Mechanical properties :
#
#
# Convention : Reuss Voigt Hill
#
# Bulk Modulus (GPa) = 63.66360 75.73836 69.70098
# Shear Modulus (GPa) = 26.66534 28.37521 27.52028
#
# Velocity S-wave (km/s) = 3.70754 3.82456 3.76650
# Velocity P-wave (km/s) = 7.15165 7.65152 7.40580
#
# Compressibility (1/GPa) = 0.01570756
#
# Stress axis : x y z
#
# Youngs Moduli (GPa) = 93.73096 44.90908 94.41564
#
# Poissons Ratio (x) = 0.24758 0.30776
# Poissons Ratio (y) = 0.51673 0.48506
# Poissons Ratio (z) = 0.30553 0.23072
#
# Static dielectric constant tensor:
#      x y z
#    x 1.736960 0.000000 0.000000 
#    y 0.000000 1.668680 0.000000 
#    z 0.000000 0.000000 1.691450 
# 
# From -- ./inp_files/4002.got.cif
#   From: 2010.05.17/outbox.cif.g08.bks.cpg/sg49_3_cif.got.tgz:4002.got - 2010.06.03 21:02:19.
