data_PCOD9392956
_publ_section_title
;
Structure prediction by ZEFSAII (Michael W. Deem and Ramdas Pophale) SiO2 
 PCOD9392956
Probable space group: P C C M
;
_chemical_formula_sum "Si O2"
_cell_formula_units_Z 64
_cell_length_a 16.305944
_cell_length_b 22.715550
_cell_length_c 8.962380
_cell_angle_alpha 90.000000
_cell_angle_beta 90.000000
_cell_angle_gamma 90.000000
_cell_volume 3319.651985
_symmetry_space_group_name_H-M "P C C M"
_symmetry_group_IT_number 49
_symmetry_cell_setting 'orthorhombic'
loop_
_space_group_symop_operation_xyz
x,y,z
-x,-y,z
x,-y,1/2-z
-x,y,1/2-z
-x,-y,-z
x,y,-z
-x,y,1/2+z
x,-y,1/2+z
loop_
_atom_site_type_symbol
_atom_site_label
_atom_site_fract_x
_atom_site_fract_y
_atom_site_fract_z
Si Si1 0.889270 0.783249 0.668712
Si Si2 0.586135 0.593972 0.820255
Si Si3 0.082277 0.097448 0.175487
Si Si4 0.697858 0.187334 0.166812
Si Si5 0.773813 0.562220 0.819480
Si Si6 0.252189 0.059003 0.677855
Si Si7 0.580539 0.270286 0.325531
Si Si8 0.912810 0.354915 0.179539
O O1 0.921565 0.795681 0.500000
O O2 0.916392 0.832657 0.785529
O O3 0.791986 0.793013 0.660029
O O4 0.906437 0.715603 0.707141
O O5 0.500000 0.571146 0.750000
O O6 0.676471 0.569414 0.780141
O O7 0.591803 0.662594 0.772683
O O8 0.578502 0.589426 0.000000
O O9 0.162768 0.070464 0.251507
O O10 0.000000 0.073355 0.250000
O O11 0.083717 0.087669 0.000000
O O12 0.696932 0.118517 0.206806
O O13 0.654542 0.229103 0.282534
O O14 0.662550 0.195276 0.000000
O O15 0.800488 0.500000 0.750000
O O16 0.834737 0.611766 0.752124
O O17 0.779552 0.562982 0.000000
O O18 0.243967 0.053243 0.500000
O O19 0.286928 0.000000 0.750000
O O20 0.500000 0.245086 0.250000
O O21 0.568834 0.273422 0.500000
O O22 0.000000 0.374827 0.250000
O O23 0.912432 0.363604 0.000000
#
# Coordination Sequence:
#
# PCOD9392956 Si02
#       8
#     8   8   8   8   8   8   8   8
#     4   9  19  35  55  81 111 141 176 220 274 332
#     4   9  20  37  59  88 120 151 183 224 274 333
#     4  11  21  33  51  75 105 139 175 217 267 320
#     4   9  18  33  53  78 109 141 173 216 266 319
#     4  11  24  42  61  84 114 149 193 239 282 333
#     4  10  21  37  54  74 101 135 179 224 268 318
#     4  10  19  32  53  82 113 143 175 211 259 318
#     4  11  23  39  60  85 113 149 191 238 291 341
#
# _framework density 19.279129000000001
#
# number of rings (size 3 to 8) (size 9 to 14) (size 15 to 20)
#    0.000    2.000    0.000    4.500    0.000    6.750 
#    0.000    3.750    0.000    0.375    0.000    2.625 
#    0.000    0.000    0.000    0.000    0.000    0.000 
#
# Total GULP energy -357122.310451 kJ/mol
# GULP energy per Si atom -5580.036101 kJ/mol
# Density = 1.923525 g / cm^3
# Si number density = 19.279129 Si / 1000 Ang^3
#
#
#
# Elastic Constant Matrix: (Units=GPa)
#
#
# Indices 1 2 3 4 5 6 
#
# 1 66.7021 25.3474 23.5930 0.0000 0.0000 0.0000
# 2 25.3474 82.5277 34.5164 0.0000 0.0000 0.0000
# 3 23.5930 34.5164 60.1267 0.0000 0.0000 0.0000
# 4 0.0000 0.0000 0.0000 21.0117 0.0000 0.0000
# 5 0.0000 0.0000 0.0000 0.0000 34.1301 0.0000
# 6 0.0000 0.0000 0.0000 0.0000 0.0000 17.6140
#
#
#
# Elastic Compliance Matrix: (Units=1/GPa)
#
#
# Indices 1 2 3 4 5 6 
#
# 1 0.018108 -0.003408 -0.005149 0.000000 0.000000 0.000000
# 2 -0.003408 0.016587 -0.008185 0.000000 0.000000 0.000000
# 3 -0.005149 -0.008185 0.023350 0.000000 0.000000 0.000000
# 4 0.000000 0.000000 0.000000 0.047592 0.000000 0.000000
# 5 0.000000 0.000000 0.000000 0.000000 0.029300 0.000000
# 6 0.000000 0.000000 0.000000 0.000000 0.000000 0.056773
#
#
# Mechanical properties :
#
#
# Convention : Reuss Voigt Hill
#
# Bulk Modulus (GPa) = 40.71302 41.80779 41.26040
# Shear Modulus (GPa) = 21.42408 22.94448 22.18428
#
# Velocity S-wave (km/s) = 3.33717 3.45355 3.39586
# Velocity P-wave (km/s) = 6.00104 6.13476 6.06827
#
# Compressibility (1/GPa) = 0.02456217
#
# Stress axis : x y z
#
# Youngs Moduli (GPa) = 55.22291 60.28776 42.82575
#
# Poissons Ratio (x) = 0.20548 0.22051
# Poissons Ratio (y) = 0.18821 0.35051
# Poissons Ratio (z) = 0.28434 0.49343
#
# Static dielectric constant tensor:
#      x y z
#    x 1.711200 0.000000 0.000000 
#    y 0.000000 1.685740 0.000000 
#    z 0.000000 0.000000 1.505930 
# 
# From -- ./inp_files/4347.got.cif
#   From: 2010.05.17/outbox.cif.g08.bks.cpg/sg49_3_cif.got.tgz:4347.got - 2010.06.03 21:02:19.
