data_PCOD9392184
_publ_section_title
;
Structure prediction by ZEFSAII (Michael W. Deem and Ramdas Pophale) SiO2 
 PCOD9392184
Probable space group: P C C M
;
_chemical_formula_sum "Si O2"
_cell_formula_units_Z 40
_cell_length_a 15.635572
_cell_length_b 21.356733
_cell_length_c 8.604354
_cell_angle_alpha 90.000000
_cell_angle_beta 90.000000
_cell_angle_gamma 90.000000
_cell_volume 2873.206642
_symmetry_space_group_name_H-M "P C C M"
_symmetry_group_IT_number 49
_symmetry_cell_setting 'orthorhombic'
loop_
_space_group_symop_operation_xyz
x,y,z
-x,-y,z
x,-y,1/2-z
-x,y,1/2-z
-x,-y,-z
x,y,-z
-x,y,1/2+z
x,-y,1/2+z
loop_
_atom_site_type_symbol
_atom_site_label
_atom_site_fract_x
_atom_site_fract_y
_atom_site_fract_z
Si Si1 0.732072 0.429257 0.185920
Si Si2 0.596932 0.331653 0.685674
Si Si3 0.597214 0.799347 0.686811
Si Si4 0.088210 0.428641 0.185928
Si Si5 0.597259 0.063978 0.814280
O O1 0.721921 0.500000 0.250000
O O2 0.655208 0.386170 0.244596
O O3 0.822185 0.402649 0.251206
O O4 0.735368 0.431438 0.000000
O O5 0.500000 0.336675 0.750000
O O6 0.594880 0.334825 0.500000
O O7 0.633335 0.263932 0.739334
O O8 0.500000 0.801435 0.750000
O O9 0.595792 0.793154 0.500000
O O10 0.635558 0.867750 0.726713
O O11 0.088666 0.500000 0.250000
O O12 0.000000 0.399700 0.250000
O O13 0.087299 0.429576 0.000000
O O14 0.500000 0.064970 0.750000
O O15 0.637797 0.000000 0.750000
O O16 0.593250 0.059951 0.000000
#
# Coordination Sequence:
#
# PCOD9392184 Si02
#       5
#     8   8   8   8   8
#     4  11  21  34  48  64  83 104 132 169 207 246
#     4  11  21  33  46  60  77 104 138 173 209 246
#     4   9  16  26  38  53  71  96 127 162 198 236
#     4  10  17  28  45  66  87 107 128 155 194 241
#     4   9  15  21  32  49  70  92 119 153 193 232
#
# _framework density 13.921728
#
# number of rings (size 3 to 8) (size 9 to 14) (size 15 to 20)
#    0.000    2.000    0.000   10.200    0.000    2.800 
#    0.000    2.000    0.000    0.000    0.000    0.000 
#    0.000    0.000    0.000    0.000    0.000    1.000 
#
# Total GULP energy -222748.462586 kJ/mol
# GULP energy per Si atom -5568.711565 kJ/mol
# Density = 1.389004 g / cm^3
# Si number density = 13.921728 Si / 1000 Ang^3
#
#
#
# Elastic Constant Matrix: (Units=GPa)
#
#
# Indices 1 2 3 4 5 6 
#
# 1 61.7602 40.0059 34.1791 0.0000 0.0000 0.0000
# 2 40.0059 98.4339 43.5522 0.0000 0.0000 0.0000
# 3 34.1791 43.5522 131.5709 0.0000 0.0000 0.0000
# 4 0.0000 0.0000 0.0000 24.1291 0.0000 0.0000
# 5 0.0000 0.0000 0.0000 0.0000 18.8164 0.0000
# 6 0.0000 0.0000 0.0000 0.0000 0.0000 -0.5283
#
#
#
# Elastic Compliance Matrix: (Units=1/GPa)
#
#
# Indices 1 2 3 4 5 6 
#
# 1 0.023211 -0.007927 -0.003406 0.000000 0.000000 0.000000
# 2 -0.007927 0.014609 -0.002777 0.000000 0.000000 0.000000
# 3 -0.003406 -0.002777 0.009404 0.000000 0.000000 0.000000
# 4 0.000000 0.000000 0.000000 0.041444 0.000000 0.000000
# 5 0.000000 0.000000 0.000000 0.000000 0.053145 0.000000
# 6 0.000000 0.000000 0.000000 0.000000 0.000000 -1.893020
#
#
# Mechanical properties :
#
#
# Convention : Reuss Voigt Hill
#
# Bulk Modulus (GPa) = 52.61430 58.58215 55.59822
# Shear Modulus (GPa) = -2.91264 20.08530 8.58633
#
# Velocity S-wave (km/s) = -1.44800 3.80245 2.48615
# Velocity P-wave (km/s) = 5.92278 7.83895 6.94725
#
# Compressibility (1/GPa) = 0.01900624
#
# Stress axis : x y z
#
# Youngs Moduli (GPa) = 43.08291 68.44982 106.33343
#
# Poissons Ratio (x) = 0.54257 0.36216
# Poissons Ratio (y) = 0.34150 0.29526
# Poissons Ratio (z) = 0.14673 0.19007
#
# Static dielectric constant tensor:
#      x y z
#    x 1.467160 0.000000 0.000000 
#    y 0.000000 1.506210 0.000000 
#    z 0.000000 0.000000 1.461630 
# 
# From -- ./inp_files/4937.got.cif
#   From: 2010.05.17/outbox.cif.g08.bks.cpg/sg49_3_cif.got.tgz:4937.got - 2010.06.03 21:02:19.
