data_PCOD9392182
_publ_section_title
;
Structure prediction by ZEFSAII (Michael W. Deem and Ramdas Pophale) SiO2 
 PCOD9392182
Probable space group: P C C M
;
_chemical_formula_sum "Si O2"
_cell_formula_units_Z 56
_cell_length_a 15.664226
_cell_length_b 25.246654
_cell_length_c 8.791192
_cell_angle_alpha 90.000000
_cell_angle_beta 90.000000
_cell_angle_gamma 90.000000
_cell_volume 3476.646494
_symmetry_space_group_name_H-M "P C C M"
_symmetry_group_IT_number 49
_symmetry_cell_setting 'orthorhombic'
loop_
_space_group_symop_operation_xyz
x,y,z
-x,-y,z
x,-y,1/2-z
-x,y,1/2-z
-x,-y,-z
x,y,-z
-x,y,1/2+z
x,-y,1/2+z
loop_
_atom_site_type_symbol
_atom_site_label
_atom_site_fract_x
_atom_site_fract_y
_atom_site_fract_z
Si Si1 0.732850 0.631546 0.820725
Si Si2 0.088822 0.240622 0.324723
Si Si3 0.591467 0.557605 0.680681
Si Si4 0.911789 0.630513 0.324945
Si Si5 0.404829 0.163917 0.318194
Si Si6 0.730754 0.242132 0.680014
Si Si7 0.403534 0.053928 0.817157
O O1 0.662923 0.599196 0.728615
O O2 0.827569 0.615365 0.767503
O O3 0.723550 0.694634 0.794029
O O4 0.722521 0.621890 0.000000
O O5 0.094367 0.223775 0.500000
O O6 0.086162 0.305046 0.323418
O O7 0.174591 0.225642 0.235180
O O8 0.000000 0.222465 0.250000
O O9 0.612208 0.500000 0.750000
O O10 0.500000 0.573472 0.750000
O O11 0.584446 0.553352 0.500000
O O12 0.905511 0.613671 0.500000
O O13 0.000000 0.612129 0.250000
O O14 0.500000 0.172529 0.250000
O O15 0.411274 0.158506 0.500000
O O16 0.341811 0.210893 0.270599
O O17 0.368408 0.109451 0.244979
O O18 0.721536 0.232440 0.500000
O O19 0.500000 0.054523 0.750000
O O20 0.363588 0.000000 0.750000
O O21 0.405510 0.052568 0.000000
#
# Coordination Sequence:
#
# PCOD9392182 Si02
#       7
#     8   8   8   8   8   8   8
#     4  10  20  34  52  74  99 127 160 196 237 284
#     4   9  16  27  44  66  92 123 158 196 236 279
#     4  11  22  38  58  77  97 121 155 198 242 283
#     4   9  16  27  45  70  98 127 158 191 230 276
#     4  11  21  33  47  65  93 129 165 200 240 285
#     4  10  20  33  48  69  98 130 162 197 237 285
#     4  10  17  28  45  65  88 117 157 200 240 280
#
# _framework density 16.107476999999999
#
# number of rings (size 3 to 8) (size 9 to 14) (size 15 to 20)
#    0.000    2.000    0.000    7.286    0.000    5.714 
#    0.000    0.000    0.000    0.429    0.000    3.000 
#    0.000    0.571    0.000    5.714    0.000    3.714 
#
# Total GULP energy -312348.985941 kJ/mol
# GULP energy per Si atom -5577.660463 kJ/mol
# Density = 1.607082 g / cm^3
# Si number density = 16.107477 Si / 1000 Ang^3
#
#
#
# Elastic Constant Matrix: (Units=GPa)
#
#
# Indices 1 2 3 4 5 6 
#
# 1 88.2132 43.2915 55.2059 0.0000 0.0000 0.0000
# 2 43.2915 32.0828 43.4964 0.0000 0.0000 0.0000
# 3 55.2059 43.4964 152.2132 0.0000 0.0000 0.0000
# 4 0.0000 0.0000 0.0000 22.1440 0.0000 0.0000
# 5 0.0000 0.0000 0.0000 0.0000 30.7944 0.0000
# 6 0.0000 0.0000 0.0000 0.0000 0.0000 -9.6105
#
#
#
# Elastic Compliance Matrix: (Units=1/GPa)
#
#
# Indices 1 2 3 4 5 6 
#
# 1 0.033708 -0.047193 0.001260 0.000000 0.000000 0.000000
# 2 -0.047193 0.116955 -0.016305 0.000000 0.000000 0.000000
# 3 0.001260 -0.016305 0.010772 0.000000 0.000000 0.000000
# 4 0.000000 0.000000 0.000000 0.045159 0.000000 0.000000
# 5 0.000000 0.000000 0.000000 0.000000 0.032473 0.000000
# 6 0.000000 0.000000 0.000000 0.000000 0.000000 -0.104053
#
#
# Mechanical properties :
#
#
# Convention : Reuss Voigt Hill
#
# Bulk Modulus (GPa) = 27.05612 61.83298 44.44455
# Shear Modulus (GPa) = 18.39525 17.36660 17.88092
#
# Velocity S-wave (km/s) = 3.38306 3.28711 3.33543
# Velocity P-wave (km/s) = 5.66514 7.27172 6.51812
#
# Compressibility (1/GPa) = 0.03696021
#
# Stress axis : x y z
#
# Youngs Moduli (GPa) = 29.66672 8.55028 92.83484
#
# Poissons Ratio (x) = 0.40351 -0.11701
# Poissons Ratio (y) = 1.40006 1.51365
# Poissons Ratio (z) = -0.03739 0.13941
#
# Static dielectric constant tensor:
#      x y z
#    x 1.527120 0.000000 0.000000 
#    y 0.000000 1.554900 0.000000 
#    z 0.000000 0.000000 1.540290 
# 
# From -- ./inp_files/4057.got.cif
#   From: 2010.05.17/outbox.cif.g08.bks.cpg/sg49_3_cif.got.tgz:4057.got - 2010.06.03 21:02:19.
