data_PCOD9392539
_publ_section_title
;
Structure prediction by ZEFSAII (Michael W. Deem and Ramdas Pophale) SiO2 
 PCOD9392539
Probable space group: P C C M
;
_chemical_formula_sum "Si O2"
_cell_formula_units_Z 64
_cell_length_a 14.423740
_cell_length_b 13.395806
_cell_length_c 17.656520
_cell_angle_alpha 90.000000
_cell_angle_beta 90.000000
_cell_angle_gamma 90.000000
_cell_volume 3411.550822
_symmetry_space_group_name_H-M "P C C M"
_symmetry_group_IT_number 49
_symmetry_cell_setting 'orthorhombic'
loop_
_space_group_symop_operation_xyz
x,y,z
-x,-y,z
x,-y,1/2-z
-x,y,1/2-z
-x,-y,-z
x,y,-z
-x,y,1/2+z
x,-y,1/2+z
loop_
_atom_site_type_symbol
_atom_site_label
_atom_site_fract_x
_atom_site_fract_y
_atom_site_fract_z
Si Si1 0.704090 0.614637 0.410430
Si Si2 0.748436 0.387135 0.591696
Si Si3 0.700323 0.113849 0.277087
Si Si4 0.564550 0.741753 0.317329
Si Si5 0.042352 0.393963 0.908010
Si Si6 0.611259 0.207174 0.409882
Si Si7 0.119081 0.239812 0.588306
Si Si8 0.102258 0.117344 0.269279
O O1 0.679927 0.616440 0.500000
O O2 0.723865 0.500725 0.388690
O O3 0.624390 0.659544 0.359156
O O4 0.794003 0.685491 0.401444
O O5 0.751538 0.382202 0.500000
O O6 0.853786 0.371107 0.619449
O O7 0.670521 0.306567 0.613229
O O8 0.632745 0.177866 0.222414
O O9 0.661512 0.121557 0.361867
O O10 0.805595 0.154802 0.273516
O O11 0.700334 0.000000 0.250000
O O12 0.500000 0.701450 0.250000
O O13 0.493090 0.786333 0.378731
O O14 0.000000 0.500000 0.881155
O O15 0.971048 0.305630 0.892270
O O16 0.047301 0.402309 0.000000
O O17 0.614263 0.195916 0.500000
O O18 0.115587 0.211507 0.500000
O O19 0.122351 0.145764 0.643720
O O20 0.000000 0.157813 0.250000
O O21 0.098609 0.000000 0.250000
#
# Coordination Sequence:
#
# PCOD9392539 Si02
#       8
#     8   8   8   8   8   8   8   8
#     4  10  18  33  58  88 119 155 196 244 292 348
#     4   9  18  32  53  84 125 158 190 238 295 346
#     4  10  22  43  64  83 115 156 189 240 311 361
#     4  10  21  38  59  81 115 155 198 249 299 356
#     4   9  15  27  50  85 121 152 186 234 288 339
#     4  10  22  39  59  88 115 149 201 247 290 351
#     4  10  19  33  61  93 118 151 201 245 286 349
#     4  10  22  41  61  85 120 160 191 233 299 363
#
# _framework density 18.759796999999999
#
# number of rings (size 3 to 8) (size 9 to 14) (size 15 to 20)
#    0.000    2.250    2.500    0.375    1.750    2.750 
#    0.000   11.875    0.000    1.875    0.000    0.000 
#    0.000    0.000    0.000    0.000    0.000    0.000 
#
# Total GULP energy -356713.449528 kJ/mol
# GULP energy per Si atom -5573.647649 kJ/mol
# Density = 1.871710 g / cm^3
# Si number density = 18.759797 Si / 1000 Ang^3
#
#
#
# Elastic Constant Matrix: (Units=GPa)
#
#
# Indices 1 2 3 4 5 6 
#
# 1 137.4729 22.6926 44.9152 0.0000 0.0000 0.0000
# 2 22.6926 60.9274 37.6646 0.0000 0.0000 0.0000
# 3 44.9152 37.6646 82.0462 0.0000 0.0000 0.0000
# 4 0.0000 0.0000 0.0000 29.4126 0.0000 0.0000
# 5 0.0000 0.0000 0.0000 0.0000 28.1226 0.0000
# 6 0.0000 0.0000 0.0000 0.0000 0.0000 -13.2562
#
#
#
# Elastic Compliance Matrix: (Units=1/GPa)
#
#
# Indices 1 2 3 4 5 6 
#
# 1 0.008866 -0.000421 -0.004660 0.000000 0.000000 0.000000
# 2 -0.000421 0.022936 -0.010299 0.000000 0.000000 0.000000
# 3 -0.004660 -0.010299 0.019467 0.000000 0.000000 0.000000
# 4 0.000000 0.000000 0.000000 0.033999 0.000000 0.000000
# 5 0.000000 0.000000 0.000000 0.000000 0.035559 0.000000
# 6 0.000000 0.000000 0.000000 0.000000 0.000000 -0.075436
#
#
# Mechanical properties :
#
#
# Convention : Reuss Voigt Hill
#
# Bulk Modulus (GPa) = 48.75829 54.55458 51.65644
# Shear Modulus (GPa) = 60.24947 20.53408 40.39177
#
# Velocity S-wave (km/s) = 5.67327 3.31203 4.64519
# Velocity P-wave (km/s) = 8.30433 6.61587 7.50772
#
# Compressibility (1/GPa) = 0.02050933
#
# Stress axis : x y z
#
# Youngs Moduli (GPa) = 112.78605 43.59885 51.36827
#
# Poissons Ratio (x) = 0.01837 0.23939
# Poissons Ratio (y) = 0.04752 0.52902
# Poissons Ratio (z) = 0.52562 0.44901
#
# Static dielectric constant tensor:
#      x y z
#    x 1.679480 0.000000 0.000000 
#    y 0.000000 1.636450 0.000000 
#    z 0.000000 0.000000 1.649070 
# 
# From -- ./inp_files/17956.got.cif
#   From: 2010.05.17/outbox.cif.g08.bks.cpg/sg49_9_cif.got.tgz:17956.got - 2010.06.03 21:02:19.
