data_PCOD9392216
_publ_section_title
;
Structure prediction by ZEFSAII (Michael W. Deem and Ramdas Pophale) SiO2 
 PCOD9392216
Probable space group: P C C M
;
_chemical_formula_sum "Si O2"
_cell_formula_units_Z 34
_cell_length_a 23.490806
_cell_length_b 7.380972
_cell_length_c 8.682267
_cell_angle_alpha 90.000000
_cell_angle_beta 90.000000
_cell_angle_gamma 90.000000
_cell_volume 1505.374702
_symmetry_space_group_name_H-M "P C C M"
_symmetry_group_IT_number 49
_symmetry_cell_setting 'orthorhombic'
loop_
_space_group_symop_operation_xyz
x,y,z
-x,-y,z
x,-y,1/2-z
-x,y,1/2-z
-x,-y,-z
x,y,-z
-x,y,1/2+z
x,-y,1/2+z
loop_
_atom_site_type_symbol
_atom_site_label
_atom_site_fract_x
_atom_site_fract_y
_atom_site_fract_z
Si Si1 0.500000 0.000000 0.250000
Si Si2 0.941441 0.793085 0.184477
Si Si3 0.296647 0.303393 0.817435
Si Si4 0.174373 0.201280 0.316172
Si Si5 0.409865 0.697600 0.824486
O O1 0.458129 0.852322 0.171335
O O2 0.882214 0.708730 0.244346
O O3 0.000000 0.711384 0.250000
O O4 0.941633 0.000000 0.250000
O O5 0.942355 0.797064 0.000000
O O6 0.308348 0.500000 0.750000
O O7 0.236628 0.259153 0.738839
O O8 0.356044 0.214965 0.766368
O O9 0.289442 0.292457 0.000000
O O10 0.170647 0.207585 0.500000
O O11 0.171659 0.000000 0.250000
O O12 0.427232 0.500000 0.750000
O O13 0.392408 0.657043 0.000000
#
# Coordination Sequence:
#
# PCOD9392216 Si02
#       5
#     2   8   8   8   8
#     4  12  28  44  72 104 138 176 224 266 330 390
#     4  10  17  28  46  74 112 155 200 251 310 371
#     4  11  23  42  65  90 122 162 205 255 313 376
#     4  11  21  35  56  86 120 157 203 258 312 369
#     4  11  25  46  70  99 135 175 221 273 329 393
#
# _framework density 22.585737000000002
#
# number of rings (size 3 to 8) (size 9 to 14) (size 15 to 20)
#    0.000    1.176    0.000   11.294    1.647    4.706 
#    0.000    0.000    0.000    0.706    0.000    4.941 
#    0.000    0.000    0.000    0.000    0.000    0.000 
#
# Total GULP energy -189553.133714 kJ/mol
# GULP energy per Si atom -5575.092168 kJ/mol
# Density = 2.253433 g / cm^3
# Si number density = 22.585737 Si / 1000 Ang^3
#
#
#
# Elastic Constant Matrix: (Units=GPa)
#
#
# Indices 1 2 3 4 5 6 
#
# 1 198.3117 36.5387 77.3345 0.0000 0.0000 0.0000
# 2 36.5387 96.2876 20.5835 0.0000 0.0000 0.0000
# 3 77.3345 20.5835 240.6052 0.0000 0.0000 0.0000
# 4 0.0000 0.0000 0.0000 -35.3154 0.0000 0.0000
# 5 0.0000 0.0000 0.0000 0.0000 79.3041 0.0000
# 6 0.0000 0.0000 0.0000 0.0000 0.0000 68.5100
#
#
#
# Elastic Compliance Matrix: (Units=1/GPa)
#
#
# Indices 1 2 3 4 5 6 
#
# 1 0.006098 -0.001930 -0.001795 0.000000 0.000000 0.000000
# 2 -0.001930 0.011190 -0.000337 0.000000 0.000000 0.000000
# 3 -0.001795 -0.000337 0.004762 0.000000 0.000000 0.000000
# 4 0.000000 0.000000 0.000000 -0.028316 0.000000 0.000000
# 5 0.000000 0.000000 0.000000 0.000000 0.012610 0.000000
# 6 0.000000 0.000000 0.000000 0.000000 0.000000 0.014596
#
#
# Mechanical properties :
#
#
# Convention : Reuss Voigt Hill
#
# Bulk Modulus (GPa) = 71.80869 89.34644 80.57756
# Shear Modulus (GPa) = 148.33996 49.21625 98.77810
#
# Velocity S-wave (km/s) = 8.11303 4.67313 6.62040
# Velocity P-wave (km/s) = 10.93730 8.29230 9.70532
#
# Compressibility (1/GPa) = 0.01392589
#
# Stress axis : x y z
#
# Youngs Moduli (GPa) = 163.98295 89.36473 209.99940
#
# Poissons Ratio (x) = 0.17251 0.37693
# Poissons Ratio (y) = 0.31655 0.07073
# Poissons Ratio (z) = 0.29434 0.03010
#
# Static dielectric constant tensor:
#      x y z
#    x 2.139570 0.000000 0.000000 
#    y 0.000000 1.861360 0.000000 
#    z 0.000000 0.000000 1.782750 
# 
# From -- ./inp_files/5543.got.cif
#   From: 2010.05.17/outbox.cif.g08.bks.cpg/sg49_3_cif.got.tgz:5543.got - 2010.06.03 21:02:19.
