data_PCOD9392228
_publ_section_title
;
Structure prediction by ZEFSAII (Michael W. Deem and Ramdas Pophale) SiO2 
 PCOD9392228
Probable space group: P C C M
;
_chemical_formula_sum "Si O2"
_cell_formula_units_Z 40
_cell_length_a 26.535286
_cell_length_b 9.274743
_cell_length_c 8.627906
_cell_angle_alpha 90.000000
_cell_angle_beta 90.000000
_cell_angle_gamma 90.000000
_cell_volume 2123.396328
_symmetry_space_group_name_H-M "P C C M"
_symmetry_group_IT_number 49
_symmetry_cell_setting 'orthorhombic'
loop_
_space_group_symop_operation_xyz
x,y,z
-x,-y,z
x,-y,1/2-z
-x,y,1/2-z
-x,-y,-z
x,y,-z
-x,y,1/2+z
x,-y,1/2+z
loop_
_atom_site_type_symbol
_atom_site_label
_atom_site_fract_x
_atom_site_fract_y
_atom_site_fract_z
Si Si1 0.342924 0.162917 0.185232
Si Si2 0.852316 0.160503 0.814290
Si Si3 0.751473 0.661288 0.313983
Si Si4 0.945458 0.660961 0.185166
Si Si5 0.551844 0.164347 0.185369
O O1 0.295857 0.256574 0.240128
O O2 0.395422 0.225451 0.252725
O O3 0.336868 0.000000 0.250000
O O4 0.346041 0.156464 0.000000
O O5 0.802747 0.253440 0.775472
O O6 0.901311 0.235397 0.742061
O O7 0.846486 0.000000 0.750000
O O8 0.857395 0.156983 0.000000
O O9 0.754438 0.500000 0.250000
O O10 0.746001 0.659537 0.500000
O O11 0.935954 0.500000 0.250000
O O12 0.000000 0.706868 0.250000
O O13 0.947270 0.655468 0.000000
O O14 0.500000 0.231109 0.250000
O O15 0.552332 0.000000 0.250000
O O16 0.550974 0.161583 0.000000
#
# Coordination Sequence:
#
# PCOD9392228 Si02
#       5
#     8   8   8   8   8
#     4  11  21  35  56  83 115 150 190 237 287 339
#     4  11  24  41  62  89 120 153 193 239 290 342
#     4  11  24  41  61  85 114 150 191 236 286 344
#     4  11  22  39  63  90 122 158 198 239 285 339
#     4  10  17  28  47  75 110 146 186 231 282 337
#
# _framework density 18.837747
#
# number of rings (size 3 to 8) (size 9 to 14) (size 15 to 20)
#    0.000    1.200    0.000   10.200    0.000    6.800 
#    0.000    2.000    0.000    0.600    0.000    4.200 
#    0.000    0.000    0.000    0.000    0.000    0.000 
#
# Total GULP energy -223645.732885 kJ/mol
# GULP energy per Si atom -5591.143322 kJ/mol
# Density = 1.879487 g / cm^3
# Si number density = 18.837747 Si / 1000 Ang^3
#
#
#
# Elastic Constant Matrix: (Units=GPa)
#
#
# Indices 1 2 3 4 5 6 
#
# 1 192.3283 100.2592 102.2392 0.0000 0.0000 0.0000
# 2 100.2592 104.1740 63.8709 0.0000 0.0000 0.0000
# 3 102.2392 63.8709 173.3920 0.0000 0.0000 0.0000
# 4 0.0000 0.0000 0.0000 28.8416 0.0000 0.0000
# 5 0.0000 0.0000 0.0000 0.0000 29.8058 0.0000
# 6 0.0000 0.0000 0.0000 0.0000 0.0000 98.9086
#
#
#
# Elastic Compliance Matrix: (Units=1/GPa)
#
#
# Indices 1 2 3 4 5 6 
#
# 1 0.011983 -0.009301 -0.003639 0.000000 0.000000 0.000000
# 2 -0.009301 0.019619 -0.001743 0.000000 0.000000 0.000000
# 3 -0.003639 -0.001743 0.008555 0.000000 0.000000 0.000000
# 4 0.000000 0.000000 0.000000 0.034672 0.000000 0.000000
# 5 0.000000 0.000000 0.000000 0.000000 0.033550 0.000000
# 6 0.000000 0.000000 0.000000 0.000000 0.000000 0.010110
#
#
# Mechanical properties :
#
#
# Convention : Reuss Voigt Hill
#
# Bulk Modulus (GPa) = 92.67031 111.40365 102.03698
# Shear Modulus (GPa) = 33.01355 45.07952 39.04654
#
# Velocity S-wave (km/s) = 4.19085 4.89718 4.55772
# Velocity P-wave (km/s) = 8.52751 9.55214 9.05433
#
# Compressibility (1/GPa) = 0.01079094
#
# Stress axis : x y z
#
# Youngs Moduli (GPa) = 83.45463 50.97033 116.88889
#
# Poissons Ratio (x) = 0.47407 0.42540
# Poissons Ratio (y) = 0.77621 0.20371
# Poissons Ratio (z) = 0.30372 0.08883
#
# Static dielectric constant tensor:
#      x y z
#    x 1.669520 0.000000 0.000000 
#    y 0.000000 1.626830 0.000000 
#    z 0.000000 0.000000 1.627590 
# 
# From -- ./inp_files/1917.got.cif
#   From: 2010.05.17/outbox.cif.g08.bks.cpg/sg49_1_cif.got.tgz:1917.got - 2010.06.03 21:02:19.
