data_PCOD9392091
_publ_section_title
;
Structure prediction by ZEFSAII (Michael W. Deem and Ramdas Pophale) SiO2 
 PCOD9392091
Probable space group: P C C M
;
_chemical_formula_sum "Si O2"
_cell_formula_units_Z 64
_cell_length_a 31.467674
_cell_length_b 5.205649
_cell_length_c 24.214778
_cell_angle_alpha 90.000000
_cell_angle_beta 90.000000
_cell_angle_gamma 90.000000
_cell_volume 3966.614689
_symmetry_space_group_name_H-M "P C C M"
_symmetry_group_IT_number 49
_symmetry_cell_setting 'orthorhombic'
loop_
_space_group_symop_operation_xyz
x,y,z
-x,-y,z
x,-y,1/2-z
-x,y,1/2-z
-x,-y,-z
x,y,-z
-x,y,1/2+z
x,-y,1/2+z
loop_
_atom_site_type_symbol
_atom_site_label
_atom_site_fract_x
_atom_site_fract_y
_atom_site_fract_z
Si Si1 0.048433 0.998348 0.683208
Si Si2 0.194484 0.496458 0.872064
Si Si3 0.724101 0.588057 0.809651
Si Si4 0.897177 0.500966 0.316919
Si Si5 0.228411 0.003435 0.434704
Si Si6 0.306295 0.912647 0.136670
Si Si7 0.451911 0.513700 0.816458
Si Si8 0.397297 0.012878 0.183000
O O1 0.074116 0.743815 0.668424
O O2 0.045785 0.000000 0.750000
O O3 0.075872 0.246691 0.668248
O O4 0.000000 0.000000 0.662274
O O5 0.226593 0.470502 0.820322
O O6 0.146964 0.491378 0.849464
O O7 0.205715 0.758910 0.903827
O O8 0.207929 0.257993 0.910957
O O9 0.709665 0.500000 0.750000
O O10 0.700541 0.388903 0.850730
O O11 0.715623 0.887142 0.820162
O O12 0.889984 0.500000 0.250000
O O13 0.223585 0.019389 0.500000
O O14 0.278413 0.021120 0.417399
O O15 0.355363 0.977523 0.146160
O O16 0.500000 0.500000 0.838617
O O17 0.455258 0.500000 0.750000
O O18 0.421305 0.276873 0.830550
O O19 0.429285 0.780645 0.829155
O O20 0.387319 0.000000 0.250000
#
# Coordination Sequence:
#
# PCOD9392091 Si02
#       8
#     8   8   8   8   8   8   8   8
#     4   9  17  28  43  65  98 138 165 183 216 262
#     4  10  20  32  49  71  91 120 157 189 229 277
#     4  10  18  29  43  63  95 124 147 176 219 272
#     4  10  18  29  46  70 102 130 157 191 222 266
#     4  10  21  37  52  66  91 120 152 199 241 274
#     4  10  20  30  45  67  88 119 156 187 224 270
#     4   9  17  27  39  57  85 121 151 176 211 254
#     4  10  17  26  41  61  88 116 147 183 214 257
#
# _framework density 16.134667
#
# number of rings (size 3 to 8) (size 9 to 14) (size 15 to 20)
#    0.000    2.250    0.000    4.125    0.000    4.000 
#    0.000    3.750    0.000    0.000    0.000    0.000 
#    0.000   38.000    0.000    0.000    0.000    0.000 
#
# Total GULP energy -356541.787007 kJ/mol
# GULP energy per Si atom -5570.965422 kJ/mol
# Density = 1.609794 g / cm^3
# Si number density = 16.134667 Si / 1000 Ang^3
#
#
#
# Elastic Constant Matrix: (Units=GPa)
#
#
# Indices 1 2 3 4 5 6 
#
# 1 135.5415 30.9169 14.7041 0.0000 0.0000 0.0000
# 2 30.9169 94.0942 5.4224 0.0000 0.0000 0.0000
# 3 14.7041 5.4224 31.6295 0.0000 0.0000 0.0000
# 4 0.0000 0.0000 0.0000 7.2557 0.0000 0.0000
# 5 0.0000 0.0000 0.0000 0.0000 8.8005 0.0000
# 6 0.0000 0.0000 0.0000 0.0000 0.0000 3.6643
#
#
#
# Elastic Compliance Matrix: (Units=1/GPa)
#
#
# Indices 1 2 3 4 5 6 
#
# 1 0.008330 -0.002539 -0.003437 0.000000 0.000000 0.000000
# 2 -0.002539 0.011508 -0.000793 0.000000 0.000000 0.000000
# 3 -0.003437 -0.000793 0.033350 0.000000 0.000000 0.000000
# 4 0.000000 0.000000 0.000000 0.137823 0.000000 0.000000
# 5 0.000000 0.000000 0.000000 0.000000 0.113630 0.000000
# 6 0.000000 0.000000 0.000000 0.000000 0.000000 0.272906
#
#
# Mechanical properties :
#
#
# Convention : Reuss Voigt Hill
#
# Bulk Modulus (GPa) = 25.22065 40.37244 32.79655
# Shear Modulus (GPa) = 8.27404 17.95888 13.11646
#
# Velocity S-wave (km/s) = 2.26699 3.33988 2.85430
# Velocity P-wave (km/s) = 4.74527 6.32056 5.58870
#
# Compressibility (1/GPa) = 0.03965004
#
# Stress axis : x y z
#
# Youngs Moduli (GPa) = 120.05081 86.89963 29.98519
#
# Poissons Ratio (x) = 0.22063 0.10306
# Poissons Ratio (y) = 0.30479 0.02376
# Poissons Ratio (z) = 0.41263 0.06887
#
# Static dielectric constant tensor:
#      x y z
#    x 1.550370 0.000000 0.000000 
#    y 0.000000 1.563320 0.000000 
#    z 0.000000 0.000000 1.522480 
# 
# From -- ./inp_files/21285.got.cif
#   From: 2010.05.17/outbox.cif.g08.bks.cpg/sg49_11_cif.got.tgz:21285.got - 2010.06.03 21:02:19.
