data_PCOD9392762
_publ_section_title
;
Structure prediction by ZEFSAII (Michael W. Deem and Ramdas Pophale) SiO2 
 PCOD9392762
Probable space group: P C C M
;
_chemical_formula_sum "Si O2"
_cell_formula_units_Z 64
_cell_length_a 16.710330
_cell_length_b 23.015455
_cell_length_c 8.689921
_cell_angle_alpha 90.000000
_cell_angle_beta 90.000000
_cell_angle_gamma 90.000000
_cell_volume 3342.107537
_symmetry_space_group_name_H-M "P C C M"
_symmetry_group_IT_number 49
_symmetry_cell_setting 'orthorhombic'
loop_
_space_group_symop_operation_xyz
x,y,z
-x,-y,z
x,-y,1/2-z
-x,y,1/2-z
-x,-y,-z
x,y,-z
-x,y,1/2+z
x,-y,1/2+z
loop_
_atom_site_type_symbol
_atom_site_label
_atom_site_fract_x
_atom_site_fract_y
_atom_site_fract_z
Si Si1 0.082879 0.726118 0.185005
Si Si2 0.209780 0.815506 0.182560
Si Si3 0.370960 0.224981 0.821158
Si Si4 0.249573 0.939279 0.183347
Si Si5 0.264532 0.438193 0.185602
Si Si6 0.414369 0.644298 0.315196
Si Si7 0.912332 0.409337 0.814588
Si Si8 0.418487 0.094007 0.822358
O O1 0.149855 0.768457 0.248537
O O2 0.091960 0.658949 0.228275
O O3 0.000000 0.747715 0.250000
O O4 0.083023 0.726981 0.000000
O O5 0.296633 0.789934 0.214304
O O6 0.205482 0.881185 0.243363
O O7 0.196759 0.819107 0.000000
O O8 0.407103 0.286970 0.774491
O O9 0.420014 0.164813 0.816655
O O10 0.345136 0.231517 0.000000
O O11 0.341551 0.928740 0.231930
O O12 0.220776 0.000000 0.250000
O O13 0.244634 0.941050 0.000000
O O14 0.293853 0.500000 0.250000
O O15 0.332281 0.389909 0.231287
O O16 0.173157 0.431719 0.249972
O O17 0.259721 0.438250 0.000000
O O18 0.500000 0.622657 0.250000
O O19 0.418552 0.640011 0.500000
O O20 0.000000 0.429984 0.750000
O O21 0.913418 0.416798 0.000000
O O22 0.500000 0.072021 0.750000
O O23 0.410230 0.077123 0.000000
#
# Coordination Sequence:
#
# PCOD9392762 Si02
#       8
#     8   8   8   8   8   8   8   8
#     4   9  18  32  52  81 112 138 165 200 248 306
#     4   9  18  32  51  75 103 135 169 209 256 306
#     4   9  18  32  51  77 105 132 166 209 259 314
#     4  10  20  34  50  68  93 127 169 212 252 295
#     4  11  24  41  59  81 110 145 188 232 272 318
#     4  10  22  38  57  81 109 143 183 229 277 324
#     4  10  20  36  60  89 119 148 177 214 265 325
#     4  10  19  31  48  71  99 128 160 200 249 304
#
# _framework density 19.149594
#
# number of rings (size 3 to 8) (size 9 to 14) (size 15 to 20)
#    0.000    2.250    0.000    2.625    0.000    4.250 
#    0.000    3.750    0.000    0.375    0.000    2.625 
#    0.000    0.000    0.000    0.000    0.000    0.000 
#
# Total GULP energy -356606.856516 kJ/mol
# GULP energy per Si atom -5571.982133 kJ/mol
# Density = 1.910601 g / cm^3
# Si number density = 19.149594 Si / 1000 Ang^3
#
#
#
# Elastic Constant Matrix: (Units=GPa)
#
#
# Indices 1 2 3 4 5 6 
#
# 1 64.1352 34.0062 15.6237 0.0000 0.0000 0.0000
# 2 34.0062 94.7861 23.7186 0.0000 0.0000 0.0000
# 3 15.6237 23.7186 22.4105 0.0000 0.0000 0.0000
# 4 0.0000 0.0000 0.0000 22.3051 0.0000 0.0000
# 5 0.0000 0.0000 0.0000 0.0000 25.0703 0.0000
# 6 0.0000 0.0000 0.0000 0.0000 0.0000 13.8977
#
#
#
# Elastic Compliance Matrix: (Units=1/GPa)
#
#
# Indices 1 2 3 4 5 6 
#
# 1 0.020465 -0.005131 -0.008837 0.000000 0.000000 0.000000
# 2 -0.005131 0.015637 -0.012973 0.000000 0.000000 0.000000
# 3 -0.008837 -0.012973 0.064513 0.000000 0.000000 0.000000
# 4 0.000000 0.000000 0.000000 0.044833 0.000000 0.000000
# 5 0.000000 0.000000 0.000000 0.000000 0.039888 0.000000
# 6 0.000000 0.000000 0.000000 0.000000 0.000000 0.071954
#
#
# Mechanical properties :
#
#
# Convention : Reuss Voigt Hill
#
# Bulk Modulus (GPa) = 21.39792 36.44765 28.92279
# Shear Modulus (GPa) = 15.30222 19.45351 17.37786
#
# Velocity S-wave (km/s) = 2.82988 3.19073 3.01571
# Velocity P-wave (km/s) = 4.67718 5.71391 5.22134
#
# Compressibility (1/GPa) = 0.04673351
#
# Stress axis : x y z
#
# Youngs Moduli (GPa) = 48.86284 63.95047 15.50079
#
# Poissons Ratio (x) = 0.32813 0.13698
# Poissons Ratio (y) = 0.25071 0.20109
# Poissons Ratio (z) = 0.43181 0.82961
#
# Static dielectric constant tensor:
#      x y z
#    x 1.669020 0.000000 0.000000 
#    y 0.000000 1.710780 0.000000 
#    z 0.000000 0.000000 1.649290 
# 
# From -- ./inp_files/4300.got.cif
#   From: 2010.05.17/outbox.cif.g08.bks.cpg/sg49_3_cif.got.tgz:4300.got - 2010.06.03 21:02:19.
