data_PCOD9392173
_publ_section_title
;
Structure prediction by ZEFSAII (Michael W. Deem and Ramdas Pophale) SiO2 
 PCOD9392173
Probable space group: P C C M
;
_chemical_formula_sum "Si O2"
_cell_formula_units_Z 40
_cell_length_a 26.639463
_cell_length_b 9.284750
_cell_length_c 8.704797
_cell_angle_alpha 90.000000
_cell_angle_beta 90.000000
_cell_angle_gamma 90.000000
_cell_volume 2153.051054
_symmetry_space_group_name_H-M "P C C M"
_symmetry_group_IT_number 49
_symmetry_cell_setting 'orthorhombic'
loop_
_space_group_symop_operation_xyz
x,y,z
-x,-y,z
x,-y,1/2-z
-x,y,1/2-z
-x,-y,-z
x,y,-z
-x,y,1/2+z
x,-y,1/2+z
loop_
_atom_site_type_symbol
_atom_site_label
_atom_site_fract_x
_atom_site_fract_y
_atom_site_fract_z
Si Si1 0.553523 0.660176 0.315705
Si Si2 0.348107 0.839850 0.815796
Si Si3 0.051288 0.163529 0.683709
Si Si4 0.155133 0.838646 0.684148
Si Si5 0.744774 0.339811 0.316182
O O1 0.562392 0.500000 0.250000
O O2 0.500000 0.710411 0.250000
O O3 0.550461 0.651682 0.500000
O O4 0.599594 0.762678 0.272635
O O5 0.301948 0.747325 0.752145
O O6 0.345939 0.000000 0.750000
O O7 0.345172 0.844423 0.000000
O O8 0.049592 0.159515 0.500000
O O9 0.104019 0.224979 0.743296
O O10 0.000000 0.230544 0.750000
O O11 0.052163 0.000000 0.750000
O O12 0.149239 0.848116 0.500000
O O13 0.203606 0.743477 0.720957
O O14 0.162400 0.000000 0.750000
O O15 0.745604 0.500000 0.250000
O O16 0.739987 0.345052 0.500000
#
# Coordination Sequence:
#
# PCOD9392173 Si02
#       5
#     8   8   8   8   8
#     4  10  21  37  59  86 115 151 190 231 276 329
#     4  11  24  40  60  86 116 149 188 233 283 334
#     4  10  17  27  46  73 106 142 178 221 270 322
#     4  10  20  34  53  80 110 142 181 226 274 326
#     4  11  24  40  60  83 111 147 187 231 280 336
#
# _framework density 18.578288000000001
#
# number of rings (size 3 to 8) (size 9 to 14) (size 15 to 20)
#    0.000    1.600    0.000    7.800    0.000   10.000 
#    0.000    2.000    0.000    0.600    0.000    4.200 
#    0.000    0.000    0.000    0.000    0.000    0.000 
#
# Total GULP energy -223488.608137 kJ/mol
# GULP energy per Si atom -5587.215203 kJ/mol
# Density = 1.853600 g / cm^3
# Si number density = 18.578288 Si / 1000 Ang^3
#
#
#
# Elastic Constant Matrix: (Units=GPa)
#
#
# Indices 1 2 3 4 5 6 
#
# 1 217.5457 105.1644 91.4066 0.0000 0.0000 0.0000
# 2 105.1644 106.7676 50.8253 0.0000 0.0000 0.0000
# 3 91.4066 50.8253 98.4883 0.0000 0.0000 0.0000
# 4 0.0000 0.0000 0.0000 28.4277 0.0000 0.0000
# 5 0.0000 0.0000 0.0000 0.0000 31.3984 0.0000
# 6 0.0000 0.0000 0.0000 0.0000 0.0000 -206.0478
#
#
#
# Elastic Compliance Matrix: (Units=1/GPa)
#
#
# Indices 1 2 3 4 5 6 
#
# 1 0.010995 -0.007917 -0.006119 0.000000 0.000000 0.000000
# 2 -0.007917 0.018117 -0.002002 0.000000 0.000000 0.000000
# 3 -0.006119 -0.002002 0.016865 0.000000 0.000000 0.000000
# 4 0.000000 0.000000 0.000000 0.035177 0.000000 0.000000
# 5 0.000000 0.000000 0.000000 0.000000 0.031849 0.000000
# 6 0.000000 0.000000 0.000000 0.000000 0.000000 -0.004853
#
#
# Mechanical properties :
#
#
# Convention : Reuss Voigt Hill
#
# Bulk Modulus (GPa) = 71.92978 101.95491 86.94234
# Shear Modulus (GPa) = 34.51648 -17.55065 8.48291
#
# Velocity S-wave (km/s) = 4.31501 -3.07691 2.13915
# Velocity P-wave (km/s) = 7.97664 6.50957 7.28016
#
# Compressibility (1/GPa) = 0.01390245
#
# Stress axis : x y z
#
# Youngs Moduli (GPa) = 90.95217 55.19634 59.29392
#
# Poissons Ratio (x) = 0.43699 0.36280
# Poissons Ratio (y) = 0.72007 0.11869
# Poissons Ratio (z) = 0.55650 0.11049
#
# Static dielectric constant tensor:
#      x y z
#    x 1.669490 0.000000 0.000000 
#    y 0.000000 1.605780 0.000000 
#    z 0.000000 0.000000 1.622570 
# 
# From -- ./inp_files/6187.got.cif
#   From: 2010.05.17/outbox.cif.g08.bks.cpg/sg49_4_cif.got.tgz:6187.got - 2010.06.03 21:02:19.
