data_PCOD9392417
_publ_section_title
;
Structure prediction by ZEFSAII (Michael W. Deem and Ramdas Pophale) SiO2 
 PCOD9392417
Probable space group: P C C M
;
_chemical_formula_sum "Si O2"
_cell_formula_units_Z 48
_cell_length_a 9.106203
_cell_length_b 16.203379
_cell_length_c 15.781018
_cell_angle_alpha 90.000000
_cell_angle_beta 90.000000
_cell_angle_gamma 90.000000
_cell_volume 2328.509066
_symmetry_space_group_name_H-M "P C C M"
_symmetry_group_IT_number 49
_symmetry_cell_setting 'orthorhombic'
loop_
_space_group_symop_operation_xyz
x,y,z
-x,-y,z
x,-y,1/2-z
-x,y,1/2-z
-x,-y,-z
x,y,-z
-x,y,1/2+z
x,-y,1/2+z
loop_
_atom_site_type_symbol
_atom_site_label
_atom_site_fract_x
_atom_site_fract_y
_atom_site_fract_z
Si Si1 0.027021 0.408720 0.102364
Si Si2 0.373071 0.941208 0.402827
Si Si3 0.899724 0.854485 0.833756
Si Si4 0.716746 0.297477 0.601024
Si Si5 0.855250 0.753781 0.596661
Si Si6 0.538003 0.213792 0.154336
O O1 0.926472 0.331317 0.131637
O O2 0.000000 0.500000 0.136217
O O3 0.193579 0.380164 0.117284
O O4 0.006133 0.410950 0.000000
O O5 0.342536 0.967188 0.500000
O O6 0.217022 0.926693 0.355725
O O7 0.459969 0.854602 0.403450
O O8 0.500000 0.000000 0.364905
O O9 0.795898 0.773009 0.841807
O O10 0.000000 0.865370 0.750000
O O11 0.024932 0.826985 0.900296
O O12 0.735058 0.278573 0.500000
O O13 0.547536 0.296580 0.627190
O O14 0.812857 0.738801 0.500000
O O15 0.709965 0.780635 0.644124
O O16 0.500000 0.191756 0.250000
#
# Coordination Sequence:
#
# PCOD9392417 Si02
#       6
#     8   8   8   8   8   8
#     4   8  15  29  51  78 103 132 177 231 278 319
#     4  10  21  39  61  83 112 148 184 224 274 332
#     4  10  18  32  55  83 112 142 180 223 270 322
#     4   9  17  32  54  77 108 146 183 224 272 331
#     4  10  18  30  53  80 106 139 183 228 266 320
#     4  11  21  34  53  78 109 144 182 224 272 329
#
# _framework density 20.614049000000001
#
# number of rings (size 3 to 8) (size 9 to 14) (size 15 to 20)
#    0.000    2.333    0.000    7.000    0.000    0.333 
#    0.000    1.667    0.000   31.000    0.000    0.000 
#    0.000    5.333    0.000    0.000    0.000    0.000 
#
# Total GULP energy -267217.926127 kJ/mol
# GULP energy per Si atom -5567.040128 kJ/mol
# Density = 2.056713 g / cm^3
# Si number density = 20.614049 Si / 1000 Ang^3
#
#
#
# Elastic Constant Matrix: (Units=GPa)
#
#
# Indices 1 2 3 4 5 6 
#
# 1 147.1739 43.9996 25.5063 0.0000 0.0000 0.0000
# 2 43.9996 57.6514 12.3708 0.0000 0.0000 0.0000
# 3 25.5063 12.3708 70.4732 0.0000 0.0000 0.0000
# 4 0.0000 0.0000 0.0000 -5.1966 0.0000 0.0000
# 5 0.0000 0.0000 0.0000 0.0000 32.2183 0.0000
# 6 0.0000 0.0000 0.0000 0.0000 0.0000 29.2059
#
#
#
# Elastic Compliance Matrix: (Units=1/GPa)
#
#
# Indices 1 2 3 4 5 6 
#
# 1 0.009108 -0.006489 -0.002158 0.000000 0.000000 0.000000
# 2 -0.006489 0.022647 -0.001627 0.000000 0.000000 0.000000
# 3 -0.002158 -0.001627 0.015256 0.000000 0.000000 0.000000
# 4 0.000000 0.000000 0.000000 -0.192433 0.000000 0.000000
# 5 0.000000 0.000000 0.000000 0.000000 0.031038 0.000000
# 6 0.000000 0.000000 0.000000 0.000000 0.000000 0.034240
#
#
# Mechanical properties :
#
#
# Convention : Reuss Voigt Hill
#
# Bulk Modulus (GPa) = 37.78545 48.78352 43.28448
# Shear Modulus (GPa) = -98.47359 24.14030 -37.16664
#
# Velocity S-wave (km/s) = -6.91909 3.42579 -4.25075
# Velocity P-wave (km/s) = 6.74255 6.27412 1.74606
#
# Compressibility (1/GPa) = 0.02646522
#
# Stress axis : x y z
#
# Youngs Moduli (GPa) = 109.78787 44.15618 65.54667
#
# Poissons Ratio (x) = 0.28651 0.14142
# Poissons Ratio (y) = 0.71237 0.10664
# Poissons Ratio (z) = 0.23688 0.07184
#
# Static dielectric constant tensor:
#      x y z
#    x 1.786990 0.000000 0.000000 
#    y 0.000000 1.805190 0.000000 
#    z 0.000000 0.000000 1.797630 
# 
# From -- ./inp_files/16334.got.cif
#   From: 2010.05.17/outbox.cif.g08.bks.cpg/sg49_9_cif.got.tgz:16334.got - 2010.06.03 21:02:19.
