data_PCOD9392618
_publ_section_title
;
Structure prediction by ZEFSAII (Michael W. Deem and Ramdas Pophale) SiO2 
 PCOD9392618
Probable space group: P C C M
;
_chemical_formula_sum "Si O2"
_cell_formula_units_Z 64
_cell_length_a 21.985115
_cell_length_b 22.091868
_cell_length_c 9.005880
_cell_angle_alpha 90.000000
_cell_angle_beta 90.000000
_cell_angle_gamma 90.000000
_cell_volume 4374.086197
_symmetry_space_group_name_H-M "P C C M"
_symmetry_group_IT_number 49
_symmetry_cell_setting 'orthorhombic'
loop_
_space_group_symop_operation_xyz
x,y,z
-x,-y,z
x,-y,1/2-z
-x,y,1/2-z
-x,-y,-z
x,y,-z
-x,y,1/2+z
x,-y,1/2+z
loop_
_atom_site_type_symbol
_atom_site_label
_atom_site_fract_x
_atom_site_fract_y
_atom_site_fract_z
Si Si1 0.436779 0.066011 0.821907
Si Si2 0.932964 0.564145 0.179350
Si Si3 0.738811 0.442342 0.167477
Si Si4 0.155569 0.657621 0.168976
Si Si5 0.652590 0.641947 0.829406
Si Si6 0.651701 0.173732 0.678367
Si Si7 0.564988 0.272616 0.175650
Si Si8 0.758231 0.745633 0.171322
O O1 0.500000 0.090831 0.750000
O O2 0.377932 0.108152 0.793738
O O3 0.428382 0.000000 0.750000
O O4 0.445092 0.061644 0.000000
O O5 0.910414 0.500000 0.250000
O O6 0.893095 0.621811 0.230570
O O7 0.000000 0.571747 0.250000
O O8 0.934720 0.559202 0.000000
O O9 0.765128 0.500000 0.250000
O O10 0.788566 0.389690 0.162392
O O11 0.682489 0.417366 0.261116
O O12 0.721357 0.457531 0.000000
O O13 0.185719 0.718827 0.234820
O O14 0.133168 0.666459 0.000000
O O15 0.598018 0.666651 0.730795
O O16 0.705645 0.693611 0.825407
O O17 0.634476 0.634782 0.000000
O O18 0.647152 0.184601 0.500000
O O19 0.607378 0.218980 0.764155
O O20 0.720747 0.193978 0.718974
O O21 0.500000 0.266929 0.250000
O O22 0.560492 0.270422 0.000000
O O23 0.777381 0.752572 0.000000
#
# Coordination Sequence:
#
# PCOD9392618 Si02
#       8
#     8   8   8   8   8   8   8   8
#     4  10  19  30  43  60  84 115 149 184 218 256
#     4  11  21  33  47  63  86 116 149 183 217 253
#     4  10  19  29  43  62  81 102 128 159 197 240
#     4  10  19  30  44  64  87 109 137 171 207 247
#     4   9  17  30  44  58  78  99 122 156 197 240
#     4   9  18  31  45  62  84 108 137 173 212 251
#     4  11  20  29  43  61  79  99 125 157 197 243
#     4   8  15  28  44  61  81 105 132 166 209 251
#
# _framework density 14.631627999999999
#
# number of rings (size 3 to 8) (size 9 to 14) (size 15 to 20)
#    0.000    2.250    0.000    6.000    0.000    7.500 
#    0.000    0.000    0.000    0.375    0.000    2.625 
#    0.000    0.000    0.000    0.000    0.000    0.625 
#
# Total GULP energy -356468.661652 kJ/mol
# GULP energy per Si atom -5569.822838 kJ/mol
# Density = 1.459833 g / cm^3
# Si number density = 14.631628 Si / 1000 Ang^3
#
#
#
# Elastic Constant Matrix: (Units=GPa)
#
#
# Indices 1 2 3 4 5 6 
#
# 1 52.7969 29.9855 37.1614 0.0000 0.0000 0.0000
# 2 29.9855 49.4907 28.3150 0.0000 0.0000 0.0000
# 3 37.1614 28.3150 85.5398 0.0000 0.0000 0.0000
# 4 0.0000 0.0000 0.0000 12.0858 0.0000 0.0000
# 5 0.0000 0.0000 0.0000 0.0000 32.0824 0.0000
# 6 0.0000 0.0000 0.0000 0.0000 0.0000 23.6661
#
#
#
# Elastic Compliance Matrix: (Units=1/GPa)
#
#
# Indices 1 2 3 4 5 6 
#
# 1 0.034653 -0.015276 -0.009998 0.000000 0.000000 0.000000
# 2 -0.015276 0.031660 -0.003844 0.000000 0.000000 0.000000
# 3 -0.009998 -0.003844 0.017306 0.000000 0.000000 0.000000
# 4 0.000000 0.000000 0.000000 0.082742 0.000000 0.000000
# 5 0.000000 0.000000 0.000000 0.000000 0.031170 0.000000
# 6 0.000000 0.000000 0.000000 0.000000 0.000000 0.042255
#
#
# Mechanical properties :
#
#
# Convention : Reuss Voigt Hill
#
# Bulk Modulus (GPa) = 39.39360 42.08346 40.73853
# Shear Modulus (GPa) = 16.31414 19.72456 18.01935
#
# Velocity S-wave (km/s) = 3.34277 3.67560 3.51313
# Velocity P-wave (km/s) = 6.47154 6.84381 6.66028
#
# Compressibility (1/GPa) = 0.02538484
#
# Stress axis : x y z
#
# Youngs Moduli (GPa) = 28.85713 31.58542 57.78233
#
# Poissons Ratio (x) = 0.48249 0.57772
# Poissons Ratio (y) = 0.44081 0.22210
# Poissons Ratio (z) = 0.28852 0.12141
#
# Static dielectric constant tensor:
#      x y z
#    x 1.502390 0.000000 0.000000 
#    y 0.000000 1.488150 0.000000 
#    z 0.000000 0.000000 1.497810 
# 
# From -- ./inp_files/6129.got.cif
#   From: 2010.05.17/outbox.cif.g08.bks.cpg/sg49_4_cif.got.tgz:6129.got - 2010.06.03 21:02:19.
