data_PCOD9392226
_publ_section_title
;
Structure prediction by ZEFSAII (Michael W. Deem and Ramdas Pophale) SiO2 
 PCOD9392226
Probable space group: P C C M
;
_chemical_formula_sum "Si O2"
_cell_formula_units_Z 48
_cell_length_a 9.255971
_cell_length_b 31.915782
_cell_length_c 8.584624
_cell_angle_alpha 90.000000
_cell_angle_beta 90.000000
_cell_angle_gamma 90.000000
_cell_volume 2535.997105
_symmetry_space_group_name_H-M "P C C M"
_symmetry_group_IT_number 49
_symmetry_cell_setting 'orthorhombic'
loop_
_space_group_symop_operation_xyz
x,y,z
-x,-y,z
x,-y,1/2-z
-x,y,1/2-z
-x,-y,-z
x,y,-z
-x,y,1/2+z
x,-y,1/2+z
loop_
_atom_site_type_symbol
_atom_site_label
_atom_site_fract_x
_atom_site_fract_y
_atom_site_fract_z
Si Si1 0.161959 0.545544 0.186325
Si Si2 0.838015 0.293506 0.687610
Si Si3 0.165002 0.956765 0.313823
Si Si4 0.661758 0.376076 0.312456
Si Si5 0.337582 0.210520 0.812287
Si Si6 0.836113 0.868908 0.686282
O O1 0.207411 0.500000 0.250000
O O2 0.264927 0.582139 0.246325
O O3 0.000000 0.553217 0.250000
O O4 0.158291 0.544626 0.000000
O O5 0.843114 0.293616 0.500000
O O6 0.755272 0.335641 0.737093
O O7 0.749776 0.252222 0.735909
O O8 0.000000 0.292551 0.750000
O O9 0.162738 0.957253 0.500000
O O10 0.225918 0.912933 0.251237
O O11 0.000000 0.956473 0.250000
O O12 0.231774 0.000000 0.250000
O O13 0.500000 0.371885 0.250000
O O14 0.660555 0.377873 0.500000
O O15 0.500000 0.212746 0.750000
O O16 0.257466 0.169958 0.744573
O O17 0.338221 0.208263 0.000000
O O18 0.841300 0.870578 0.500000
O O19 0.000000 0.864161 0.750000
#
# Coordination Sequence:
#
# PCOD9392226 Si02
#       6
#     8   8   8   8   8   8
#     4  11  22  39  62  89 119 156 198 245 292 344
#     4  10  23  40  62  88 117 150 191 236 285 340
#     4  10  17  28  47  75 109 145 184 232 283 336
#     4  11  23  40  60  88 121 157 196 240 290 346
#     4  11  23  40  59  84 114 150 190 234 285 341
#     4  11  21  35  55  82 113 149 190 237 285 338
#
# _framework density 18.927467
#
# number of rings (size 3 to 8) (size 9 to 14) (size 15 to 20)
#    0.000    1.333    0.000    9.000    0.000    5.667 
#    0.000    1.667    0.000    0.500    0.000    3.500 
#    0.000    0.000    0.000    0.000    0.000    0.000 
#
# Total GULP energy -268344.545171 kJ/mol
# GULP energy per Si atom -5590.511358 kJ/mol
# Density = 1.888439 g / cm^3
# Si number density = 18.927467 Si / 1000 Ang^3
#
#
#
# Elastic Constant Matrix: (Units=GPa)
#
#
# Indices 1 2 3 4 5 6 
#
# 1 128.5770 112.4211 50.1239 0.0000 0.0000 0.0000
# 2 112.4211 205.9749 73.7416 0.0000 0.0000 0.0000
# 3 50.1239 73.7416 144.0424 0.0000 0.0000 0.0000
# 4 0.0000 0.0000 0.0000 28.1276 0.0000 0.0000
# 5 0.0000 0.0000 0.0000 0.0000 32.8634 0.0000
# 6 0.0000 0.0000 0.0000 0.0000 0.0000 -30.2380
#
#
#
# Elastic Compliance Matrix: (Units=1/GPa)
#
#
# Indices 1 2 3 4 5 6 
#
# 1 0.015063 -0.007769 -0.001264 0.000000 0.000000 0.000000
# 2 -0.007769 0.009951 -0.002391 0.000000 0.000000 0.000000
# 3 -0.001264 -0.002391 0.008607 0.000000 0.000000 0.000000
# 4 0.000000 0.000000 0.000000 0.035552 0.000000 0.000000
# 5 0.000000 0.000000 0.000000 0.000000 0.030429 0.000000
# 6 0.000000 0.000000 0.000000 0.000000 0.000000 -0.033071
#
#
# Mechanical properties :
#
#
# Convention : Reuss Voigt Hill
#
# Bulk Modulus (GPa) = 92.83221 105.68527 99.25874
# Shear Modulus (GPa) = 53.78091 22.30445 38.04268
#
# Velocity S-wave (km/s) = 5.33628 3.43653 4.48808
# Velocity P-wave (km/s) = 9.33384 8.46785 8.91137
#
# Compressibility (1/GPa) = 0.01077212
#
# Stress axis : x y z
#
# Youngs Moduli (GPa) = 66.38851 100.49138 116.19100
#
# Poissons Ratio (x) = 0.78068 0.14692
# Poissons Ratio (y) = 0.51575 0.27782
# Poissons Ratio (z) = 0.08395 0.24028
#
# Static dielectric constant tensor:
#      x y z
#    x 1.628050 0.000000 0.000000 
#    y 0.000000 1.671610 0.000000 
#    z 0.000000 0.000000 1.636910 
# 
# From -- ./inp_files/2053.got.cif
#   From: 2010.05.17/outbox.cif.g08.bks.cpg/sg49_2_cif.got.tgz:2053.got - 2010.06.03 21:02:19.
