data_PCOD9392824
_publ_section_title
;
Structure prediction by ZEFSAII (Michael W. Deem and Ramdas Pophale) SiO2 
 PCOD9392824
Probable space group: P C C M
;
_chemical_formula_sum "Si O2"
_cell_formula_units_Z 56
_cell_length_a 15.904061
_cell_length_b 20.556223
_cell_length_c 8.987813
_cell_angle_alpha 90.000000
_cell_angle_beta 90.000000
_cell_angle_gamma 90.000000
_cell_volume 2938.362556
_symmetry_space_group_name_H-M "P C C M"
_symmetry_group_IT_number 49
_symmetry_cell_setting 'orthorhombic'
loop_
_space_group_symop_operation_xyz
x,y,z
-x,-y,z
x,-y,1/2-z
-x,y,1/2-z
-x,-y,-z
x,y,-z
-x,y,1/2+z
x,-y,1/2+z
loop_
_atom_site_type_symbol
_atom_site_label
_atom_site_fract_x
_atom_site_fract_y
_atom_site_fract_z
Si Si1 0.584494 0.621396 0.677188
Si Si2 0.763262 0.935020 0.677023
Si Si3 0.585878 0.901475 0.826803
Si Si4 0.366831 0.247704 0.172380
Si Si5 0.911774 0.329232 0.177978
Si Si6 0.192941 0.208506 0.321853
Si Si7 0.232858 0.431126 0.320420
O O1 0.500000 0.593637 0.750000
O O2 0.578042 0.617781 0.500000
O O3 0.592879 0.696372 0.728136
O O4 0.672242 0.588391 0.724867
O O5 0.758023 0.942323 0.500000
O O6 0.669434 0.925161 0.743009
O O7 0.813049 0.868189 0.710399
O O8 0.799400 0.000000 0.750000
O O9 0.500000 0.923346 0.750000
O O10 0.589411 0.822662 0.819495
O O11 0.589139 0.920648 0.000000
O O12 0.273156 0.235227 0.233194
O O13 0.366572 0.268500 0.000000
O O14 0.884530 0.255251 0.214646
O O15 0.835047 0.376426 0.223471
O O16 0.000000 0.346911 0.250000
O O17 0.919321 0.333960 0.000000
O O18 0.209718 0.215165 0.500000
O O19 0.210565 0.500000 0.250000
O O20 0.232128 0.434987 0.500000
#
# Coordination Sequence:
#
# PCOD9392824 Si02
#       7
#     8   8   8   8   8   8   8
#     4  11  22  37  56  81 115 156 199 246 291 343
#     4  10  20  34  54  77 105 146 186 231 284 342
#     4  10  20  32  46  70 104 141 187 239 287 340
#     4  10  19  31  52  81 110 145 191 241 290 342
#     4  10  21  40  64  93 121 151 190 236 290 350
#     4   9  18  36  59  81 114 152 187 231 289 342
#     4  10  23  42  62  84 120 159 195 240 292 345
#
# _framework density 19.058233999999999
#
# number of rings (size 3 to 8) (size 9 to 14) (size 15 to 20)
#    0.000    2.000    1.429    2.143    0.000    6.571 
#    0.000    4.286    0.000    0.429    0.000    3.000 
#    0.000    0.000    0.000    0.000    0.000    0.000 
#
# Total GULP energy -312701.621235 kJ/mol
# GULP energy per Si atom -5583.957522 kJ/mol
# Density = 1.901486 g / cm^3
# Si number density = 19.058234 Si / 1000 Ang^3
#
#
#
# Elastic Constant Matrix: (Units=GPa)
#
#
# Indices 1 2 3 4 5 6 
#
# 1 104.8716 45.6434 31.7834 0.0000 0.0000 0.0000
# 2 45.6434 109.0323 31.0654 0.0000 0.0000 0.0000
# 3 31.7834 31.0654 43.5273 0.0000 0.0000 0.0000
# 4 0.0000 0.0000 0.0000 -181.5046 0.0000 0.0000
# 5 0.0000 0.0000 0.0000 0.0000 26.8877 0.0000
# 6 0.0000 0.0000 0.0000 0.0000 0.0000 -1.5115
#
#
#
# Elastic Compliance Matrix: (Units=1/GPa)
#
#
# Indices 1 2 3 4 5 6 
#
# 1 0.013228 -0.003497 -0.007164 0.000000 0.000000 0.000000
# 2 -0.003497 0.012437 -0.006323 0.000000 0.000000 0.000000
# 3 -0.007164 -0.006323 0.032718 0.000000 0.000000 0.000000
# 4 0.000000 0.000000 0.000000 -0.005510 0.000000 0.000000
# 5 0.000000 0.000000 0.000000 0.000000 0.037192 0.000000
# 6 0.000000 0.000000 0.000000 0.000000 0.000000 -0.661590
#
#
# Mechanical properties :
#
#
# Convention : Reuss Voigt Hill
#
# Bulk Modulus (GPa) = 40.95627 52.71284 46.83456
# Shear Modulus (GPa) = -9.44431 -21.29641 -15.37036
#
# Velocity S-wave (km/s) = -2.22851 -3.34644 -2.84297
# Velocity P-wave (km/s) = 3.86200 3.57594 3.72172
#
# Compressibility (1/GPa) = 0.02441629
#
# Stress axis : x y z
#
# Youngs Moduli (GPa) = 75.59479 80.40583 30.56443
#
# Poissons Ratio (x) = 0.28115 0.21896
# Poissons Ratio (y) = 0.26433 0.19326
# Poissons Ratio (z) = 0.54154 0.50841
#
# Static dielectric constant tensor:
#      x y z
#    x 1.645030 0.000000 0.000000 
#    y 0.000000 1.685950 0.000000 
#    z 0.000000 0.000000 1.639590 
# 
# From -- ./inp_files/4015.got.cif
#   From: 2010.05.17/outbox.cif.g08.bks.cpg/sg49_3_cif.got.tgz:4015.got - 2010.06.03 21:02:19.
