data_PCOD9392147
_publ_section_title
;
Structure prediction by ZEFSAII (Michael W. Deem and Ramdas Pophale) SiO2 
 PCOD9392147
Probable space group: P C C M
;
_chemical_formula_sum "Si O2"
_cell_formula_units_Z 64
_cell_length_a 19.757728
_cell_length_b 24.188720
_cell_length_c 8.650747
_cell_angle_alpha 90.000000
_cell_angle_beta 90.000000
_cell_angle_gamma 90.000000
_cell_volume 4134.314403
_symmetry_space_group_name_H-M "P C C M"
_symmetry_group_IT_number 49
_symmetry_cell_setting 'orthorhombic'
loop_
_space_group_symop_operation_xyz
x,y,z
-x,-y,z
x,-y,1/2-z
-x,y,1/2-z
-x,-y,-z
x,y,-z
-x,y,1/2+z
x,-y,1/2+z
loop_
_atom_site_type_symbol
_atom_site_label
_atom_site_fract_x
_atom_site_fract_y
_atom_site_fract_z
Si Si1 0.925421 0.274560 0.185835
Si Si2 0.794486 0.661179 0.686747
Si Si3 0.428644 0.617829 0.685875
Si Si4 0.288597 0.439321 0.815264
Si Si5 0.153963 0.162855 0.687110
Si Si6 0.074651 0.939597 0.315757
Si Si7 0.283724 0.772652 0.187587
Si Si8 0.571223 0.257386 0.185855
O O1 0.870079 0.320420 0.233761
O O2 0.894602 0.214623 0.229528
O O3 0.000000 0.282641 0.250000
O O4 0.927878 0.275356 0.000000
O O5 0.792594 0.657654 0.500000
O O6 0.765547 0.605311 0.756334
O O7 0.746490 0.712819 0.733019
O O8 0.500000 0.595667 0.750000
O O9 0.431762 0.620908 0.500000
O O10 0.363337 0.582378 0.732568
O O11 0.421194 0.679794 0.752905
O O12 0.276220 0.500000 0.750000
O O13 0.287182 0.440804 0.000000
O O14 0.152637 0.157881 0.500000
O O15 0.126237 0.107323 0.761360
O O16 0.229553 0.181264 0.736249
O O17 0.070912 0.942113 0.500000
O O18 0.000000 0.925812 0.250000
O O19 0.092601 0.000000 0.250000
O O20 0.361642 0.775624 0.236087
O O21 0.282854 0.773237 0.000000
O O22 0.500000 0.235878 0.250000
O O23 0.568561 0.259100 0.000000
#
# Coordination Sequence:
#
# PCOD9392147 Si02
#       8
#     8   8   8   8   8   8   8   8
#     4   9  18  30  49  73  97 123 150 183 229 275
#     4   9  17  33  51  67  89 119 150 182 223 277
#     4  10  20  32  46  66  89 116 150 186 225 268
#     4  11  23  35  49  68  88 114 148 188 229 274
#     4   9  17  31  48  70  98 127 162 198 229 271
#     4  11  21  33  48  68  95 133 171 203 236 270
#     4   8  15  28  48  68  91 125 156 186 232 278
#     4  10  17  27  45  67  92 125 156 186 226 273
#
# _framework density 15.480197
#
# number of rings (size 3 to 8) (size 9 to 14) (size 15 to 20)
#    0.000    2.375    1.250    5.250    0.000    3.750 
#    0.000    4.375    0.000    0.375    0.000    2.625 
#    0.000    0.500    0.000    5.750    0.000    1.750 
#
# Total GULP energy -356872.073264 kJ/mol
# GULP energy per Si atom -5576.126145 kJ/mol
# Density = 1.544496 g / cm^3
# Si number density = 15.480197 Si / 1000 Ang^3
#
#
#
# Elastic Constant Matrix: (Units=GPa)
#
#
# Indices 1 2 3 4 5 6 
#
# 1 153.7316 74.9502 37.4818 0.0000 0.0000 0.0000
# 2 74.9502 98.5290 32.7107 0.0000 0.0000 0.0000
# 3 37.4818 32.7107 46.4489 0.0000 0.0000 0.0000
# 4 0.0000 0.0000 0.0000 12.0625 0.0000 0.0000
# 5 0.0000 0.0000 0.0000 0.0000 9.5874 0.0000
# 6 0.0000 0.0000 0.0000 0.0000 0.0000 25.5032
#
#
#
# Elastic Compliance Matrix: (Units=1/GPa)
#
#
# Indices 1 2 3 4 5 6 
#
# 1 0.010839 -0.006971 -0.003837 0.000000 0.000000 0.000000
# 2 -0.006971 0.017730 -0.006860 0.000000 0.000000 0.000000
# 3 -0.003837 -0.006860 0.029457 0.000000 0.000000 0.000000
# 4 0.000000 0.000000 0.000000 0.082901 0.000000 0.000000
# 5 0.000000 0.000000 0.000000 0.000000 0.104303 0.000000
# 6 0.000000 0.000000 0.000000 0.000000 0.000000 0.039211
#
#
# Mechanical properties :
#
#
# Convention : Reuss Voigt Hill
#
# Bulk Modulus (GPa) = 44.07632 65.44388 54.76010
# Shear Modulus (GPa) = 15.27453 19.66842 17.47148
#
# Velocity S-wave (km/s) = 3.14461 3.56835 3.36316
# Velocity P-wave (km/s) = 6.45905 7.70358 7.10860
#
# Compressibility (1/GPa) = 0.02268792
#
# Stress axis : x y z
#
# Youngs Moduli (GPa) = 92.25740 56.40165 33.94798
#
# Poissons Ratio (x) = 0.39320 0.13027
# Poissons Ratio (y) = 0.64316 0.23290
# Poissons Ratio (z) = 0.35401 0.38694
#
# Static dielectric constant tensor:
#      x y z
#    x 1.536560 0.000000 0.000000 
#    y 0.000000 1.486170 0.000000 
#    z 0.000000 0.000000 1.521720 
# 
# From -- ./inp_files/6073.got.cif
#   From: 2010.05.17/outbox.cif.g08.bks.cpg/sg49_4_cif.got.tgz:6073.got - 2010.06.03 21:02:19.
