data_PCOD9392768
_publ_section_title
;
Structure prediction by ZEFSAII (Michael W. Deem and Ramdas Pophale) SiO2 
 PCOD9392768
Probable space group: P C C M
;
_chemical_formula_sum "Si O2"
_cell_formula_units_Z 40
_cell_length_a 19.133906
_cell_length_b 13.763659
_cell_length_c 8.873892
_cell_angle_alpha 90.000000
_cell_angle_beta 90.000000
_cell_angle_gamma 90.000000
_cell_volume 2336.962153
_symmetry_space_group_name_H-M "P C C M"
_symmetry_group_IT_number 49
_symmetry_cell_setting 'orthorhombic'
loop_
_space_group_symop_operation_xyz
x,y,z
-x,-y,z
x,-y,1/2-z
-x,y,1/2-z
-x,-y,-z
x,y,-z
-x,y,1/2+z
x,-y,1/2+z
loop_
_atom_site_type_symbol
_atom_site_label
_atom_site_fract_x
_atom_site_fract_y
_atom_site_fract_z
Si Si1 0.354766 0.101552 0.820613
Si Si2 0.424983 0.694526 0.319348
Si Si3 0.072038 0.892363 0.181024
Si Si4 0.779761 0.196105 0.819770
Si Si5 0.710748 0.600730 0.679995
O O1 0.403026 0.194115 0.781033
O O2 0.277493 0.128800 0.760956
O O3 0.378062 0.000000 0.750000
O O4 0.353075 0.092755 0.000000
O O5 0.500000 0.672220 0.250000
O O6 0.425774 0.685020 0.500000
O O7 0.364481 0.627624 0.250106
O O8 0.141378 0.832124 0.219533
O O9 0.000000 0.852258 0.250000
O O10 0.080581 0.000000 0.250000
O O11 0.066043 0.898790 0.000000
O O12 0.760107 0.307316 0.784033
O O13 0.771239 0.182941 0.000000
O O14 0.735729 0.500000 0.750000
O O15 0.704952 0.592812 0.500000
#
# Coordination Sequence:
#
# PCOD9392768 Si02
#       5
#     8   8   8   8   8
#     4  10  20  32  49  72  99 131 168 204 243 291
#     4  10  21  36  52  73  99 129 164 204 248 296
#     4  10  19  31  48  74 105 137 168 199 237 283
#     4   9  19  34  52  73 100 131 165 205 247 290
#     4  10  20  36  56  77  99 125 160 205 252 299
#
# _framework density 17.116237000000002
#
# number of rings (size 3 to 8) (size 9 to 14) (size 15 to 20)
#    0.000    2.200    0.000    3.600    0.000    7.200 
#    0.000    4.000    0.000    0.600    0.000    4.200 
#    0.000    0.000    0.000    0.000    0.000    0.000 
#
# Total GULP energy -223299.686050 kJ/mol
# GULP energy per Si atom -5582.492151 kJ/mol
# Density = 1.707728 g / cm^3
# Si number density = 17.116237 Si / 1000 Ang^3
#
#
#
# Elastic Constant Matrix: (Units=GPa)
#
#
# Indices 1 2 3 4 5 6 
#
# 1 97.0590 8.6395 25.7675 0.0000 0.0000 0.0000
# 2 8.6395 59.1308 22.3249 0.0000 0.0000 0.0000
# 3 25.7675 22.3249 42.7076 0.0000 0.0000 0.0000
# 4 0.0000 0.0000 0.0000 27.6379 0.0000 0.0000
# 5 0.0000 0.0000 0.0000 0.0000 22.6878 0.0000
# 6 0.0000 0.0000 0.0000 0.0000 0.0000 8.1086
#
#
#
# Elastic Compliance Matrix: (Units=1/GPa)
#
#
# Indices 1 2 3 4 5 6 
#
# 1 0.012343 0.001256 -0.008103 0.000000 0.000000 0.000000
# 2 0.001256 0.021198 -0.011839 0.000000 0.000000 0.000000
# 3 -0.008103 -0.011839 0.034493 0.000000 0.000000 0.000000
# 4 0.000000 0.000000 0.000000 0.036182 0.000000 0.000000
# 5 0.000000 0.000000 0.000000 0.000000 0.044077 0.000000
# 6 0.000000 0.000000 0.000000 0.000000 0.000000 0.123326
#
#
# Mechanical properties :
#
#
# Convention : Reuss Voigt Hill
#
# Bulk Modulus (GPa) = 32.61481 34.70683 33.66082
# Shear Modulus (GPa) = 15.66363 21.16455 18.41409
#
# Velocity S-wave (km/s) = 3.02840 3.52023 3.28354
# Velocity P-wave (km/s) = 5.59683 6.06992 5.83817
#
# Compressibility (1/GPa) = 0.03066091
#
# Stress axis : x y z
#
# Youngs Moduli (GPa) = 81.02067 47.17444 28.99153
#
# Poissons Ratio (x) = -0.05926 0.23493
# Poissons Ratio (y) = -0.10177 0.34323
# Poissons Ratio (z) = 0.65655 0.55849
#
# Static dielectric constant tensor:
#      x y z
#    x 1.563250 0.000000 0.000000 
#    y 0.000000 1.578240 0.000000 
#    z 0.000000 0.000000 1.569890 
# 
# From -- ./inp_files/2671.got.cif
#   From: 2010.05.17/outbox.cif.g08.bks.cpg/sg49_2_cif.got.tgz:2671.got - 2010.06.03 21:02:19.
