data_PCOD9392140
_publ_section_title
;
Structure prediction by ZEFSAII (Michael W. Deem and Ramdas Pophale) SiO2 
 PCOD9392140
Probable space group: P C C M
;
_chemical_formula_sum "Si O2"
_cell_formula_units_Z 58
_cell_length_a 15.132252
_cell_length_b 26.052117
_cell_length_c 8.303171
_cell_angle_alpha 90.000000
_cell_angle_beta 90.000000
_cell_angle_gamma 90.000000
_cell_volume 3273.335851
_symmetry_space_group_name_H-M "P C C M"
_symmetry_group_IT_number 49
_symmetry_cell_setting 'orthorhombic'
loop_
_space_group_symop_operation_xyz
x,y,z
-x,-y,z
x,-y,1/2-z
-x,y,1/2-z
-x,-y,-z
x,y,-z
-x,y,1/2+z
x,-y,1/2+z
loop_
_atom_site_type_symbol
_atom_site_label
_atom_site_fract_x
_atom_site_fract_y
_atom_site_fract_z
Si Si1 0.636267 0.421073 0.693956
Si Si2 0.500000 0.500000 0.250000
Si Si3 0.898466 0.164156 0.692684
Si Si4 0.843716 0.556404 0.809884
Si Si5 0.904382 0.337535 0.187519
Si Si6 0.597744 0.697423 0.193719
Si Si7 0.225866 0.744976 0.690917
Si Si8 0.898142 0.946118 0.691256
O O1 0.615562 0.428835 0.500000
O O2 0.573544 0.457490 0.800840
O O3 0.738483 0.435266 0.716042
O O4 0.619082 0.361866 0.736401
O O5 0.901342 0.166631 0.500000
O O6 0.833698 0.208593 0.756844
O O7 0.863566 0.107923 0.742815
O O8 0.000000 0.170595 0.750000
O O9 0.868237 0.500000 0.750000
O O10 0.892423 0.602127 0.718371
O O11 0.861068 0.561489 0.000000
O O12 0.829434 0.306995 0.283052
O O13 0.000000 0.320910 0.250000
O O14 0.895566 0.325919 0.000000
O O15 0.500000 0.710858 0.250000
O O16 0.676229 0.733940 0.256572
O O17 0.599943 0.699083 0.000000
O O18 0.234483 0.754118 0.500000
O O19 0.897325 0.945178 0.500000
O O20 0.000000 0.946606 0.750000
O O21 0.857624 0.000000 0.750000
#
# Coordination Sequence:
#
# PCOD9392140 Si02
#       8
#     8   2   8   8   8   8   8   8
#     4  10  20  32  50  72 102 129 155 195 247 307
#     4  12  18  32  48  82 102 128 162 196 260 312
#     4  10  19  31  49  74 105 143 184 225 267 311
#     4  11  22  40  58  77 102 129 161 204 253 307
#     4  12  25  40  59  81 102 133 171 212 260 314
#     4  10  20  37  55  76 102 135 169 209 261 313
#     4  10  21  38  57  77 107 142 177 221 267 312
#     4  10  17  27  44  68 103 144 185 225 263 307
#
# _framework density 17.718927999999998
#
# number of rings (size 3 to 8) (size 9 to 14) (size 15 to 20)
#    0.000    1.517    2.759    5.172    0.000    3.034 
#    0.000    1.379    0.000    0.000    0.000    0.000 
#    0.000    0.552    0.000    6.345    0.000    1.931 
#
# Total GULP energy -323543.640209 kJ/mol
# GULP energy per Si atom -5578.338624 kJ/mol
# Density = 1.767860 g / cm^3
# Si number density = 17.718928 Si / 1000 Ang^3
#
#
#
# Elastic Constant Matrix: (Units=GPa)
#
#
# Indices 1 2 3 4 5 6 
#
# 1 77.5972 39.6081 5.6235 0.0000 0.0000 0.0000
# 2 39.6081 119.4108 7.3563 0.0000 0.0000 0.0000
# 3 5.6235 7.3563 33.7978 0.0000 0.0000 0.0000
# 4 0.0000 0.0000 0.0000 49.9537 0.0000 0.0000
# 5 0.0000 0.0000 0.0000 0.0000 15.7750 0.0000
# 6 0.0000 0.0000 0.0000 0.0000 0.0000 3.3988
#
#
#
# Elastic Compliance Matrix: (Units=1/GPa)
#
#
# Indices 1 2 3 4 5 6 
#
# 1 0.015587 -0.005079 -0.001488 0.000000 0.000000 0.000000
# 2 -0.005079 0.010143 -0.001363 0.000000 0.000000 0.000000
# 3 -0.001488 -0.001363 0.030132 0.000000 0.000000 0.000000
# 4 0.000000 0.000000 0.000000 0.020019 0.000000 0.000000
# 5 0.000000 0.000000 0.000000 0.000000 0.063391 0.000000
# 6 0.000000 0.000000 0.000000 0.000000 0.000000 0.294223
#
#
# Mechanical properties :
#
#
# Convention : Reuss Voigt Hill
#
# Bulk Modulus (GPa) = 24.99786 37.33127 31.16456
# Shear Modulus (GPa) = 10.80641 25.70669 18.25655
#
# Velocity S-wave (km/s) = 2.47225 3.81307 3.21338
# Velocity P-wave (km/s) = 4.72102 6.36399 5.60305
#
# Compressibility (1/GPa) = 0.04000343
#
# Stress axis : x y z
#
# Youngs Moduli (GPa) = 64.15535 98.59080 33.18735
#
# Poissons Ratio (x) = 0.50070 0.04939
# Poissons Ratio (y) = 0.32582 0.04522
# Poissons Ratio (z) = 0.09547 0.13435
#
# Static dielectric constant tensor:
#      x y z
#    x 1.600810 0.000000 0.000000 
#    y 0.000000 1.629780 0.000000 
#    z 0.000000 0.000000 1.630350 
# 
# From -- ./inp_files/4255.got.cif
#   From: 2010.05.17/outbox.cif.g08.bks.cpg/sg49_3_cif.got.tgz:4255.got - 2010.06.03 21:02:19.
