data_PCOD9392625
_publ_section_title
;
Structure prediction by ZEFSAII (Michael W. Deem and Ramdas Pophale) SiO2 
 PCOD9392625
Probable space group: P C C M
;
_chemical_formula_sum "Si O2"
_cell_formula_units_Z 48
_cell_length_a 24.700255
_cell_length_b 13.840617
_cell_length_c 8.735930
_cell_angle_alpha 90.000000
_cell_angle_beta 90.000000
_cell_angle_gamma 90.000000
_cell_volume 2986.524166
_symmetry_space_group_name_H-M "P C C M"
_symmetry_group_IT_number 49
_symmetry_cell_setting 'orthorhombic'
loop_
_space_group_symop_operation_xyz
x,y,z
-x,-y,z
x,-y,1/2-z
-x,y,1/2-z
-x,-y,-z
x,y,-z
-x,y,1/2+z
x,-y,1/2+z
loop_
_atom_site_type_symbol
_atom_site_label
_atom_site_fract_x
_atom_site_fract_y
_atom_site_fract_z
Si Si1 0.889156 0.896483 0.683102
Si Si2 0.445575 0.108659 0.817356
Si Si3 0.058297 0.305092 0.315728
Si Si4 0.674511 0.108607 0.316253
Si Si5 0.834252 0.603434 0.183001
Si Si6 0.779302 0.209037 0.815954
O O1 0.890638 0.903225 0.500000
O O2 0.926989 0.806107 0.727597
O O3 0.828030 0.864801 0.727677
O O4 0.903905 0.000000 0.750000
O O5 0.500000 0.155835 0.750000
O O6 0.385876 0.148685 0.780285
O O7 0.444240 0.000000 0.750000
O O8 0.450726 0.103369 0.000000
O O9 0.059433 0.312341 0.500000
O O10 0.106085 0.369658 0.246191
O O11 0.000000 0.331041 0.250000
O O12 0.679839 0.104229 0.500000
O O13 0.722587 0.170439 0.245010
O O14 0.678172 0.000000 0.250000
O O15 0.818255 0.500000 0.250000
O O16 0.795718 0.688550 0.244381
O O17 0.834700 0.601971 0.000000
O O18 0.779254 0.216268 0.000000
#
# Coordination Sequence:
#
# PCOD9392625 Si02
#       6
#     8   8   8   8   8   8
#     4   9  19  32  47  67  94 125 158 192 228 271
#     4   9  16  25  38  57  86 124 167 206 241 278
#     4  10  21  37  53  74  99 124 157 195 233 278
#     4  10  19  29  43  67  97 132 169 205 242 283
#     4  11  22  38  58  77  97 122 150 188 238 290
#     4  10  20  34  50  71  97 125 159 199 238 284
#
# _framework density 16.072195000000001
#
# number of rings (size 3 to 8) (size 9 to 14) (size 15 to 20)
#    0.000    2.167    0.000    5.500    0.000    8.000 
#    0.000    3.333    0.000    0.000    0.000    0.000 
#    0.000    0.667    0.000    7.000    0.000    3.833 
#
# Total GULP energy -267769.154139 kJ/mol
# GULP energy per Si atom -5578.524045 kJ/mol
# Density = 1.603561 g / cm^3
# Si number density = 16.072195 Si / 1000 Ang^3
#
#
#
# Elastic Constant Matrix: (Units=GPa)
#
#
# Indices 1 2 3 4 5 6 
#
# 1 116.5850 19.9808 40.1670 0.0000 0.0000 0.0000
# 2 19.9808 60.0723 22.1969 0.0000 0.0000 0.0000
# 3 40.1670 22.1969 78.2028 0.0000 0.0000 0.0000
# 4 0.0000 0.0000 0.0000 24.5223 0.0000 0.0000
# 5 0.0000 0.0000 0.0000 0.0000 27.3620 0.0000
# 6 0.0000 0.0000 0.0000 0.0000 0.0000 9.1260
#
#
#
# Elastic Compliance Matrix: (Units=1/GPa)
#
#
# Indices 1 2 3 4 5 6 
#
# 1 0.010572 -0.001687 -0.004951 0.000000 0.000000 0.000000
# 2 -0.001687 0.018866 -0.004488 0.000000 0.000000 0.000000
# 3 -0.004951 -0.004488 0.016604 0.000000 0.000000 0.000000
# 4 0.000000 0.000000 0.000000 0.040779 0.000000 0.000000
# 5 0.000000 0.000000 0.000000 0.000000 0.036547 0.000000
# 6 0.000000 0.000000 0.000000 0.000000 0.000000 0.109577
#
#
# Mechanical properties :
#
#
# Convention : Reuss Voigt Hill
#
# Bulk Modulus (GPa) = 42.03564 46.61663 44.32613
# Shear Modulus (GPa) = 19.00197 23.70306 21.35252
#
# Velocity S-wave (km/s) = 3.44217 3.84446 3.64887
# Velocity P-wave (km/s) = 6.48144 6.98384 6.73733
#
# Compressibility (1/GPa) = 0.02378934
#
# Stress axis : x y z
#
# Youngs Moduli (GPa) = 94.58509 53.00476 60.22468
#
# Poissons Ratio (x) = 0.08942 0.29820
# Poissons Ratio (y) = 0.15956 0.27032
# Poissons Ratio (z) = 0.46834 0.23791
#
# Static dielectric constant tensor:
#      x y z
#    x 1.563170 0.000000 0.000000 
#    y 0.000000 1.518650 0.000000 
#    z 0.000000 0.000000 1.534580 
# 
# From -- ./inp_files/2893.got.cif
#   From: 2010.05.17/outbox.cif.g08.bks.cpg/sg49_2_cif.got.tgz:2893.got - 2010.06.03 21:02:19.
