data_PCOD9392158
_publ_section_title
;
Structure prediction by ZEFSAII (Michael W. Deem and Ramdas Pophale) SiO2 
 PCOD9392158
Probable space group: P C C M
;
_chemical_formula_sum "Si O2"
_cell_formula_units_Z 48
_cell_length_a 32.179062
_cell_length_b 9.288389
_cell_length_c 8.572036
_cell_angle_alpha 90.000000
_cell_angle_beta 90.000000
_cell_angle_gamma 90.000000
_cell_volume 2562.109945
_symmetry_space_group_name_H-M "P C C M"
_symmetry_group_IT_number 49
_symmetry_cell_setting 'orthorhombic'
loop_
_space_group_symop_operation_xyz
x,y,z
-x,-y,z
x,-y,1/2-z
-x,y,1/2-z
-x,-y,-z
x,y,-z
-x,y,1/2+z
x,-y,1/2+z
loop_
_atom_site_type_symbol
_atom_site_label
_atom_site_fract_x
_atom_site_fract_y
_atom_site_fract_z
Si Si1 0.044673 0.838090 0.312585
Si Si2 0.629858 0.836890 0.812458
Si Si3 0.542855 0.835551 0.686074
Si Si4 0.874352 0.661297 0.811630
Si Si5 0.288295 0.338430 0.811747
Si Si6 0.206957 0.161821 0.188623
O O1 0.043328 0.842943 0.500000
O O2 0.082907 0.738324 0.262272
O O3 0.000000 0.787327 0.250000
O O4 0.051043 0.000000 0.250000
O O5 0.586483 0.774496 0.746972
O O6 0.669502 0.742983 0.764314
O O7 0.634826 0.000000 0.750000
O O8 0.627434 0.842518 0.000000
O O9 0.500000 0.769001 0.750000
O O10 0.542029 0.838385 0.500000
O O11 0.543312 0.000000 0.750000
O O12 0.871651 0.500000 0.750000
O O13 0.834576 0.754530 0.760347
O O14 0.874021 0.657928 0.000000
O O15 0.286907 0.500000 0.750000
O O16 0.247928 0.248524 0.759825
O O17 0.287750 0.342205 0.000000
O O18 0.207423 0.000000 0.250000
O O19 0.207040 0.157919 0.000000
#
# Coordination Sequence:
#
# PCOD9392158 Si02
#       6
#     8   8   8   8   8   8
#     4  10  20  35  55  80 107 141 182 226 270 319
#     4  10  19  32  50  76 105 136 174 216 258 309
#     4  10  17  27  45  71 102 136 171 214 262 308
#     4  10  22  37  55  80 111 143 180 220 266 319
#     4  10  22  37  55  78 107 139 175 215 260 312
#     4  10  21  38  58  83 109 138 176 219 263 314
#
# _framework density 18.734558
#
# number of rings (size 3 to 8) (size 9 to 14) (size 15 to 20)
#    0.000    2.000    0.000    6.000    0.000    4.333 
#    0.000    1.667    0.000    0.500    0.000    3.500 
#    0.000    0.000    0.000    0.000    0.000    0.000 
#
# Total GULP energy -268027.067089 kJ/mol
# GULP energy per Si atom -5583.897231 kJ/mol
# Density = 1.869192 g / cm^3
# Si number density = 18.734558 Si / 1000 Ang^3
#
#
#
# Elastic Constant Matrix: (Units=GPa)
#
#
# Indices 1 2 3 4 5 6 
#
# 1 230.6123 112.3020 49.0078 0.0000 0.0000 0.0000
# 2 112.3020 125.1638 26.2922 0.0000 0.0000 0.0000
# 3 49.0078 26.2922 55.0431 0.0000 0.0000 0.0000
# 4 0.0000 0.0000 0.0000 30.2520 0.0000 0.0000
# 5 0.0000 0.0000 0.0000 0.0000 13.3445 0.0000
# 6 0.0000 0.0000 0.0000 0.0000 0.0000 -11.7035
#
#
#
# Elastic Compliance Matrix: (Units=1/GPa)
#
#
# Indices 1 2 3 4 5 6 
#
# 1 0.008561 -0.006758 -0.004394 0.000000 0.000000 0.000000
# 2 -0.006758 0.014216 -0.000773 0.000000 0.000000 0.000000
# 3 -0.004394 -0.000773 0.022449 0.000000 0.000000 0.000000
# 4 0.000000 0.000000 0.000000 0.033056 0.000000 0.000000
# 5 0.000000 0.000000 0.000000 0.000000 0.074937 0.000000
# 6 0.000000 0.000000 0.000000 0.000000 0.000000 -0.085445
#
#
# Mechanical properties :
#
#
# Convention : Reuss Voigt Hill
#
# Bulk Modulus (GPa) = 46.78379 87.33590 67.05985
# Shear Modulus (GPa) = 50.63240 21.25977 35.94609
#
# Velocity S-wave (km/s) = 5.20431 3.37232 4.38505
# Velocity P-wave (km/s) = 7.81916 7.86652 7.84288
#
# Compressibility (1/GPa) = 0.02137492
#
# Stress axis : x y z
#
# Youngs Moduli (GPa) = 116.80431 70.34379 44.54487
#
# Poissons Ratio (x) = 0.47542 0.19574
# Poissons Ratio (y) = 0.78942 0.03443
# Poissons Ratio (z) = 0.51327 0.05438
#
# Static dielectric constant tensor:
#      x y z
#    x 1.681010 0.000000 0.000000 
#    y 0.000000 1.599490 0.000000 
#    z 0.000000 0.000000 1.642990 
# 
# From -- ./inp_files/2093.got.cif
#   From: 2010.05.17/outbox.cif.g08.bks.cpg/sg49_2_cif.got.tgz:2093.got - 2010.06.03 21:02:19.
