data_PCOD9392456
_publ_section_title
;
Structure prediction by ZEFSAII (Michael W. Deem and Ramdas Pophale) SiO2 
 PCOD9392456
Probable space group: P C C M
;
_chemical_formula_sum "Si O2"
_cell_formula_units_Z 48
_cell_length_a 31.890838
_cell_length_b 9.476631
_cell_length_c 8.587827
_cell_angle_alpha 90.000000
_cell_angle_beta 90.000000
_cell_angle_gamma 90.000000
_cell_volume 2595.393358
_symmetry_space_group_name_H-M "P C C M"
_symmetry_group_IT_number 49
_symmetry_cell_setting 'orthorhombic'
loop_
_space_group_symop_operation_xyz
x,y,z
-x,-y,z
x,-y,1/2-z
-x,y,1/2-z
-x,-y,-z
x,y,-z
-x,y,1/2+z
x,-y,1/2+z
loop_
_atom_site_type_symbol
_atom_site_label
_atom_site_fract_x
_atom_site_fract_y
_atom_site_fract_z
Si Si1 0.122116 0.841494 0.813430
Si Si2 0.625127 0.340783 0.312937
Si Si3 0.455607 0.841532 0.686467
Si Si4 0.712447 0.339272 0.186098
Si Si5 0.953547 0.343551 0.313183
Si Si6 0.800460 0.339635 0.686449
O O1 0.080459 0.765659 0.749446
O O2 0.161707 0.752805 0.751698
O O3 0.124361 0.000000 0.750000
O O4 0.121768 0.841130 0.000000
O O5 0.620671 0.500000 0.250000
O O6 0.628514 0.345154 0.500000
O O7 0.584302 0.251748 0.267868
O O8 0.668361 0.277583 0.244540
O O9 0.500000 0.785586 0.750000
O O10 0.457727 0.846380 0.500000
O O11 0.450757 0.000000 0.750000
O O12 0.711570 0.500000 0.250000
O O13 0.755627 0.279960 0.255101
O O14 0.714152 0.340382 0.000000
O O15 0.942868 0.500000 0.250000
O O16 0.953873 0.345997 0.500000
O O17 0.000000 0.310139 0.250000
O O18 0.804426 0.500000 0.750000
O O19 0.801198 0.343542 0.500000
#
# Coordination Sequence:
#
# PCOD9392456 Si02
#       6
#     8   8   8   8   8   8
#     4  12  25  42  60  85 118 154 192 235 285 339
#     4  10  20  34  53  80 109 140 176 221 272 326
#     4  10  21  36  55  76 103 138 179 220 266 320
#     4  10  18  31  53  81 110 143 180 225 275 327
#     4  11  22  40  64  92 120 153 193 238 284 333
#     4  11  21  37  60  86 114 149 190 234 277 329
#
# _framework density 18.494305000000001
#
# number of rings (size 3 to 8) (size 9 to 14) (size 15 to 20)
#    0.000    1.333    0.000   10.500    0.000    3.333 
#    0.000    4.167    0.000    2.000    0.000    0.000 
#    0.000    0.000    0.000    0.000    0.000    0.000 
#
# Total GULP energy -268238.180712 kJ/mol
# GULP energy per Si atom -5588.295432 kJ/mol
# Density = 1.845221 g / cm^3
# Si number density = 18.494305 Si / 1000 Ang^3
#
#
#
# Elastic Constant Matrix: (Units=GPa)
#
#
# Indices 1 2 3 4 5 6 
#
# 1 173.5971 96.5289 79.6647 0.0000 0.0000 0.0000
# 2 96.5289 81.2431 50.4746 0.0000 0.0000 0.0000
# 3 79.6647 50.4746 180.3946 0.0000 0.0000 0.0000
# 4 0.0000 0.0000 0.0000 12.5167 0.0000 0.0000
# 5 0.0000 0.0000 0.0000 0.0000 39.5139 0.0000
# 6 0.0000 0.0000 0.0000 0.0000 0.0000 2.5253
#
#
#
# Elastic Compliance Matrix: (Units=1/GPa)
#
#
# Indices 1 2 3 4 5 6 
#
# 1 0.017761 -0.019644 -0.002347 0.000000 0.000000 0.000000
# 2 -0.019644 0.036626 -0.001573 0.000000 0.000000 0.000000
# 3 -0.002347 -0.001573 0.007020 0.000000 0.000000 0.000000
# 4 0.000000 0.000000 0.000000 0.079893 0.000000 0.000000
# 5 0.000000 0.000000 0.000000 0.000000 0.025308 0.000000
# 6 0.000000 0.000000 0.000000 0.000000 0.000000 0.395992
#
#
# Mechanical properties :
#
#
# Convention : Reuss Voigt Hill
#
# Bulk Modulus (GPa) = 70.03391 98.73014 84.38202
# Shear Modulus (GPa) = 8.13687 24.81562 16.47625
#
# Velocity S-wave (km/s) = 2.09981 3.66703 2.98800
# Velocity P-wave (km/s) = 6.62035 8.45159 7.59139
#
# Compressibility (1/GPa) = 0.01427880
#
# Stress axis : x y z
#
# Youngs Moduli (GPa) = 56.30407 27.30276 142.45201
#
# Poissons Ratio (x) = 0.53634 0.33432
# Poissons Ratio (y) = 1.10605 0.22406
# Poissons Ratio (z) = 0.13214 0.04294
#
# Static dielectric constant tensor:
#      x y z
#    x 1.663580 0.000000 0.000000 
#    y 0.000000 1.631800 0.000000 
#    z 0.000000 0.000000 1.621720 
# 
# From -- ./inp_files/6851.got.cif
#   From: 2010.05.17/outbox.cif.g08.bks.cpg/sg49_4_cif.got.tgz:6851.got - 2010.06.03 21:02:19.
