data_PCOD9392072
_publ_section_title
;
Structure prediction by ZEFSAII (Michael W. Deem and Ramdas Pophale) SiO2 
 PCOD9392072
Probable space group: P C C M
;
_chemical_formula_sum "Si O2"
_cell_formula_units_Z 56
_cell_length_a 5.280565
_cell_length_b 25.401275
_cell_length_c 23.290141
_cell_angle_alpha 90.000000
_cell_angle_beta 90.000000
_cell_angle_gamma 90.000000
_cell_volume 3123.978433
_symmetry_space_group_name_H-M "P C C M"
_symmetry_group_IT_number 49
_symmetry_cell_setting 'orthorhombic'
loop_
_space_group_symop_operation_xyz
x,y,z
-x,-y,z
x,-y,1/2-z
-x,y,1/2-z
-x,-y,-z
x,y,-z
-x,y,1/2+z
x,-y,1/2+z
loop_
_atom_site_type_symbol
_atom_site_label
_atom_site_fract_x
_atom_site_fract_y
_atom_site_fract_z
Si Si1 0.052326 0.642572 0.816224
Si Si2 0.243417 0.523357 0.815439
Si Si3 0.066801 0.169598 0.433196
Si Si4 0.544389 0.690455 0.181936
Si Si5 0.576790 0.920224 0.814633
Si Si6 0.430468 0.805048 0.363701
Si Si7 0.924409 0.055192 0.882844
O O1 0.183616 0.585092 0.813530
O O2 0.268878 0.678020 0.844279
O O3 0.000000 0.657849 0.750000
O O4 0.770706 0.652611 0.840539
O O5 0.500000 0.500000 0.840808
O O6 0.245351 0.500000 0.750000
O O7 0.000000 0.500000 0.846254
O O8 0.093667 0.181399 0.500000
O O9 0.802520 0.189911 0.407664
O O10 0.303157 0.192228 0.397239
O O11 0.062342 0.106418 0.422837
O O12 0.500000 0.681262 0.250000
O O13 0.605004 0.751054 0.170646
O O14 0.500000 0.933305 0.750000
O O15 0.573970 0.856955 0.823862
O O16 0.355280 0.943558 0.855211
O O17 0.856774 0.937877 0.834077
O O18 0.000000 0.000000 0.911447
#
# Coordination Sequence:
#
# PCOD9392072 Si02
#       7
#     8   8   8   8   8   8   8
#     4  10  18  28  39  64  90 126 177 214 234 270
#     4  10  17  24  39  54  83 127 173 221 228 255
#     4  10  21  37  57  74  93 121 160 203 248 317
#     4  10  20  30  47  66  98 129 164 212 239 283
#     4  10  20  33  51  71 100 135 167 196 232 293
#     4  10  20  36  52  73  96 124 164 203 256 289
#     4  10  21  34  50  76 102 126 158 200 245 294
#
# _framework density 17.92586
#
# number of rings (size 3 to 8) (size 9 to 14) (size 15 to 20)
#    0.000    2.000    1.429    3.429    4.000    2.000 
#    0.000    4.286    0.000    5.143    0.000    0.000 
#    0.000    0.000    0.000    0.000    0.000  180.000 
#
# Total GULP energy -311838.412839 kJ/mol
# GULP energy per Si atom -5568.543086 kJ/mol
# Density = 1.788506 g / cm^3
# Si number density = 17.925860 Si / 1000 Ang^3
#
#
#
# Elastic Constant Matrix: (Units=GPa)
#
#
# Indices 1 2 3 4 5 6 
#
# 1 143.9560 31.7298 3.9116 0.0000 0.0000 0.0000
# 2 31.7298 79.5300 -10.7734 0.0000 0.0000 0.0000
# 3 3.9116 -10.7734 16.3050 0.0000 0.0000 0.0000
# 4 0.0000 0.0000 0.0000 -79.6677 0.0000 0.0000
# 5 0.0000 0.0000 0.0000 0.0000 -1.0404 0.0000
# 6 0.0000 0.0000 0.0000 0.0000 0.0000 24.5654
#
#
#
# Elastic Compliance Matrix: (Units=1/GPa)
#
#
# Indices 1 2 3 4 5 6 
#
# 1 0.007889 -0.003738 -0.004363 0.000000 0.000000 0.000000
# 2 -0.003738 0.015582 0.011192 0.000000 0.000000 0.000000
# 3 -0.004363 0.011192 0.069773 0.000000 0.000000 0.000000
# 4 0.000000 0.000000 0.000000 -0.012552 0.000000 0.000000
# 5 0.000000 0.000000 0.000000 0.000000 -0.961214 0.000000
# 6 0.000000 0.000000 0.000000 0.000000 0.000000 0.040708
#
#
# Mechanical properties :
#
#
# Convention : Reuss Voigt Hill
#
# Bulk Modulus (GPa) = 10.05781 32.16968 21.11375
# Shear Modulus (GPa) = -6.15115 3.09967 -1.52574
#
# Velocity S-wave (km/s) = -1.85442 1.31640 -0.92357
# Velocity P-wave (km/s) = 1.01871 4.50505 3.26598
#
# Compressibility (1/GPa) = 0.09942518
#
# Stress axis : x y z
#
# Youngs Moduli (GPa) = 126.75674 64.17856 14.33226
#
# Poissons Ratio (x) = 0.23993 0.06253
# Poissons Ratio (y) = 0.47388 -0.16041
# Poissons Ratio (z) = 0.55302 -0.71830
#
# Static dielectric constant tensor:
#      x y z
#    x 1.643520 0.000000 0.000000 
#    y 0.000000 1.720540 0.000000 
#    z 0.000000 0.000000 1.550180 
# 
# From -- ./inp_files/21894.got.cif
#   From: 2010.05.17/outbox.cif.g08.bks.cpg/sg49_11_cif.got.tgz:21894.got - 2010.06.03 21:02:19.
