data_PCOD9392042
_publ_section_title
;
Structure prediction by ZEFSAII (Michael W. Deem and Ramdas Pophale) SiO2 
 PCOD9392042
Probable space group: P C C M
;
_chemical_formula_sum "Si O2"
_cell_formula_units_Z 56
_cell_length_a 5.423012
_cell_length_b 31.000204
_cell_length_c 14.216822
_cell_angle_alpha 90.000000
_cell_angle_beta 90.000000
_cell_angle_gamma 90.000000
_cell_volume 2390.053614
_symmetry_space_group_name_H-M "P C C M"
_symmetry_group_IT_number 49
_symmetry_cell_setting 'orthorhombic'
loop_
_space_group_symop_operation_xyz
x,y,z
-x,-y,z
x,-y,1/2-z
-x,y,1/2-z
-x,-y,-z
x,y,-z
-x,y,1/2+z
x,-y,1/2+z
loop_
_atom_site_type_symbol
_atom_site_label
_atom_site_fract_x
_atom_site_fract_y
_atom_site_fract_z
Si Si1 0.093779 0.904352 0.385241
Si Si2 0.621978 0.755867 0.385546
Si Si3 0.120281 0.195278 0.114719
Si Si4 0.730678 0.657085 0.354160
Si Si5 0.591243 0.047695 0.885506
Si Si6 0.752660 0.481757 0.642905
Si Si7 0.235710 0.621029 0.641971
O O1 0.084355 0.905292 0.500000
O O2 0.097286 0.854501 0.356196
O O3 0.359503 0.922982 0.358243
O O4 0.855482 0.932670 0.353953
O O5 0.615062 0.754025 0.500000
O O6 0.367108 0.778977 0.355094
O O7 0.668515 0.707457 0.350931
O O8 0.865614 0.782126 0.357748
O O9 0.130040 0.195254 0.000000
O O10 0.494849 0.635118 0.400430
O O11 0.749378 0.637366 0.249682
O O12 0.993956 0.644592 0.397336
O O13 0.500000 0.000000 0.857349
O O14 0.606850 0.046933 0.000000
O O15 0.500000 0.500000 0.602028
O O16 0.751186 0.500000 0.750000
O O17 0.774159 0.430379 0.641606
O O18 0.000000 0.500000 0.599369
#
# Coordination Sequence:
#
# PCOD9392042 Si02
#       7
#     8   8   8   8   8   8   8
#     4   9  15  23  34  46  65  93 123 163 209 243
#     4  10  19  30  44  61  81 107 143 184 216 243
#     4   9  17  28  40  55  74 100 138 180 217 245
#     4  10  18  30  44  61  88 114 137 171 211 250
#     4   9  15  21  30  46  66  89 120 159 204 250
#     4  10  16  25  41  63  91 110 129 161 199 244
#     4  10  19  30  45  67  92 114 136 165 204 255
#
# _framework density 23.430439
#
# number of rings (size 3 to 8) (size 9 to 14) (size 15 to 20)
#    0.000    2.429    0.000    6.429    0.000    5.143 
#    0.000    0.000    0.000    0.000    0.000    0.000 
#    0.000   42.286    0.000    0.000    0.000    0.000 
#
# Total GULP energy -312922.394313 kJ/mol
# GULP energy per Si atom -5587.899898 kJ/mol
# Density = 2.337711 g / cm^3
# Si number density = 23.430439 Si / 1000 Ang^3
#
#
#
# Elastic Constant Matrix: (Units=GPa)
#
#
# Indices 1 2 3 4 5 6 
#
# 1 265.2813 105.2851 23.9338 0.0000 0.0000 0.0000
# 2 105.2851 216.2719 4.1395 0.0000 0.0000 0.0000
# 3 23.9338 4.1395 92.0624 0.0000 0.0000 0.0000
# 4 0.0000 0.0000 0.0000 10.2995 0.0000 0.0000
# 5 0.0000 0.0000 0.0000 0.0000 -13.2907 0.0000
# 6 0.0000 0.0000 0.0000 0.0000 0.0000 53.0399
#
#
#
# Elastic Compliance Matrix: (Units=1/GPa)
#
#
# Indices 1 2 3 4 5 6 
#
# 1 0.004789 -0.002310 -0.001141 0.000000 0.000000 0.000000
# 2 -0.002310 0.005742 0.000342 0.000000 0.000000 0.000000
# 3 -0.001141 0.000342 0.011143 0.000000 0.000000 0.000000
# 4 0.000000 0.000000 0.000000 0.097092 0.000000 0.000000
# 5 0.000000 0.000000 0.000000 0.000000 -0.075241 0.000000
# 6 0.000000 0.000000 0.000000 0.000000 0.000000 0.018854
#
#
# Mechanical properties :
#
#
# Convention : Reuss Voigt Hill
#
# Bulk Modulus (GPa) = 64.69483 93.37026 79.03254
# Shear Modulus (GPa) = 67.79745 39.36023 53.57884
#
# Velocity S-wave (km/s) = 5.38502 4.10308 4.78715
# Velocity P-wave (km/s) = 8.14469 7.89832 8.02245
#
# Compressibility (1/GPa) = 0.01545719
#
# Stress axis : x y z
#
# Youngs Moduli (GPa) = 208.80364 174.16680 89.73847
#
# Poissons Ratio (x) = 0.40226 0.10241
# Poissons Ratio (y) = 0.48226 -0.03072
# Poissons Ratio (z) = 0.23829 -0.05961
#
# Static dielectric constant tensor:
#      x y z
#    x 1.912410 0.000000 0.000000 
#    y 0.000000 1.858210 0.000000 
#    z 0.000000 0.000000 1.842730 
# 
# From -- ./inp_files/21936.got.cif
#   From: 2010.05.17/outbox.cif.g08.bks.cpg/sg49_11_cif.got.tgz:21936.got - 2010.06.03 21:02:19.
