data_PCOD9392867
_publ_section_title
;
Structure prediction by ZEFSAII (Michael W. Deem and Ramdas Pophale) SiO2 
 PCOD9392867
Probable space group: P C C M
;
_chemical_formula_sum "Si O2"
_cell_formula_units_Z 56
_cell_length_a 19.688681
_cell_length_b 18.781183
_cell_length_c 8.764071
_cell_angle_alpha 90.000000
_cell_angle_beta 90.000000
_cell_angle_gamma 90.000000
_cell_volume 3240.749436
_symmetry_space_group_name_H-M "P C C M"
_symmetry_group_IT_number 49
_symmetry_cell_setting 'orthorhombic'
loop_
_space_group_symop_operation_xyz
x,y,z
-x,-y,z
x,-y,1/2-z
-x,y,1/2-z
-x,-y,-z
x,y,-z
-x,y,1/2+z
x,-y,1/2+z
loop_
_atom_site_type_symbol
_atom_site_label
_atom_site_fract_x
_atom_site_fract_y
_atom_site_fract_z
Si Si1 0.927206 0.214450 0.182718
Si Si2 0.855524 0.076272 0.316658
Si Si3 0.789930 0.288632 0.183147
Si Si4 0.296395 0.577830 0.817117
Si Si5 0.718557 0.150749 0.683818
Si Si6 0.428415 0.823615 0.682835
Si Si7 0.427633 0.344916 0.817203
O O1 0.902222 0.139122 0.251023
O O2 0.867597 0.270368 0.222852
O O3 0.000000 0.233489 0.250000
O O4 0.930998 0.208827 0.000000
O O5 0.859599 0.076046 0.500000
O O6 0.777718 0.096005 0.270028
O O7 0.874340 0.000000 0.250000
O O8 0.762336 0.365869 0.226618
O O9 0.743915 0.227571 0.258694
O O10 0.783275 0.281489 0.000000
O O11 0.285204 0.500000 0.750000
O O12 0.366342 0.610949 0.754147
O O13 0.299839 0.574033 0.000000
O O14 0.717546 0.152332 0.500000
O O15 0.641160 0.138775 0.736087
O O16 0.500000 0.848673 0.750000
O O17 0.432477 0.828906 0.500000
O O18 0.420523 0.739355 0.720745
O O19 0.500000 0.368372 0.750000
O O20 0.427110 0.351683 0.000000
#
# Coordination Sequence:
#
# PCOD9392867 Si02
#       7
#     8   8   8   8   8   8   8
#     4  10  20  36  57  83 109 135 166 201 244 294
#     4  10  20  34  53  78 109 141 171 204 244 294
#     4   9  19  34  53  75 101 129 165 209 249 296
#     4  11  22  35  51  73 100 134 172 212 258 305
#     4   9  17  31  51  73  98 131 170 210 253 299
#     4   9  17  28  45  70  97 126 164 211 257 301
#     4  10  19  32  49  70  99 133 169 212 260 309
#
# _framework density 17.279954
#
# number of rings (size 3 to 8) (size 9 to 14) (size 15 to 20)
#    0.000    2.286    1.429    1.714    0.000    3.429 
#    0.000    2.857    0.000    0.857    0.000    6.000 
#    0.000    0.000    0.000    0.000    0.000    0.000 
#
# Total GULP energy -312378.671129 kJ/mol
# GULP energy per Si atom -5578.190556 kJ/mol
# Density = 1.724062 g / cm^3
# Si number density = 17.279954 Si / 1000 Ang^3
#
#
#
# Elastic Constant Matrix: (Units=GPa)
#
#
# Indices 1 2 3 4 5 6 
#
# 1 130.4367 23.3017 27.4710 0.0000 0.0000 0.0000
# 2 23.3017 42.2809 18.0983 0.0000 0.0000 0.0000
# 3 27.4710 18.0983 30.5861 0.0000 0.0000 0.0000
# 4 0.0000 0.0000 0.0000 17.5325 0.0000 0.0000
# 5 0.0000 0.0000 0.0000 0.0000 23.5591 0.0000
# 6 0.0000 0.0000 0.0000 0.0000 0.0000 15.0855
#
#
#
# Elastic Compliance Matrix: (Units=1/GPa)
#
#
# Indices 1 2 3 4 5 6 
#
# 1 0.009598 -0.002142 -0.007353 0.000000 0.000000 0.000000
# 2 -0.002142 0.032152 -0.017101 0.000000 0.000000 0.000000
# 3 -0.007353 -0.017101 0.049417 0.000000 0.000000 0.000000
# 4 0.000000 0.000000 0.000000 0.057037 0.000000 0.000000
# 5 0.000000 0.000000 0.000000 0.000000 0.042446 0.000000
# 6 0.000000 0.000000 0.000000 0.000000 0.000000 0.066289
#
#
# Mechanical properties :
#
#
# Convention : Reuss Voigt Hill
#
# Bulk Modulus (GPa) = 26.33271 37.89396 32.11334
# Shear Modulus (GPa) = 15.49000 20.19759 17.84380
#
# Velocity S-wave (km/s) = 2.99727 3.42255 3.21694
# Velocity P-wave (km/s) = 5.22016 6.13152 5.69410
#
# Compressibility (1/GPa) = 0.03797559
#
# Stress axis : x y z
#
# Youngs Moduli (GPa) = 104.19076 31.10238 20.23588
#
# Poissons Ratio (x) = 0.06663 0.14879
# Poissons Ratio (y) = 0.22320 0.34605
# Poissons Ratio (z) = 0.76608 0.53187
#
# Static dielectric constant tensor:
#      x y z
#    x 1.605090 0.000000 0.000000 
#    y 0.000000 1.561830 0.000000 
#    z 0.000000 0.000000 1.583530 
# 
# From -- ./inp_files/5164.got.cif
#   From: 2010.05.17/outbox.cif.g08.bks.cpg/sg49_3_cif.got.tgz:5164.got - 2010.06.03 21:02:19.
