data_PCOD9392697
_publ_section_title
;
Structure prediction by ZEFSAII (Michael W. Deem and Ramdas Pophale) SiO2 
 PCOD9392697
Probable space group: P C C M
;
_chemical_formula_sum "Si O2"
_cell_formula_units_Z 64
_cell_length_a 19.421879
_cell_length_b 23.914146
_cell_length_c 8.794803
_cell_angle_alpha 90.000000
_cell_angle_beta 90.000000
_cell_angle_gamma 90.000000
_cell_volume 4084.813534
_symmetry_space_group_name_H-M "P C C M"
_symmetry_group_IT_number 49
_symmetry_cell_setting 'orthorhombic'
loop_
_space_group_symop_operation_xyz
x,y,z
-x,-y,z
x,-y,1/2-z
-x,y,1/2-z
-x,-y,-z
x,y,-z
-x,y,1/2+z
x,-y,1/2+z
loop_
_atom_site_type_symbol
_atom_site_label
_atom_site_fract_x
_atom_site_fract_y
_atom_site_fract_z
Si Si1 0.573206 0.747761 0.680854
Si Si2 0.790768 0.338667 0.180668
Si Si3 0.573522 0.614406 0.681502
Si Si4 0.924787 0.060774 0.181943
Si Si5 0.714408 0.768342 0.818947
Si Si6 0.925928 0.271150 0.818644
Si Si7 0.150989 0.835870 0.318622
Si Si8 0.710473 0.560655 0.818875
O O1 0.500000 0.765046 0.750000
O O2 0.573246 0.754980 0.500000
O O3 0.581018 0.680996 0.712464
O O4 0.638412 0.777950 0.755230
O O5 0.744086 0.287405 0.239787
O O6 0.869008 0.319140 0.209367
O O7 0.766631 0.394367 0.263736
O O8 0.780323 0.344826 0.000000
O O9 0.500000 0.596800 0.750000
O O10 0.574142 0.606460 0.500000
O O11 0.637011 0.582379 0.756152
O O12 0.871854 0.107871 0.235852
O O13 0.000000 0.075601 0.250000
O O14 0.907213 0.000000 0.250000
O O15 0.929097 0.057945 0.000000
O O16 0.770553 0.816552 0.788256
O O17 0.712019 0.759278 0.000000
O O18 0.896546 0.214791 0.741979
O O19 0.000000 0.284491 0.750000
O O20 0.930515 0.262519 0.000000
O O21 0.141914 0.841499 0.500000
O O22 0.724641 0.500000 0.750000
O O23 0.708325 0.558233 0.000000
#
# Coordination Sequence:
#
# PCOD9392697 Si02
#       8
#     8   8   8   8   8   8   8   8
#     4  10  19  30  48  70  99 131 163 200 240 292
#     4  10  20  35  52  72  97 124 156 194 240 292
#     4  10  20  34  51  72  97 126 159 197 236 283
#     4  11  21  34  51  71 100 139 179 216 251 292
#     4  10  19  31  50  73  99 130 164 202 246 291
#     4  10  20  33  52  76 102 129 159 198 243 291
#     4  10  20  33  49  73 104 136 171 209 246 289
#     4  12  24  37  54  72  94 123 157 197 239 289
#
# _framework density 15.667790999999999
#
# number of rings (size 3 to 8) (size 9 to 14) (size 15 to 20)
#    0.000    1.625    1.250    5.250    0.000    4.250 
#    0.000    1.250    0.000    0.375    0.000    2.625 
#    0.000    0.500    0.000    5.250    0.000    2.250 
#
# Total GULP energy -357474.044442 kJ/mol
# GULP energy per Si atom -5585.531944 kJ/mol
# Density = 1.563213 g / cm^3
# Si number density = 15.667791 Si / 1000 Ang^3
#
#
#
# Elastic Constant Matrix: (Units=GPa)
#
#
# Indices 1 2 3 4 5 6 
#
# 1 126.5606 52.6574 63.7486 0.0000 0.0000 0.0000
# 2 52.6574 78.6356 54.9894 0.0000 0.0000 0.0000
# 3 63.7486 54.9894 105.6755 0.0000 0.0000 0.0000
# 4 0.0000 0.0000 0.0000 23.9666 0.0000 0.0000
# 5 0.0000 0.0000 0.0000 0.0000 29.6802 0.0000
# 6 0.0000 0.0000 0.0000 0.0000 0.0000 19.4015
#
#
#
# Elastic Compliance Matrix: (Units=1/GPa)
#
#
# Indices 1 2 3 4 5 6 
#
# 1 0.012420 -0.004838 -0.004975 0.000000 0.000000 0.000000
# 2 -0.004838 0.021876 -0.008465 0.000000 0.000000 0.000000
# 3 -0.004975 -0.008465 0.016869 0.000000 0.000000 0.000000
# 4 0.000000 0.000000 0.000000 0.041725 0.000000 0.000000
# 5 0.000000 0.000000 0.000000 0.000000 0.033693 0.000000
# 6 0.000000 0.000000 0.000000 0.000000 0.000000 0.051542
#
#
# Mechanical properties :
#
#
# Convention : Reuss Voigt Hill
#
# Bulk Modulus (GPa) = 68.44941 72.62918 70.53929
# Shear Modulus (GPa) = 22.77383 23.90807 23.34095
#
# Velocity S-wave (km/s) = 3.81667 3.91056 3.86390
# Velocity P-wave (km/s) = 7.95019 8.17596 8.06387
#
# Compressibility (1/GPa) = 0.01460933
#
# Stress axis : x y z
#
# Youngs Moduli (GPa) = 80.51415 45.71202 59.28099
#
# Poissons Ratio (x) = 0.22116 0.29492
# Poissons Ratio (y) = 0.38954 0.50181
# Poissons Ratio (z) = 0.40055 0.38695
#
# Static dielectric constant tensor:
#      x y z
#    x 1.524750 0.000000 0.000000 
#    y 0.000000 1.498610 0.000000 
#    z 0.000000 0.000000 1.518980 
# 
# From -- ./inp_files/5345.got.cif
#   From: 2010.05.17/outbox.cif.g08.bks.cpg/sg49_3_cif.got.tgz:5345.got - 2010.06.03 21:02:19.
