data_PCOD9392573
_publ_section_title
;
Structure prediction by ZEFSAII (Michael W. Deem and Ramdas Pophale) SiO2 
 PCOD9392573
Probable space group: P C C M
;
_chemical_formula_sum "Si O2"
_cell_formula_units_Z 64
_cell_length_a 20.290201
_cell_length_b 21.150752
_cell_length_c 8.665492
_cell_angle_alpha 90.000000
_cell_angle_beta 90.000000
_cell_angle_gamma 90.000000
_cell_volume 3718.821970
_symmetry_space_group_name_H-M "P C C M"
_symmetry_group_IT_number 49
_symmetry_cell_setting 'orthorhombic'
loop_
_space_group_symop_operation_xyz
x,y,z
-x,-y,z
x,-y,1/2-z
-x,y,1/2-z
-x,-y,-z
x,y,-z
-x,y,1/2+z
x,-y,1/2+z
loop_
_atom_site_type_symbol
_atom_site_label
_atom_site_fract_x
_atom_site_fract_y
_atom_site_fract_z
Si Si1 0.570622 0.612957 0.684909
Si Si2 0.707544 0.566709 0.816444
Si Si3 0.789267 0.683969 0.313039
Si Si4 0.290863 0.189784 0.311990
Si Si5 0.930161 0.121297 0.185773
Si Si6 0.930116 0.269040 0.814319
Si Si7 0.569808 0.237908 0.814771
Si Si8 0.209367 0.932331 0.813323
O O1 0.500000 0.591498 0.750000
O O2 0.571348 0.607137 0.500000
O O3 0.633366 0.578234 0.755104
O O4 0.577630 0.687710 0.725424
O O5 0.731471 0.500000 0.750000
O O6 0.752546 0.624183 0.757411
O O7 0.706917 0.565121 0.000000
O O8 0.786054 0.679444 0.500000
O O9 0.751354 0.748488 0.268450
O O10 0.865485 0.692366 0.266422
O O11 0.291090 0.188927 0.500000
O O12 0.365902 0.200276 0.260109
O O13 0.255851 0.125442 0.261542
O O14 0.922096 0.195165 0.232284
O O15 0.865621 0.083433 0.236606
O O16 0.000000 0.098264 0.250000
O O17 0.932508 0.119695 0.000000
O O18 0.000000 0.291673 0.750000
O O19 0.932418 0.269839 0.000000
O O20 0.500000 0.215730 0.750000
O O21 0.567640 0.234750 0.000000
O O22 0.229944 0.000000 0.750000
O O23 0.210034 0.933350 0.000000
#
# Coordination Sequence:
#
# PCOD9392573 Si02
#       8
#     8   8   8   8   8   8   8   8
#     4  10  19  34  55  80 111 145 181 219 262 316
#     4  12  25  39  55  79 110 145 182 222 267 317
#     4  10  18  35  59  80 103 139 181 220 266 320
#     4   9  16  32  56  76  99 138 178 212 261 320
#     4   9  17  30  48  71 101 138 175 212 253 309
#     4   9  17  30  53  80 107 137 173 216 265 318
#     4   9  17  30  52  78 104 133 167 212 260 311
#     4  10  20  34  51  72 102 139 180 218 261 312
#
# _framework density 17.209752000000002
#
# number of rings (size 3 to 8) (size 9 to 14) (size 15 to 20)
#    0.000    2.250    2.500    1.500    0.000    2.000 
#    0.000    3.750    0.000    0.750    0.000    5.250 
#    0.000    0.000    0.000    0.000    0.000    0.000 
#
# Total GULP energy -357104.459846 kJ/mol
# GULP energy per Si atom -5579.757185 kJ/mol
# Density = 1.717058 g / cm^3
# Si number density = 17.209752 Si / 1000 Ang^3
#
#
#
# Elastic Constant Matrix: (Units=GPa)
#
#
# Indices 1 2 3 4 5 6 
#
# 1 137.9692 71.9971 28.7692 0.0000 0.0000 0.0000
# 2 71.9971 116.2203 29.1229 0.0000 0.0000 0.0000
# 3 28.7692 29.1229 26.7624 0.0000 0.0000 0.0000
# 4 0.0000 0.0000 0.0000 48.7667 0.0000 0.0000
# 5 0.0000 0.0000 0.0000 0.0000 28.2806 0.0000
# 6 0.0000 0.0000 0.0000 0.0000 0.0000 20.5815
#
#
#
# Elastic Compliance Matrix: (Units=1/GPa)
#
#
# Indices 1 2 3 4 5 6 
#
# 1 0.011434 -0.005504 -0.006302 0.000000 0.000000 0.000000
# 2 -0.005504 0.014480 -0.009840 0.000000 0.000000 0.000000
# 3 -0.006302 -0.009840 0.054849 0.000000 0.000000 0.000000
# 4 0.000000 0.000000 0.000000 0.020506 0.000000 0.000000
# 5 0.000000 0.000000 0.000000 0.000000 0.035360 0.000000
# 6 0.000000 0.000000 0.000000 0.000000 0.000000 0.048587
#
#
# Mechanical properties :
#
#
# Convention : Reuss Voigt Hill
#
# Bulk Modulus (GPa) = 26.68801 60.08114 43.38457
# Shear Modulus (GPa) = 20.74699 29.59660 25.17179
#
# Velocity S-wave (km/s) = 3.47585 4.15149 3.82861
# Velocity P-wave (km/s) = 5.62582 7.61359 6.69390
#
# Compressibility (1/GPa) = 0.03747001
#
# Stress axis : x y z
#
# Youngs Moduli (GPa) = 87.45524 69.06092 18.23204
#
# Poissons Ratio (x) = 0.38013 0.11490
# Poissons Ratio (y) = 0.48138 0.17941
# Poissons Ratio (z) = 0.55115 0.67957
#
# Static dielectric constant tensor:
#      x y z
#    x 1.587080 0.000000 0.000000 
#    y 0.000000 1.573560 0.000000 
#    z 0.000000 0.000000 1.585070 
# 
# From -- ./inp_files/5951.got.cif
#   From: 2010.05.17/outbox.cif.g08.bks.cpg/sg49_3_cif.got.tgz:5951.got - 2010.06.03 21:02:19.
