data_PCOD9392619
_publ_section_title
;
Structure prediction by ZEFSAII (Michael W. Deem and Ramdas Pophale) SiO2 
 PCOD9392619
Probable space group: P C C M
;
_chemical_formula_sum "Si O2"
_cell_formula_units_Z 64
_cell_length_a 22.026377
_cell_length_b 22.055345
_cell_length_c 8.805114
_cell_angle_alpha 90.000000
_cell_angle_beta 90.000000
_cell_angle_gamma 90.000000
_cell_volume 4277.518604
_symmetry_space_group_name_H-M "P C C M"
_symmetry_group_IT_number 49
_symmetry_cell_setting 'orthorhombic'
loop_
_space_group_symop_operation_xyz
x,y,z
-x,-y,z
x,-y,1/2-z
-x,y,1/2-z
-x,-y,-z
x,y,-z
-x,y,1/2+z
x,-y,1/2+z
loop_
_atom_site_type_symbol
_atom_site_label
_atom_site_fract_x
_atom_site_fract_y
_atom_site_fract_z
Si Si1 0.559609 0.736944 0.827867
Si Si2 0.250366 0.243761 0.675161
Si Si3 0.067864 0.564307 0.317053
Si Si4 0.732322 0.434231 0.678528
Si Si5 0.646011 0.651085 0.327273
Si Si6 0.834908 0.651545 0.317100
Si Si7 0.340811 0.843192 0.327550
Si Si8 0.564703 0.067321 0.181607
O O1 0.500000 0.762428 0.750000
O O2 0.584569 0.681561 0.728836
O O3 0.611551 0.787566 0.831299
O O4 0.547243 0.718334 0.000000
O O5 0.240457 0.226265 0.500000
O O6 0.303398 0.295115 0.675899
O O7 0.190989 0.281745 0.729372
O O8 0.278713 0.186706 0.763889
O O9 0.093028 0.500000 0.250000
O O10 0.067327 0.560880 0.500000
O O11 0.105996 0.622326 0.260178
O O12 0.000000 0.568955 0.250000
O O13 0.731028 0.500000 0.750000
O O14 0.745635 0.435448 0.500000
O O15 0.669696 0.399831 0.713766
O O16 0.782845 0.395278 0.766030
O O17 0.643013 0.628748 0.500000
O O18 0.840890 0.651640 0.500000
O O19 0.332079 0.865064 0.500000
O O20 0.376984 0.892970 0.229969
O O21 0.500000 0.090238 0.250000
O O22 0.572104 0.000000 0.250000
O O23 0.559362 0.065444 0.000000
#
# Coordination Sequence:
#
# PCOD9392619 Si02
#       8
#     8   8   8   8   8   8   8   8
#     4  10  19  29  43  62  81 103 129 161 200 245
#     4   8  16  29  45  63  84 109 136 170 213 255
#     4  11  21  33  47  64  88 119 154 189 225 264
#     4  11  20  30  44  62  81 102 129 161 201 247
#     4   9  17  30  44  59  79 100 124 159 201 245
#     4  10  19  32  47  65  88 112 141 177 216 256
#     4  10  19  30  45  65  88 111 140 175 213 253
#     4  11  21  33  47  63  87 117 152 187 223 262
#
# _framework density 14.961944000000001
#
# number of rings (size 3 to 8) (size 9 to 14) (size 15 to 20)
#    0.000    2.000    0.000    7.125    0.000    6.000 
#    0.000    0.000    0.000    0.375    0.000    2.625 
#    0.000    0.000    0.000    0.000    0.000    0.625 
#
# Total GULP energy -356605.639116 kJ/mol
# GULP energy per Si atom -5571.963111 kJ/mol
# Density = 1.492789 g / cm^3
# Si number density = 14.961944 Si / 1000 Ang^3
#
#
#
# Elastic Constant Matrix: (Units=GPa)
#
#
# Indices 1 2 3 4 5 6 
#
# 1 49.5870 27.9005 28.0568 0.0000 0.0000 0.0000
# 2 27.9005 51.6060 25.9237 0.0000 0.0000 0.0000
# 3 28.0568 25.9237 99.9988 0.0000 0.0000 0.0000
# 4 0.0000 0.0000 0.0000 19.6541 0.0000 0.0000
# 5 0.0000 0.0000 0.0000 0.0000 21.2991 0.0000
# 6 0.0000 0.0000 0.0000 0.0000 0.0000 23.1072
#
#
#
# Elastic Compliance Matrix: (Units=1/GPa)
#
#
# Indices 1 2 3 4 5 6 
#
# 1 0.031021 -0.014256 -0.005008 0.000000 0.000000 0.000000
# 2 -0.014256 0.028830 -0.003474 0.000000 0.000000 0.000000
# 3 -0.005008 -0.003474 0.012306 0.000000 0.000000 0.000000
# 4 0.000000 0.000000 0.000000 0.050880 0.000000 0.000000
# 5 0.000000 0.000000 0.000000 0.000000 0.046950 0.000000
# 6 0.000000 0.000000 0.000000 0.000000 0.000000 0.043277
#
#
# Mechanical properties :
#
#
# Convention : Reuss Voigt Hill
#
# Bulk Modulus (GPa) = 37.47935 40.55043 39.01489
# Shear Modulus (GPa) = 18.68226 20.76613 19.72420
#
# Velocity S-wave (km/s) = 3.53746 3.72954 3.63477
# Velocity P-wave (km/s) = 6.46444 6.76070 6.61423
#
# Compressibility (1/GPa) = 0.02668136
#
# Stress axis : x y z
#
# Youngs Moduli (GPa) = 32.23598 34.68598 81.26197
#
# Poissons Ratio (x) = 0.49447 0.40696
# Poissons Ratio (y) = 0.45955 0.28232
# Poissons Ratio (z) = 0.16144 0.12050
#
# Static dielectric constant tensor:
#      x y z
#    x 1.516210 0.000000 0.000000 
#    y 0.000000 1.625710 0.000000 
#    z 0.000000 0.000000 1.513050 
# 
# From -- ./inp_files/6107.got.cif
#   From: 2010.05.17/outbox.cif.g08.bks.cpg/sg49_4_cif.got.tgz:6107.got - 2010.06.03 21:02:19.
