data_PCOD9392197
_publ_section_title
;
Structure prediction by ZEFSAII (Michael W. Deem and Ramdas Pophale) SiO2 
 PCOD9392197
Probable space group: P C C M
;
_chemical_formula_sum "Si O2"
_cell_formula_units_Z 26
_cell_length_a 16.147146
_cell_length_b 10.105333
_cell_length_c 8.785704
_cell_angle_alpha 90.000000
_cell_angle_beta 90.000000
_cell_angle_gamma 90.000000
_cell_volume 1433.583417
_symmetry_space_group_name_H-M "P C C M"
_symmetry_group_IT_number 49
_symmetry_cell_setting 'orthorhombic'
loop_
_space_group_symop_operation_xyz
x,y,z
-x,-y,z
x,-y,1/2-z
-x,y,1/2-z
-x,-y,-z
x,y,-z
-x,y,1/2+z
x,-y,1/2+z
loop_
_atom_site_type_symbol
_atom_site_label
_atom_site_fract_x
_atom_site_fract_y
_atom_site_fract_z
Si Si1 0.500000 0.500000 0.250000
Si Si2 0.915502 0.149936 0.817295
Si Si3 0.418221 0.240934 0.670144
Si Si4 0.746298 0.147576 0.318713
O O1 0.558006 0.603644 0.337249
O O2 0.829189 0.208556 0.756653
O O3 0.000000 0.210851 0.750000
O O4 0.914014 0.000000 0.750000
O O5 0.917904 0.145719 0.000000
O O6 0.500000 0.179971 0.750000
O O7 0.405406 0.188606 0.500000
O O8 0.337256 0.221027 0.770536
O O9 0.756056 0.140987 0.500000
O O10 0.737582 0.000000 0.250000
#
# Coordination Sequence:
#
# PCOD9392197 Si02
#       4
#     2   8   8   8
#     4   8  22  36  60  72 100 120 170 206 254 292
#     4  10  17  28  45  67  97 132 168 203 241 289
#     4  10  20  35  54  75  99 129 165 207 250 295
#     4  11  21  33  49  73 104 136 169 205 248 298
#
# _framework density 18.136368999999998
#
# number of rings (size 3 to 8) (size 9 to 14) (size 15 to 20)
#    0.923    0.923    0.000    9.692    0.000    0.615 
#    0.000    3.077    0.000    0.000    0.000    1.077 
#    0.000    7.385    0.000    0.000    0.000    0.000 
#
# Total GULP energy -144735.979080 kJ/mol
# GULP energy per Si atom -5566.768426 kJ/mol
# Density = 1.809509 g / cm^3
# Si number density = 18.136369 Si / 1000 Ang^3
#
#
#
# Elastic Constant Matrix: (Units=GPa)
#
#
# Indices 1 2 3 4 5 6 
#
# 1 179.6629 20.5322 71.0318 0.0000 0.0000 0.0000
# 2 20.5322 22.6411 9.6349 0.0000 0.0000 0.0000
# 3 71.0318 9.6349 197.7430 0.0000 0.0000 0.0000
# 4 0.0000 0.0000 0.0000 12.4133 0.0000 0.0000
# 5 0.0000 0.0000 0.0000 0.0000 33.5884 0.0000
# 6 0.0000 0.0000 0.0000 0.0000 0.0000 -56.7398
#
#
#
# Elastic Compliance Matrix: (Units=1/GPa)
#
#
# Indices 1 2 3 4 5 6 
#
# 1 0.007092 -0.005461 -0.002281 0.000000 0.000000 0.000000
# 2 -0.005461 0.049307 -0.000441 0.000000 0.000000 0.000000
# 3 -0.002281 -0.000441 0.005898 0.000000 0.000000 0.000000
# 4 0.000000 0.000000 0.000000 0.080559 0.000000 0.000000
# 5 0.000000 0.000000 0.000000 0.000000 0.029772 0.000000
# 6 0.000000 0.000000 0.000000 0.000000 0.000000 -0.017624
#
#
# Mechanical properties :
#
#
# Convention : Reuss Voigt Hill
#
# Bulk Modulus (GPa) = 21.77175 66.93831 44.35503
# Shear Modulus (GPa) = 26.78382 17.77558 22.27970
#
# Velocity S-wave (km/s) = 3.84709 3.13406 3.50873
# Velocity P-wave (km/s) = 5.63595 7.07707 6.39722
#
# Compressibility (1/GPa) = 0.04593108
#
# Stress axis : x y z
#
# Youngs Moduli (GPa) = 141.00339 20.28112 169.54632
#
# Poissons Ratio (x) = 0.11075 0.38682
# Poissons Ratio (y) = 0.76995 0.07476
# Poissons Ratio (z) = 0.32170 0.00894
#
# Static dielectric constant tensor:
#      x y z
#    x 1.691810 0.000000 0.000000 
#    y 0.000000 1.612850 0.000000 
#    z 0.000000 0.000000 1.639790 
# 
# From -- ./inp_files/2390.got.cif
#   From: 2010.05.17/outbox.cif.g08.bks.cpg/sg49_2_cif.got.tgz:2390.got - 2010.06.03 21:02:19.
