data_PCOD9392563
_publ_section_title
;
Structure prediction by ZEFSAII (Michael W. Deem and Ramdas Pophale) SiO2 
 PCOD9392563
Probable space group: P C C M
;
_chemical_formula_sum "Si O2"
_cell_formula_units_Z 42
_cell_length_a 12.276554
_cell_length_b 11.164422
_cell_length_c 14.690230
_cell_angle_alpha 90.000000
_cell_angle_beta 90.000000
_cell_angle_gamma 90.000000
_cell_volume 2013.452172
_symmetry_space_group_name_H-M "P C C M"
_symmetry_group_IT_number 49
_symmetry_cell_setting 'orthorhombic'
loop_
_space_group_symop_operation_xyz
x,y,z
-x,-y,z
x,-y,1/2-z
-x,y,1/2-z
-x,-y,-z
x,y,-z
-x,y,1/2+z
x,-y,1/2+z
loop_
_atom_site_type_symbol
_atom_site_label
_atom_site_fract_x
_atom_site_fract_y
_atom_site_fract_z
Si Si1 0.500000 0.500000 0.750000
Si Si2 0.895949 0.430704 0.599863
Si Si3 0.392467 0.069943 0.889777
Si Si4 0.653378 0.351861 0.387761
Si Si5 0.009782 0.804883 0.349262
Si Si6 0.164218 0.016939 0.606959
O O1 0.428562 0.579561 0.679650
O O2 0.880751 0.488510 0.500000
O O3 0.773630 0.406262 0.635897
O O4 0.000000 0.500000 0.642672
O O5 0.939738 0.296378 0.590691
O O6 0.365185 0.209267 0.867957
O O7 0.287605 0.991678 0.863084
O O8 0.500000 0.000000 0.856725
O O9 0.399140 0.069270 0.000000
O O10 0.639140 0.366093 0.500000
O O11 0.000000 0.751134 0.250000
O O12 0.092584 0.916247 0.343941
O O13 0.895145 0.857442 0.380463
O O14 0.157479 0.985969 0.500000
#
# Coordination Sequence:
#
# PCOD9392563 Si02
#       6
#     2   8   8   8   8   8
#     4  12  26  44  68  98 124 176 230 256 324 378
#     4  10  21  41  66  89 119 167 215 257 321 386
#     4   9  18  37  64  91 120 164 212 259 322 379
#     4  10  22  45  69  92 131 169 217 279 319 383
#     4  11  21  33  53  85 123 154 193 254 319 376
#     4  10  18  34  59  82 113 158 204 248 307 382
#
# _framework density 20.859696
#
# number of rings (size 3 to 8) (size 9 to 14) (size 15 to 20)
#    0.000    1.905    1.905    3.714    0.000    1.905 
#    6.857    0.476    0.000    0.000    0.000    0.000 
#    0.000    0.000    0.000    0.000    0.000    0.000 
#
# Total GULP energy -233823.577268 kJ/mol
# GULP energy per Si atom -5567.228030 kJ/mol
# Density = 2.081222 g / cm^3
# Si number density = 20.859696 Si / 1000 Ang^3
#
#
#
# Elastic Constant Matrix: (Units=GPa)
#
#
# Indices 1 2 3 4 5 6 
#
# 1 210.1122 71.5335 29.7327 0.0000 0.0000 0.0000
# 2 71.5335 65.3737 8.2392 0.0000 0.0000 0.0000
# 3 29.7327 8.2392 78.7587 0.0000 0.0000 0.0000
# 4 0.0000 0.0000 0.0000 14.4649 0.0000 0.0000
# 5 0.0000 0.0000 0.0000 0.0000 -36.6965 0.0000
# 6 0.0000 0.0000 0.0000 0.0000 0.0000 31.9429
#
#
#
# Elastic Compliance Matrix: (Units=1/GPa)
#
#
# Indices 1 2 3 4 5 6 
#
# 1 0.007917 -0.008397 -0.002110 0.000000 0.000000 0.000000
# 2 -0.008397 0.024407 0.000617 0.000000 0.000000 0.000000
# 3 -0.002110 0.000617 0.013429 0.000000 0.000000 0.000000
# 4 0.000000 0.000000 0.000000 0.069133 0.000000 0.000000
# 5 0.000000 0.000000 0.000000 0.000000 -0.027251 0.000000
# 6 0.000000 0.000000 0.000000 0.000000 0.000000 0.031306
#
#
# Mechanical properties :
#
#
# Convention : Reuss Voigt Hill
#
# Bulk Modulus (GPa) = 38.50300 63.69504 51.09902
# Shear Modulus (GPa) = 33.92620 18.25821 26.09220
#
# Velocity S-wave (km/s) = 4.03724 2.96173 3.54056
# Velocity P-wave (km/s) = 6.34276 6.50362 6.42369
#
# Compressibility (1/GPa) = 0.02597200
#
# Stress axis : x y z
#
# Youngs Moduli (GPa) = 126.31598 40.97219 74.46477
#
# Poissons Ratio (x) = 0.34403 0.15714
# Poissons Ratio (y) = 1.06063 -0.04592
# Poissons Ratio (z) = 0.26656 -0.02526
#
# Static dielectric constant tensor:
#      x y z
#    x 1.802780 0.000000 0.000000 
#    y 0.000000 1.761420 0.000000 
#    z 0.000000 0.000000 1.842750 
# 
# From -- ./inp_files/17005.got.cif
#   From: 2010.05.17/outbox.cif.g08.bks.cpg/sg49_9_cif.got.tgz:17005.got - 2010.06.03 21:02:19.
