data_PCOD9392987
_publ_section_title
;
Structure prediction by ZEFSAII (Michael W. Deem and Ramdas Pophale) SiO2 
 PCOD9392987
Probable space group: P C C M
;
_chemical_formula_sum "Si O2"
_cell_formula_units_Z 64
_cell_length_a 19.949328
_cell_length_b 8.670766
_cell_length_c 18.255107
_cell_angle_alpha 90.000000
_cell_angle_beta 90.000000
_cell_angle_gamma 90.000000
_cell_volume 3157.694566
_symmetry_space_group_name_H-M "P C C M"
_symmetry_group_IT_number 49
_symmetry_cell_setting 'orthorhombic'
loop_
_space_group_symop_operation_xyz
x,y,z
-x,-y,z
x,-y,1/2-z
-x,y,1/2-z
-x,-y,-z
x,y,-z
-x,y,1/2+z
x,-y,1/2+z
loop_
_atom_site_type_symbol
_atom_site_label
_atom_site_fract_x
_atom_site_fract_y
_atom_site_fract_z
Si Si1 0.221147 0.449408 0.588690
Si Si2 0.357089 0.305468 0.587003
Si Si3 0.160623 0.963010 0.335617
Si Si4 0.097961 0.737087 0.087106
Si Si5 0.023639 0.820096 0.330446
Si Si6 0.587353 0.345457 0.585368
Si Si7 0.477901 0.832180 0.834836
Si Si8 0.726528 0.784958 0.088470
O O1 0.223430 0.451143 0.500000
O O2 0.279271 0.326949 0.609330
O O3 0.147330 0.399406 0.611581
O O4 0.241901 0.620130 0.611277
O O5 0.361520 0.260490 0.500000
O O6 0.386426 0.480017 0.592626
O O7 0.401696 0.200746 0.640415
O O8 0.103037 0.830222 0.341615
O O9 0.229911 0.912786 0.371856
O O10 0.167260 0.000000 0.250000
O O11 0.130765 0.110656 0.377369
O O12 0.021363 0.727437 0.112596
O O13 0.100534 0.750325 0.000000
O O14 0.000000 0.769005 0.250000
O O15 0.000000 0.000000 0.335608
O O16 0.573308 0.321636 0.500000
O O17 0.521790 0.301949 0.628743
O O18 0.648284 0.231587 0.607093
O O19 0.500000 0.829590 0.750000
O O20 0.500000 0.000000 0.863829
O O21 0.731568 0.800605 0.000000
#
# Coordination Sequence:
#
# PCOD9392987 Si02
#       8
#     8   8   8   8   8   8   8   8
#     4   8  17  36  58  84 114 138 176 240 290 329
#     4   9  18  36  63  84 103 143 191 232 279 337
#     4  11  20  34  54  80 113 152 182 229 274 331
#     4  10  19  32  57  85 106 139 189 235 275 329
#     4   9  16  33  51  71 107 147 176 219 277 322
#     4   9  19  38  61  82 106 143 191 235 277 335
#     4  11  24  38  50  79 120 153 183 231 282 329
#     4   9  19  37  59  83 113 146 185 232 284 338
#
# _framework density 20.267951
#
# number of rings (size 3 to 8) (size 9 to 14) (size 15 to 20)
#    0.000    2.500    2.500    2.625    0.000    6.750 
#    4.500    3.750    0.000    3.000    0.000    0.000 
#    0.000    0.000    0.000    0.000    0.000    0.000 
#
# Total GULP energy -356906.836545 kJ/mol
# GULP energy per Si atom -5576.669321 kJ/mol
# Density = 2.022182 g / cm^3
# Si number density = 20.267951 Si / 1000 Ang^3
#
#
#
# Elastic Constant Matrix: (Units=GPa)
#
#
# Indices 1 2 3 4 5 6 
#
# 1 52.4242 0.0651 10.8008 0.0000 0.0000 0.0000
# 2 0.0651 17.4648 2.5743 0.0000 0.0000 0.0000
# 3 10.8008 2.5743 31.7139 0.0000 0.0000 0.0000
# 4 0.0000 0.0000 0.0000 20.4905 0.0000 0.0000
# 5 0.0000 0.0000 0.0000 0.0000 -32.2447 0.0000
# 6 0.0000 0.0000 0.0000 0.0000 0.0000 34.2856
#
#
#
# Elastic Compliance Matrix: (Units=1/GPa)
#
#
# Indices 1 2 3 4 5 6 
#
# 1 0.020531 0.000966 -0.007070 0.000000 0.000000 0.000000
# 2 0.000966 0.057997 -0.005037 0.000000 0.000000 0.000000
# 3 -0.007070 -0.005037 0.034349 0.000000 0.000000 0.000000
# 4 0.000000 0.000000 0.000000 0.048803 0.000000 0.000000
# 5 0.000000 0.000000 0.000000 0.000000 -0.031013 0.000000
# 6 0.000000 0.000000 0.000000 0.000000 0.000000 0.029167
#
#
# Mechanical properties :
#
#
# Convention : Reuss Voigt Hill
#
# Bulk Modulus (GPa) = 11.03832 14.27590 12.65711
# Shear Modulus (GPa) = 23.55002 10.38379 16.96690
#
# Velocity S-wave (km/s) = 3.41241 2.26592 2.89646
# Velocity P-wave (km/s) = 4.58084 3.72890 4.17665
#
# Compressibility (1/GPa) = 0.09059352
#
# Stress axis : x y z
#
# Youngs Moduli (GPa) = 48.70760 17.24228 29.11318
#
# Poissons Ratio (x) = -0.01665 0.20584
# Poissons Ratio (y) = -0.04704 0.14663
# Poissons Ratio (z) = 0.34439 0.08684
#
# Static dielectric constant tensor:
#      x y z
#    x 1.748700 0.000000 0.000000 
#    y 0.000000 1.745690 0.000000 
#    z 0.000000 0.000000 1.697740 
# 
# From -- ./inp_files/18332.got.cif
#   From: 2010.05.17/outbox.cif.g08.bks.cpg/sg49_10_cif.got.tgz:18332.got - 2010.06.03 21:02:19.
