data_PCOD9392408
_publ_section_title
;
Structure prediction by ZEFSAII (Michael W. Deem and Ramdas Pophale) SiO2 
 PCOD9392408
Probable space group: P C C M
;
_chemical_formula_sum "Si O2"
_cell_formula_units_Z 48
_cell_length_a 10.014570
_cell_length_b 10.931266
_cell_length_c 24.532541
_cell_angle_alpha 90.000000
_cell_angle_beta 90.000000
_cell_angle_gamma 90.000000
_cell_volume 2685.624575
_symmetry_space_group_name_H-M "P C C M"
_symmetry_group_IT_number 49
_symmetry_cell_setting 'orthorhombic'
loop_
_space_group_symop_operation_xyz
x,y,z
-x,-y,z
x,-y,1/2-z
-x,y,1/2-z
-x,-y,-z
x,y,-z
-x,y,1/2+z
x,-y,1/2+z
loop_
_atom_site_type_symbol
_atom_site_label
_atom_site_fract_x
_atom_site_fract_y
_atom_site_fract_z
Si Si1 0.896346 0.110221 0.563495
Si Si2 0.650267 0.980881 0.618836
Si Si3 0.395735 0.256940 0.673850
Si Si4 0.816888 0.446729 0.188235
Si Si5 0.925275 0.692123 0.155268
Si Si6 0.675044 0.182671 0.295376
O O1 0.895551 0.142822 0.500000
O O2 0.755971 0.050886 0.581879
O O3 0.932910 0.225494 0.601374
O O4 0.000000 0.000000 0.572620
O O5 0.661685 0.049683 0.677547
O O6 0.500000 0.000000 0.598637
O O7 0.663148 0.836349 0.629148
O O8 0.323742 0.386616 0.674051
O O9 0.556853 0.257897 0.673400
O O10 0.357585 0.198259 0.732391
O O11 0.819084 0.500000 0.250000
O O12 0.855288 0.559717 0.149575
O O13 0.931622 0.343373 0.180853
O O14 0.822593 0.766995 0.193347
#
# Coordination Sequence:
#
# PCOD9392408 Si02
#       6
#     8   8   8   8   8   8
#     4  10  21  38  58  78  98 128 176 229 276 319
#     4   9  18  33  53  79 108 134 167 215 268 313
#     4  10  18  30  49  76 109 143 173 204 246 310
#     4  11  21  33  50  72 107 146 177 206 247 313
#     4  10  20  35  50  72 104 138 172 220 255 304
#     4   9  18  30  48  76 108 141 175 205 247 305
#
# _framework density 17.872938000000001
#
# number of rings (size 3 to 8) (size 9 to 14) (size 15 to 20)
#    0.000    2.167    1.667    2.500    0.000    3.000 
#    0.000    1.667    0.000    1.000    0.000   10.500 
#    0.000    0.000    0.000    0.000    0.000    0.000 
#
# Total GULP energy -267451.733918 kJ/mol
# GULP energy per Si atom -5571.911123 kJ/mol
# Density = 1.783226 g / cm^3
# Si number density = 17.872938 Si / 1000 Ang^3
#
#
#
# Elastic Constant Matrix: (Units=GPa)
#
#
# Indices 1 2 3 4 5 6 
#
# 1 34.2303 19.1852 9.7177 0.0000 0.0000 0.0000
# 2 19.1852 74.4514 43.4977 0.0000 0.0000 0.0000
# 3 9.7177 43.4977 62.0811 0.0000 0.0000 0.0000
# 4 0.0000 0.0000 0.0000 17.2623 0.0000 0.0000
# 5 0.0000 0.0000 0.0000 0.0000 12.3584 0.0000
# 6 0.0000 0.0000 0.0000 0.0000 0.0000 27.7486
#
#
#
# Elastic Compliance Matrix: (Units=1/GPa)
#
#
# Indices 1 2 3 4 5 6 
#
# 1 0.034216 -0.009630 0.001391 0.000000 0.000000 0.000000
# 2 -0.009630 0.025451 -0.016325 0.000000 0.000000 0.000000
# 3 0.001391 -0.016325 0.027328 0.000000 0.000000 0.000000
# 4 0.000000 0.000000 0.000000 0.057930 0.000000 0.000000
# 5 0.000000 0.000000 0.000000 0.000000 0.080917 0.000000
# 6 0.000000 0.000000 0.000000 0.000000 0.000000 0.036038
#
#
# Mechanical properties :
#
#
# Convention : Reuss Voigt Hill
#
# Bulk Modulus (GPa) = 26.40727 35.06266 30.73497
# Shear Modulus (GPa) = 15.44977 18.03135 16.74056
#
# Velocity S-wave (km/s) = 2.94330 3.17971 3.06378
# Velocity P-wave (km/s) = 5.13398 5.75683 5.45430
#
# Compressibility (1/GPa) = 0.03786836
#
# Stress axis : x y z
#
# Youngs Moduli (GPa) = 29.22584 39.29145 36.59205
#
# Poissons Ratio (x) = 0.37838 -0.05091
# Poissons Ratio (y) = 0.28145 0.59736
# Poissons Ratio (z) = -0.04066 0.64143
#
# Static dielectric constant tensor:
#      x y z
#    x 1.649930 0.000000 0.000000 
#    y 0.000000 1.629660 0.000000 
#    z 0.000000 0.000000 1.598290 
# 
# From -- ./inp_files/22362.got.cif
#   From: 2010.05.17/outbox.cif.g08.bks.cpg/sg49_12_cif.got.tgz:22362.got - 2010.06.03 21:02:19.
