data_PCOD9392826
_publ_section_title
;
Structure prediction by ZEFSAII (Michael W. Deem and Ramdas Pophale) SiO2 
 PCOD9392826
Probable space group: P C C M
;
_chemical_formula_sum "Si O2"
_cell_formula_units_Z 64
_cell_length_a 15.860088
_cell_length_b 25.018426
_cell_length_c 8.676631
_cell_angle_alpha 90.000000
_cell_angle_beta 90.000000
_cell_angle_gamma 90.000000
_cell_volume 3442.838921
_symmetry_space_group_name_H-M "P C C M"
_symmetry_group_IT_number 49
_symmetry_cell_setting 'orthorhombic'
loop_
_space_group_symop_operation_xyz
x,y,z
-x,-y,z
x,-y,1/2-z
-x,y,1/2-z
-x,-y,-z
x,y,-z
-x,y,1/2+z
x,-y,1/2+z
loop_
_atom_site_type_symbol
_atom_site_label
_atom_site_fract_x
_atom_site_fract_y
_atom_site_fract_z
Si Si1 0.590004 0.141429 0.684301
Si Si2 0.127497 0.787228 0.181601
Si Si3 0.086289 0.100224 0.817456
Si Si4 0.729769 0.638582 0.183938
Si Si5 0.409889 0.559856 0.184294
Si Si6 0.266980 0.057906 0.186682
Si Si7 0.911048 0.665251 0.684984
Si Si8 0.695357 0.239027 0.315826
O O1 0.500000 0.126551 0.750000
O O2 0.586216 0.137825 0.500000
O O3 0.664933 0.102144 0.736084
O O4 0.615761 0.202391 0.723177
O O5 0.091453 0.837186 0.273422
O O6 0.094284 0.728493 0.227133
O O7 0.226211 0.783945 0.221229
O O8 0.112863 0.794944 0.000000
O O9 0.172872 0.073697 0.759539
O O10 0.000000 0.077398 0.750000
O O11 0.084051 0.095204 0.000000
O O12 0.667968 0.595959 0.261021
O O13 0.825702 0.639156 0.247669
O O14 0.692065 0.697951 0.214559
O O15 0.731998 0.630587 0.000000
O O16 0.399282 0.500000 0.250000
O O17 0.500000 0.579999 0.250000
O O18 0.414267 0.558157 0.000000
O O19 0.289635 0.000000 0.250000
O O20 0.266054 0.057262 0.000000
O O21 0.909567 0.661300 0.500000
O O22 0.000000 0.644309 0.750000
O O23 0.712778 0.232335 0.500000
#
# Coordination Sequence:
#
# PCOD9392826 Si02
#       8
#     8   8   8   8   8   8   8   8
#     4  10  21  39  59  83 110 143 180 224 278 334
#     4  10  19  31  52  81 111 146 188 228 273 330
#     4  11  22  37  56  80 109 141 177 223 274 335
#     4  10  20  35  58  87 118 158 197 238 292 345
#     4  11  22  39  62  88 120 156 200 250 295 347
#     4  10  23  42  61  78 106 139 178 227 281 334
#     4  10  20  33  50  79 117 157 198 241 285 334
#     4   9  18  35  56  79 116 153 185 226 279 335
#
# _framework density 18.589309
#
# number of rings (size 3 to 8) (size 9 to 14) (size 15 to 20)
#    0.000    1.875    1.250    3.375    0.000    6.000 
#    0.000    3.750    0.000    0.375    0.000    2.625 
#    0.000    0.000    0.000    0.000    0.000    0.000 
#
# Total GULP energy -357299.521630 kJ/mol
# GULP energy per Si atom -5582.805025 kJ/mol
# Density = 1.854700 g / cm^3
# Si number density = 18.589309 Si / 1000 Ang^3
#
#
#
# Elastic Constant Matrix: (Units=GPa)
#
#
# Indices 1 2 3 4 5 6 
#
# 1 150.6328 60.0356 41.4744 0.0000 0.0000 0.0000
# 2 60.0356 66.9535 32.2538 0.0000 0.0000 0.0000
# 3 41.4744 32.2538 48.7064 0.0000 0.0000 0.0000
# 4 0.0000 0.0000 0.0000 -36.6777 0.0000 0.0000
# 5 0.0000 0.0000 0.0000 0.0000 32.4407 0.0000
# 6 0.0000 0.0000 0.0000 0.0000 0.0000 2.2880
#
#
#
# Elastic Compliance Matrix: (Units=1/GPa)
#
#
# Indices 1 2 3 4 5 6 
#
# 1 0.010864 -0.007761 -0.004112 0.000000 0.000000 0.000000
# 2 -0.007761 0.027476 -0.011587 0.000000 0.000000 0.000000
# 3 -0.004112 -0.011587 0.031705 0.000000 0.000000 0.000000
# 4 0.000000 0.000000 0.000000 -0.027264 0.000000 0.000000
# 5 0.000000 0.000000 0.000000 0.000000 0.030825 0.000000
# 6 0.000000 0.000000 0.000000 0.000000 0.000000 0.437070
#
#
# Mechanical properties :
#
#
# Convention : Reuss Voigt Hill
#
# Bulk Modulus (GPa) = 43.23890 59.31337 51.27614
# Shear Modulus (GPa) = 8.84483 8.44545 8.64514
#
# Velocity S-wave (km/s) = 2.18365 2.13379 2.15886
# Velocity P-wave (km/s) = 5.44687 6.16824 5.81875
#
# Compressibility (1/GPa) = 0.02312732
#
# Stress axis : x y z
#
# Youngs Moduli (GPa) = 92.04942 36.39519 31.54068
#
# Poissons Ratio (x) = 0.28245 0.12968
# Poissons Ratio (y) = 0.71435 0.36545
# Poissons Ratio (z) = 0.37847 0.42170
#
# Static dielectric constant tensor:
#      x y z
#    x 1.655270 0.000000 0.000000 
#    y 0.000000 1.628050 0.000000 
#    z 0.000000 0.000000 1.629460 
# 
# From -- ./inp_files/4295.got.cif
#   From: 2010.05.17/outbox.cif.g08.bks.cpg/sg49_3_cif.got.tgz:4295.got - 2010.06.03 21:02:19.
