data_PCOD9392130
_publ_section_title
;
Structure prediction by ZEFSAII (Michael W. Deem and Ramdas Pophale) SiO2 
 PCOD9392130
Probable space group: P C C M
;
_chemical_formula_sum "Si O2"
_cell_formula_units_Z 58
_cell_length_a 28.028714
_cell_length_b 13.613431
_cell_length_c 8.267458
_cell_angle_alpha 90.000000
_cell_angle_beta 90.000000
_cell_angle_gamma 90.000000
_cell_volume 3154.588850
_symmetry_space_group_name_H-M "P C C M"
_symmetry_group_IT_number 49
_symmetry_cell_setting 'orthorhombic'
loop_
_space_group_symop_operation_xyz
x,y,z
-x,-y,z
x,-y,1/2-z
-x,y,1/2-z
-x,-y,-z
x,y,-z
-x,y,1/2+z
x,-y,1/2+z
loop_
_atom_site_type_symbol
_atom_site_label
_atom_site_fract_x
_atom_site_fract_y
_atom_site_fract_z
Si Si1 0.419818 0.892292 0.304411
Si Si2 0.309685 0.894275 0.692297
Si Si3 0.752140 0.713090 0.693862
Si Si4 0.050157 0.613393 0.308494
Si Si5 0.500000 0.500000 0.250000
Si Si6 0.437457 0.679741 0.690759
Si Si7 0.152269 0.613326 0.193597
Si Si8 0.657439 0.391647 0.807327
O O1 0.419982 0.890523 0.500000
O O2 0.364483 0.884785 0.244488
O O3 0.446937 0.791873 0.253943
O O4 0.437667 0.000000 0.250000
O O5 0.313019 0.891086 0.500000
O O6 0.272492 0.812539 0.747598
O O7 0.292508 0.000000 0.750000
O O8 0.755668 0.719003 0.500000
O O9 0.803479 0.678264 0.755995
O O10 0.711751 0.633027 0.734001
O O11 0.050052 0.500000 0.250000
O O12 0.050508 0.613600 0.500000
O O13 0.100531 0.653465 0.245957
O O14 0.000000 0.658129 0.250000
O O15 0.539224 0.411962 0.211050
O O16 0.450068 0.665042 0.500000
O O17 0.380635 0.672504 0.710969
O O18 0.157214 0.500000 0.250000
O O19 0.153532 0.611598 0.000000
O O20 0.647062 0.500000 0.750000
O O21 0.650782 0.378767 0.000000
#
# Coordination Sequence:
#
# PCOD9392130 Si02
#       8
#     8   8   8   8   2   8   8   8
#     4   9  19  36  59  85 110 137 172 217 263 318
#     4  10  19  32  53  78 105 135 168 212 258 312
#     4  10  21  34  49  74 106 140 175 213 260 313
#     4  10  17  27  43  63  89 127 176 224 270 315
#     4  12  26  40  66  86 114 148 178 226 276 312
#     4  11  23  41  60  84 112 139 177 219 266 317
#     4  10  19  31  45  66 100 138 177 220 263 310
#     4  11  22  35  54  78 107 141 177 214 254 309
#
# _framework density 18.385915000000001
#
# number of rings (size 3 to 8) (size 9 to 14) (size 15 to 20)
#    0.000    1.793    2.069    4.345    0.000    3.310 
#    0.000    0.345    0.000    1.655    0.000    0.000 
#    0.000    0.552    0.000    5.793    0.000    2.483 
#
# Total GULP energy -323003.132337 kJ/mol
# GULP energy per Si atom -5569.019523 kJ/mol
# Density = 1.834407 g / cm^3
# Si number density = 18.385915 Si / 1000 Ang^3
#
#
#
# Elastic Constant Matrix: (Units=GPa)
#
#
# Indices 1 2 3 4 5 6 
#
# 1 130.2256 36.2683 27.7654 0.0000 0.0000 0.0000
# 2 36.2683 121.6587 5.0113 0.0000 0.0000 0.0000
# 3 27.7654 5.0113 38.7473 0.0000 0.0000 0.0000
# 4 0.0000 0.0000 0.0000 18.6023 0.0000 0.0000
# 5 0.0000 0.0000 0.0000 0.0000-1326.2935 0.0000
# 6 0.0000 0.0000 0.0000 0.0000 0.0000 3.0673
#
#
#
# Elastic Compliance Matrix: (Units=1/GPa)
#
#
# Indices 1 2 3 4 5 6 
#
# 1 0.009852 -0.002660 -0.006715 0.000000 0.000000 0.000000
# 2 -0.002660 0.008982 0.000745 0.000000 0.000000 0.000000
# 3 -0.006715 0.000745 0.030524 0.000000 0.000000 0.000000
# 4 0.000000 0.000000 0.000000 0.053757 0.000000 0.000000
# 5 0.000000 0.000000 0.000000 0.000000 -0.000754 0.000000
# 6 0.000000 0.000000 0.000000 0.000000 0.000000 0.326015
#
#
# Mechanical properties :
#
#
# Convention : Reuss Voigt Hill
#
# Bulk Modulus (GPa) = 31.15688 47.63576 39.39632
# Shear Modulus (GPa) = 10.95683 -246.15233 -117.59775
#
# Velocity S-wave (km/s) = 2.44383 -11.58325 -8.00622
# Velocity P-wave (km/s) = 4.99459 12.36650 7.99951
#
# Compressibility (1/GPa) = 0.03209564
#
# Stress axis : x y z
#
# Youngs Moduli (GPa) = 101.50547 111.33224 32.76105
#
# Poissons Ratio (x) = 0.29618 0.22000
# Poissons Ratio (y) = 0.27004 -0.02439
# Poissons Ratio (z) = 0.68165 -0.08290
#
# Static dielectric constant tensor:
#      x y z
#    x 1.682350 0.000000 0.000000 
#    y 0.000000 1.609410 0.000000 
#    z 0.000000 0.000000 1.715110 
# 
# From -- ./inp_files/6767.got.cif
#   From: 2010.05.17/outbox.cif.g08.bks.cpg/sg49_4_cif.got.tgz:6767.got - 2010.06.03 21:02:19.
