data_PCOD9392209
_publ_section_title
;
Structure prediction by ZEFSAII (Michael W. Deem and Ramdas Pophale) SiO2 
 PCOD9392209
Probable space group: P C C M
;
_chemical_formula_sum "Si O2"
_cell_formula_units_Z 48
_cell_length_a 31.150159
_cell_length_b 9.738993
_cell_length_c 8.637617
_cell_angle_alpha 90.000000
_cell_angle_beta 90.000000
_cell_angle_gamma 90.000000
_cell_volume 2620.404066
_symmetry_space_group_name_H-M "P C C M"
_symmetry_group_IT_number 49
_symmetry_cell_setting 'orthorhombic'
loop_
_space_group_symop_operation_xyz
x,y,z
-x,-y,z
x,-y,1/2-z
-x,y,1/2-z
-x,-y,-z
x,y,-z
-x,y,1/2+z
x,-y,1/2+z
loop_
_atom_site_type_symbol
_atom_site_label
_atom_site_fract_x
_atom_site_fract_y
_atom_site_fract_z
Si Si1 0.544116 0.156366 0.815013
Si Si2 0.120474 0.153603 0.815202
Si Si3 0.047925 0.648881 0.185476
Si Si4 0.633301 0.845845 0.184406
Si Si5 0.806417 0.347419 0.185034
Si Si6 0.293783 0.652149 0.184878
O O1 0.500000 0.219873 0.750000
O O2 0.589084 0.215561 0.754626
O O3 0.544668 0.000000 0.750000
O O4 0.543095 0.153196 0.000000
O O5 0.080078 0.235326 0.744802
O O6 0.162382 0.238331 0.763263
O O7 0.122107 0.000000 0.750000
O O8 0.117294 0.151128 0.000000
O O9 0.062122 0.500000 0.250000
O O10 0.000000 0.672244 0.250000
O O11 0.047079 0.644366 0.000000
O O12 0.673821 0.757000 0.235865
O O13 0.638170 0.000000 0.250000
O O14 0.629411 0.852181 0.000000
O O15 0.815073 0.500000 0.250000
O O16 0.756315 0.315457 0.216137
O O17 0.813157 0.347485 0.000000
O O18 0.301713 0.500000 0.250000
O O19 0.299991 0.653954 0.000000
#
# Coordination Sequence:
#
# PCOD9392209 Si02
#       6
#     8   8   8   8   8   8
#     4  10  17  28  46  71 103 138 178 223 272 325
#     4  12  25  41  60  86 119 154 191 234 286 338
#     4  11  22  40  64  91 120 154 196 238 281 330
#     4  11  21  34  53  79 110 144 183 228 278 329
#     4  10  21  39  62  86 112 146 188 232 277 330
#     4  10  21  38  59  83 111 145 185 228 277 332
#
# _framework density 18.317785000000001
#
# number of rings (size 3 to 8) (size 9 to 14) (size 15 to 20)
#    0.000    1.333    0.000    9.500    0.000    3.000 
#    0.000    1.667    0.000    0.500    0.000    3.500 
#    0.000    0.000    0.000    0.000    0.000    0.000 
#
# Total GULP energy -268284.919611 kJ/mol
# GULP energy per Si atom -5589.269159 kJ/mol
# Density = 1.827609 g / cm^3
# Si number density = 18.317785 Si / 1000 Ang^3
#
#
#
# Elastic Constant Matrix: (Units=GPa)
#
#
# Indices 1 2 3 4 5 6 
#
# 1 119.7289 90.0166 84.1052 0.0000 0.0000 0.0000
# 2 90.0166 109.6493 69.3684 0.0000 0.0000 0.0000
# 3 84.1052 69.3684 195.6232 0.0000 0.0000 0.0000
# 4 0.0000 0.0000 0.0000 31.3272 0.0000 0.0000
# 5 0.0000 0.0000 0.0000 0.0000 37.2806 0.0000
# 6 0.0000 0.0000 0.0000 0.0000 0.0000 22.5495
#
#
#
# Elastic Compliance Matrix: (Units=1/GPa)
#
#
# Indices 1 2 3 4 5 6 
#
# 1 0.024409 -0.017275 -0.004368 0.000000 0.000000 0.000000
# 2 -0.017275 0.023983 -0.001078 0.000000 0.000000 0.000000
# 3 -0.004368 -0.001078 0.007372 0.000000 0.000000 0.000000
# 4 0.000000 0.000000 0.000000 0.031921 0.000000 0.000000
# 5 0.000000 0.000000 0.000000 0.000000 0.026824 0.000000
# 6 0.000000 0.000000 0.000000 0.000000 0.000000 0.044347
#
#
# Mechanical properties :
#
#
# Convention : Reuss Voigt Hill
#
# Bulk Modulus (GPa) = 96.87375 101.33131 99.10253
# Shear Modulus (GPa) = 24.06882 30.33220 27.20051
#
# Velocity S-wave (km/s) = 3.62879 4.07368 3.85765
# Velocity P-wave (km/s) = 8.39984 8.80710 8.60588
#
# Compressibility (1/GPa) = 0.01032271
#
# Stress axis : x y z
#
# Youngs Moduli (GPa) = 40.96930 41.69579 135.64560
#
# Poissons Ratio (x) = 0.72027 0.59257
# Poissons Ratio (y) = 0.70772 0.14617
# Poissons Ratio (z) = 0.17897 0.04493
#
# Static dielectric constant tensor:
#      x y z
#    x 1.653320 0.000000 0.000000 
#    y 0.000000 1.598440 0.000000 
#    z 0.000000 0.000000 1.608640 
# 
# From -- ./inp_files/6883.got.cif
#   From: 2010.05.17/outbox.cif.g08.bks.cpg/sg49_4_cif.got.tgz:6883.got - 2010.06.03 21:02:19.
