data_PCOD9392748
_publ_section_title
;
Structure prediction by ZEFSAII (Michael W. Deem and Ramdas Pophale) SiO2 
 PCOD9392748
Probable space group: P C C M
;
_chemical_formula_sum "Si O2"
_cell_formula_units_Z 40
_cell_length_a 5.331227
_cell_length_b 22.626680
_cell_length_c 14.037510
_cell_angle_alpha 90.000000
_cell_angle_beta 90.000000
_cell_angle_gamma 90.000000
_cell_volume 1693.316298
_symmetry_space_group_name_H-M "P C C M"
_symmetry_group_IT_number 49
_symmetry_cell_setting 'orthorhombic'
loop_
_space_group_symop_operation_xyz
x,y,z
-x,-y,z
x,-y,1/2-z
-x,y,1/2-z
-x,-y,-z
x,y,-z
-x,y,1/2+z
x,-y,1/2+z
loop_
_atom_site_type_symbol
_atom_site_label
_atom_site_fract_x
_atom_site_fract_y
_atom_site_fract_z
Si Si1 0.606804 0.366942 0.883985
Si Si2 0.753676 0.026182 0.643988
Si Si3 0.633570 0.769096 0.616257
Si Si4 0.894163 0.435923 0.615478
Si Si5 0.135271 0.161794 0.884464
O O1 0.618092 0.298953 0.852874
O O2 0.370784 0.407611 0.851693
O O3 0.876063 0.393566 0.859884
O O4 0.589094 0.366619 0.000000
O O5 0.794273 0.096051 0.648311
O O6 0.500000 0.000000 0.600849
O O7 0.750651 0.000000 0.750000
O O8 0.000000 0.000000 0.597274
O O9 0.647415 0.768281 0.500000
O O10 0.370685 0.798156 0.642813
O O11 0.873047 0.808462 0.647068
O O12 0.871348 0.439328 0.500000
O O13 0.000000 0.500000 0.645292
O O14 0.125237 0.158888 0.000000
#
# Coordination Sequence:
#
# PCOD9392748 Si02
#       5
#     8   8   8   8   8
#     4   9  15  23  34  48  72 105 140 185 236 274
#     4  10  21  36  52  70  93 120 148 183 225 283
#     4   9  17  28  42  62  86 113 147 191 242 284
#     4   9  15  21  30  46  69 102 146 191 230 268
#     4  10  19  31  48  69  91 115 149 193 236 279
#
# _framework density 23.622285999999999
#
# number of rings (size 3 to 8) (size 9 to 14) (size 15 to 20)
#    0.000    2.600    0.000    3.000    0.000    8.000 
#    0.000    0.000    0.000    0.000    0.000    0.000 
#    0.000    0.000    0.000    0.000    0.000    0.000 
#
# Total GULP energy -223524.916987 kJ/mol
# GULP energy per Si atom -5588.122925 kJ/mol
# Density = 2.356852 g / cm^3
# Si number density = 23.622286 Si / 1000 Ang^3
#
#
#
# Elastic Constant Matrix: (Units=GPa)
#
#
# Indices 1 2 3 4 5 6 
#
# 1 210.1825 80.3935 21.5491 0.0000 0.0000 0.0000
# 2 80.3935 191.9899 5.2625 0.0000 0.0000 0.0000
# 3 21.5491 5.2625 98.5324 0.0000 0.0000 0.0000
# 4 0.0000 0.0000 0.0000 7.1320 0.0000 0.0000
# 5 0.0000 0.0000 0.0000 0.0000 0.7249 0.0000
# 6 0.0000 0.0000 0.0000 0.0000 0.0000 43.5958
#
#
#
# Elastic Compliance Matrix: (Units=1/GPa)
#
#
# Indices 1 2 3 4 5 6 
#
# 1 0.005790 -0.002393 -0.001138 0.000000 0.000000 0.000000
# 2 -0.002393 0.006205 0.000192 0.000000 0.000000 0.000000
# 3 -0.001138 0.000192 0.010388 0.000000 0.000000 0.000000
# 4 0.000000 0.000000 0.000000 0.140212 0.000000 0.000000
# 5 0.000000 0.000000 0.000000 0.000000 1.379536 0.000000
# 6 0.000000 0.000000 0.000000 0.000000 0.000000 0.022938
#
#
# Mechanical properties :
#
#
# Convention : Reuss Voigt Hill
#
# Bulk Modulus (GPa) = 63.67949 79.45722 71.56836
# Shear Modulus (GPa) = 3.17061 36.52385 19.84723
#
# Velocity S-wave (km/s) = 1.15980 3.93639 2.90175
# Velocity P-wave (km/s) = 5.36744 7.37359 6.44900
#
# Compressibility (1/GPa) = 0.01570364
#
# Stress axis : x y z
#
# Youngs Moduli (GPa) = 172.71486 161.14766 96.26804
#
# Poissons Ratio (x) = 0.38567 0.10959
# Poissons Ratio (y) = 0.41335 -0.01848
# Poissons Ratio (z) = 0.19662 -0.03094
#
# Static dielectric constant tensor:
#      x y z
#    x 1.610240 0.000000 0.000000 
#    y 0.000000 1.940960 0.000000 
#    z 0.000000 0.000000 1.920290 
# 
# From -- ./inp_files/15260.got.cif
#   From: 2010.05.17/outbox.cif.g08.bks.cpg/sg49_8_cif.got.tgz:15260.got - 2010.06.03 21:02:19.
