data_PCOD9392834
_publ_section_title
;
Structure prediction by ZEFSAII (Michael W. Deem and Ramdas Pophale) SiO2 
 PCOD9392834
Probable space group: P C C M
;
_chemical_formula_sum "Si O2"
_cell_formula_units_Z 34
_cell_length_a 12.138070
_cell_length_b 8.755803
_cell_length_c 16.878433
_cell_angle_alpha 90.000000
_cell_angle_beta 90.000000
_cell_angle_gamma 90.000000
_cell_volume 1793.815381
_symmetry_space_group_name_H-M "P C C M"
_symmetry_group_IT_number 49
_symmetry_cell_setting 'orthorhombic'
loop_
_space_group_symop_operation_xyz
x,y,z
-x,-y,z
x,-y,1/2-z
-x,y,1/2-z
-x,-y,-z
x,y,-z
-x,y,1/2+z
x,-y,1/2+z
loop_
_atom_site_type_symbol
_atom_site_label
_atom_site_fract_x
_atom_site_fract_y
_atom_site_fract_z
Si Si1 0.383827 0.449430 0.657165
Si Si2 0.811278 0.668214 0.845042
Si Si3 0.302345 0.141884 0.296417
Si Si4 0.000000 0.500000 0.750000
Si Si5 0.873945 0.019545 0.409513
O O1 0.500000 0.500000 0.620845
O O2 0.387464 0.500000 0.750000
O O3 0.275830 0.539696 0.626322
O O4 0.373700 0.266255 0.656688
O O5 0.755398 0.758221 0.771772
O O6 0.842238 0.801816 0.905322
O O7 0.919787 0.594240 0.807478
O O8 0.357885 0.000000 0.250000
O O9 0.209620 0.071672 0.353545
O O10 0.867367 0.964742 0.500000
O O11 0.000000 0.000000 0.381587
#
# Coordination Sequence:
#
# PCOD9392834 Si02
#       5
#     8   8   8   2   8
#     4   9  17  33  53  80 110 134 174 227 270 312
#     4  10  19  31  54  80 106 139 173 220 268 324
#     4   9  17  33  54  79 103 138 178 217 268 316
#     4  12  16  28  54  80 108 132 170 220 264 324
#     4  10  21  35  50  74 111 145 178 223 271 323
#
# _framework density 18.954011000000001
#
# number of rings (size 3 to 8) (size 9 to 14) (size 15 to 20)
#    0.000    2.353    3.529    1.412    0.000    3.294 
#    0.000   21.765    0.000    4.235    0.000    0.000 
#    0.000    0.000    0.000    0.000    0.000    0.000 
#
# Total GULP energy -189369.082254 kJ/mol
# GULP energy per Si atom -5569.678890 kJ/mol
# Density = 1.891087 g / cm^3
# Si number density = 18.954011 Si / 1000 Ang^3
#
#
#
# Elastic Constant Matrix: (Units=GPa)
#
#
# Indices 1 2 3 4 5 6 
#
# 1 110.4089 69.7422 9.7286 0.0000 0.0000 0.0000
# 2 69.7422 143.2247 11.7309 0.0000 0.0000 0.0000
# 3 9.7286 11.7309 27.1453 0.0000 0.0000 0.0000
# 4 0.0000 0.0000 0.0000 9.0646 0.0000 0.0000
# 5 0.0000 0.0000 0.0000 0.0000 5.2553 0.0000
# 6 0.0000 0.0000 0.0000 0.0000 0.0000 4.3278
#
#
#
# Elastic Compliance Matrix: (Units=1/GPa)
#
#
# Indices 1 2 3 4 5 6 
#
# 1 0.013187 -0.006256 -0.002023 0.000000 0.000000 0.000000
# 2 -0.006256 0.010206 -0.002168 0.000000 0.000000 0.000000
# 3 -0.002023 -0.002168 0.038501 0.000000 0.000000 0.000000
# 4 0.000000 0.000000 0.000000 0.110319 0.000000 0.000000
# 5 0.000000 0.000000 0.000000 0.000000 0.190285 0.000000
# 6 0.000000 0.000000 0.000000 0.000000 0.000000 0.231062
#
#
# Mechanical properties :
#
#
# Convention : Reuss Voigt Hill
#
# Bulk Modulus (GPa) = 24.39026 51.46469 37.92747
# Shear Modulus (GPa) = 7.96027 16.36803 12.16415
#
# Velocity S-wave (km/s) = 2.05156 2.94184 2.53607
# Velocity P-wave (km/s) = 4.30208 6.22499 5.35063
#
# Compressibility (1/GPa) = 0.04099998
#
# Stress axis : x y z
#
# Youngs Moduli (GPa) = 75.83239 97.98371 25.97345
#
# Poissons Ratio (x) = 0.61295 0.05254
# Poissons Ratio (y) = 0.47438 0.05632
# Poissons Ratio (z) = 0.15339 0.21248
#
# Static dielectric constant tensor:
#      x y z
#    x 1.698030 0.000000 0.000000 
#    y 0.000000 1.712920 0.000000 
#    z 0.000000 0.000000 1.651300 
# 
# From -- ./inp_files/16787.got.cif
#   From: 2010.05.17/outbox.cif.g08.bks.cpg/sg49_9_cif.got.tgz:16787.got - 2010.06.03 21:02:19.
