data_PCOD9392673
_publ_section_title
;
Structure prediction by ZEFSAII (Michael W. Deem and Ramdas Pophale) SiO2 
 PCOD9392673
Probable space group: P C C M
;
_chemical_formula_sum "Si O2"
_cell_formula_units_Z 64
_cell_length_a 18.970614
_cell_length_b 23.921606
_cell_length_c 8.502881
_cell_angle_alpha 90.000000
_cell_angle_beta 90.000000
_cell_angle_gamma 90.000000
_cell_volume 3858.671626
_symmetry_space_group_name_H-M "P C C M"
_symmetry_group_IT_number 49
_symmetry_cell_setting 'orthorhombic'
loop_
_space_group_symop_operation_xyz
x,y,z
-x,-y,z
x,-y,1/2-z
-x,y,1/2-z
-x,-y,-z
x,y,-z
-x,y,1/2+z
x,-y,1/2+z
loop_
_atom_site_type_symbol
_atom_site_label
_atom_site_fract_x
_atom_site_fract_y
_atom_site_fract_z
Si Si1 0.576597 0.936797 0.187119
Si Si2 0.880334 0.439514 0.688669
Si Si3 0.792328 0.758733 0.312125
Si Si4 0.423676 0.770183 0.315976
Si Si5 0.715242 0.442525 0.687971
Si Si6 0.689283 0.851841 0.683846
Si Si7 0.675008 0.324328 0.685583
Si Si8 0.923399 0.683176 0.310803
O O1 0.500000 0.914383 0.250000
O O2 0.647652 0.903649 0.237257
O O3 0.581660 0.000000 0.250000
O O4 0.571854 0.936562 0.000000
O O5 0.908198 0.500000 0.750000
O O6 0.886650 0.439410 0.500000
O O7 0.797520 0.438151 0.735041
O O8 0.910499 0.380770 0.752052
O O9 0.798086 0.764846 0.500000
O O10 0.760231 0.819100 0.255025
O O11 0.733093 0.712846 0.271935
O O12 0.864377 0.728519 0.255985
O O13 0.500000 0.778876 0.250000
O O14 0.369632 0.804576 0.210628
O O15 0.399261 0.706259 0.302941
O O16 0.305148 0.323895 0.000000
O O17 0.685262 0.500000 0.750000
O O18 0.713938 0.444236 0.500000
O O19 0.676749 0.387131 0.744130
O O20 0.699342 0.864622 0.500000
O O21 0.582925 0.212974 0.500000
O O22 0.921519 0.681778 0.500000
O O23 0.000000 0.700328 0.250000
#
# Coordination Sequence:
#
# PCOD9392673 Si02
#       8
#     8   8   8   8   8   8   8   8
#     4  11  21  34  51  75 107 145 180 210 240 277
#     4  10  19  32  49  68  91 119 151 192 238 291
#     4   9  19  33  50  70  93 120 157 198 237 281
#     4  10  19  30  45  66  92 120 153 192 233 279
#     4   9  17  28  44  65  85 107 139 181 228 279
#     4  10  19  33  51  72  98 130 165 203 239 275
#     4   9  17  30  47  65  86 113 145 185 233 281
#     4  11  22  35  50  70  95 126 159 195 242 295
#
# _framework density 16.586019
#
# number of rings (size 3 to 8) (size 9 to 14) (size 15 to 20)
#    0.000    2.125    1.250    3.375    0.000    2.750 
#    0.000    1.250    0.000    0.375    0.000    2.625 
#    0.000    0.500    0.000    5.750    0.000    1.750 
#
# Total GULP energy -356286.952249 kJ/mol
# GULP energy per Si atom -5566.983629 kJ/mol
# Density = 1.654827 g / cm^3
# Si number density = 16.586019 Si / 1000 Ang^3
#
#
#
# Elastic Constant Matrix: (Units=GPa)
#
#
# Indices 1 2 3 4 5 6 
#
# 1 64.9972 44.1401 15.1823 0.0000 0.0000 0.0000
# 2 44.1401 99.3765 21.6448 0.0000 0.0000 0.0000
# 3 15.1823 21.6448 38.8156 0.0000 0.0000 0.0000
# 4 0.0000 0.0000 0.0000 20.4017 0.0000 0.0000
# 5 0.0000 0.0000 0.0000 0.0000 14.6858 0.0000
# 6 0.0000 0.0000 0.0000 0.0000 0.0000 34.8510
#
#
#
# Elastic Compliance Matrix: (Units=1/GPa)
#
#
# Indices 1 2 3 4 5 6 
#
# 1 0.022481 -0.009186 -0.003671 0.000000 0.000000 0.000000
# 2 -0.009186 0.015207 -0.004887 0.000000 0.000000 0.000000
# 3 -0.003671 -0.004887 0.029924 0.000000 0.000000 0.000000
# 4 0.000000 0.000000 0.000000 0.049016 0.000000 0.000000
# 5 0.000000 0.000000 0.000000 0.000000 0.068093 0.000000
# 6 0.000000 0.000000 0.000000 0.000000 0.000000 0.028694
#
#
# Mechanical properties :
#
#
# Convention : Reuss Voigt Hill
#
# Bulk Modulus (GPa) = 31.12893 40.56930 35.84912
# Shear Modulus (GPa) = 19.25968 22.13585 20.69776
#
# Velocity S-wave (km/s) = 3.41133 3.65719 3.53640
# Velocity P-wave (km/s) = 5.85877 6.50742 6.19159
#
# Compressibility (1/GPa) = 0.03212445
#
# Stress axis : x y z
#
# Youngs Moduli (GPa) = 44.48231 65.75811 33.41811
#
# Poissons Ratio (x) = 0.60404 0.12267
# Poissons Ratio (y) = 0.40861 0.16332
# Poissons Ratio (z) = 0.16329 0.32137
#
# Static dielectric constant tensor:
#      x y z
#    x 1.598980 0.000000 0.000000 
#    y 0.000000 1.600950 0.000000 
#    z 0.000000 0.000000 1.577920 
# 
# From -- ./inp_files/5335.got.cif
#   From: 2010.05.17/outbox.cif.g08.bks.cpg/sg49_3_cif.got.tgz:5335.got - 2010.06.03 21:02:19.
