data_PCOD9392026
_publ_section_title
;
Structure prediction by ZEFSAII (Michael W. Deem and Ramdas Pophale) SiO2 
 PCOD9392026
Probable space group: P C C M
;
_chemical_formula_sum "Si O2"
_cell_formula_units_Z 56
_cell_length_a 30.244772
_cell_length_b 13.822327
_cell_length_c 8.669095
_cell_angle_alpha 90.000000
_cell_angle_beta 90.000000
_cell_angle_gamma 90.000000
_cell_volume 3624.142287
_symmetry_space_group_name_H-M "P C C M"
_symmetry_group_IT_number 49
_symmetry_cell_setting 'orthorhombic'
loop_
_space_group_symop_operation_xyz
x,y,z
-x,-y,z
x,-y,1/2-z
-x,y,1/2-z
-x,-y,-z
x,y,-z
-x,y,1/2+z
x,-y,1/2+z
loop_
_atom_site_type_symbol
_atom_site_label
_atom_site_fract_x
_atom_site_fract_y
_atom_site_fract_z
Si Si1 0.322032 0.696751 0.314547
Si Si2 0.365139 0.102140 0.184380
Si Si3 0.228194 0.391119 0.814433
Si Si4 0.863413 0.389998 0.815406
Si Si5 0.547892 0.804628 0.315042
Si Si6 0.954418 0.610262 0.815147
Si Si7 0.591302 0.397089 0.816086
O O1 0.326210 0.688139 0.500000
O O2 0.334591 0.806510 0.271088
O O3 0.272503 0.666667 0.272818
O O4 0.359165 0.628125 0.240498
O O5 0.413629 0.127227 0.249877
O O6 0.349782 0.000000 0.250000
O O7 0.367223 0.097775 0.000000
O O8 0.233415 0.500000 0.750000
O O9 0.183122 0.348078 0.743109
O O10 0.223871 0.395141 0.000000
O O11 0.862228 0.500000 0.750000
O O12 0.908516 0.345609 0.746909
O O13 0.865440 0.392427 0.000000
O O14 0.500000 0.828965 0.250000
O O15 0.547906 0.809591 0.500000
O O16 0.561438 0.694699 0.267827
O O17 0.954094 0.500000 0.750000
O O18 0.000000 0.654289 0.750000
O O19 0.954968 0.607588 0.000000
O O20 0.576862 0.500000 0.750000
O O21 0.591041 0.401817 0.000000
#
# Coordination Sequence:
#
# PCOD9392026 Si02
#       7
#     8   8   8   8   8   8   8
#     4   9  19  33  49  67  89 114 143 176 213 254
#     4  10  20  36  55  74  93 114 139 173 212 255
#     4  10  18  28  41  60  84 112 142 175 212 251
#     4  10  17  25  35  50  72 101 136 175 215 254
#     4  10  21  36  52  72  94 118 145 176 209 248
#     4  10  16  23  33  46  65  93 131 176 219 257
#     4  10  20  32  48  68  92 119 148 177 209 246
#
# _framework density 15.451931999999999
#
# number of rings (size 3 to 8) (size 9 to 14) (size 15 to 20)
#    0.000    2.143    0.000    6.857    0.000    5.143 
#    0.000    2.857    0.000    0.000    0.000    0.000 
#    0.000    0.000    0.000    0.000    0.000    0.714 
#
# Total GULP energy -312296.949218 kJ/mol
# GULP energy per Si atom -5576.731236 kJ/mol
# Density = 1.541676 g / cm^3
# Si number density = 15.451932 Si / 1000 Ang^3
#
#
#
# Elastic Constant Matrix: (Units=GPa)
#
#
# Indices 1 2 3 4 5 6 
#
# 1 114.7558 10.6835 35.8888 0.0000 0.0000 0.0000
# 2 10.6835 45.2320 13.2205 0.0000 0.0000 0.0000
# 3 35.8888 13.2205 76.8359 0.0000 0.0000 0.0000
# 4 0.0000 0.0000 0.0000 17.3068 0.0000 0.0000
# 5 0.0000 0.0000 0.0000 0.0000 25.3836 0.0000
# 6 0.0000 0.0000 0.0000 0.0000 0.0000 7.1647
#
#
#
# Elastic Compliance Matrix: (Units=1/GPa)
#
#
# Indices 1 2 3 4 5 6 
#
# 1 0.010254 -0.001076 -0.004604 0.000000 0.000000 0.000000
# 2 -0.001076 0.023392 -0.003522 0.000000 0.000000 0.000000
# 3 -0.004604 -0.003522 0.015771 0.000000 0.000000 0.000000
# 4 0.000000 0.000000 0.000000 0.057781 0.000000 0.000000
# 5 0.000000 0.000000 0.000000 0.000000 0.039395 0.000000
# 6 0.000000 0.000000 0.000000 0.000000 0.000000 0.139572
#
#
# Mechanical properties :
#
#
# Convention : Reuss Voigt Hill
#
# Bulk Modulus (GPa) = 32.24557 39.60104 35.92331
# Shear Modulus (GPa) = 15.87759 21.77310 18.82534
#
# Velocity S-wave (km/s) = 3.20902 3.75785 3.49423
# Velocity P-wave (km/s) = 5.88591 6.67179 6.29113
#
# Compressibility (1/GPa) = 0.03101201
#
# Stress axis : x y z
#
# Youngs Moduli (GPa) = 97.51953 42.74989 63.40571
#
# Poissons Ratio (x) = 0.04601 0.29195
# Poissons Ratio (y) = 0.10495 0.22333
# Poissons Ratio (z) = 0.44903 0.15057
#
# Static dielectric constant tensor:
#      x y z
#    x 1.557520 0.000000 0.000000 
#    y 0.000000 1.496130 0.000000 
#    z 0.000000 0.000000 1.518690 
# 
# From -- ./inp_files/7024.got.cif
#   From: 2010.05.17/outbox.cif.g08.bks.cpg/sg49_4_cif.got.tgz:7024.got - 2010.06.03 21:02:19.
