data_PCOD9392964
_publ_section_title
;
Structure prediction by ZEFSAII (Michael W. Deem and Ramdas Pophale) SiO2 
 PCOD9392964
Probable space group: P C C M
;
_chemical_formula_sum "Si O2"
_cell_formula_units_Z 34
_cell_length_a 12.433312
_cell_length_b 10.807372
_cell_length_c 14.925508
_cell_angle_alpha 90.000000
_cell_angle_beta 90.000000
_cell_angle_gamma 90.000000
_cell_volume 2005.561823
_symmetry_space_group_name_H-M "P C C M"
_symmetry_group_IT_number 49
_symmetry_cell_setting 'orthorhombic'
loop_
_space_group_symop_operation_xyz
x,y,z
-x,-y,z
x,-y,1/2-z
-x,y,1/2-z
-x,-y,-z
x,y,-z
-x,y,1/2+z
x,-y,1/2+z
loop_
_atom_site_type_symbol
_atom_site_label
_atom_site_fract_x
_atom_site_fract_y
_atom_site_fract_z
Si Si1 0.985897 0.192743 0.898131
Si Si2 0.377034 0.660207 0.500000
Si Si3 0.000000 0.000000 0.250000
Si Si4 0.380018 0.360063 0.500000
Si Si5 0.204662 0.371118 0.642080
Si Si6 0.204875 0.663573 0.352025
O O1 0.900633 0.302456 0.891804
O O2 0.102966 0.250064 0.874722
O O3 0.948903 0.094263 0.822559
O O4 0.987626 0.144985 0.000000
O O5 0.384977 0.510210 0.500000
O O6 0.501697 0.698108 0.500000
O O7 0.307226 0.698292 0.413196
O O8 0.308137 0.329427 0.586034
O O9 0.184969 0.517765 0.628003
O O10 0.223025 0.338313 0.745786
#
# Coordination Sequence:
#
# PCOD9392964 Si02
#       6
#     8   4   2   4   8   8
#     4  12  22  36  56  79 107 138 178 216 271 323
#     4   9  18  31  49  79 114 143 176 212 254 314
#     4  12  26  40  50  78 110 136 178 230 264 320
#     4   9  18  31  49  79 114 143 176 212 254 314
#     4  10  19  32  54  82 112 143 171 211 265 321
#     4  10  19  32  54  82 112 143 171 211 265 321
#
# _framework density 16.952855
#
# number of rings (size 3 to 8) (size 9 to 14) (size 15 to 20)
#    0.000    1.647    4.706    1.059    0.000    3.765 
#    0.000    4.706    0.000    0.000    0.000    4.941 
#    0.000    0.000    0.000    0.000    0.000    0.000 
#
# Total GULP energy -189318.738633 kJ/mol
# GULP energy per Si atom -5568.198195 kJ/mol
# Density = 1.691427 g / cm^3
# Si number density = 16.952855 Si / 1000 Ang^3
#
#
#
# Elastic Constant Matrix: (Units=GPa)
#
#
# Indices 1 2 3 4 5 6 
#
# 1 122.0255 22.4745 38.6333 0.0000 0.0000 0.0000
# 2 22.4745 37.5630 30.6790 0.0000 0.0000 0.0000
# 3 38.6333 30.6790 127.6120 0.0000 0.0000 0.0000
# 4 0.0000 0.0000 0.0000 17.4818 0.0000 0.0000
# 5 0.0000 0.0000 0.0000 0.0000 -390.1535 0.0000
# 6 0.0000 0.0000 0.0000 0.0000 0.0000 -1.6789
#
#
#
# Elastic Compliance Matrix: (Units=1/GPa)
#
#
# Indices 1 2 3 4 5 6 
#
# 1 0.009563 -0.004177 -0.001891 0.000000 0.000000 0.000000
# 2 -0.004177 0.034951 -0.007138 0.000000 0.000000 0.000000
# 3 -0.001891 -0.007138 0.010125 0.000000 0.000000 0.000000
# 4 0.000000 0.000000 0.000000 0.057202 0.000000 0.000000
# 5 0.000000 0.000000 0.000000 0.000000 -0.002563 0.000000
# 6 0.000000 0.000000 0.000000 0.000000 0.000000 -0.595611
#
#
# Mechanical properties :
#
#
# Convention : Reuss Voigt Hill
#
# Bulk Modulus (GPa) = 35.42755 52.30823 43.86789
# Shear Modulus (GPa) = -11.09848 -61.84255 -36.47051
#
# Velocity S-wave (km/s) = -2.56142 -6.04635 -4.64323
# Velocity P-wave (km/s) = 3.49216 4.22165 1.67737
#
# Compressibility (1/GPa) = 0.02822662
#
# Stress axis : x y z
#
# Youngs Moduli (GPa) = 104.56931 28.61141 98.76837
#
# Poissons Ratio (x) = 0.11952 0.18676
# Poissons Ratio (y) = 0.43683 0.70500
# Poissons Ratio (z) = 0.19772 0.20422
#
# Static dielectric constant tensor:
#      x y z
#    x 1.552250 0.000000 0.000000 
#    y 0.000000 1.582450 0.000000 
#    z 0.000000 0.000000 1.602440 
# 
# From -- ./inp_files/12559.got.cif
#   From: 2010.05.17/outbox.cif.g08.bks.cpg/sg49_7_cif.got.tgz:12559.got - 2010.06.03 21:02:19.
