data_PCOD9392486
_publ_section_title
;
Structure prediction by ZEFSAII (Michael W. Deem and Ramdas Pophale) SiO2 
 PCOD9392486
Probable space group: P C C M
;
_chemical_formula_sum "Si O2"
_cell_formula_units_Z 64
_cell_length_a 12.034307
_cell_length_b 17.654808
_cell_length_c 17.084989
_cell_angle_alpha 90.000000
_cell_angle_beta 90.000000
_cell_angle_gamma 90.000000
_cell_volume 3629.934502
_symmetry_space_group_name_H-M "P C C M"
_symmetry_group_IT_number 49
_symmetry_cell_setting 'orthorhombic'
loop_
_space_group_symop_operation_xyz
x,y,z
-x,-y,z
x,-y,1/2-z
-x,y,1/2-z
-x,-y,-z
x,y,-z
-x,y,1/2+z
x,-y,1/2+z
loop_
_atom_site_type_symbol
_atom_site_label
_atom_site_fract_x
_atom_site_fract_y
_atom_site_fract_z
Si Si1 0.113329 0.545641 0.406518
Si Si2 0.461369 0.677863 0.839047
Si Si3 0.868125 0.710576 0.835135
Si Si4 0.492782 0.911705 0.843836
Si Si5 0.686703 0.811141 0.407361
Si Si6 0.352896 0.775988 0.592119
Si Si7 0.118146 0.729165 0.148395
Si Si8 0.728469 0.591771 0.591722
O O1 0.105489 0.562729 0.500000
O O2 0.134398 0.621995 0.358745
O O3 0.215067 0.488504 0.393529
O O4 0.000000 0.500000 0.385252
O O5 0.500000 0.675552 0.750000
O O6 0.375646 0.746043 0.857463
O O7 0.567694 0.703692 0.889056
O O8 0.386205 0.606737 0.862925
O O9 0.764726 0.757090 0.868844
O O10 0.868001 0.720533 0.741646
O O11 0.988041 0.735610 0.867783
O O12 0.500000 0.904532 0.750000
O O13 0.374656 0.885304 0.878276
O O14 0.583893 0.851635 0.876827
O O15 0.500000 0.000000 0.864322
O O16 0.668737 0.799462 0.500000
O O17 0.814223 0.800021 0.385623
O O18 0.340177 0.783478 0.500000
O O19 0.177255 0.654858 0.111611
O O20 0.703793 0.599941 0.500000
#
# Coordination Sequence:
#
# PCOD9392486 Si02
#       8
#     8   8   8   8   8   8   8   8
#     4  10  20  35  54  77 105 138 180 234 287 335
#     4  10  18  32  53  74 104 140 182 227 270 326
#     4  11  22  35  52  78 110 145 184 231 284 328
#     4  10  20  36  60  88 117 147 178 217 268 325
#     4  10  19  33  57  84 110 142 182 228 270 323
#     4  11  21  33  53  80 112 145 180 224 272 326
#     4  10  20  34  53  78 106 142 186 231 274 328
#     4  10  19  34  55  76 102 138 183 232 280 332
#
# _framework density 17.631173
#
# number of rings (size 3 to 8) (size 9 to 14) (size 15 to 20)
#    0.000    1.750    1.250    7.500    0.000    3.000 
#    0.000    0.625    0.000    7.500    0.000    5.250 
#    0.000    0.000    0.000    0.000    0.000    0.000 
#
# Total GULP energy -356938.408703 kJ/mol
# GULP energy per Si atom -5577.162636 kJ/mol
# Density = 1.759104 g / cm^3
# Si number density = 17.631173 Si / 1000 Ang^3
#
#
#
# Elastic Constant Matrix: (Units=GPa)
#
#
# Indices 1 2 3 4 5 6 
#
# 1 113.8009 43.4281 33.2071 0.0000 0.0000 0.0000
# 2 43.4281 74.4772 31.7045 0.0000 0.0000 0.0000
# 3 33.2071 31.7045 60.5171 0.0000 0.0000 0.0000
# 4 0.0000 0.0000 0.0000 346.2933 0.0000 0.0000
# 5 0.0000 0.0000 0.0000 0.0000 20.0352 0.0000
# 6 0.0000 0.0000 0.0000 0.0000 0.0000 23.8315
#
#
#
# Elastic Compliance Matrix: (Units=1/GPa)
#
#
# Indices 1 2 3 4 5 6 
#
# 1 0.011923 -0.005364 -0.003733 0.000000 0.000000 0.000000
# 2 -0.005364 0.019694 -0.007374 0.000000 0.000000 0.000000
# 3 -0.003733 -0.007374 0.022436 0.000000 0.000000 0.000000
# 4 0.000000 0.000000 0.000000 0.002888 0.000000 0.000000
# 5 0.000000 0.000000 0.000000 0.000000 0.049912 0.000000
# 6 0.000000 0.000000 0.000000 0.000000 0.000000 0.041961
#
#
# Mechanical properties :
#
#
# Convention : Reuss Voigt Hill
#
# Bulk Modulus (GPa) = 47.36699 51.71940 49.54320
# Shear Modulus (GPa) = 26.48419 87.39571 56.93995
#
# Velocity S-wave (km/s) = 3.87993 7.04815 5.68904
# Velocity P-wave (km/s) = 6.85533 9.77921 8.44478
#
# Compressibility (1/GPa) = 0.02111175
#
# Stress axis : x y z
#
# Youngs Moduli (GPa) = 83.86964 50.77784 44.57171
#
# Poissons Ratio (x) = 0.27235 0.16637
# Poissons Ratio (y) = 0.44984 0.32868
# Poissons Ratio (z) = 0.31305 0.37445
#
# Static dielectric constant tensor:
#      x y z
#    x 1.637680 0.000000 0.000000 
#    y 0.000000 1.614960 0.000000 
#    z 0.000000 0.000000 1.600650 
# 
# From -- ./inp_files/13080.got.cif
#   From: 2010.05.17/outbox.cif.g08.bks.cpg/sg49_7_cif.got.tgz:13080.got - 2010.06.03 21:02:19.
