data_PCOD9392766
_publ_section_title
;
Structure prediction by ZEFSAII (Michael W. Deem and Ramdas Pophale) SiO2 
 PCOD9392766
Probable space group: P C C M
;
_chemical_formula_sum "Si O2"
_cell_formula_units_Z 58
_cell_length_a 5.170879
_cell_length_b 31.643169
_cell_length_c 14.510984
_cell_angle_alpha 90.000000
_cell_angle_beta 90.000000
_cell_angle_gamma 90.000000
_cell_volume 2374.330707
_symmetry_space_group_name_H-M "P C C M"
_symmetry_group_IT_number 49
_symmetry_cell_setting 'orthorhombic'
loop_
_space_group_symop_operation_xyz
x,y,z
-x,-y,z
x,-y,1/2-z
-x,y,1/2-z
-x,-y,-z
x,y,-z
-x,y,1/2+z
x,-y,1/2+z
loop_
_atom_site_type_symbol
_atom_site_label
_atom_site_fract_x
_atom_site_fract_y
_atom_site_fract_z
Si Si1 0.481346 0.679390 0.111781
Si Si2 0.998723 0.951120 0.137553
Si Si3 0.634429 0.194882 0.891387
Si Si4 0.966688 0.634547 0.889781
Si Si5 0.500000 0.500000 0.250000
Si Si6 0.486374 0.099019 0.639500
Si Si7 0.849720 0.241357 0.387425
Si Si8 0.826238 0.457903 0.100473
O O1 0.191772 0.667075 0.144860
O O2 0.672657 0.641637 0.139492
O O3 0.670140 0.718357 0.139872
O O4 0.456308 0.683281 0.000000
O O5 0.272080 0.933388 0.107243
O O6 0.000000 0.950836 0.250000
O O7 0.765353 0.919428 0.108936
O O8 0.000000 0.000000 0.109535
O O9 0.637916 0.144610 0.884466
O O10 0.865596 0.225587 0.855239
O O11 0.347202 0.204991 0.856563
O O12 0.629469 0.205238 0.000000
O O13 0.035866 0.585926 0.877614
O O14 0.963143 0.642097 0.000000
O O15 0.646557 0.468886 0.183240
O O16 0.500000 0.099396 0.750000
O O17 0.872929 0.244707 0.500000
O O18 0.000000 0.500000 0.094235
O O19 0.696324 0.452383 0.000000
#
# Coordination Sequence:
#
# PCOD9392766 Si02
#       8
#     8   8   8   8   2   8   8   8
#     4   9  16  29  50  80 110 138 181 231 277 332
#     4   9  17  30  49  71  95 122 163 216 260 304
#     4  10  19  31  48  73 104 136 169 213 261 312
#     4   9  18  31  53  83 113 145 184 235 290 335
#     4  12  24  40  64  92 120 168 212 248 314 366
#     4  10  19  31  49  73  95 126 168 206 258 314
#     4   9  17  29  48  75 105 136 175 218 264 317
#     4  10  23  41  62  91 126 162 207 259 312 372
#
# _framework density 24.427938999999999
#
# number of rings (size 3 to 8) (size 9 to 14) (size 15 to 20)
#    0.000    2.483    0.000    2.483    1.931    4.966 
#    0.000    0.000    0.000    2.483   10.759    0.000 
#    0.000    0.000    0.000    0.000    0.000    0.000 
#
# Total GULP energy -323299.210185 kJ/mol
# GULP energy per Si atom -5574.124314 kJ/mol
# Density = 2.437234 g / cm^3
# Si number density = 24.427939 Si / 1000 Ang^3
#
#
#
# Elastic Constant Matrix: (Units=GPa)
#
#
# Indices 1 2 3 4 5 6 
#
# 1 109.2326 -3.7298 -7.0168 0.0000 0.0000 0.0000
# 2 -3.7298 74.1206 -19.9292 0.0000 0.0000 0.0000
# 3 -7.0168 -19.9292 65.2372 0.0000 0.0000 0.0000
# 4 0.0000 0.0000 0.0000 -20.0574 0.0000 0.0000
# 5 0.0000 0.0000 0.0000 0.0000 14.2661 0.0000
# 6 0.0000 0.0000 0.0000 0.0000 0.0000 4.7658
#
#
#
# Elastic Compliance Matrix: (Units=1/GPa)
#
#
# Indices 1 2 3 4 5 6 
#
# 1 0.009262 0.000800 0.001240 0.000000 0.000000 0.000000
# 2 0.000800 0.014768 0.004597 0.000000 0.000000 0.000000
# 3 0.001240 0.004597 0.016867 0.000000 0.000000 0.000000
# 4 0.000000 0.000000 0.000000 -0.049857 0.000000 0.000000
# 5 0.000000 0.000000 0.000000 0.000000 0.070096 0.000000
# 6 0.000000 0.000000 0.000000 0.000000 0.000000 0.209827
#
#
# Mechanical properties :
#
#
# Convention : Reuss Voigt Hill
#
# Bulk Modulus (GPa) = 18.46003 20.80431 19.63217
# Shear Modulus (GPa) = 18.13274 18.41265 18.27270
#
# Velocity S-wave (km/s) = 2.72747 2.74844 2.73797
# Velocity P-wave (km/s) = 4.18235 4.31358 4.24847
#
# Compressibility (1/GPa) = 0.05417110
#
# Stress axis : x y z
#
# Youngs Moduli (GPa) = 107.97080 67.71445 59.28894
#
# Poissons Ratio (x) = -0.05414 -0.07354
# Poissons Ratio (y) = -0.08633 -0.27258
# Poissons Ratio (z) = -0.13393 -0.31131
#
# Static dielectric constant tensor:
#      x y z
#    x 1.951540 0.000000 0.000000 
#    y 0.000000 1.743990 0.000000 
#    z 0.000000 0.000000 2.028790 
# 
# From -- ./inp_files/15386.got.cif
#   From: 2010.05.17/outbox.cif.g08.bks.cpg/sg49_8_cif.got.tgz:15386.got - 2010.06.03 21:02:19.
