data_PCOD9392694
_publ_section_title
;
Structure prediction by ZEFSAII (Michael W. Deem and Ramdas Pophale) SiO2 
 PCOD9392694
Probable space group: P C C M
;
_chemical_formula_sum "Si O2"
_cell_formula_units_Z 56
_cell_length_a 24.654364
_cell_length_b 14.236976
_cell_length_c 9.694605
_cell_angle_alpha 90.000000
_cell_angle_beta 90.000000
_cell_angle_gamma 90.000000
_cell_volume 3402.841145
_symmetry_space_group_name_H-M "P C C M"
_symmetry_group_IT_number 49
_symmetry_cell_setting 'orthorhombic'
loop_
_space_group_symop_operation_xyz
x,y,z
-x,-y,z
x,-y,1/2-z
-x,y,1/2-z
-x,-y,-z
x,y,-z
-x,y,1/2+z
x,-y,1/2+z
loop_
_atom_site_type_symbol
_atom_site_label
_atom_site_fract_x
_atom_site_fract_y
_atom_site_fract_z
Si Si1 0.247588 0.298790 0.165205
Si Si2 0.049113 0.724024 0.163034
Si Si3 0.567722 0.382106 0.000000
Si Si4 0.844560 0.406087 0.837560
Si Si5 0.555027 0.609305 0.000000
Si Si6 0.916127 0.093227 0.664008
Si Si7 0.785057 0.911407 0.841351
Si Si8 0.637162 0.612996 0.761047
O O1 0.204233 0.353244 0.259268
O O2 0.241310 0.188125 0.195735
O O3 0.306760 0.337910 0.201813
O O4 0.237164 0.311861 0.000000
O O5 0.102401 0.659574 0.166847
O O6 0.061528 0.818690 0.249772
O O7 0.000000 0.678501 0.250000
O O8 0.036350 0.741051 0.000000
O O9 0.557185 0.495074 0.000000
O O10 0.505380 0.349269 0.000000
O O11 0.606193 0.356708 0.874952
O O12 0.854656 0.500000 0.750000
O O13 0.832070 0.424654 0.000000
O O14 0.591378 0.635471 0.871841
O O15 0.931461 0.091111 0.500000
O O16 0.850456 0.099861 0.668349
O O17 0.931599 0.000000 0.750000
O O18 0.769019 0.000000 0.750000
O O19 0.772126 0.931766 0.000000
O O20 0.646708 0.500000 0.750000
#
# Coordination Sequence:
#
# PCOD9392694 Si02
#       8
#     8   8   4   8   4   8   8   8
#     4  11  21  36  56  80 114 146 180 223 277 328
#     4  11  24  41  60  84 109 141 183 228 272 327
#     4   9  18  28  48  70 105 145 196 222 272 311
#     4  11  25  41  60  82 108 144 184 225 274 323
#     4   9  16  32  46  68 103 153 186 232 264 315
#     4  10  19  35  58  84 112 142 176 220 274 335
#     4   9  19  34  55  80 107 142 175 216 271 328
#     4  10  19  30  47  75 109 148 187 227 267 314
#
# _framework density 16.456835999999999
#
# number of rings (size 3 to 8) (size 9 to 14) (size 15 to 20)
#    0.000    1.857    2.143    2.143    1.000    5.143 
#    0.000    2.857    0.000    0.000    0.000    0.000 
#    0.000    3.429    0.000    0.000    0.000    0.000 
#
# Total GULP energy -312140.139935 kJ/mol
# GULP energy per Si atom -5573.931070 kJ/mol
# Density = 1.641938 g / cm^3
# Si number density = 16.456836 Si / 1000 Ang^3
#
#
#
# Elastic Constant Matrix: (Units=GPa)
#
#
# Indices 1 2 3 4 5 6 
#
# 1 94.6344 37.5478 58.1297 0.0000 0.0000 0.0000
# 2 37.5478 81.2855 59.0463 0.0000 0.0000 0.0000
# 3 58.1297 59.0463 162.8058 0.0000 0.0000 0.0000
# 4 0.0000 0.0000 0.0000 26.1591 0.0000 0.0000
# 5 0.0000 0.0000 0.0000 0.0000 28.6671 0.0000
# 6 0.0000 0.0000 0.0000 0.0000 0.0000 24.3641
#
#
#
# Elastic Compliance Matrix: (Units=1/GPa)
#
#
# Indices 1 2 3 4 5 6 
#
# 1 0.014419 -0.003966 -0.003710 0.000000 0.000000 0.000000
# 2 -0.003966 0.017793 -0.005037 0.000000 0.000000 0.000000
# 3 -0.003710 -0.005037 0.009294 0.000000 0.000000 0.000000
# 4 0.000000 0.000000 0.000000 0.038228 0.000000 0.000000
# 5 0.000000 0.000000 0.000000 0.000000 0.034883 0.000000
# 6 0.000000 0.000000 0.000000 0.000000 0.000000 0.041044
#
#
# Mechanical properties :
#
#
# Convention : Reuss Voigt Hill
#
# Bulk Modulus (GPa) = 62.18758 72.01927 67.10343
# Shear Modulus (GPa) = 26.81717 28.10487 27.46102
#
# Velocity S-wave (km/s) = 4.04114 4.13703 4.08937
# Velocity P-wave (km/s) = 7.72300 8.16563 7.94740
#
# Compressibility (1/GPa) = 0.01608038
#
# Stress axis : x y z
#
# Youngs Moduli (GPa) = 69.35104 56.20104 107.59678
#
# Poissons Ratio (x) = 0.22287 0.39921
# Poissons Ratio (y) = 0.27502 0.54200
# Poissons Ratio (z) = 0.25731 0.28310
#
# Static dielectric constant tensor:
#      x y z
#    x 1.547070 0.000000 0.000000 
#    y 0.000000 1.543090 0.000000 
#    z 0.000000 0.000000 1.534120 
# 
# From -- ./inp_files/5844.got.cif
#   From: 2010.05.17/outbox.cif.g08.bks.cpg/sg49_3_cif.got.tgz:5844.got - 2010.06.03 21:02:19.
