data_PCOD9392444
_publ_section_title
;
Structure prediction by ZEFSAII (Michael W. Deem and Ramdas Pophale) SiO2 
 PCOD9392444
Probable space group: P C C M
;
_chemical_formula_sum "Si O2"
_cell_formula_units_Z 64
_cell_length_a 20.440839
_cell_length_b 20.038519
_cell_length_c 9.200213
_cell_angle_alpha 90.000000
_cell_angle_beta 90.000000
_cell_angle_gamma 90.000000
_cell_volume 3768.445340
_symmetry_space_group_name_H-M "P C C M"
_symmetry_group_IT_number 49
_symmetry_cell_setting 'orthorhombic'
loop_
_space_group_symop_operation_xyz
x,y,z
-x,-y,z
x,-y,1/2-z
-x,y,1/2-z
-x,-y,-z
x,y,-z
-x,y,1/2+z
x,-y,1/2+z
loop_
_atom_site_type_symbol
_atom_site_label
_atom_site_fract_x
_atom_site_fract_y
_atom_site_fract_z
Si Si1 0.803804 0.654825 0.673513
Si Si2 0.244233 0.933882 0.665444
Si Si3 0.691423 0.429321 0.672077
Si Si4 0.563084 0.339276 0.328164
Si Si5 0.759228 0.800479 0.330506
Si Si6 0.931272 0.430286 0.825894
Si Si7 0.398913 0.203372 0.670403
Si Si8 0.403794 0.067430 0.832369
O O1 0.789796 0.650844 0.500000
O O2 0.752186 0.609757 0.758736
O O3 0.793055 0.731758 0.716902
O O4 0.875779 0.625107 0.697212
O O5 0.222619 0.936800 0.500000
O O6 0.222392 0.865601 0.740273
O O7 0.324002 0.933546 0.666025
O O8 0.223466 0.000000 0.750000
O O9 0.684034 0.500000 0.750000
O O10 0.701251 0.438625 0.500000
O O11 0.626936 0.384400 0.693890
O O12 0.500000 0.369941 0.250000
O O13 0.552056 0.331722 0.500000
O O14 0.574658 0.267397 0.254784
O O15 0.774114 0.811827 0.500000
O O16 0.680384 0.792715 0.319463
O O17 0.910375 0.500000 0.750000
O O18 0.000000 0.412658 0.750000
O O19 0.939378 0.439863 0.000000
O O20 0.416546 0.204563 0.500000
O O21 0.421025 0.134459 0.745161
O O22 0.424299 0.000000 0.750000
O O23 0.425978 0.068875 0.000000
#
# Coordination Sequence:
#
# PCOD9392444 Si02
#       8
#     8   8   8   8   8   8   8   8
#     4  10  20  35  55  80 109 141 175 214 259 308
#     4   9  16  25  39  62  95 133 170 208 250 298
#     4  11  24  39  58  81 105 132 167 211 260 313
#     4  11  24  40  57  77  99 129 168 212 261 314
#     4   9  17  29  47  71 100 133 167 207 256 304
#     4  10  20  34  53  76 106 142 181 217 256 303
#     4  10  18  31  52  73  98 131 165 207 258 308
#     4   9  16  26  42  67  98 129 166 207 249 301
#
# _framework density 16.983131
#
# number of rings (size 3 to 8) (size 9 to 14) (size 15 to 20)
#    0.000    2.125    1.250    3.000    0.000    7.750 
#    0.000    1.250    0.000    0.375    0.000    2.625 
#    0.000    0.500    0.000    5.750    0.000    2.000 
#
# Total GULP energy -357365.417403 kJ/mol
# GULP energy per Si atom -5583.834647 kJ/mol
# Density = 1.694448 g / cm^3
# Si number density = 16.983131 Si / 1000 Ang^3
#
#
#
# Elastic Constant Matrix: (Units=GPa)
#
#
# Indices 1 2 3 4 5 6 
#
# 1 59.1423 53.0842 49.6967 0.0000 0.0000 0.0000
# 2 53.0842 154.9431 92.7779 0.0000 0.0000 0.0000
# 3 49.6967 92.7779 122.7940 0.0000 0.0000 0.0000
# 4 0.0000 0.0000 0.0000 30.7297 0.0000 0.0000
# 5 0.0000 0.0000 0.0000 0.0000 13.4231 0.0000
# 6 0.0000 0.0000 0.0000 0.0000 0.0000 53.2584
#
#
#
# Elastic Compliance Matrix: (Units=1/GPa)
#
#
# Indices 1 2 3 4 5 6 
#
# 1 0.027636 -0.005060 -0.007361 0.000000 0.000000 0.000000
# 2 -0.005060 0.012713 -0.007557 0.000000 0.000000 0.000000
# 3 -0.007361 -0.007557 0.016833 0.000000 0.000000 0.000000
# 4 0.000000 0.000000 0.000000 0.032542 0.000000 0.000000
# 5 0.000000 0.000000 0.000000 0.000000 0.074498 0.000000
# 6 0.000000 0.000000 0.000000 0.000000 0.000000 0.018776
#
#
# Mechanical properties :
#
#
# Convention : Reuss Voigt Hill
#
# Bulk Modulus (GPa) = 58.05902 80.88857 69.47380
# Shear Modulus (GPa) = 21.86290 28.90362 25.38326
#
# Velocity S-wave (km/s) = 3.59183 4.12989 3.87022
# Velocity P-wave (km/s) = 7.17371 8.39485 7.80819
#
# Compressibility (1/GPa) = 0.01722385
#
# Stress axis : x y z
#
# Youngs Moduli (GPa) = 36.18459 78.66016 59.40714
#
# Poissons Ratio (x) = 0.39805 0.43732
# Poissons Ratio (y) = 0.18311 0.44896
# Poissons Ratio (z) = 0.26637 0.59446
#
# Static dielectric constant tensor:
#      x y z
#    x 1.571670 0.000000 0.000000 
#    y 0.000000 1.558670 0.000000 
#    z 0.000000 0.000000 1.568420 
# 
# From -- ./inp_files/5331.got.cif
#   From: 2010.05.17/outbox.cif.g08.bks.cpg/sg49_3_cif.got.tgz:5331.got - 2010.06.03 21:02:19.
