data_PCOD9392245
_publ_section_title
;
Structure prediction by ZEFSAII (Michael W. Deem and Ramdas Pophale) SiO2 
 PCOD9392245
Probable space group: P C C M
;
_chemical_formula_sum "Si O2"
_cell_formula_units_Z 56
_cell_length_a 14.177858
_cell_length_b 23.778068
_cell_length_c 8.834974
_cell_angle_alpha 90.000000
_cell_angle_beta 90.000000
_cell_angle_gamma 90.000000
_cell_volume 2978.464738
_symmetry_space_group_name_H-M "P C C M"
_symmetry_group_IT_number 49
_symmetry_cell_setting 'orthorhombic'
loop_
_space_group_symop_operation_xyz
x,y,z
-x,-y,z
x,-y,1/2-z
-x,y,1/2-z
-x,-y,-z
x,y,-z
-x,y,1/2+z
x,-y,1/2+z
loop_
_atom_site_type_symbol
_atom_site_label
_atom_site_fract_x
_atom_site_fract_y
_atom_site_fract_z
Si Si1 0.905293 0.936596 0.318575
Si Si2 0.288170 0.938611 0.680092
Si Si3 0.276908 0.266968 0.680018
Si Si4 0.603808 0.379390 0.180539
Si Si5 0.103335 0.670781 0.318947
Si Si6 0.220258 0.559377 0.319016
Si Si7 0.399062 0.829115 0.320884
O O1 0.909336 0.938258 0.500000
O O2 0.806190 0.913758 0.258397
O O3 0.000000 0.909555 0.250000
O O4 0.903852 0.000000 0.250000
O O5 0.271373 0.944623 0.500000
O O6 0.370694 0.893980 0.705121
O O7 0.307263 0.000000 0.750000
O O8 0.266054 0.262448 0.500000
O O9 0.350594 0.317965 0.711323
O O10 0.178043 0.284602 0.753821
O O11 0.321007 0.210934 0.747993
O O12 0.500000 0.383800 0.250000
O O13 0.678124 0.422851 0.252306
O O14 0.599856 0.387209 0.000000
O O15 0.099566 0.675242 0.500000
O O16 0.147840 0.609609 0.279803
O O17 0.000000 0.677087 0.250000
O O18 0.190831 0.500000 0.250000
O O19 0.226388 0.555782 0.500000
O O20 0.500000 0.816389 0.250000
O O21 0.401617 0.819246 0.500000
#
# Coordination Sequence:
#
# PCOD9392245 Si02
#       7
#     8   8   8   8   8   8   8
#     4  10  17  28  49  75 104 138 175 216 260 311
#     4  10  21  37  56  81 113 149 188 231 277 330
#     4  10  21  38  61  86 113 144 183 232 284 338
#     4  10  20  34  54  80 109 144 186 233 284 338
#     4  10  21  38  61  87 117 152 190 233 283 336
#     4  10  21  36  54  79 113 152 193 238 282 331
#     4  11  24  40  60  85 114 147 186 231 280 336
#
# _framework density 18.801632000000001
#
# number of rings (size 3 to 8) (size 9 to 14) (size 15 to 20)
#    0.000    1.857    0.000    5.571    0.000    7.714 
#    0.000    5.000    0.000    3.429    0.000    0.000 
#    0.000    0.000    0.000    0.000    0.000    0.000 
#
# Total GULP energy -312768.027208 kJ/mol
# GULP energy per Si atom -5585.143343 kJ/mol
# Density = 1.875884 g / cm^3
# Si number density = 18.801632 Si / 1000 Ang^3
#
#
#
# Elastic Constant Matrix: (Units=GPa)
#
#
# Indices 1 2 3 4 5 6 
#
# 1 148.2494 51.2891 59.1793 0.0000 0.0000 0.0000
# 2 51.2891 87.0977 50.6324 0.0000 0.0000 0.0000
# 3 59.1793 50.6324 91.4743 0.0000 0.0000 0.0000
# 4 0.0000 0.0000 0.0000 17.5593 0.0000 0.0000
# 5 0.0000 0.0000 0.0000 0.0000 -107.2742 0.0000
# 6 0.0000 0.0000 0.0000 0.0000 0.0000 13.5444
#
#
#
# Elastic Compliance Matrix: (Units=1/GPa)
#
#
# Indices 1 2 3 4 5 6 
#
# 1 0.009602 -0.003012 -0.004544 0.000000 0.000000 0.000000
# 2 -0.003012 0.017874 -0.007944 0.000000 0.000000 0.000000
# 3 -0.004544 -0.007944 0.018269 0.000000 0.000000 0.000000
# 4 0.000000 0.000000 0.000000 0.056950 0.000000 0.000000
# 5 0.000000 0.000000 0.000000 0.000000 -0.009322 0.000000
# 6 0.000000 0.000000 0.000000 0.000000 0.000000 0.073831
#
#
# Mechanical properties :
#
#
# Convention : Reuss Voigt Hill
#
# Bulk Modulus (GPa) = 67.83233 72.11364 69.97299
# Shear Modulus (GPa) = 24.61597 -4.18606 10.21496
#
# Velocity S-wave (km/s) = 3.62228 -1.49374 2.33341
# Velocity P-wave (km/s) = 7.32467 5.95510 6.67510
#
# Compressibility (1/GPa) = 0.01474223
#
# Stress axis : x y z
#
# Youngs Moduli (GPa) = 104.14919 55.94860 54.73630
#
# Poissons Ratio (x) = 0.16853 0.24874
# Poissons Ratio (y) = 0.31373 0.43485
# Poissons Ratio (z) = 0.47330 0.44448
#
# Static dielectric constant tensor:
#      x y z
#    x 1.655330 0.000000 0.000000 
#    y 0.000000 1.655850 0.000000 
#    z 0.000000 0.000000 1.623920 
# 
# From -- ./inp_files/4082.got.cif
#   From: 2010.05.17/outbox.cif.g08.bks.cpg/sg49_3_cif.got.tgz:4082.got - 2010.06.03 21:02:19.
