data_PCOD9392877
_publ_section_title
;
Structure prediction by ZEFSAII (Michael W. Deem and Ramdas Pophale) SiO2 
 PCOD9392877
Probable space group: P C C M
;
_chemical_formula_sum "Si O2"
_cell_formula_units_Z 56
_cell_length_a 25.058791
_cell_length_b 14.193673
_cell_length_c 9.172738
_cell_angle_alpha 90.000000
_cell_angle_beta 90.000000
_cell_angle_gamma 90.000000
_cell_volume 3262.525377
_symmetry_space_group_name_H-M "P C C M"
_symmetry_group_IT_number 49
_symmetry_cell_setting 'orthorhombic'
loop_
_space_group_symop_operation_xyz
x,y,z
-x,-y,z
x,-y,1/2-z
-x,y,1/2-z
-x,-y,-z
x,y,-z
-x,y,1/2+z
x,-y,1/2+z
loop_
_atom_site_type_symbol
_atom_site_label
_atom_site_fract_x
_atom_site_fract_y
_atom_site_fract_z
Si Si1 0.433109 0.123087 0.500000
Si Si2 0.904390 0.401450 0.321324
Si Si3 0.212938 0.404363 0.324212
Si Si4 0.054353 0.212699 0.322482
Si Si5 0.639280 0.887514 0.236581
Si Si6 0.255188 0.770476 0.667827
Si Si7 0.849697 0.099751 0.673252
Si Si8 0.552133 0.104280 0.500000
O O1 0.392409 0.146912 0.374713
O O2 0.494737 0.154436 0.500000
O O3 0.446162 0.010391 0.500000
O O4 0.923262 0.500000 0.250000
O O5 0.905169 0.401838 0.500000
O O6 0.844084 0.389643 0.258231
O O7 0.936562 0.315210 0.251297
O O8 0.234309 0.500000 0.250000
O O9 0.205870 0.412676 0.500000
O O10 0.248508 0.315470 0.279337
O O11 0.052658 0.216737 0.500000
O O12 0.103271 0.150436 0.262927
O O13 0.000000 0.174776 0.250000
O O14 0.692429 0.832302 0.197203
O O15 0.651098 0.000000 0.250000
O O16 0.590480 0.871356 0.129493
O O17 0.256179 0.735710 0.500000
O O18 0.203285 0.836741 0.682749
O O19 0.862913 0.090406 0.500000
O O20 0.839822 0.000000 0.750000
#
# Coordination Sequence:
#
# PCOD9392877 Si02
#       8
#     4   8   8   8   8   8   8   4
#     4   9  18  28  50  74 109 153 204 244 274 331
#     4  11  21  38  62  90 120 150 185 228 285 348
#     4  11  22  37  60  86 114 149 187 229 284 346
#     4  12  25  43  64  88 115 148 193 240 288 345
#     4  10  19  32  49  78 115 156 200 238 282 329
#     4  11  22  37  57  82 119 154 190 236 288 341
#     4  11  24  42  62  85 114 152 194 238 290 342
#     4   9  16  32  48  72 109 159 198 238 286 323
#
# _framework density 17.164615999999999
#
# number of rings (size 3 to 8) (size 9 to 14) (size 15 to 20)
#    0.000    1.286    2.143    6.000    1.000    2.857 
#    0.000    2.857    0.000    0.000    0.000    0.000 
#    0.000    3.429    0.000    0.000    0.000    0.000 
#
# Total GULP energy -311885.171155 kJ/mol
# GULP energy per Si atom -5569.378056 kJ/mol
# Density = 1.712555 g / cm^3
# Si number density = 17.164616 Si / 1000 Ang^3
#
#
#
# Elastic Constant Matrix: (Units=GPa)
#
#
# Indices 1 2 3 4 5 6 
#
# 1 75.5560 13.9476 23.2000 0.0000 0.0000 0.0000
# 2 13.9476 64.4854 30.5967 0.0000 0.0000 0.0000
# 3 23.2000 30.5967 169.0123 0.0000 0.0000 0.0000
# 4 0.0000 0.0000 0.0000 26.8557 0.0000 0.0000
# 5 0.0000 0.0000 0.0000 0.0000 27.6098 0.0000
# 6 0.0000 0.0000 0.0000 0.0000 0.0000 -5.7236
#
#
#
# Elastic Compliance Matrix: (Units=1/GPa)
#
#
# Indices 1 2 3 4 5 6 
#
# 1 0.014132 -0.002337 -0.001517 0.000000 0.000000 0.000000
# 2 -0.002337 0.017351 -0.002820 0.000000 0.000000 0.000000
# 3 -0.001517 -0.002820 0.006636 0.000000 0.000000 0.000000
# 4 0.000000 0.000000 0.000000 0.037236 0.000000 0.000000
# 5 0.000000 0.000000 0.000000 0.000000 0.036219 0.000000
# 6 0.000000 0.000000 0.000000 0.000000 0.000000 -0.174716
#
#
# Mechanical properties :
#
#
# Convention : Reuss Voigt Hill
#
# Bulk Modulus (GPa) = 40.37043 49.39358 44.88200
# Shear Modulus (GPa) = -120.37607 25.83568 -47.27019
#
# Velocity S-wave (km/s) = -8.38347 3.88386 -5.25349
# Velocity P-wave (km/s) = 8.37493 6.99653 3.25485
#
# Compressibility (1/GPa) = 0.02477061
#
# Stress axis : x y z
#
# Youngs Moduli (GPa) = 70.75942 57.63354 150.70437
#
# Poissons Ratio (x) = 0.13469 0.22860
# Poissons Ratio (y) = 0.16537 0.42503
# Poissons Ratio (z) = 0.10733 0.16254
#
# Static dielectric constant tensor:
#      x y z
#    x 1.584260 0.000000 0.000000 
#    y 0.000000 1.601230 0.000000 
#    z 0.000000 0.000000 1.561710 
# 
# From -- ./inp_files/5850.got.cif
#   From: 2010.05.17/outbox.cif.g08.bks.cpg/sg49_3_cif.got.tgz:5850.got - 2010.06.03 21:02:19.
