data_PCOD9393300
_publ_section_title
;
Structure prediction by ZEFSAII (Michael W. Deem and Ramdas Pophale) SiO2 
 PCOD9393300
Probable space group: P C C M
;
_chemical_formula_sum "Si O2"
_cell_formula_units_Z 40
_cell_length_a 7.653019
_cell_length_b 8.735649
_cell_length_c 28.052140
_cell_angle_alpha 90.000000
_cell_angle_beta 90.000000
_cell_angle_gamma 90.000000
_cell_volume 1875.400230
_symmetry_space_group_name_H-M "P C C M"
_symmetry_group_IT_number 49
_symmetry_cell_setting 'orthorhombic'
loop_
_space_group_symop_operation_xyz
x,y,z
-x,-y,z
x,-y,1/2-z
-x,y,1/2-z
-x,-y,-z
x,y,-z
-x,y,1/2+z
x,-y,1/2+z
loop_
_atom_site_type_symbol
_atom_site_label
_atom_site_fract_x
_atom_site_fract_y
_atom_site_fract_z
Si Si1 0.463832 0.820472 0.102318
Si Si2 0.457967 0.812744 0.000000
Si Si3 0.948486 0.319978 0.000000
Si Si4 0.455895 0.321360 0.698483
Si Si5 0.044239 0.679693 0.802769
Si Si6 0.042885 0.177871 0.400778
O O1 0.536341 0.746514 0.150417
O O2 0.253505 0.801503 0.100585
O O3 0.500000 0.000000 0.104893
O O4 0.531466 0.760100 0.051163
O O5 0.500000 0.000000 0.000000
O O6 0.255377 0.747382 0.000000
O O7 0.020492 0.254720 0.050134
O O8 0.000000 0.500000 0.000000
O O9 0.500000 0.500000 0.699936
O O10 0.500000 0.251661 0.750000
O O11 0.250481 0.305719 0.694148
O O12 0.970421 0.755768 0.850812
O O13 0.000000 0.500000 0.803294
O O14 0.000000 0.741837 0.750000
O O15 0.000000 0.000000 0.403159
#
# Coordination Sequence:
#
# PCOD9393300 Si02
#       6
#     8   4   4   8   8   8
#     4   9  19  35  55  76 103 140 178 219 268 326
#     4   8  16  35  57  77 108 145 178 222 280 336
#     4  10  19  35  58  85 114 145 187 236 281 338
#     4  10  20  34  52  76 103 136 178 222 267 321
#     4  10  20  35  54  77 107 144 181 228 282 332
#     4  10  21  35  55  82 111 144 183 227 281 338
#
# _framework density 21.328779000000001
#
# number of rings (size 3 to 8) (size 9 to 14) (size 15 to 20)
#    0.000    2.400    0.000    3.300    0.000    4.000 
#    0.000    4.500    0.000    0.000    0.000    0.000 
#    0.000    0.000    0.000    0.000    0.000    0.000 
#
# Total GULP energy -222727.753735 kJ/mol
# GULP energy per Si atom -5568.193843 kJ/mol
# Density = 2.128023 g / cm^3
# Si number density = 21.328779 Si / 1000 Ang^3
#
#
#
# Elastic Constant Matrix: (Units=GPa)
#
#
# Indices 1 2 3 4 5 6 
#
# 1 58.1223 0.6499 22.2486 0.0000 0.0000 0.0000
# 2 0.6499 78.2321 90.6262 0.0000 0.0000 0.0000
# 3 22.2486 90.6262 304.6738 0.0000 0.0000 0.0000
# 4 0.0000 0.0000 0.0000 57.5381 0.0000 0.0000
# 5 0.0000 0.0000 0.0000 0.0000 14.2249 0.0000
# 6 0.0000 0.0000 0.0000 0.0000 0.0000 19.9651
#
#
#
# Elastic Compliance Matrix: (Units=1/GPa)
#
#
# Indices 1 2 3 4 5 6 
#
# 1 0.017920 0.002086 -0.001929 0.000000 0.000000 0.000000
# 2 0.002086 0.019745 -0.006026 0.000000 0.000000 0.000000
# 3 -0.001929 -0.006026 0.005215 0.000000 0.000000 0.000000
# 4 0.000000 0.000000 0.000000 0.017380 0.000000 0.000000
# 5 0.000000 0.000000 0.000000 0.000000 0.070299 0.000000
# 6 0.000000 0.000000 0.000000 0.000000 0.000000 0.050087
#
#
# Mechanical properties :
#
#
# Convention : Reuss Voigt Hill
#
# Bulk Modulus (GPa) = 32.10972 74.23085 53.17029
# Shear Modulus (GPa) = 24.65892 40.17918 32.41905
#
# Velocity S-wave (km/s) = 3.40389 4.34499 3.90291
# Velocity P-wave (km/s) = 5.52593 7.74923 6.73003
#
# Compressibility (1/GPa) = 0.03114321
#
# Stress axis : x y z
#
# Youngs Moduli (GPa) = 55.80295 50.64464 191.73934
#
# Poissons Ratio (x) = -0.10563 0.36987
# Poissons Ratio (y) = -0.11639 1.15535
# Poissons Ratio (z) = 0.10765 0.30517
#
# Static dielectric constant tensor:
#      x y z
#    x 1.474950 0.000000 0.000000 
#    y 0.000000 2.411230 0.000000 
#    z 0.000000 0.000000 1.881200 
# 
# From -- ./inp_files/24400.got.cif
#   From: 2010.05.17/outbox.cif.g08.bks.cpg/sg49_13_cif.got.tgz:24400.got - 2010.06.03 21:02:19.
