data_PCOD9393387
_publ_section_title
;
Structure prediction by ZEFSAII (Michael W. Deem and Ramdas Pophale) SiO2 
 PCOD9393387
Probable space group: P C C M
;
_chemical_formula_sum "Si O2"
_cell_formula_units_Z 58
_cell_length_a 5.336651
_cell_length_b 32.419336
_cell_length_c 17.249771
_cell_angle_alpha 90.000000
_cell_angle_beta 90.000000
_cell_angle_gamma 90.000000
_cell_volume 2984.394643
_symmetry_space_group_name_H-M "P C C M"
_symmetry_group_IT_number 49
_symmetry_cell_setting 'orthorhombic'
loop_
_space_group_symop_operation_xyz
x,y,z
-x,-y,z
x,-y,1/2-z
-x,y,1/2-z
-x,-y,-z
x,y,-z
-x,y,1/2+z
x,-y,1/2+z
loop_
_atom_site_type_symbol
_atom_site_label
_atom_site_fract_x
_atom_site_fract_y
_atom_site_fract_z
Si Si1 0.001915 0.908304 0.406602
Si Si2 0.500983 0.048475 0.156956
Si Si3 0.504743 0.327991 0.842386
Si Si4 0.040059 0.187020 0.094227
Si Si5 0.459625 0.235574 0.594146
Si Si6 0.003714 0.369724 0.908498
Si Si7 0.500000 0.500000 0.250000
Si Si8 0.108146 0.456398 0.836963
O O1 0.996927 0.909499 0.500000
O O2 0.250188 0.931077 0.376711
O O3 0.017847 0.860454 0.381248
O O4 0.750017 0.929613 0.375336
O O5 0.500000 0.052004 0.250000
O O6 0.500000 0.000000 0.136707
O O7 0.500000 0.329402 0.750000
O O8 0.531883 0.281223 0.871816
O O9 0.243429 0.345829 0.874349
O O10 0.744022 0.353842 0.872144
O O11 0.296735 0.209248 0.118567
O O12 0.795299 0.212597 0.118102
O O13 0.042451 0.186770 0.000000
O O14 0.461673 0.238286 0.500000
O O15 0.050515 0.417646 0.888724
O O16 0.992871 0.362972 0.000000
O O17 0.612561 0.532337 0.187581
O O18 0.000000 0.500000 0.866464
O O19 0.000000 0.449630 0.750000
#
# Coordination Sequence:
#
# PCOD9393387 Si02
#       8
#     8   8   8   8   8   8   2   8
#     4  11  22  39  64  94 121 155 211 260 302 364
#     4  11  24  41  59  84 125 170 206 250 315 374
#     4  12  26  44  65  93 127 166 208 257 309 370
#     4   9  19  35  60  89 120 156 194 248 311 367
#     4  10  19  37  62  87 119 159 200 244 304 370
#     4  12  26  43  65  96 128 165 210 260 309 363
#     4   8  18  36  62  90 124 164 212 244 310 376
#     4   9  20  37  62  92 123 167 206 250 309 371
#
# _framework density 19.434428
#
# number of rings (size 3 to 8) (size 9 to 14) (size 15 to 20)
#    0.000    1.655    0.000    5.379    4.828    6.345 
#    0.000    4.483    0.000    0.000    0.000    0.000 
#    0.000    0.000    0.000    0.000    0.000    0.000 
#
# Total GULP energy -323836.066919 kJ/mol
# GULP energy per Si atom -5583.380464 kJ/mol
# Density = 1.939019 g / cm^3
# Si number density = 19.434428 Si / 1000 Ang^3
#
#
#
# Elastic Constant Matrix: (Units=GPa)
#
#
# Indices 1 2 3 4 5 6 
#
# 1 112.9911 29.2990 28.0614 0.0000 0.0000 0.0000
# 2 29.2990 100.6828 33.1965 0.0000 0.0000 0.0000
# 3 28.0614 33.1965 76.6746 0.0000 0.0000 0.0000
# 4 0.0000 0.0000 0.0000 46.8087 0.0000 0.0000
# 5 0.0000 0.0000 0.0000 0.0000 28.8730 0.0000
# 6 0.0000 0.0000 0.0000 0.0000 0.0000 50.0684
#
#
#
# Elastic Compliance Matrix: (Units=1/GPa)
#
#
# Indices 1 2 3 4 5 6 
#
# 1 0.010069 -0.002001 -0.002819 0.000000 0.000000 0.000000
# 2 -0.002001 0.011984 -0.004456 0.000000 0.000000 0.000000
# 3 -0.002819 -0.004456 0.016003 0.000000 0.000000 0.000000
# 4 0.000000 0.000000 0.000000 0.021364 0.000000 0.000000
# 5 0.000000 0.000000 0.000000 0.000000 0.034634 0.000000
# 6 0.000000 0.000000 0.000000 0.000000 0.000000 0.019973
#
#
# Mechanical properties :
#
#
# Convention : Reuss Voigt Hill
#
# Bulk Modulus (GPa) = 51.27055 52.38471 51.82763
# Shear Modulus (GPa) = 35.95066 38.46945 37.21005
#
# Velocity S-wave (km/s) = 4.30565 4.45393 4.38041
# Velocity P-wave (km/s) = 7.15239 7.31184 7.23256
#
# Compressibility (1/GPa) = 0.01950437
#
# Stress axis : x y z
#
# Youngs Moduli (GPa) = 99.31349 83.44706 62.48796
#
# Poissons Ratio (x) = 0.16695 0.17615
# Poissons Ratio (y) = 0.19870 0.27845
# Poissons Ratio (z) = 0.27995 0.37185
#
# Static dielectric constant tensor:
#      x y z
#    x 1.487720 0.000000 0.000000 
#    y 0.000000 1.658220 0.000000 
#    z 0.000000 0.000000 1.651210 
# 
# From -- ./inp_files/15393.got.cif
#   From: 2010.05.17/outbox.cif.g08.bks.cpg/sg49_8_cif.got.tgz:15393.got - 2010.06.03 21:02:19.
