data_PCOD9393553
_publ_section_title
;
Structure prediction by ZEFSAII (Michael W. Deem and Ramdas Pophale) SiO2 
 PCOD9393553
Probable space group: P C C M
;
_chemical_formula_sum "Si O2"
_cell_formula_units_Z 56
_cell_length_a 21.963071
_cell_length_b 14.291175
_cell_length_c 8.875457
_cell_angle_alpha 90.000000
_cell_angle_beta 90.000000
_cell_angle_gamma 90.000000
_cell_volume 2785.811502
_symmetry_space_group_name_H-M "P C C M"
_symmetry_group_IT_number 49
_symmetry_cell_setting 'orthorhombic'
loop_
_space_group_symop_operation_xyz
x,y,z
-x,-y,z
x,-y,1/2-z
-x,y,1/2-z
-x,-y,-z
x,y,-z
-x,y,1/2+z
x,-y,1/2+z
loop_
_atom_site_type_symbol
_atom_site_label
_atom_site_fract_x
_atom_site_fract_y
_atom_site_fract_z
Si Si1 0.191129 0.351212 0.171089
Si Si2 0.937727 0.132343 0.827654
Si Si3 0.682532 0.691190 0.682217
Si Si4 0.561444 0.603789 0.818916
Si Si5 0.064249 0.639193 0.172421
Si Si6 0.303597 0.093813 0.325047
Si Si7 0.183053 0.125435 0.167590
O O1 0.254821 0.358709 0.261982
O O2 0.127998 0.386581 0.245621
O O3 0.183994 0.238436 0.162745
O O4 0.197342 0.387208 0.000000
O O5 0.936232 0.246695 0.830707
O O6 0.883362 0.100226 0.721948
O O7 0.000000 0.105266 0.750000
O O8 0.931978 0.100920 0.000000
O O9 0.680456 0.685718 0.500000
O O10 0.623585 0.648209 0.759799
O O11 0.680029 0.801444 0.728009
O O12 0.562403 0.500000 0.750000
O O13 0.500000 0.649450 0.750000
O O14 0.558415 0.602062 0.000000
O O15 0.000000 0.611678 0.250000
O O16 0.065231 0.605892 0.000000
O O17 0.316446 0.089066 0.500000
O O18 0.231678 0.094245 0.290158
O O19 0.329691 0.000000 0.250000
O O20 0.198947 0.091745 0.000000
#
# Coordination Sequence:
#
# PCOD9393553 Si02
#       7
#     8   8   8   8   8   8   8
#     4   9  16  26  41  64  94 131 175 224 277 332
#     4   9  15  22  33  50  73 104 148 202 264 327
#     4  10  20  35  55  82 115 151 190 234 282 332
#     4  11  22  39  64  94 127 160 191 224 265 321
#     4   9  15  22  33  52  82 122 167 219 275 332
#     4  10  20  33  51  74 103 139 182 230 277 324
#     4   9  16  26  40  58  83 116 160 213 269 325
#
# _framework density 20.101863000000002
#
# number of rings (size 3 to 8) (size 9 to 14) (size 15 to 20)
#    0.000    2.429    0.000    4.286    0.000    8.571 
#    0.000    0.000    0.000    0.857    0.000    6.000 
#    0.000    0.571    0.000    5.714    0.000    8.857 
#
# Total GULP energy -312434.155674 kJ/mol
# GULP energy per Si atom -5579.181351 kJ/mol
# Density = 2.005611 g / cm^3
# Si number density = 20.101863 Si / 1000 Ang^3
#
#
#
# Elastic Constant Matrix: (Units=GPa)
#
#
# Indices 1 2 3 4 5 6 
#
# 1 159.1976 31.6870 65.2010 0.0000 0.0000 0.0000
# 2 31.6870 47.8570 14.8698 0.0000 0.0000 0.0000
# 3 65.2010 14.8698 108.0007 0.0000 0.0000 0.0000
# 4 0.0000 0.0000 0.0000 13.4990 0.0000 0.0000
# 5 0.0000 0.0000 0.0000 0.0000 27.8243 0.0000
# 6 0.0000 0.0000 0.0000 0.0000 0.0000 -20.7137
#
#
#
# Elastic Compliance Matrix: (Units=1/GPa)
#
#
# Indices 1 2 3 4 5 6 
#
# 1 0.009210 -0.004566 -0.004932 0.000000 0.000000 0.000000
# 2 -0.004566 0.024093 -0.000561 0.000000 0.000000 0.000000
# 3 -0.004932 -0.000561 0.012314 0.000000 0.000000 0.000000
# 4 0.000000 0.000000 0.000000 0.074079 0.000000 0.000000
# 5 0.000000 0.000000 0.000000 0.000000 0.035940 0.000000
# 6 0.000000 0.000000 0.000000 0.000000 0.000000 -0.048277
#
#
# Mechanical properties :
#
#
# Convention : Reuss Voigt Hill
#
# Bulk Modulus (GPa) = 39.21515 59.84121 49.52818
# Shear Modulus (GPa) = 36.77145 17.67509 27.22327
#
# Velocity S-wave (km/s) = 4.28162 2.96848 3.68403
# Velocity P-wave (km/s) = 6.63277 6.44847 6.54127
#
# Compressibility (1/GPa) = 0.02550035
#
# Stress axis : x y z
#
# Youngs Moduli (GPa) = 108.57678 41.50598 81.21079
#
# Poissons Ratio (x) = 0.18951 0.40050
# Poissons Ratio (y) = 0.49575 0.04554
# Poissons Ratio (z) = 0.53545 0.02327
#
# Static dielectric constant tensor:
#      x y z
#    x 1.778330 0.000000 0.000000 
#    y 0.000000 1.830340 0.000000 
#    z 0.000000 0.000000 1.695470 
# 
# From -- ./inp_files/5787.got.cif
#   From: 2010.05.17/outbox.cif.g08.bks.cpg/sg49_3_cif.got.tgz:5787.got - 2010.06.03 21:02:19.
