data_PCOD9393474
_publ_section_title
;
Structure prediction by ZEFSAII (Michael W. Deem and Ramdas Pophale) SiO2 
 PCOD9393474
Probable space group: P C C M
;
_chemical_formula_sum "Si O2"
_cell_formula_units_Z 48
_cell_length_a 13.463927
_cell_length_b 17.979644
_cell_length_c 8.773945
_cell_angle_alpha 90.000000
_cell_angle_beta 90.000000
_cell_angle_gamma 90.000000
_cell_volume 2123.966900
_symmetry_space_group_name_H-M "P C C M"
_symmetry_group_IT_number 49
_symmetry_cell_setting 'orthorhombic'
loop_
_space_group_symop_operation_xyz
x,y,z
-x,-y,z
x,-y,1/2-z
-x,y,1/2-z
-x,-y,-z
x,y,-z
-x,y,1/2+z
x,-y,1/2+z
loop_
_atom_site_type_symbol
_atom_site_label
_atom_site_fract_x
_atom_site_fract_y
_atom_site_fract_z
Si Si1 0.101885 0.385478 0.821177
Si Si2 0.399310 0.888172 0.677198
Si Si3 0.684355 0.576329 0.682622
Si Si4 0.131664 0.231559 0.672691
Si Si5 0.633223 0.736866 0.672116
Si Si6 0.173879 0.077872 0.184063
O O1 0.202541 0.414653 0.743156
O O2 0.099497 0.297060 0.785390
O O3 0.000000 0.415594 0.750000
O O4 0.106059 0.399854 0.000000
O O5 0.500000 0.918329 0.750000
O O6 0.403091 0.903167 0.500000
O O7 0.400310 0.799876 0.712138
O O8 0.291220 0.915770 0.732113
O O9 0.643177 0.500000 0.750000
O O10 0.687151 0.573763 0.500000
O O11 0.625520 0.651692 0.724967
O O12 0.090635 0.237493 0.500000
O O13 0.249192 0.247596 0.658865
O O14 0.121273 0.149823 0.743331
O O15 0.592024 0.746354 0.500000
O O16 0.135901 0.000000 0.250000
O O17 0.168541 0.080268 0.000000
#
# Coordination Sequence:
#
# PCOD9393474 Si02
#       6
#     8   8   8   8   8   8
#     4  11  21  34  52  75 103 134 168 206 247 295
#     4  10  20  32  49  72  99 130 166 204 248 296
#     4  10  20  34  52  76 103 133 166 204 249 297
#     4   9  17  32  52  73  97 128 166 207 246 291
#     4   8  16  31  50  70  95 126 163 202 242 289
#     4  10  20  33  50  74 101 133 168 205 248 296
#
# _framework density 22.599221
#
# number of rings (size 3 to 8) (size 9 to 14) (size 15 to 20)
#    0.000    2.333    0.000    4.500    0.000    7.333 
#    0.000    3.333    0.000    1.000    0.000    7.000 
#    0.000    0.000    0.000    0.000    0.000    0.000 
#
# Total GULP energy -268112.307692 kJ/mol
# GULP energy per Si atom -5585.673077 kJ/mol
# Density = 2.254778 g / cm^3
# Si number density = 22.599221 Si / 1000 Ang^3
#
#
#
# Elastic Constant Matrix: (Units=GPa)
#
#
# Indices 1 2 3 4 5 6 
#
# 1 48.4554 -13.1244 5.1109 0.0000 0.0000 0.0000
# 2 -13.1244 163.2076 19.8457 0.0000 0.0000 0.0000
# 3 5.1109 19.8457 60.9121 0.0000 0.0000 0.0000
# 4 0.0000 0.0000 0.0000 24.9388 0.0000 0.0000
# 5 0.0000 0.0000 0.0000 0.0000 23.2581 0.0000
# 6 0.0000 0.0000 0.0000 0.0000 0.0000 -3.5526
#
#
#
# Elastic Compliance Matrix: (Units=1/GPa)
#
#
# Indices 1 2 3 4 5 6 
#
# 1 0.021445 0.002023 -0.002459 0.000000 0.000000 0.000000
# 2 0.002023 0.006571 -0.002311 0.000000 0.000000 0.000000
# 3 -0.002459 -0.002311 0.017376 0.000000 0.000000 0.000000
# 4 0.000000 0.000000 0.000000 0.040098 0.000000 0.000000
# 5 0.000000 0.000000 0.000000 0.000000 0.042996 0.000000
# 6 0.000000 0.000000 0.000000 0.000000 0.000000 -0.281487
#
#
# Mechanical properties :
#
#
# Convention : Reuss Voigt Hill
#
# Bulk Modulus (GPa) = 25.06239 32.91549 28.98894
# Shear Modulus (GPa) = -37.25507 26.31174 -5.47166
#
# Velocity S-wave (km/s) = -4.06459 3.41585 -1.55770
# Velocity P-wave (km/s) = 3.30361 5.49126 3.10161
#
# Compressibility (1/GPa) = 0.03990043
#
# Stress axis : x y z
#
# Youngs Moduli (GPa) = 46.63110 152.18732 57.54992
#
# Poissons Ratio (x) = -0.30795 0.14149
# Poissons Ratio (y) = -0.09436 0.13298
# Poissons Ratio (z) = 0.11465 0.35165
#
# Static dielectric constant tensor:
#      x y z
#    x 1.919660 0.000000 0.000000 
#    y 0.000000 1.859130 0.000000 
#    z 0.000000 0.000000 1.773900 
# 
# From -- ./inp_files/3704.got.cif
#   From: 2010.05.17/outbox.cif.g08.bks.cpg/sg49_2_cif.got.tgz:3704.got - 2010.06.03 21:02:19.
