data_PCOD9393526
_publ_section_title
;
Structure prediction by ZEFSAII (Michael W. Deem and Ramdas Pophale) SiO2 
 PCOD9393526
Probable space group: P C C M
;
_chemical_formula_sum "Si O2"
_cell_formula_units_Z 56
_cell_length_a 19.743009
_cell_length_b 18.925921
_cell_length_c 8.600008
_cell_angle_alpha 90.000000
_cell_angle_beta 90.000000
_cell_angle_gamma 90.000000
_cell_volume 3213.432796
_symmetry_space_group_name_H-M "P C C M"
_symmetry_group_IT_number 49
_symmetry_cell_setting 'orthorhombic'
loop_
_space_group_symop_operation_xyz
x,y,z
-x,-y,z
x,-y,1/2-z
-x,y,1/2-z
-x,-y,-z
x,y,-z
-x,y,1/2+z
x,-y,1/2+z
loop_
_atom_site_type_symbol
_atom_site_label
_atom_site_fract_x
_atom_site_fract_y
_atom_site_fract_z
Si Si1 0.353097 0.576030 0.813236
Si Si2 0.217943 0.649248 0.188321
Si Si3 0.574001 0.285818 0.684810
Si Si4 0.701302 0.209036 0.812344
Si Si5 0.790654 0.921994 0.687924
Si Si6 0.927912 0.319028 0.812445
Si Si7 0.071962 0.153501 0.687220
O O1 0.373395 0.500000 0.750000
O O2 0.276030 0.594929 0.760226
O O3 0.400014 0.639284 0.752642
O O4 0.354715 0.576476 0.000000
O O5 0.246924 0.727098 0.227470
O O6 0.140650 0.642404 0.242832
O O7 0.216045 0.645877 0.000000
O O8 0.500000 0.269749 0.750000
O O9 0.572144 0.290139 0.500000
O O10 0.629844 0.228931 0.738273
O O11 0.734089 0.135093 0.764487
O O12 0.694397 0.210070 0.000000
O O13 0.791331 0.923183 0.500000
O O14 0.863686 0.891637 0.740121
O O15 0.778911 0.000000 0.750000
O O16 0.920950 0.236090 0.766755
O O17 0.000000 0.345086 0.750000
O O18 0.929747 0.321471 0.000000
O O19 0.070810 0.152138 0.500000
O O20 0.000000 0.127451 0.750000
#
# Coordination Sequence:
#
# PCOD9393526 Si02
#       7
#     8   8   8   8   8   8   8
#     4  10  20  35  55  80 110 143 173 206 248 297
#     4   8  14  28  51  70  92 130 171 208 254 304
#     4  11  22  37  58  85 111 137 168 202 243 296
#     4   9  17  34  55  74  99 134 172 212 257 305
#     4  10  20  33  50  71 100 138 177 217 265 315
#     4   9  15  26  44  67  92 123 166 214 262 306
#     4   9  17  29  45  65  94 132 172 215 263 313
#
# _framework density 17.426846999999999
#
# number of rings (size 3 to 8) (size 9 to 14) (size 15 to 20)
#    0.000    2.571    1.429    2.571    0.000    1.714 
#    0.000    6.429    0.000    0.857    0.000    6.000 
#    0.000    0.000    0.000    0.000    0.000    0.000 
#
# Total GULP energy -312233.513762 kJ/mol
# GULP energy per Si atom -5575.598460 kJ/mol
# Density = 1.738718 g / cm^3
# Si number density = 17.426847 Si / 1000 Ang^3
#
#
#
# Elastic Constant Matrix: (Units=GPa)
#
#
# Indices 1 2 3 4 5 6 
#
# 1 142.2182 31.3685 31.2615 0.0000 0.0000 0.0000
# 2 31.3685 50.6392 17.1848 0.0000 0.0000 0.0000
# 3 31.2615 17.1848 37.4888 0.0000 0.0000 0.0000
# 4 0.0000 0.0000 0.0000 37.1320 0.0000 0.0000
# 5 0.0000 0.0000 0.0000 0.0000 26.2108 0.0000
# 6 0.0000 0.0000 0.0000 0.0000 0.0000 7.5688
#
#
#
# Elastic Compliance Matrix: (Units=1/GPa)
#
#
# Indices 1 2 3 4 5 6 
#
# 1 0.009144 -0.003643 -0.005955 0.000000 0.000000 0.000000
# 2 -0.003643 0.024837 -0.008347 0.000000 0.000000 0.000000
# 3 -0.005955 -0.008347 0.035467 0.000000 0.000000 0.000000
# 4 0.000000 0.000000 0.000000 0.026931 0.000000 0.000000
# 5 0.000000 0.000000 0.000000 0.000000 0.038152 0.000000
# 6 0.000000 0.000000 0.000000 0.000000 0.000000 0.132122
#
#
# Mechanical properties :
#
#
# Convention : Reuss Voigt Hill
#
# Bulk Modulus (GPa) = 29.80011 43.33064 36.56538
# Shear Modulus (GPa) = 15.93730 24.21776 20.07753
#
# Velocity S-wave (km/s) = 3.02739 3.73189 3.39795
# Velocity P-wave (km/s) = 5.41825 6.59451 6.03510
#
# Compressibility (1/GPa) = 0.03355692
#
# Stress axis : x y z
#
# Youngs Moduli (GPa) = 109.36076 40.26237 28.19543
#
# Poissons Ratio (x) = 0.14669 0.16790
# Poissons Ratio (y) = 0.39845 0.23535
# Poissons Ratio (z) = 0.65124 0.33607
#
# Static dielectric constant tensor:
#      x y z
#    x 1.606030 0.000000 0.000000 
#    y 0.000000 1.570430 0.000000 
#    z 0.000000 0.000000 1.593590 
# 
# From -- ./inp_files/5213.got.cif
#   From: 2010.05.17/outbox.cif.g08.bks.cpg/sg49_3_cif.got.tgz:5213.got - 2010.06.03 21:02:19.
