data_PCOD9393344
_publ_section_title
;
Structure prediction by ZEFSAII (Michael W. Deem and Ramdas Pophale) SiO2 
 PCOD9393344
Probable space group: P C C M
;
_chemical_formula_sum "Si O2"
_cell_formula_units_Z 56
_cell_length_a 12.206754
_cell_length_b 11.522824
_cell_length_c 19.376019
_cell_angle_alpha 90.000000
_cell_angle_beta 90.000000
_cell_angle_gamma 90.000000
_cell_volume 2725.358714
_symmetry_space_group_name_H-M "P C C M"
_symmetry_group_IT_number 49
_symmetry_cell_setting 'orthorhombic'
loop_
_space_group_symop_operation_xyz
x,y,z
-x,-y,z
x,-y,1/2-z
-x,y,1/2-z
-x,-y,-z
x,y,-z
-x,y,1/2+z
x,-y,1/2+z
loop_
_atom_site_type_symbol
_atom_site_label
_atom_site_fract_x
_atom_site_fract_y
_atom_site_fract_z
Si Si1 0.908079 0.178736 0.918686
Si Si2 0.691578 0.664090 0.577542
Si Si3 0.354297 0.208948 0.190661
Si Si4 0.407958 0.152979 0.655933
Si Si5 0.720411 0.453203 0.327089
Si Si6 0.075398 0.616444 0.580387
Si Si7 0.208387 0.988373 0.332346
O O1 0.804693 0.265935 0.909384
O O2 0.882266 0.062674 0.874158
O O3 0.009727 0.264324 0.902685
O O4 0.913673 0.147515 0.000000
O O5 0.693953 0.621077 0.500000
O O6 0.601168 0.760553 0.592118
O O7 0.676485 0.559756 0.629161
O O8 0.356117 0.207316 0.274009
O O9 0.464383 0.139324 0.170934
O O10 0.359294 0.342896 0.171478
O O11 0.245448 0.146086 0.161114
O O12 0.322847 0.049618 0.645477
O O13 0.741037 0.500000 0.250000
O O14 0.829744 0.409516 0.365385
O O15 0.112698 0.626635 0.500000
O O16 0.000000 0.500000 0.582162
O O17 0.188321 0.000000 0.250000
#
# Coordination Sequence:
#
# PCOD9393344 Si02
#       7
#     8   8   8   8   8   8   8
#     4   9  18  36  62  86 113 154 198 241 296 356
#     4  10  19  36  58  82 115 154 195 241 291 350
#     4  10  20  35  56  84 119 154 193 240 295 352
#     4   9  18  36  58  83 110 155 201 237 288 352
#     4  12  23  36  54  87 123 152 191 248 300 353
#     4  10  20  38  62  84 111 154 201 239 291 361
#     4   9  18  34  61  87 113 149 197 248 289 345
#
# _framework density 20.547754000000001
#
# number of rings (size 3 to 8) (size 9 to 14) (size 15 to 20)
#    0.000    2.143    2.857    0.857    0.000    2.571 
#    0.000    5.000    0.000    7.714    0.000    0.000 
#    0.000    0.000    0.000    0.000    0.000    0.000 
#
# Total GULP energy -311895.359623 kJ/mol
# GULP energy per Si atom -5569.559993 kJ/mol
# Density = 2.050099 g / cm^3
# Si number density = 20.547754 Si / 1000 Ang^3
#
#
#
# Elastic Constant Matrix: (Units=GPa)
#
#
# Indices 1 2 3 4 5 6 
#
# 1 37.1184 19.1229 12.0950 0.0000 0.0000 0.0000
# 2 19.1229 90.2805 40.5515 0.0000 0.0000 0.0000
# 3 12.0950 40.5515 55.3588 0.0000 0.0000 0.0000
# 4 0.0000 0.0000 0.0000 27.9366 0.0000 0.0000
# 5 0.0000 0.0000 0.0000 0.0000 7.3460 0.0000
# 6 0.0000 0.0000 0.0000 0.0000 0.0000 30.4172
#
#
#
# Elastic Compliance Matrix: (Units=1/GPa)
#
#
# Indices 1 2 3 4 5 6 
#
# 1 0.030546 -0.005175 -0.002883 0.000000 0.000000 0.000000
# 2 -0.005175 0.017385 -0.011604 0.000000 0.000000 0.000000
# 3 -0.002883 -0.011604 0.027194 0.000000 0.000000 0.000000
# 4 0.000000 0.000000 0.000000 0.035795 0.000000 0.000000
# 5 0.000000 0.000000 0.000000 0.000000 0.136129 0.000000
# 6 0.000000 0.000000 0.000000 0.000000 0.000000 0.032876
#
#
# Mechanical properties :
#
#
# Convention : Reuss Voigt Hill
#
# Bulk Modulus (GPa) = 27.93227 36.25517 32.09372
# Shear Modulus (GPa) = 15.09733 20.53918 17.81826
#
# Velocity S-wave (km/s) = 2.71356 3.16505 2.94796
# Velocity P-wave (km/s) = 4.84161 5.57130 5.21922
#
# Compressibility (1/GPa) = 0.03580088
#
# Stress axis : x y z
#
# Youngs Moduli (GPa) = 32.73699 57.52044 36.77257
#
# Poissons Ratio (x) = 0.29769 0.10601
# Poissons Ratio (y) = 0.16943 0.42672
# Poissons Ratio (z) = 0.09438 0.66748
#
# Static dielectric constant tensor:
#      x y z
#    x 1.751710 0.000000 0.000000 
#    y 0.000000 1.771000 0.000000 
#    z 0.000000 0.000000 1.717000 
# 
# From -- ./inp_files/20504.got.cif
#   From: 2010.05.17/outbox.cif.g08.bks.cpg/sg49_11_cif.got.tgz:20504.got - 2010.06.03 21:02:19.
