data_PCOD9393629
_publ_section_title
;
Structure prediction by ZEFSAII (Michael W. Deem and Ramdas Pophale) SiO2 
 PCOD9393629
Probable space group: P C C M
;
_chemical_formula_sum "Si O2"
_cell_formula_units_Z 40
_cell_length_a 17.965919
_cell_length_b 12.366644
_cell_length_c 10.036997
_cell_angle_alpha 90.000000
_cell_angle_beta 90.000000
_cell_angle_gamma 90.000000
_cell_volume 2230.001168
_symmetry_space_group_name_H-M "P C C M"
_symmetry_group_IT_number 49
_symmetry_cell_setting 'orthorhombic'
loop_
_space_group_symop_operation_xyz
x,y,z
-x,-y,z
x,-y,1/2-z
-x,y,1/2-z
-x,-y,-z
x,y,-z
-x,y,1/2+z
x,-y,1/2+z
loop_
_atom_site_type_symbol
_atom_site_label
_atom_site_fract_x
_atom_site_fract_y
_atom_site_fract_z
Si Si1 0.069762 0.389487 0.336613
Si Si2 0.217747 0.261505 0.730662
Si Si3 0.249884 0.143988 0.000000
Si Si4 0.587865 0.239879 0.500000
Si Si5 0.726192 0.893129 0.500000
Si Si6 0.372966 0.372998 0.256536
Si Si7 0.423377 0.225159 0.500000
O O1 0.083727 0.500000 0.250000
O O2 0.057388 0.403891 0.500000
O O3 0.141896 0.315746 0.316961
O O4 0.000000 0.342976 0.250000
O O5 0.214906 0.202628 0.872475
O O6 0.243560 0.170672 0.627289
O O7 0.284130 0.349954 0.736674
O O8 0.338905 0.166272 0.000000
O O9 0.245609 0.015136 0.000000
O O10 0.595274 0.316737 0.373667
O O11 0.507740 0.184368 0.500000
O O12 0.637183 0.871007 0.500000
O O13 0.387767 0.500000 0.250000
O O14 0.408083 0.305072 0.376611
#
# Coordination Sequence:
#
# PCOD9393629 Si02
#       7
#     8   8   4   4   4   8   4
#     4  11  23  39  63  95 129 159 188 222 275 338
#     4  10  21  38  59  84 116 149 193 245 282 340
#     4  10  22  36  62  81 109 148 203 247 297 346
#     4  10  21  35  48  82 107 144 192 242 291 348
#     4  10  20  40  58  83 105 152 197 247 305 338
#     4  10  20  34  51  77 110 150 189 228 285 347
#     4  10  21  33  54  74 113 144 188 244 293 348
#
# _framework density 17.937211000000001
#
# number of rings (size 3 to 8) (size 9 to 14) (size 15 to 20)
#    0.000    1.800    1.000    3.600    2.800    2.800 
#    3.600    0.000    0.000   10.800    0.000    0.000 
#    0.000    0.000    0.000    0.000    0.000    0.000 
#
# Total GULP energy -222977.956891 kJ/mol
# GULP energy per Si atom -5574.448922 kJ/mol
# Density = 1.789639 g / cm^3
# Si number density = 17.937211 Si / 1000 Ang^3
#
#
#
# Elastic Constant Matrix: (Units=GPa)
#
#
# Indices 1 2 3 4 5 6 
#
# 1 111.9398 9.7654 27.7793 0.0000 0.0000 0.0000
# 2 9.7654 41.3114 14.3441 0.0000 0.0000 0.0000
# 3 27.7793 14.3441 167.0665 0.0000 0.0000 0.0000
# 4 0.0000 0.0000 0.0000 -117.6506 0.0000 0.0000
# 5 0.0000 0.0000 0.0000 0.0000 116.0109 0.0000
# 6 0.0000 0.0000 0.0000 0.0000 0.0000 8.9474
#
#
#
# Elastic Compliance Matrix: (Units=1/GPa)
#
#
# Indices 1 2 3 4 5 6 
#
# 1 0.009437 -0.001738 -0.001420 0.000000 0.000000 0.000000
# 2 -0.001738 0.025270 -0.001881 0.000000 0.000000 0.000000
# 3 -0.001420 -0.001881 0.006383 0.000000 0.000000 0.000000
# 4 0.000000 0.000000 0.000000 -0.008500 0.000000 0.000000
# 5 0.000000 0.000000 0.000000 0.000000 0.008620 0.000000
# 6 0.000000 0.000000 0.000000 0.000000 0.000000 0.111764
#
#
# Mechanical properties :
#
#
# Convention : Reuss Voigt Hill
#
# Bulk Modulus (GPa) = 32.24377 47.12171 39.68274
# Shear Modulus (GPa) = 28.83673 19.35681 24.09677
#
# Velocity S-wave (km/s) = 4.01390 3.28859 3.66921
# Velocity P-wave (km/s) = 6.28465 6.38335 6.33419
#
# Compressibility (1/GPa) = 0.03101374
#
# Stress axis : x y z
#
# Youngs Moduli (GPa) = 105.96176 39.57233 156.66052
#
# Poissons Ratio (x) = 0.06877 0.22246
# Poissons Ratio (y) = 0.18414 0.29463
# Poissons Ratio (z) = 0.15047 0.07442
#
# Static dielectric constant tensor:
#      x y z
#    x 1.643150 0.000000 0.000000 
#    y 0.000000 1.601980 0.000000 
#    z 0.000000 0.000000 1.748770 
# 
# From -- ./inp_files/4695.got.cif
#   From: 2010.05.17/outbox.cif.g08.bks.cpg/sg49_3_cif.got.tgz:4695.got - 2010.06.03 21:02:19.
