data_PCOD9393548
_publ_section_title
;
Structure prediction by ZEFSAII (Michael W. Deem and Ramdas Pophale) SiO2 
 PCOD9393548
Probable space group: P C C M
;
_chemical_formula_sum "Si O2"
_cell_formula_units_Z 58
_cell_length_a 14.756625
_cell_length_b 25.701490
_cell_length_c 9.085644
_cell_angle_alpha 90.000000
_cell_angle_beta 90.000000
_cell_angle_gamma 90.000000
_cell_volume 3445.887213
_symmetry_space_group_name_H-M "P C C M"
_symmetry_group_IT_number 49
_symmetry_cell_setting 'orthorhombic'
loop_
_space_group_symop_operation_xyz
x,y,z
-x,-y,z
x,-y,1/2-z
-x,y,1/2-z
-x,-y,-z
x,y,-z
-x,y,1/2+z
x,-y,1/2+z
loop_
_atom_site_type_symbol
_atom_site_label
_atom_site_fract_x
_atom_site_fract_y
_atom_site_fract_z
Si Si1 0.152069 0.079971 0.665969
Si Si2 0.096437 0.800268 0.824234
Si Si3 0.600008 0.331791 0.824149
Si Si4 0.334216 0.052655 0.175659
Si Si5 0.587681 0.839366 0.172537
Si Si6 0.000000 0.000000 0.250000
Si Si7 0.401078 0.450102 0.325452
Si Si8 0.266798 0.249260 0.825409
O O1 0.190303 0.080091 0.500000
O O2 0.121231 0.138690 0.702355
O O3 0.229965 0.061887 0.776849
O O4 0.068241 0.039835 0.669251
O O5 0.172319 0.763252 0.753224
O O6 0.000000 0.790321 0.750000
O O7 0.092745 0.793279 0.000000
O O8 0.500000 0.326274 0.750000
O O9 0.633893 0.391507 0.803658
O O10 0.672412 0.293619 0.750131
O O11 0.591385 0.322399 0.000000
O O12 0.389204 0.103102 0.228236
O O13 0.366839 0.000000 0.250000
O O14 0.339474 0.049262 0.000000
O O15 0.500000 0.816572 0.250000
O O16 0.674181 0.803217 0.192216
O O17 0.568571 0.842611 0.000000
O O18 0.354031 0.500000 0.250000
O O19 0.500000 0.447829 0.250000
O O20 0.409014 0.459113 0.500000
O O21 0.255661 0.259157 0.000000
#
# Coordination Sequence:
#
# PCOD9393548 Si02
#       8
#     8   8   8   8   8   2   8   8
#     4  11  23  36  54  79 104 131 158 196 250 310
#     4  11  23  39  58  81 106 136 171 211 261 321
#     4  10  20  33  50  78 112 150 191 235 275 319
#     4  11  23  39  56  75 100 126 160 204 251 308
#     4  10  23  39  56  77 101 131 167 212 258 308
#     4  12  22  36  56  86 108 124 162 200 256 320
#     4   9  16  26  43  68 104 146 190 230 272 315
#     4  11  22  38  57  79 106 141 179 223 270 317
#
# _framework density 16.831659999999999
#
# number of rings (size 3 to 8) (size 9 to 14) (size 15 to 20)
#    0.000    1.517    2.759    3.103    0.000    6.345 
#    0.000    1.379    0.000    0.000    0.000    0.000 
#    0.000    0.552    0.000    5.793    0.000    3.172 
#
# Total GULP energy -323671.817227 kJ/mol
# GULP energy per Si atom -5580.548573 kJ/mol
# Density = 1.679335 g / cm^3
# Si number density = 16.831660 Si / 1000 Ang^3
#
#
#
# Elastic Constant Matrix: (Units=GPa)
#
#
# Indices 1 2 3 4 5 6 
#
# 1 66.1075 31.2576 39.8603 0.0000 0.0000 0.0000
# 2 31.2576 108.3652 57.8392 0.0000 0.0000 0.0000
# 3 39.8603 57.8392 84.9071 0.0000 0.0000 0.0000
# 4 0.0000 0.0000 0.0000 31.8605 0.0000 0.0000
# 5 0.0000 0.0000 0.0000 0.0000 19.8366 0.0000
# 6 0.0000 0.0000 0.0000 0.0000 0.0000 617.8372
#
#
#
# Elastic Compliance Matrix: (Units=1/GPa)
#
#
# Indices 1 2 3 4 5 6 
#
# 1 0.021209 -0.001262 -0.009097 0.000000 0.000000 0.000000
# 2 -0.001262 0.014575 -0.009336 0.000000 0.000000 0.000000
# 3 -0.009097 -0.009336 0.022408 0.000000 0.000000 0.000000
# 4 0.000000 0.000000 0.000000 0.031387 0.000000 0.000000
# 5 0.000000 0.000000 0.000000 0.000000 0.050412 0.000000
# 6 0.000000 0.000000 0.000000 0.000000 0.000000 0.001619
#
#
# Mechanical properties :
#
#
# Convention : Reuss Voigt Hill
#
# Bulk Modulus (GPa) = 53.18697 57.47711 55.33204
# Shear Modulus (GPa) = 26.69989 142.60170 84.65080
#
# Velocity S-wave (km/s) = 3.98715 9.21446 7.09942
# Velocity P-wave (km/s) = 7.27079 12.14210 10.00737
#
# Compressibility (1/GPa) = 0.01880160
#
# Stress axis : x y z
#
# Youngs Moduli (GPa) = 47.15047 68.60935 44.62696
#
# Poissons Ratio (x) = 0.08660 0.40596
# Poissons Ratio (y) = 0.05952 0.41665
# Poissons Ratio (z) = 0.42891 0.64055
#
# Static dielectric constant tensor:
#      x y z
#    x 1.562200 0.000000 0.000000 
#    y 0.000000 1.602130 0.000000 
#    z 0.000000 0.000000 1.572950 
# 
# From -- ./inp_files/4278.got.cif
#   From: 2010.05.17/outbox.cif.g08.bks.cpg/sg49_3_cif.got.tgz:4278.got - 2010.06.03 21:02:19.
