data_PCOD9393972
_publ_section_title
;
Structure prediction by ZEFSAII (Michael W. Deem and Ramdas Pophale) SiO2 
 PCOD9393972
Probable space group: P C C M
;
_chemical_formula_sum "Si O2"
_cell_formula_units_Z 24
_cell_length_a 7.628310
_cell_length_b 8.422040
_cell_length_c 16.970675
_cell_angle_alpha 90.000000
_cell_angle_beta 90.000000
_cell_angle_gamma 90.000000
_cell_volume 1090.296831
_symmetry_space_group_name_H-M "P C C M"
_symmetry_group_IT_number 49
_symmetry_cell_setting 'orthorhombic'
loop_
_space_group_symop_operation_xyz
x,y,z
-x,-y,z
x,-y,1/2-z
-x,y,1/2-z
-x,-y,-z
x,y,-z
-x,y,1/2+z
x,-y,1/2+z
loop_
_atom_site_type_symbol
_atom_site_label
_atom_site_fract_x
_atom_site_fract_y
_atom_site_fract_z
Si Si1 0.297236 0.558181 0.500000
Si Si2 0.801342 0.064423 0.169010
Si Si3 0.704969 0.563556 0.666583
Si Si4 0.692311 0.065705 0.500000
O O1 0.500000 0.500000 0.500000
O O2 0.220375 0.498934 0.583214
O O3 0.294519 0.746235 0.500000
O O4 0.745263 0.249062 0.166812
O O5 0.714308 0.000000 0.250000
O O6 0.759901 0.996794 0.083109
O O7 0.000000 0.000000 0.175680
O O8 0.500000 0.500000 0.666135
O O9 0.777474 0.500000 0.750000
O O10 0.500000 0.000000 0.500000
#
# Coordination Sequence:
#
# PCOD9393972 Si02
#       4
#     4   8   8   4
#     4  10  20  36  57  91 126 162 211 276 337 388
#     4  11  25  45  66  97 139 183 224 279 350 422
#     4  10  20  39  65  94 128 172 225 284 337 401
#     4  12  23  40  70 101 131 176 233 292 341 404
#
# _framework density 22.012353999999998
#
# number of rings (size 3 to 8) (size 9 to 14) (size 15 to 20)
#    0.000    1.333    0.000    7.500    0.000    3.333 
#    0.000   13.333    0.000    0.000    0.000    0.000 
#    0.000    0.000    0.000    0.000    0.000    0.000 
#
# Total GULP energy -133633.639447 kJ/mol
# GULP energy per Si atom -5568.068310 kJ/mol
# Density = 2.196225 g / cm^3
# Si number density = 22.012354 Si / 1000 Ang^3
#
#
#
# Elastic Constant Matrix: (Units=GPa)
#
#
# Indices 1 2 3 4 5 6 
#
# 1 87.2273 34.3517 41.4972 0.0000 0.0000 0.0000
# 2 34.3517 279.6901 136.7218 0.0000 0.0000 0.0000
# 3 41.4972 136.7218 334.7390 0.0000 0.0000 0.0000
# 4 0.0000 0.0000 0.0000 64.0067 0.0000 0.0000
# 5 0.0000 0.0000 0.0000 0.0000 -127.4606 0.0000
# 6 0.0000 0.0000 0.0000 0.0000 0.0000 5.9640
#
#
#
# Elastic Compliance Matrix: (Units=1/GPa)
#
#
# Indices 1 2 3 4 5 6 
#
# 1 0.012387 -0.000963 -0.001142 0.000000 0.000000 0.000000
# 2 -0.000963 0.004542 -0.001736 0.000000 0.000000 0.000000
# 3 -0.001142 -0.001736 0.003838 0.000000 0.000000 0.000000
# 4 0.000000 0.000000 0.000000 0.015623 0.000000 0.000000
# 5 0.000000 0.000000 0.000000 0.000000 -0.007846 0.000000
# 6 0.000000 0.000000 0.000000 0.000000 0.000000 0.167673
#
#
# Mechanical properties :
#
#
# Convention : Reuss Voigt Hill
#
# Bulk Modulus (GPa) = 76.42371 125.19973 100.81172
# Shear Modulus (GPa) = 24.00827 21.10775 22.55801
#
# Velocity S-wave (km/s) = 3.30612 3.09998 3.20470
# Velocity P-wave (km/s) = 7.02622 8.35546 7.71950
#
# Compressibility (1/GPa) = 0.01308494
#
# Stress axis : x y z
#
# Youngs Moduli (GPa) = 80.73005 220.15753 260.55214
#
# Poissons Ratio (x) = 0.21201 0.29762
# Poissons Ratio (y) = 0.07774 0.45228
# Poissons Ratio (z) = 0.09222 0.38216
#
# Static dielectric constant tensor:
#      x y z
#    x 1.774450 0.000000 0.000000 
#    y 0.000000 2.123410 0.000000 
#    z 0.000000 0.000000 1.515440 
# 
# From -- ./inp_files/15640.got.cif
#   From: 2010.05.17/outbox.cif.g08.bks.cpg/sg49_8_cif.got.tgz:15640.got - 2010.06.03 21:02:19.
