data_PCOD9393675
_publ_section_title
;
Structure prediction by ZEFSAII (Michael W. Deem and Ramdas Pophale) SiO2 
 PCOD9393675
Probable space group: P C C M
;
_chemical_formula_sum "Si O2"
_cell_formula_units_Z 40
_cell_length_a 9.331921
_cell_length_b 26.788943
_cell_length_c 8.707028
_cell_angle_alpha 90.000000
_cell_angle_beta 90.000000
_cell_angle_gamma 90.000000
_cell_volume 2176.689954
_symmetry_space_group_name_H-M "P C C M"
_symmetry_group_IT_number 49
_symmetry_cell_setting 'orthorhombic'
loop_
_space_group_symop_operation_xyz
x,y,z
-x,-y,z
x,-y,1/2-z
-x,y,1/2-z
-x,-y,-z
x,y,-z
-x,y,1/2+z
x,-y,1/2+z
loop_
_atom_site_type_symbol
_atom_site_label
_atom_site_fract_x
_atom_site_fract_y
_atom_site_fract_z
Si Si1 0.838413 0.550243 0.183281
Si Si2 0.840916 0.850016 0.685006
Si Si3 0.161499 0.338973 0.184467
Si Si4 0.659717 0.946690 0.315160
Si Si5 0.340430 0.752789 0.184579
O O1 0.768168 0.500000 0.250000
O O2 0.780001 0.605254 0.221976
O O3 0.000000 0.551294 0.250000
O O4 0.845410 0.545748 0.000000
O O5 0.848036 0.849639 0.500000
O O6 0.761238 0.901018 0.731286
O O7 0.747991 0.802034 0.732820
O O8 0.000000 0.847238 0.750000
O O9 0.258752 0.295845 0.253912
O O10 0.000000 0.334695 0.250000
O O11 0.155136 0.334616 0.000000
O O12 0.500000 0.938292 0.250000
O O13 0.652664 0.949097 0.500000
O O14 0.709750 0.000000 0.250000
O O15 0.500000 0.754982 0.250000
O O16 0.345225 0.751439 0.000000
#
# Coordination Sequence:
#
# PCOD9393675 Si02
#       5
#     8   8   8   8   8
#     4   9  16  26  44  71 104 138 174 215 262 312
#     4  10  23  39  57  82 111 142 179 222 270 319
#     4  10  20  34  53  80 111 143 179 223 270 319
#     4  10  20  36  57  83 112 145 183 221 263 314
#     4  11  23  39  58  80 106 141 181 223 272 327
#
# _framework density 18.376525999999998
#
# number of rings (size 3 to 8) (size 9 to 14) (size 15 to 20)
#    0.000    2.000    0.000    4.800    0.000    7.600 
#    0.000    2.000    0.000    0.600    0.000    4.200 
#    0.000    0.000    0.000    0.000    0.000    0.000 
#
# Total GULP energy -223279.981638 kJ/mol
# GULP energy per Si atom -5581.999541 kJ/mol
# Density = 1.833470 g / cm^3
# Si number density = 18.376526 Si / 1000 Ang^3
#
#
#
# Elastic Constant Matrix: (Units=GPa)
#
#
# Indices 1 2 3 4 5 6 
#
# 1 109.9420 108.8098 37.9409 0.0000 0.0000 0.0000
# 2 108.8098 224.7606 65.4987 0.0000 0.0000 0.0000
# 3 37.9409 65.4987 61.6077 0.0000 0.0000 0.0000
# 4 0.0000 0.0000 0.0000 31.8262 0.0000 0.0000
# 5 0.0000 0.0000 0.0000 0.0000 30.4494 0.0000
# 6 0.0000 0.0000 0.0000 0.0000 0.0000 -77.0351
#
#
#
# Elastic Compliance Matrix: (Units=1/GPa)
#
#
# Indices 1 2 3 4 5 6 
#
# 1 0.017746 -0.007833 -0.002601 0.000000 0.000000 0.000000
# 2 -0.007833 0.009904 -0.005706 0.000000 0.000000 0.000000
# 3 -0.002601 -0.005706 0.023899 0.000000 0.000000 0.000000
# 4 0.000000 0.000000 0.000000 0.031421 0.000000 0.000000
# 5 0.000000 0.000000 0.000000 0.000000 0.032841 0.000000
# 6 0.000000 0.000000 0.000000 0.000000 0.000000 -0.012981
#
#
# Mechanical properties :
#
#
# Convention : Reuss Voigt Hill
#
# Bulk Modulus (GPa) = 51.89385 91.20100 71.54743
# Shear Modulus (GPa) = 35.32775 9.31882 22.32329
#
# Velocity S-wave (km/s) = 4.38932 2.25434 3.48914
# Velocity P-wave (km/s) = 7.34770 7.51751 7.43309
#
# Compressibility (1/GPa) = 0.01927011
#
# Stress axis : x y z
#
# Youngs Moduli (GPa) = 56.35217 100.97052 41.84213
#
# Poissons Ratio (x) = 0.79089 0.10883
# Poissons Ratio (y) = 0.44140 0.23873
# Poissons Ratio (z) = 0.14657 0.57609
#
# Static dielectric constant tensor:
#      x y z
#    x 1.587880 0.000000 0.000000 
#    y 0.000000 1.666460 0.000000 
#    z 0.000000 0.000000 1.618720 
# 
# From -- ./inp_files/1712.got.cif
#   From: 2010.05.17/outbox.cif.g08.bks.cpg/sg49_1_cif.got.tgz:1712.got - 2010.06.03 21:02:19.
