data_PCOD9393543
_publ_section_title
;
Structure prediction by ZEFSAII (Michael W. Deem and Ramdas Pophale) SiO2 
 PCOD9393543
Probable space group: P C C M
;
_chemical_formula_sum "Si O2"
_cell_formula_units_Z 58
_cell_length_a 23.629570
_cell_length_b 15.445586
_cell_length_c 9.125969
_cell_angle_alpha 90.000000
_cell_angle_beta 90.000000
_cell_angle_gamma 90.000000
_cell_volume 3330.728228
_symmetry_space_group_name_H-M "P C C M"
_symmetry_group_IT_number 49
_symmetry_cell_setting 'orthorhombic'
loop_
_space_group_symop_operation_xyz
x,y,z
-x,-y,z
x,-y,1/2-z
-x,y,1/2-z
-x,-y,-z
x,y,-z
-x,y,1/2+z
x,-y,1/2+z
loop_
_atom_site_type_symbol
_atom_site_label
_atom_site_fract_x
_atom_site_fract_y
_atom_site_fract_z
Si Si1 0.177820 0.775461 0.822072
Si Si2 0.000000 0.000000 0.250000
Si Si3 0.221568 0.589285 0.173811
Si Si4 0.946120 0.171113 0.835031
Si Si5 0.440908 0.724039 0.323035
Si Si6 0.737703 0.090736 0.324348
Si Si7 0.644666 0.408207 0.824008
Si Si8 0.604104 0.911440 0.174069
O O1 0.187659 0.675170 0.783345
O O2 0.115676 0.807984 0.774908
O O3 0.225343 0.833541 0.745790
O O4 0.182640 0.784197 0.000000
O O5 0.040369 0.067817 0.333393
O O6 0.204661 0.500000 0.250000
O O7 0.288337 0.605221 0.203499
O O8 0.215772 0.578030 0.000000
O O9 0.000000 0.208791 0.750000
O O10 0.947118 0.203246 0.000000
O O11 0.500000 0.697643 0.250000
O O12 0.441838 0.715484 0.500000
O O13 0.391701 0.665874 0.253232
O O14 0.428793 0.824515 0.285190
O O15 0.744767 0.087215 0.500000
O O16 0.670829 0.102651 0.292283
O O17 0.754793 0.000000 0.250000
O O18 0.629462 0.500000 0.750000
O O19 0.635678 0.409865 0.000000
O O20 0.585209 0.000000 0.250000
O O21 0.599396 0.922968 0.000000
#
# Coordination Sequence:
#
# PCOD9393543 Si02
#       8
#     8   2   8   8   8   8   8   8
#     4  10  20  34  51  78 109 140 173 219 267 312
#     4   8  18  32  50  68  96 140 182 216 252 296
#     4   9  19  35  57  81 109 137 171 213 264 316
#     4   9  19  32  49  71 102 138 177 217 258 302
#     4  11  23  38  55  78 105 136 174 219 260 309
#     4  10  20  33  50  76 106 139 173 212 258 314
#     4  10  20  36  58  83 107 138 169 207 259 319
#     4   9  20  37  55  74 102 137 175 216 262 308
#
# _framework density 17.413609999999998
#
# number of rings (size 3 to 8) (size 9 to 14) (size 15 to 20)
#    0.414    1.931    0.000    2.276    0.966    3.862 
#    0.000    2.759    0.000    0.414    0.000    2.897 
#    0.000    0.000    0.000    0.000    0.000    0.000 
#
# Total GULP energy -323302.674374 kJ/mol
# GULP energy per Si atom -5574.184041 kJ/mol
# Density = 1.737398 g / cm^3
# Si number density = 17.413610 Si / 1000 Ang^3
#
#
#
# Elastic Constant Matrix: (Units=GPa)
#
#
# Indices 1 2 3 4 5 6 
#
# 1 43.9843 37.9324 22.7700 0.0000 0.0000 0.0000
# 2 37.9324 102.2675 26.3644 0.0000 0.0000 0.0000
# 3 22.7700 26.3644 41.3025 0.0000 0.0000 0.0000
# 4 0.0000 0.0000 0.0000 30.4882 0.0000 0.0000
# 5 0.0000 0.0000 0.0000 0.0000 19.1190 0.0000
# 6 0.0000 0.0000 0.0000 0.0000 0.0000 -20.8255
#
#
#
# Elastic Compliance Matrix: (Units=1/GPa)
#
#
# Indices 1 2 3 4 5 6 
#
# 1 0.039962 -0.010944 -0.015045 0.000000 0.000000 0.000000
# 2 -0.010944 0.014701 -0.003351 0.000000 0.000000 0.000000
# 3 -0.015045 -0.003351 0.034645 0.000000 0.000000 0.000000
# 4 0.000000 0.000000 0.000000 0.032800 0.000000 0.000000
# 5 0.000000 0.000000 0.000000 0.000000 0.052304 0.000000
# 6 0.000000 0.000000 0.000000 0.000000 0.000000 -0.048018
#
#
# Mechanical properties :
#
#
# Convention : Reuss Voigt Hill
#
# Bulk Modulus (GPa) = 32.64950 40.18757 36.41854
# Shear Modulus (GPa) = 25.60372 12.45551 19.02961
#
# Velocity S-wave (km/s) = 3.83865 2.67736 3.30934
# Velocity P-wave (km/s) = 6.19976 5.71717 5.96335
#
# Compressibility (1/GPa) = 0.03062834
#
# Stress axis : x y z
#
# Youngs Moduli (GPa) = 25.02361 68.02093 28.86411
#
# Poissons Ratio (x) = 0.74441 0.43427
# Poissons Ratio (y) = 0.27385 0.09672
# Poissons Ratio (z) = 0.37649 0.22793
#
# Static dielectric constant tensor:
#      x y z
#    x 1.592630 0.000000 0.000000 
#    y 0.000000 1.579830 0.000000 
#    z 0.000000 0.000000 1.589900 
# 
# From -- ./inp_files/6434.got.cif
#   From: 2010.05.17/outbox.cif.g08.bks.cpg/sg49_4_cif.got.tgz:6434.got - 2010.06.03 21:02:19.
