data_PCOD9393412
_publ_section_title
;
Structure prediction by ZEFSAII (Michael W. Deem and Ramdas Pophale) SiO2 
 PCOD9393412
Probable space group: P C C M
;
_chemical_formula_sum "Si O2"
_cell_formula_units_Z 64
_cell_length_a 14.391404
_cell_length_b 12.852981
_cell_length_c 17.770773
_cell_angle_alpha 90.000000
_cell_angle_beta 90.000000
_cell_angle_gamma 90.000000
_cell_volume 3287.103281
_symmetry_space_group_name_H-M "P C C M"
_symmetry_group_IT_number 49
_symmetry_cell_setting 'orthorhombic'
loop_
_space_group_symop_operation_xyz
x,y,z
-x,-y,z
x,-y,1/2-z
-x,y,1/2-z
-x,-y,-z
x,y,-z
-x,y,1/2+z
x,-y,1/2+z
loop_
_atom_site_type_symbol
_atom_site_label
_atom_site_fract_x
_atom_site_fract_y
_atom_site_fract_z
Si Si1 0.900672 0.297875 0.343629
Si Si2 0.573951 0.751648 0.912928
Si Si3 0.801861 0.490284 0.157811
Si Si4 0.768055 0.068639 0.823950
Si Si5 0.108991 0.274648 0.335780
Si Si6 0.402780 0.538637 0.663017
Si Si7 0.236026 0.132662 0.913982
Si Si8 0.549591 0.889083 0.672895
O O1 0.863798 0.411567 0.368334
O O2 0.901417 0.296625 0.253287
O O3 0.827549 0.210640 0.367203
O O4 0.004983 0.270080 0.368845
O O5 0.595009 0.661034 0.853348
O O6 0.656737 0.834928 0.903752
O O7 0.478493 0.808043 0.891283
O O8 0.575155 0.715591 0.000000
O O9 0.800630 0.500000 0.250000
O O10 0.841090 0.378604 0.134763
O O11 0.695430 0.500218 0.131548
O O12 0.831236 0.169177 0.839284
O O13 0.659488 0.099796 0.815804
O O14 0.794110 0.000000 0.750000
O O15 0.776284 0.985768 0.890552
O O16 0.500000 0.500000 0.628743
O O17 0.403522 0.500000 0.750000
O O18 0.211415 0.149235 0.000000
O O19 0.500000 0.852909 0.750000
O O20 0.500000 0.000000 0.656581
#
# Coordination Sequence:
#
# PCOD9393412 Si02
#       8
#     8   8   8   8   8   8   8   8
#     4  10  19  39  60  89 120 154 211 254 313 370
#     4  11  24  41  63  91 126 168 213 255 312 384
#     4   9  18  34  60  89 123 153 198 258 309 364
#     4  12  22  39  60  92 130 158 210 265 311 371
#     4  10  22  34  62  93 119 156 198 269 315 357
#     4  10  22  36  60  96 122 162 201 256 311 372
#     4  11  23  40  64  88 123 170 206 252 313 379
#     4  11  22  36  61  90 120 165 209 257 310 370
#
# _framework density 19.470030000000001
#
# number of rings (size 3 to 8) (size 9 to 14) (size 15 to 20)
#    0.000    1.500    5.000    0.375    3.500    3.000 
#    0.000    1.250    0.000    3.000    0.000    0.000 
#    0.000    0.000    0.000    0.000    0.000    0.000 
#
# Total GULP energy -356936.219965 kJ/mol
# GULP energy per Si atom -5577.128437 kJ/mol
# Density = 1.942572 g / cm^3
# Si number density = 19.470030 Si / 1000 Ang^3
#
#
#
# Elastic Constant Matrix: (Units=GPa)
#
#
# Indices 1 2 3 4 5 6 
#
# 1 122.3926 58.4329 8.5628 0.0000 0.0000 0.0000
# 2 58.4329 123.5489 15.8460 0.0000 0.0000 0.0000
# 3 8.5628 15.8460 27.5198 0.0000 0.0000 0.0000
# 4 0.0000 0.0000 0.0000 -15.9984 0.0000 0.0000
# 5 0.0000 0.0000 0.0000 0.0000 4.5661 0.0000
# 6 0.0000 0.0000 0.0000 0.0000 0.0000 -85.7602
#
#
#
# Elastic Compliance Matrix: (Units=1/GPa)
#
#
# Indices 1 2 3 4 5 6 
#
# 1 0.010558 -0.004937 -0.000443 0.000000 0.000000 0.000000
# 2 -0.004937 0.011048 -0.004825 0.000000 0.000000 0.000000
# 3 -0.000443 -0.004825 0.039254 0.000000 0.000000 0.000000
# 4 0.000000 0.000000 0.000000 -0.062506 0.000000 0.000000
# 5 0.000000 0.000000 0.000000 0.000000 0.219004 0.000000
# 6 0.000000 0.000000 0.000000 0.000000 0.000000 -0.011660
#
#
# Mechanical properties :
#
#
# Convention : Reuss Voigt Hill
#
# Bulk Modulus (GPa) = 24.72167 48.79385 36.75776
# Shear Modulus (GPa) = 20.86902 -6.73052 7.06925
#
# Velocity S-wave (km/s) = 3.27747 -1.86128 1.90754
# Velocity P-wave (km/s) = 5.20070 4.52728 4.87563
#
# Compressibility (1/GPa) = 0.04045035
#
# Stress axis : x y z
#
# Youngs Moduli (GPa) = 94.71183 90.51638 25.47540
#
# Poissons Ratio (x) = 0.44686 0.01127
# Poissons Ratio (y) = 0.46758 0.12292
# Poissons Ratio (z) = 0.04192 0.43676
#
# Static dielectric constant tensor:
#      x y z
#    x 1.709440 0.000000 0.000000 
#    y 0.000000 1.692790 0.000000 
#    z 0.000000 0.000000 1.701370 
# 
# From -- ./inp_files/17988.got.cif
#   From: 2010.05.17/outbox.cif.g08.bks.cpg/sg49_9_cif.got.tgz:17988.got - 2010.06.03 21:02:19.
