data_PCOD9393970
_publ_section_title
;
Structure prediction by ZEFSAII (Michael W. Deem and Ramdas Pophale) SiO2 
 PCOD9393970
Probable space group: P C C M
;
_chemical_formula_sum "Si O2"
_cell_formula_units_Z 48
_cell_length_a 31.571728
_cell_length_b 9.260945
_cell_length_c 8.647504
_cell_angle_alpha 90.000000
_cell_angle_beta 90.000000
_cell_angle_gamma 90.000000
_cell_volume 2528.392126
_symmetry_space_group_name_H-M "P C C M"
_symmetry_group_IT_number 49
_symmetry_cell_setting 'orthorhombic'
loop_
_space_group_symop_operation_xyz
x,y,z
-x,-y,z
x,-y,1/2-z
-x,y,1/2-z
-x,-y,-z
x,y,-z
-x,y,1/2+z
x,-y,1/2+z
loop_
_atom_site_type_symbol
_atom_site_label
_atom_site_fract_x
_atom_site_fract_y
_atom_site_fract_z
Si Si1 0.372048 0.660796 0.686235
Si Si2 0.208424 0.337968 0.685058
Si Si3 0.045458 0.660764 0.314882
Si Si4 0.545398 0.838300 0.813911
Si Si5 0.871140 0.838424 0.185953
Si Si6 0.711612 0.837945 0.186286
O O1 0.368367 0.500000 0.750000
O O2 0.372148 0.654431 0.500000
O O3 0.415791 0.736989 0.734957
O O4 0.331848 0.757726 0.732613
O O5 0.209342 0.500000 0.750000
O O6 0.208955 0.341056 0.500000
O O7 0.166484 0.257200 0.744296
O O8 0.248887 0.250697 0.747351
O O9 0.053517 0.500000 0.250000
O O10 0.042925 0.652046 0.500000
O O11 0.083920 0.765686 0.272479
O O12 0.000000 0.709099 0.250000
O O13 0.500000 0.787884 0.750000
O O14 0.552237 0.000000 0.750000
O O15 0.543763 0.844226 0.000000
O O16 0.868457 0.000000 0.250000
O O17 0.867375 0.839852 0.000000
O O18 0.712153 0.000000 0.250000
O O19 0.714131 0.840693 0.000000
#
# Coordination Sequence:
#
# PCOD9393970 Si02
#       6
#     8   8   8   8   8   8
#     4  10  23  39  58  84 116 152 193 237 287 343
#     4  12  25  42  64  90 120 155 194 241 291 347
#     4  10  21  37  60  87 117 153 196 242 293 348
#     4  10  20  36  57  84 113 148 191 236 286 342
#     4  11  24  41  61  88 120 158 199 243 293 348
#     4  11  23  41  63  89 119 154 194 239 290 346
#
# _framework density 18.984397000000001
#
# number of rings (size 3 to 8) (size 9 to 14) (size 15 to 20)
#    0.000    1.333    0.000    6.500    0.000    8.667 
#    0.000    3.333    0.000    0.000    0.000    0.000 
#    0.000    0.000    0.000    0.000    0.000    0.000 
#
# Total GULP energy -268486.787134 kJ/mol
# GULP energy per Si atom -5593.474732 kJ/mol
# Density = 1.894119 g / cm^3
# Si number density = 18.984397 Si / 1000 Ang^3
#
#
#
# Elastic Constant Matrix: (Units=GPa)
#
#
# Indices 1 2 3 4 5 6 
#
# 1 197.3364 135.0906 70.8022 0.0000 0.0000 0.0000
# 2 135.0906 184.5313 61.6966 0.0000 0.0000 0.0000
# 3 70.8022 61.6966 86.6558 0.0000 0.0000 0.0000
# 4 0.0000 0.0000 0.0000 33.7031 0.0000 0.0000
# 5 0.0000 0.0000 0.0000 0.0000 29.5887 0.0000
# 6 0.0000 0.0000 0.0000 0.0000 0.0000 41.5192
#
#
#
# Elastic Compliance Matrix: (Units=1/GPa)
#
#
# Indices 1 2 3 4 5 6 
#
# 1 0.011301 -0.006806 -0.004388 0.000000 0.000000 0.000000
# 2 -0.006806 0.011211 -0.002421 0.000000 0.000000 0.000000
# 3 -0.004388 -0.002421 0.016849 0.000000 0.000000 0.000000
# 4 0.000000 0.000000 0.000000 0.029671 0.000000 0.000000
# 5 0.000000 0.000000 0.000000 0.000000 0.033797 0.000000
# 6 0.000000 0.000000 0.000000 0.000000 0.000000 0.024085
#
#
# Mechanical properties :
#
#
# Convention : Reuss Voigt Hill
#
# Bulk Modulus (GPa) = 82.43381 111.52247 96.97814
# Shear Modulus (GPa) = 31.60803 34.35779 32.98291
#
# Velocity S-wave (km/s) = 4.08480 4.25878 4.17270
# Velocity P-wave (km/s) = 8.10948 9.11344 8.62608
#
# Compressibility (1/GPa) = 0.01213094
#
# Stress axis : x y z
#
# Youngs Moduli (GPa) = 88.48683 89.19581 59.35197
#
# Poissons Ratio (x) = 0.60709 0.26042
# Poissons Ratio (y) = 0.60226 0.14370
# Poissons Ratio (z) = 0.38826 0.21595
#
# Static dielectric constant tensor:
#      x y z
#    x 1.648240 0.000000 0.000000 
#    y 0.000000 1.613830 0.000000 
#    z 0.000000 0.000000 1.640780 
# 
# From -- ./inp_files/2122.got.cif
#   From: 2010.05.17/outbox.cif.g08.bks.cpg/sg49_2_cif.got.tgz:2122.got - 2010.06.03 21:02:19.
