data_PCOD9393910
_publ_section_title
;
Structure prediction by ZEFSAII (Michael W. Deem and Ramdas Pophale) SiO2 
 PCOD9393910
Probable space group: P C C M
;
_chemical_formula_sum "Si O2"
_cell_formula_units_Z 56
_cell_length_a 20.537049
_cell_length_b 15.605252
_cell_length_c 8.917478
_cell_angle_alpha 90.000000
_cell_angle_beta 90.000000
_cell_angle_gamma 90.000000
_cell_volume 2857.925294
_symmetry_space_group_name_H-M "P C C M"
_symmetry_group_IT_number 49
_symmetry_cell_setting 'orthorhombic'
loop_
_space_group_symop_operation_xyz
x,y,z
-x,-y,z
x,-y,1/2-z
-x,y,1/2-z
-x,-y,-z
x,y,-z
-x,y,1/2+z
x,-y,1/2+z
loop_
_atom_site_type_symbol
_atom_site_label
_atom_site_fract_x
_atom_site_fract_y
_atom_site_fract_z
Si Si1 0.114002 0.412478 0.320976
Si Si2 0.931552 0.776063 0.680633
Si Si3 0.400856 0.586931 0.825550
Si Si4 0.743402 0.647580 0.323894
Si Si5 0.699525 0.822137 0.177248
Si Si6 0.566807 0.779232 0.680119
Si Si7 0.168621 0.909405 0.320236
O O1 0.088792 0.500000 0.250000
O O2 0.109441 0.419879 0.500000
O O3 0.080224 0.323475 0.276256
O O4 0.190412 0.399689 0.281169
O O5 0.931715 0.781661 0.500000
O O6 0.874373 0.834519 0.746933
O O7 0.000000 0.804431 0.750000
O O8 0.423902 0.500000 0.750000
O O9 0.322290 0.592651 0.812294
O O10 0.425119 0.679340 0.767810
O O11 0.417860 0.583073 0.000000
O O12 0.749463 0.673505 0.500000
O O13 0.731296 0.731550 0.225660
O O14 0.631392 0.827538 0.264189
O O15 0.755203 0.891037 0.212459
O O16 0.686872 0.822465 0.000000
O O17 0.500000 0.812709 0.750000
O O18 0.564899 0.779772 0.500000
O O19 0.160164 0.908742 0.500000
O O20 0.149306 0.000000 0.250000
#
# Coordination Sequence:
#
# PCOD9393910 Si02
#       7
#     8   8   8   8   8   8   8
#     4  10  21  35  56  84 118 162 208 256 306 358
#     4  11  24  43  65  90 126 167 207 255 308 363
#     4   9  18  29  44  68 102 143 189 242 295 350
#     4   9  17  32  51  76 110 150 196 244 301 355
#     4  10  20  35  59  89 118 151 193 242 295 355
#     4  10  21  36  54  78 111 153 199 244 297 359
#     4  11  24  42  68 100 128 158 199 246 303 370
#
# _framework density 19.594635
#
# number of rings (size 3 to 8) (size 9 to 14) (size 15 to 20)
#    0.000    2.000    1.429    3.000    0.000    7.143 
#    0.000    4.286    0.000    0.429    0.000    3.000 
#    0.000    0.000    0.000    0.000    0.000    0.000 
#
# Total GULP energy -312677.275908 kJ/mol
# GULP energy per Si atom -5583.522784 kJ/mol
# Density = 1.955004 g / cm^3
# Si number density = 19.594635 Si / 1000 Ang^3
#
#
#
# Elastic Constant Matrix: (Units=GPa)
#
#
# Indices 1 2 3 4 5 6 
#
# 1 112.5242 27.0382 44.2193 0.0000 0.0000 0.0000
# 2 27.0382 80.2471 34.8977 0.0000 0.0000 0.0000
# 3 44.2193 34.8977 48.1203 0.0000 0.0000 0.0000
# 4 0.0000 0.0000 0.0000 22.0700 0.0000 0.0000
# 5 0.0000 0.0000 0.0000 0.0000 21.6855 0.0000
# 6 0.0000 0.0000 0.0000 0.0000 0.0000 -5.3902
#
#
#
# Elastic Compliance Matrix: (Units=1/GPa)
#
#
# Indices 1 2 3 4 5 6 
#
# 1 0.014000 0.001282 -0.013795 0.000000 0.000000 0.000000
# 2 0.001282 0.018319 -0.014464 0.000000 0.000000 0.000000
# 3 -0.013795 -0.014464 0.043947 0.000000 0.000000 0.000000
# 4 0.000000 0.000000 0.000000 0.045310 0.000000 0.000000
# 5 0.000000 0.000000 0.000000 0.000000 0.046114 0.000000
# 6 0.000000 0.000000 0.000000 0.000000 0.000000 -0.185522
#
#
# Mechanical properties :
#
#
# Convention : Reuss Voigt Hill
#
# Bulk Modulus (GPa) = 44.81574 50.35576 47.58575
# Shear Modulus (GPa) = 114.78706 16.65548 65.72127
#
# Velocity S-wave (km/s) = 7.66212 2.91864 5.79769
# Velocity P-wave (km/s) = 10.05974 6.09200 8.31598
#
# Compressibility (1/GPa) = 0.02231359
#
# Stress axis : x y z
#
# Youngs Moduli (GPa) = 71.42904 54.58666 22.75476
#
# Poissons Ratio (x) = -0.06997 0.31389
# Poissons Ratio (y) = -0.09156 0.32912
# Poissons Ratio (z) = 0.98534 0.78952
#
# Static dielectric constant tensor:
#      x y z
#    x 1.700570 0.000000 0.000000 
#    y 0.000000 1.675210 0.000000 
#    z 0.000000 0.000000 1.664180 
# 
# From -- ./inp_files/5774.got.cif
#   From: 2010.05.17/outbox.cif.g08.bks.cpg/sg49_3_cif.got.tgz:5774.got - 2010.06.03 21:02:19.
