data_PCOD9393899
_publ_section_title
;
Structure prediction by ZEFSAII (Michael W. Deem and Ramdas Pophale) SiO2 
 PCOD9393899
Probable space group: P C C M
;
_chemical_formula_sum "Si O2"
_cell_formula_units_Z 48
_cell_length_a 14.704489
_cell_length_b 9.223422
_cell_length_c 16.010025
_cell_angle_alpha 90.000000
_cell_angle_beta 90.000000
_cell_angle_gamma 90.000000
_cell_volume 2171.370965
_symmetry_space_group_name_H-M "P C C M"
_symmetry_group_IT_number 49
_symmetry_cell_setting 'orthorhombic'
loop_
_space_group_symop_operation_xyz
x,y,z
-x,-y,z
x,-y,1/2-z
-x,y,1/2-z
-x,-y,-z
x,y,-z
-x,y,1/2+z
x,-y,1/2+z
loop_
_atom_site_type_symbol
_atom_site_label
_atom_site_fract_x
_atom_site_fract_y
_atom_site_fract_z
Si Si1 0.762516 0.593235 0.665446
Si Si2 0.698273 0.309138 0.597190
Si Si3 0.242540 0.877859 0.096713
Si Si4 0.027796 0.655266 0.152429
Si Si5 0.124072 0.868910 0.400425
Si Si6 0.402408 0.940836 0.343920
O O1 0.767295 0.500000 0.750000
O O2 0.711374 0.480612 0.606509
O O3 0.719907 0.751229 0.656652
O O4 0.864442 0.645769 0.642434
O O5 0.685618 0.277282 0.500000
O O6 0.796185 0.242645 0.626471
O O7 0.618062 0.230985 0.648457
O O8 0.155845 0.972044 0.130351
O O9 0.323387 0.993911 0.098655
O O10 0.227276 0.830132 0.000000
O O11 0.000000 0.500000 0.113642
O O12 0.000000 0.651833 0.250000
O O13 0.971394 0.792564 0.119303
O O14 0.128394 0.881980 0.500000
O O15 0.500000 0.000000 0.371527
O O16 0.389922 0.000000 0.250000
#
# Coordination Sequence:
#
# PCOD9393899 Si02
#       6
#     8   8   8   8   8   8
#     4  12  22  37  59  85 123 164 206 259 310 367
#     4  10  20  35  58  87 116 154 201 242 297 367
#     4  10  23  41  61  90 126 161 204 257 318 374
#     4  11  20  36  56  83 120 161 214 256 301 360
#     4   9  19  36  57  83 116 159 206 250 299 360
#     4  10  21  40  66  93 120 154 197 247 309 382
#
# _framework density 22.105848999999999
#
# number of rings (size 3 to 8) (size 9 to 14) (size 15 to 20)
#    0.000    1.667    3.333    3.000    0.000    5.000 
#    0.000    3.333    0.000    5.000    0.000    0.000 
#    0.000    0.000    0.000    0.000    0.000    0.000 
#
# Total GULP energy -267473.760968 kJ/mol
# GULP energy per Si atom -5572.370020 kJ/mol
# Density = 2.205553 g / cm^3
# Si number density = 22.105849 Si / 1000 Ang^3
#
#
#
# Elastic Constant Matrix: (Units=GPa)
#
#
# Indices 1 2 3 4 5 6 
#
# 1 83.1101 30.1032 13.4395 0.0000 0.0000 0.0000
# 2 30.1032 162.1469 31.1868 0.0000 0.0000 0.0000
# 3 13.4395 31.1868 53.6381 0.0000 0.0000 0.0000
# 4 0.0000 0.0000 0.0000 -8.1810 0.0000 0.0000
# 5 0.0000 0.0000 0.0000 0.0000 19.5836 0.0000
# 6 0.0000 0.0000 0.0000 0.0000 0.0000 23.2865
#
#
#
# Elastic Compliance Matrix: (Units=1/GPa)
#
#
# Indices 1 2 3 4 5 6 
#
# 1 0.013107 -0.002029 -0.002105 0.000000 0.000000 0.000000
# 2 -0.002029 0.007258 -0.003712 0.000000 0.000000 0.000000
# 3 -0.002105 -0.003712 0.021329 0.000000 0.000000 0.000000
# 4 0.000000 0.000000 0.000000 -0.122234 0.000000 0.000000
# 5 0.000000 0.000000 0.000000 0.000000 0.051063 0.000000
# 6 0.000000 0.000000 0.000000 0.000000 0.000000 0.042943
#
#
# Mechanical properties :
#
#
# Convention : Reuss Voigt Hill
#
# Bulk Modulus (GPa) = 38.45534 49.81712 44.13623
# Shear Modulus (GPa) = 132.18982 21.88219 77.03600
#
# Velocity S-wave (km/s) = 7.74134 3.14965 5.90968
# Velocity P-wave (km/s) = 9.86602 5.98429 8.15935
#
# Compressibility (1/GPa) = 0.02600419
#
# Stress axis : x y z
#
# Youngs Moduli (GPa) = 76.29305 137.78386 46.88491
#
# Poissons Ratio (x) = 0.27951 0.09868
# Poissons Ratio (y) = 0.15477 0.17402
# Poissons Ratio (z) = 0.16057 0.51140
#
# Static dielectric constant tensor:
#      x y z
#    x 1.870090 0.000000 0.000000 
#    y 0.000000 1.973060 0.000000 
#    z 0.000000 0.000000 1.896780 
# 
# From -- ./inp_files/17741.got.cif
#   From: 2010.05.17/outbox.cif.g08.bks.cpg/sg49_9_cif.got.tgz:17741.got - 2010.06.03 21:02:19.
