data_PCOD9393107
_publ_section_title
;
Structure prediction by ZEFSAII (Michael W. Deem and Ramdas Pophale) SiO2 
 PCOD9393107
Probable space group: P C C M
;
_chemical_formula_sum "Si O2"
_cell_formula_units_Z 48
_cell_length_a 14.761682
_cell_length_b 20.832852
_cell_length_c 8.748618
_cell_angle_alpha 90.000000
_cell_angle_beta 90.000000
_cell_angle_gamma 90.000000
_cell_volume 2690.444440
_symmetry_space_group_name_H-M "P C C M"
_symmetry_group_IT_number 49
_symmetry_cell_setting 'orthorhombic'
loop_
_space_group_symop_operation_xyz
x,y,z
-x,-y,z
x,-y,1/2-z
-x,y,1/2-z
-x,-y,-z
x,y,-z
-x,y,1/2+z
x,-y,1/2+z
loop_
_atom_site_type_symbol
_atom_site_label
_atom_site_fract_x
_atom_site_fract_y
_atom_site_fract_z
Si Si1 0.594410 0.383017 0.683029
Si Si2 0.213380 0.183309 0.683417
Si Si3 0.209155 0.567825 0.683098
Si Si4 0.405836 0.760602 0.183285
Si Si5 0.100586 0.311688 0.683308
Si Si6 0.901805 0.929871 0.817936
O O1 0.500000 0.408940 0.750000
O O2 0.587484 0.380118 0.500000
O O3 0.685106 0.421105 0.724971
O O4 0.605424 0.310824 0.747925
O O5 0.206701 0.173969 0.500000
O O6 0.317769 0.197801 0.721899
O O7 0.156302 0.247268 0.722284
O O8 0.170758 0.122687 0.767113
O O9 0.178200 0.500000 0.750000
O O10 0.202126 0.567755 0.500000
O O11 0.152146 0.626773 0.749638
O O12 0.500000 0.786513 0.250000
O O13 0.411599 0.754990 0.000000
O O14 0.097312 0.316789 0.500000
O O15 0.000000 0.307740 0.750000
O O16 0.000000 0.910975 0.750000
O O17 0.880475 0.000000 0.750000
O O18 0.908502 0.933908 0.000000
#
# Coordination Sequence:
#
# PCOD9393107 Si02
#       6
#     8   8   8   8   8   8
#     4  10  20  34  55  81 110 143 182 228 280 338
#     4  10  21  37  59  87 118 152 189 231 280 331
#     4  11  24  40  58  80 108 145 187 233 285 342
#     4  10  19  33  55  84 116 149 185 229 278 331
#     4  11  23  40  60  83 112 144 185 234 283 335
#     4  11  22  37  59  86 121 158 194 234 279 333
#
# _framework density 17.840917999999999
#
# number of rings (size 3 to 8) (size 9 to 14) (size 15 to 20)
#    0.000    1.500    1.667    5.500    0.000    6.667 
#    0.000    3.333    0.000    0.500    0.000    3.500 
#    0.000    0.000    0.000    0.000    0.000    0.000 
#
# Total GULP energy -268269.850179 kJ/mol
# GULP energy per Si atom -5588.955212 kJ/mol
# Density = 1.780031 g / cm^3
# Si number density = 17.840918 Si / 1000 Ang^3
#
#
#
# Elastic Constant Matrix: (Units=GPa)
#
#
# Indices 1 2 3 4 5 6 
#
# 1 134.2734 61.4771 53.6540 0.0000 0.0000 0.0000
# 2 61.4771 82.2123 42.0940 0.0000 0.0000 0.0000
# 3 53.6540 42.0940 73.5799 0.0000 0.0000 0.0000
# 4 0.0000 0.0000 0.0000 22.9750 0.0000 0.0000
# 5 0.0000 0.0000 0.0000 0.0000 10.6147 0.0000
# 6 0.0000 0.0000 0.0000 0.0000 0.0000 -2.5266
#
#
#
# Elastic Compliance Matrix: (Units=1/GPa)
#
#
# Indices 1 2 3 4 5 6 
#
# 1 0.012682 -0.006716 -0.005406 0.000000 0.000000 0.000000
# 2 -0.006716 0.020759 -0.006979 0.000000 0.000000 0.000000
# 3 -0.005406 -0.006979 0.021525 0.000000 0.000000 0.000000
# 4 0.000000 0.000000 0.000000 0.043526 0.000000 0.000000
# 5 0.000000 0.000000 0.000000 0.000000 0.094209 0.000000
# 6 0.000000 0.000000 0.000000 0.000000 0.000000 -0.395794
#
#
# Mechanical properties :
#
#
# Convention : Reuss Voigt Hill
#
# Bulk Modulus (GPa) = 59.64657 67.16844 63.40750
# Shear Modulus (GPa) = -31.38655 15.06866 -8.15895
#
# Velocity S-wave (km/s) = -4.19889 2.90937 -2.14082
# Velocity P-wave (km/s) = 3.16188 7.00116 5.43202
#
# Compressibility (1/GPa) = 0.01676542
#
# Stress axis : x y z
#
# Youngs Moduli (GPa) = 78.84885 48.17223 46.45742
#
# Poissons Ratio (x) = 0.32352 0.25115
# Poissons Ratio (y) = 0.52954 0.32421
# Poissons Ratio (z) = 0.42625 0.33618
#
# Static dielectric constant tensor:
#      x y z
#    x 1.612660 0.000000 0.000000 
#    y 0.000000 1.578390 0.000000 
#    z 0.000000 0.000000 1.595870 
# 
# From -- ./inp_files/3716.got.cif
#   From: 2010.05.17/outbox.cif.g08.bks.cpg/sg49_2_cif.got.tgz:3716.got - 2010.06.03 21:02:19.
