data_PCOD9393515
_publ_section_title
;
Structure prediction by ZEFSAII (Michael W. Deem and Ramdas Pophale) SiO2 
 PCOD9393515
Probable space group: P C C M
;
_chemical_formula_sum "Si O2"
_cell_formula_units_Z 64
_cell_length_a 18.859023
_cell_length_b 23.333856
_cell_length_c 8.735602
_cell_angle_alpha 90.000000
_cell_angle_beta 90.000000
_cell_angle_gamma 90.000000
_cell_volume 3844.134218
_symmetry_space_group_name_H-M "P C C M"
_symmetry_group_IT_number 49
_symmetry_cell_setting 'orthorhombic'
loop_
_space_group_symop_operation_xyz
x,y,z
-x,-y,z
x,-y,1/2-z
-x,y,1/2-z
-x,-y,-z
x,y,-z
-x,y,1/2+z
x,-y,1/2+z
loop_
_atom_site_type_symbol
_atom_site_label
_atom_site_fract_x
_atom_site_fract_y
_atom_site_fract_z
Si Si1 0.576250 0.936201 0.182572
Si Si2 0.878787 0.438771 0.682894
Si Si3 0.783286 0.751939 0.314780
Si Si4 0.431128 0.753324 0.173336
Si Si5 0.721075 0.442836 0.819916
Si Si6 0.687439 0.851590 0.674044
Si Si7 0.665971 0.332592 0.678677
Si Si8 0.925686 0.683380 0.316880
O O1 0.500000 0.915152 0.250000
O O2 0.645285 0.899018 0.229451
O O3 0.585154 0.000000 0.250000
O O4 0.569792 0.937741 0.000000
O O5 0.905615 0.500000 0.750000
O O6 0.884959 0.439970 0.500000
O O7 0.796465 0.435352 0.734400
O O8 0.912143 0.380260 0.748035
O O9 0.772302 0.746490 0.500000
O O10 0.758788 0.817174 0.275111
O O11 0.730550 0.709083 0.227234
O O12 0.861641 0.727633 0.281623
O O13 0.500000 0.779311 0.250000
O O14 0.369325 0.799930 0.169061
O O15 0.404460 0.701498 0.277573
O O16 0.444458 0.734688 0.000000
O O17 0.688242 0.500000 0.750000
O O18 0.674301 0.388472 0.780950
O O19 0.734521 0.448292 0.000000
O O20 0.698143 0.872932 0.500000
O O21 0.670065 0.346114 0.500000
O O22 0.929039 0.677590 0.500000
O O23 0.000000 0.704381 0.250000
#
# Coordination Sequence:
#
# PCOD9393515 Si02
#       8
#     8   8   8   8   8   8   8   8
#     4  11  21  33  50  74 107 147 183 217 250 291
#     4  11  21  34  51  72  95 125 161 202 249 305
#     4   9  19  35  53  71  97 130 166 207 251 295
#     4  10  20  33  49  71  99 129 162 202 247 291
#     4  11  20  32  49  70  93 118 152 195 242 293
#     4   9  18  33  52  74 100 134 172 211 249 288
#     4  11  20  31  50  72  94 122 157 197 244 293
#     4  11  22  36  53  73 100 133 166 206 255 309
#
# _framework density 16.648741999999999
#
# number of rings (size 3 to 8) (size 9 to 14) (size 15 to 20)
#    0.000    1.625    1.250    7.500    0.000    4.250 
#    0.000    1.250    0.000    0.375    0.000    2.625 
#    0.000    0.500    0.000    5.750    0.000    1.750 
#
# Total GULP energy -356907.273210 kJ/mol
# GULP energy per Si atom -5576.676144 kJ/mol
# Density = 1.661085 g / cm^3
# Si number density = 16.648742 Si / 1000 Ang^3
#
#
#
# Elastic Constant Matrix: (Units=GPa)
#
#
# Indices 1 2 3 4 5 6 
#
# 1 68.1840 39.6028 31.9385 0.0000 0.0000 0.0000
# 2 39.6028 79.1541 36.1600 0.0000 0.0000 0.0000
# 3 31.9385 36.1600 105.5508 0.0000 0.0000 0.0000
# 4 0.0000 0.0000 0.0000 22.3248 0.0000 0.0000
# 5 0.0000 0.0000 0.0000 0.0000 -2.2960 0.0000
# 6 0.0000 0.0000 0.0000 0.0000 0.0000 8.1627
#
#
#
# Elastic Compliance Matrix: (Units=1/GPa)
#
#
# Indices 1 2 3 4 5 6 
#
# 1 0.021637 -0.009288 -0.003365 0.000000 0.000000 0.000000
# 2 -0.009288 0.018965 -0.003686 0.000000 0.000000 0.000000
# 3 -0.003365 -0.003686 0.011755 0.000000 0.000000 0.000000
# 4 0.000000 0.000000 0.000000 0.044793 0.000000 0.000000
# 5 0.000000 0.000000 0.000000 0.000000 -0.435534 0.000000
# 6 0.000000 0.000000 0.000000 0.000000 0.000000 0.122508
#
#
# Mechanical properties :
#
#
# Convention : Reuss Voigt Hill
#
# Bulk Modulus (GPa) = 50.81962 52.03240 51.42601
# Shear Modulus (GPa) = -28.30683 15.31747 -6.49468
#
# Velocity S-wave (km/s) = -4.12787 3.03650 -1.97724
# Velocity P-wave (km/s) = 2.80567 6.60414 5.07378
#
# Compressibility (1/GPa) = 0.01967744
#
# Stress axis : x y z
#
# Youngs Moduli (GPa) = 46.21616 52.72893 85.06797
#
# Poissons Ratio (x) = 0.48977 0.28627
# Poissons Ratio (y) = 0.42928 0.31360
# Poissons Ratio (z) = 0.15553 0.19438
#
# Static dielectric constant tensor:
#      x y z
#    x 1.577870 0.000000 0.000000 
#    y 0.000000 1.590120 0.000000 
#    z 0.000000 0.000000 1.571120 
# 
# From -- ./inp_files/5336.got.cif
#   From: 2010.05.17/outbox.cif.g08.bks.cpg/sg49_3_cif.got.tgz:5336.got - 2010.06.03 21:02:19.
