data_PCOD9393205
_publ_section_title
;
Structure prediction by ZEFSAII (Michael W. Deem and Ramdas Pophale) SiO2 
 PCOD9393205
Probable space group: P C C M
;
_chemical_formula_sum "Si O2"
_cell_formula_units_Z 40
_cell_length_a 14.275865
_cell_length_b 9.121905
_cell_length_c 15.320382
_cell_angle_alpha 90.000000
_cell_angle_beta 90.000000
_cell_angle_gamma 90.000000
_cell_volume 1995.067397
_symmetry_space_group_name_H-M "P C C M"
_symmetry_group_IT_number 49
_symmetry_cell_setting 'orthorhombic'
loop_
_space_group_symop_operation_xyz
x,y,z
-x,-y,z
x,-y,1/2-z
-x,y,1/2-z
-x,-y,-z
x,y,-z
-x,y,1/2+z
x,-y,1/2+z
loop_
_atom_site_type_symbol
_atom_site_label
_atom_site_fract_x
_atom_site_fract_y
_atom_site_fract_z
Si Si1 0.431356 0.314497 0.333149
Si Si2 0.614590 0.618859 0.095648
Si Si3 0.887850 0.328941 0.244266
Si Si4 0.242873 0.176004 0.604049
Si Si5 0.784287 0.828921 0.101494
O O1 0.500000 0.288659 0.250000
O O2 0.511019 0.313976 0.406865
O O3 0.389771 0.479370 0.341266
O O4 0.343456 0.212126 0.351776
O O5 0.686984 0.744504 0.119743
O O6 0.641252 0.562633 0.000000
O O7 0.860070 0.500000 0.250000
O O8 0.837347 0.260719 0.158857
O O9 0.853015 0.239575 0.328264
O O10 0.000000 0.321488 0.250000
O O11 0.244005 0.213004 0.500000
O O12 0.225446 0.002467 0.611816
O O13 0.809828 0.799998 0.000000
#
# Coordination Sequence:
#
# PCOD9393205 Si02
#       5
#     8   8   8   8   8
#     4  11  21  34  55  86 123 164 210 254 301 359
#     4  10  19  34  56  84 118 160 205 252 303 363
#     4  11  25  44  67  95 125 162 211 264 321 386
#     4  11  24  43  66  95 130 171 213 261 321 385
#     4  10  23  42  66  95 129 166 210 263 323 384
#
# _framework density 20.049448999999999
#
# number of rings (size 3 to 8) (size 9 to 14) (size 15 to 20)
#    0.000    1.400    0.000    6.600    0.000    7.200 
#    0.000    9.000    0.000    0.000    0.000    0.000 
#    0.000    0.000    0.000    0.000    0.000    0.000 
#
# Total GULP energy -223152.429429 kJ/mol
# GULP energy per Si atom -5578.810736 kJ/mol
# Density = 2.000382 g / cm^3
# Si number density = 20.049449 Si / 1000 Ang^3
#
#
#
# Elastic Constant Matrix: (Units=GPa)
#
#
# Indices 1 2 3 4 5 6 
#
# 1 102.1052 61.2915 66.0302 0.0000 0.0000 0.0000
# 2 61.2915 112.0396 81.6019 0.0000 0.0000 0.0000
# 3 66.0302 81.6019 160.2544 0.0000 0.0000 0.0000
# 4 0.0000 0.0000 0.0000 29.1800 0.0000 0.0000
# 5 0.0000 0.0000 0.0000 0.0000 18.9898 0.0000
# 6 0.0000 0.0000 0.0000 0.0000 0.0000 325.0730
#
#
#
# Elastic Compliance Matrix: (Units=1/GPa)
#
#
# Indices 1 2 3 4 5 6 
#
# 1 0.015616 -0.006130 -0.003313 0.000000 0.000000 0.000000
# 2 -0.006130 0.016593 -0.005924 0.000000 0.000000 0.000000
# 3 -0.003313 -0.005924 0.010621 0.000000 0.000000 0.000000
# 4 0.000000 0.000000 0.000000 0.034270 0.000000 0.000000
# 5 0.000000 0.000000 0.000000 0.000000 0.052660 0.000000
# 6 0.000000 0.000000 0.000000 0.000000 0.000000 0.003076
#
#
# Mechanical properties :
#
#
# Convention : Reuss Voigt Hill
#
# Bulk Modulus (GPa) = 82.65998 88.02739 85.34369
# Shear Modulus (GPa) = 29.83265 85.68024 57.75645
#
# Velocity S-wave (km/s) = 3.86159 6.54425 5.37304
# Velocity P-wave (km/s) = 7.82304 10.05502 9.00843
#
# Compressibility (1/GPa) = 0.01209775
#
# Stress axis : x y z
#
# Youngs Moduli (GPa) = 64.03758 60.26635 94.14938
#
# Poissons Ratio (x) = 0.36942 0.31191
# Poissons Ratio (y) = 0.39253 0.55770
# Poissons Ratio (z) = 0.21215 0.35699
#
# Static dielectric constant tensor:
#      x y z
#    x 1.701320 0.000000 0.000000 
#    y 0.000000 1.698340 0.000000 
#    z 0.000000 0.000000 1.801510 
# 
# From -- ./inp_files/11596.got.cif
#   From: 2010.05.17/outbox.cif.g08.bks.cpg/sg49_6_cif.got.tgz:11596.got - 2010.06.03 21:02:19.
