data_PCOD9393473
_publ_section_title
;
Structure prediction by ZEFSAII (Michael W. Deem and Ramdas Pophale) SiO2 
 PCOD9393473
Probable space group: P C C M
;
_chemical_formula_sum "Si O2"
_cell_formula_units_Z 58
_cell_length_a 26.219953
_cell_length_b 15.157971
_cell_length_c 8.069551
_cell_angle_alpha 90.000000
_cell_angle_beta 90.000000
_cell_angle_gamma 90.000000
_cell_volume 3207.172737
_symmetry_space_group_name_H-M "P C C M"
_symmetry_group_IT_number 49
_symmetry_cell_setting 'orthorhombic'
loop_
_space_group_symop_operation_xyz
x,y,z
-x,-y,z
x,-y,1/2-z
-x,y,1/2-z
-x,-y,-z
x,y,-z
-x,y,1/2+z
x,-y,1/2+z
loop_
_atom_site_type_symbol
_atom_site_label
_atom_site_fract_x
_atom_site_fract_y
_atom_site_fract_z
Si Si1 0.195375 0.098686 0.800646
Si Si2 0.333818 0.602337 0.700945
Si Si3 0.836932 0.596660 0.309253
Si Si4 0.755478 0.272372 0.693861
Si Si5 0.554024 0.397521 0.303196
Si Si6 0.000000 0.000000 0.250000
Si Si7 0.943476 0.656476 0.195807
Si Si8 0.078250 0.137329 0.200918
O O1 0.231902 0.176201 0.734315
O O2 0.136778 0.119345 0.753049
O O3 0.209014 0.000000 0.750000
O O4 0.196017 0.103762 0.000000
O O5 0.326062 0.500000 0.750000
O O6 0.332833 0.603432 0.500000
O O7 0.289648 0.667034 0.764860
O O8 0.390358 0.633429 0.757319
O O9 0.821115 0.500000 0.250000
O O10 0.823337 0.608503 0.500000
O O11 0.807324 0.671034 0.207444
O O12 0.897361 0.607569 0.285813
O O13 0.743336 0.260030 0.500000
O O14 0.552736 0.500000 0.250000
O O15 0.500000 0.356469 0.250000
O O16 0.554779 0.394031 0.500000
O O17 0.958175 0.072929 0.194477
O O18 0.936113 0.761115 0.228808
O O19 0.000000 0.629951 0.250000
O O20 0.937455 0.642271 0.000000
O O21 0.071361 0.119359 0.000000
#
# Coordination Sequence:
#
# PCOD9393473 Si02
#       8
#     8   8   8   8   8   2   8   8
#     4  10  20  36  54  74  99 130 163 200 250 303
#     4   9  18  30  47  71 101 137 177 214 253 296
#     4  12  25  40  58  80 101 131 167 207 252 303
#     4  10  20  37  56  75 103 137 170 213 256 299
#     4   9  15  24  39  63  95 134 174 210 248 293
#     4  12  18  32  48  78 102 124 154 192 244 300
#     4  11  22  40  58  77 101 127 159 199 247 298
#     4  10  20  32  49  72  99 126 151 187 238 294
#
# _framework density 18.084465999999999
#
# number of rings (size 3 to 8) (size 9 to 14) (size 15 to 20)
#    0.000    1.793    2.759    3.103    0.000    3.034 
#    0.000    1.379    0.000    0.000    0.000    0.000 
#    0.000    0.552    0.000    6.897    0.000    0.000 
#
# Total GULP energy -323388.497354 kJ/mol
# GULP energy per Si atom -5575.663747 kJ/mol
# Density = 1.804330 g / cm^3
# Si number density = 18.084466 Si / 1000 Ang^3
#
#
#
# Elastic Constant Matrix: (Units=GPa)
#
#
# Indices 1 2 3 4 5 6 
#
# 1 131.5376 44.5054 6.0951 0.0000 0.0000 0.0000
# 2 44.5054 80.6973 4.0398 0.0000 0.0000 0.0000
# 3 6.0951 4.0398 25.0661 0.0000 0.0000 0.0000
# 4 0.0000 0.0000 0.0000 13.6427 0.0000 0.0000
# 5 0.0000 0.0000 0.0000 0.0000 30.3905 0.0000
# 6 0.0000 0.0000 0.0000 0.0000 0.0000 1.6889
#
#
#
# Elastic Compliance Matrix: (Units=1/GPa)
#
#
# Indices 1 2 3 4 5 6 
#
# 1 0.009399 -0.005111 -0.001462 0.000000 0.000000 0.000000
# 2 -0.005111 0.015272 -0.001219 0.000000 0.000000 0.000000
# 3 -0.001462 -0.001219 0.040446 0.000000 0.000000 0.000000
# 4 0.000000 0.000000 0.000000 0.073299 0.000000 0.000000
# 5 0.000000 0.000000 0.000000 0.000000 0.032905 0.000000
# 6 0.000000 0.000000 0.000000 0.000000 0.000000 0.592102
#
#
# Mechanical properties :
#
#
# Convention : Reuss Voigt Hill
#
# Bulk Modulus (GPa) = 20.18770 38.50905 29.34837
# Shear Modulus (GPa) = 6.28522 21.32180 13.80351
#
# Velocity S-wave (km/s) = 1.86629 3.43740 2.76575
# Velocity P-wave (km/s) = 3.97885 6.09053 5.14421
#
# Compressibility (1/GPa) = 0.04953512
#
# Stress axis : x y z
#
# Youngs Moduli (GPa) = 106.39099 65.48121 24.72410
#
# Poissons Ratio (x) = 0.33465 0.03614
# Poissons Ratio (y) = 0.54372 0.03013
# Poissons Ratio (z) = 0.15553 0.07979
#
# Static dielectric constant tensor:
#      x y z
#    x 1.660860 0.000000 0.000000 
#    y 0.000000 1.595970 0.000000 
#    z 0.000000 0.000000 1.661220 
# 
# From -- ./inp_files/6772.got.cif
#   From: 2010.05.17/outbox.cif.g08.bks.cpg/sg49_4_cif.got.tgz:6772.got - 2010.06.03 21:02:19.
