data_PCOD9393072
_publ_section_title
;
Structure prediction by ZEFSAII (Michael W. Deem and Ramdas Pophale) SiO2 
 PCOD9393072
Probable space group: P C C M
;
_chemical_formula_sum "Si O2"
_cell_formula_units_Z 58
_cell_length_a 26.773119
_cell_length_b 13.361254
_cell_length_c 8.190974
_cell_angle_alpha 90.000000
_cell_angle_beta 90.000000
_cell_angle_gamma 90.000000
_cell_volume 2930.095233
_symmetry_space_group_name_H-M "P C C M"
_symmetry_group_IT_number 49
_symmetry_cell_setting 'orthorhombic'
loop_
_space_group_symop_operation_xyz
x,y,z
-x,-y,z
x,-y,1/2-z
-x,y,1/2-z
-x,-y,-z
x,y,-z
-x,y,1/2+z
x,-y,1/2+z
loop_
_atom_site_type_symbol
_atom_site_label
_atom_site_fract_x
_atom_site_fract_y
_atom_site_fract_z
Si Si1 0.397113 0.108876 0.804772
Si Si2 0.000000 0.000000 0.250000
Si Si3 0.341186 0.392647 0.304543
Si Si4 0.554595 0.688216 0.306598
Si Si5 0.292808 0.807113 0.306507
Si Si6 0.188561 0.887810 0.696643
Si Si7 0.057382 0.391878 0.805435
Si Si8 0.921572 0.834046 0.308067
O O1 0.432170 0.198154 0.743468
O O2 0.340282 0.129326 0.741148
O O3 0.413893 0.000000 0.750000
O O4 0.396157 0.114029 0.000000
O O5 0.957511 0.912286 0.209501
O O6 0.323295 0.500000 0.250000
O O7 0.340184 0.383003 0.500000
O O8 0.398308 0.375833 0.244482
O O9 0.308517 0.305759 0.227202
O O10 0.500000 0.657538 0.250000
O O11 0.554968 0.682393 0.500000
O O12 0.290894 0.826883 0.500000
O O13 0.237325 0.827671 0.244394
O O14 0.183433 0.879144 0.500000
O O15 0.135880 0.859863 0.775255
O O16 0.199714 0.000000 0.750000
O O17 0.080151 0.500000 0.750000
O O18 0.073895 0.283770 0.735512
O O19 0.000000 0.396824 0.750000
O O20 0.061296 0.387183 0.000000
O O21 0.934492 0.849610 0.500000
#
# Coordination Sequence:
#
# PCOD9393072 Si02
#       8
#     8   2   8   8   8   8   8   8
#     4  10  19  33  54  79 108 145 187 231 281 339
#     4  12  26  40  66  90 130 168 214 250 308 360
#     4  10  21  37  60  86 113 147 190 239 291 350
#     4  10  21  36  53  78 111 148 189 235 286 340
#     4   9  20  38  59  83 113 148 187 235 288 344
#     4  11  23  39  60  89 124 159 197 242 295 355
#     4  11  22  39  63  89 119 155 200 247 295 350
#     4  12  25  41  63  92 127 166 210 256 307 363
#
# _framework density 19.794578000000001
#
# number of rings (size 3 to 8) (size 9 to 14) (size 15 to 20)
#    0.000    1.517    1.379    4.345    0.000    4.966 
#    0.000    3.448    0.000    3.310    0.000    0.000 
#    0.000    0.000    0.000    0.000    0.000    0.000 
#
# Total GULP energy -323288.123808 kJ/mol
# GULP energy per Si atom -5573.933169 kJ/mol
# Density = 1.974952 g / cm^3
# Si number density = 19.794578 Si / 1000 Ang^3
#
#
#
# Elastic Constant Matrix: (Units=GPa)
#
#
# Indices 1 2 3 4 5 6 
#
# 1 107.4472 22.4732 4.4330 0.0000 0.0000 0.0000
# 2 22.4732 101.7615 -11.9223 0.0000 0.0000 0.0000
# 3 4.4330 -11.9223 39.8294 0.0000 0.0000 0.0000
# 4 0.0000 0.0000 0.0000 19.7780 0.0000 0.0000
# 5 0.0000 0.0000 0.0000 0.0000 25.3823 0.0000
# 6 0.0000 0.0000 0.0000 0.0000 0.0000 40.2032
#
#
#
# Elastic Compliance Matrix: (Units=1/GPa)
#
#
# Indices 1 2 3 4 5 6 
#
# 1 0.009883 -0.002395 -0.001817 0.000000 0.000000 0.000000
# 2 -0.002395 0.010765 0.003489 0.000000 0.000000 0.000000
# 3 -0.001817 0.003489 0.026354 0.000000 0.000000 0.000000
# 4 0.000000 0.000000 0.000000 0.050561 0.000000 0.000000
# 5 0.000000 0.000000 0.000000 0.000000 0.039398 0.000000
# 6 0.000000 0.000000 0.000000 0.000000 0.000000 0.024874
#
#
# Mechanical properties :
#
#
# Convention : Reuss Voigt Hill
#
# Bulk Modulus (GPa) = 21.95198 31.00067 26.47632
# Shear Modulus (GPa) = 28.01663 32.67631 30.34647
#
# Velocity S-wave (km/s) = 3.76622 4.06738 3.91969
# Velocity P-wave (km/s) = 5.47965 6.14437 5.82150
#
# Compressibility (1/GPa) = 0.04555398
#
# Stress axis : x y z
#
# Youngs Moduli (GPa) = 101.18514 92.89662 37.94546
#
# Poissons Ratio (x) = 0.22253 0.06895
# Poissons Ratio (y) = 0.24238 -0.13239
# Poissons Ratio (z) = 0.18385 -0.32410
#
# Static dielectric constant tensor:
#      x y z
#    x 1.700070 0.000000 0.000000 
#    y 0.000000 1.708180 0.000000 
#    z 0.000000 0.000000 1.715070 
# 
# From -- ./inp_files/6756.got.cif
#   From: 2010.05.17/outbox.cif.g08.bks.cpg/sg49_4_cif.got.tgz:6756.got - 2010.06.03 21:02:19.
