data_PCOD9393108
_publ_section_title
;
Structure prediction by ZEFSAII (Michael W. Deem and Ramdas Pophale) SiO2 
 PCOD9393108
Probable space group: P C C M
;
_chemical_formula_sum "Si O2"
_cell_formula_units_Z 40
_cell_length_a 7.104173
_cell_length_b 9.705785
_cell_length_c 24.407615
_cell_angle_alpha 90.000000
_cell_angle_beta 90.000000
_cell_angle_gamma 90.000000
_cell_volume 1682.943514
_symmetry_space_group_name_H-M "P C C M"
_symmetry_group_IT_number 49
_symmetry_cell_setting 'orthorhombic'
loop_
_space_group_symop_operation_xyz
x,y,z
-x,-y,z
x,-y,1/2-z
-x,y,1/2-z
-x,-y,-z
x,y,-z
-x,y,1/2+z
x,-y,1/2+z
loop_
_atom_site_type_symbol
_atom_site_label
_atom_site_fract_x
_atom_site_fract_y
_atom_site_fract_z
Si Si1 0.403175 0.632898 0.845460
Si Si2 0.793722 0.966722 0.423604
Si Si3 0.312590 0.265291 0.939026
Si Si4 0.866844 0.334814 0.060387
Si Si5 0.698983 0.922889 0.302618
O O1 0.500000 0.500000 0.818544
O O2 0.563369 0.682992 0.888647
O O3 0.227458 0.596820 0.886265
O O4 0.341265 0.758228 0.805416
O O5 0.672645 0.098776 0.438278
O O6 0.758059 0.811940 0.441951
O O7 0.803772 0.955384 0.358275
O O8 0.000000 0.000000 0.444506
O O9 0.089727 0.303919 0.931888
O O10 0.368500 0.314258 0.000000
O O11 0.842013 0.399482 0.000000
O O12 0.500000 0.000000 0.308734
O O13 0.783781 0.000000 0.250000
#
# Coordination Sequence:
#
# PCOD9393108 Si02
#       5
#     8   8   8   8   8
#     4  11  23  38  57  85 119 155 191 234 289 346
#     4   9  17  32  55  85 116 148 191 244 289 333
#     4  10  19  33  55  84 122 161 194 233 280 332
#     4   9  19  33  53  86 122 158 198 235 274 335
#     4  10  20  38  61  82 109 139 191 248 292 346
#
# _framework density 23.767883000000001
#
# number of rings (size 3 to 8) (size 9 to 14) (size 15 to 20)
#    0.000    2.200    2.000    1.200    0.000    5.200 
#    0.000    7.000    0.000    0.000    0.000    0.000 
#    0.000    0.000    0.000    0.000    0.000    0.000 
#
# Total GULP energy -223222.350760 kJ/mol
# GULP energy per Si atom -5580.558769 kJ/mol
# Density = 2.371379 g / cm^3
# Si number density = 23.767883 Si / 1000 Ang^3
#
#
#
# Elastic Constant Matrix: (Units=GPa)
#
#
# Indices 1 2 3 4 5 6 
#
# 1 89.7970 20.2268 14.1745 0.0000 0.0000 0.0000
# 2 20.2268 137.5651 46.0385 0.0000 0.0000 0.0000
# 3 14.1745 46.0385 157.3546 0.0000 0.0000 0.0000
# 4 0.0000 0.0000 0.0000 -0.1709 0.0000 0.0000
# 5 0.0000 0.0000 0.0000 0.0000 3.1744 0.0000
# 6 0.0000 0.0000 0.0000 0.0000 0.0000 34.2154
#
#
#
# Elastic Compliance Matrix: (Units=1/GPa)
#
#
# Indices 1 2 3 4 5 6 
#
# 1 0.011569 -0.001499 -0.000604 0.000000 0.000000 0.000000
# 2 -0.001499 0.008253 -0.002279 0.000000 0.000000 0.000000
# 3 -0.000604 -0.002279 0.007076 0.000000 0.000000 0.000000
# 4 0.000000 0.000000 0.000000 -5.851847 0.000000 0.000000
# 5 0.000000 0.000000 0.000000 0.000000 0.315021 0.000000
# 6 0.000000 0.000000 0.000000 0.000000 0.000000 0.029227
#
#
# Mechanical properties :
#
#
# Convention : Reuss Voigt Hill
#
# Bulk Modulus (GPa) = 55.14539 60.62180 57.88359
# Shear Modulus (GPa) = -0.91476 27.72890 13.40707
#
# Velocity S-wave (km/s) = -0.62106 3.41934 2.37762
# Velocity P-wave (km/s) = 4.76841 6.41485 5.65190
#
# Compressibility (1/GPa) = 0.01813388
#
# Stress axis : x y z
#
# Youngs Moduli (GPa) = 86.43661 121.17445 141.31542
#
# Poissons Ratio (x) = 0.18165 0.08529
# Poissons Ratio (y) = 0.12957 0.32213
# Poissons Ratio (z) = 0.05217 0.27621
#
# Static dielectric constant tensor:
#      x y z
#    x 1.947700 0.000000 0.000000 
#    y 0.000000 1.996120 0.000000 
#    z 0.000000 0.000000 2.008400 
# 
# From -- ./inp_files/22222.got.cif
#   From: 2010.05.17/outbox.cif.g08.bks.cpg/sg49_12_cif.got.tgz:22222.got - 2010.06.03 21:02:19.
