data_PCOD9393599
_publ_section_title
;
Structure prediction by ZEFSAII (Michael W. Deem and Ramdas Pophale) SiO2 
 PCOD9393599
Probable space group: P C C M
;
_chemical_formula_sum "Si O2"
_cell_formula_units_Z 32
_cell_length_a 8.902540
_cell_length_b 11.082892
_cell_length_c 15.194718
_cell_angle_alpha 90.000000
_cell_angle_beta 90.000000
_cell_angle_gamma 90.000000
_cell_volume 1499.200365
_symmetry_space_group_name_H-M "P C C M"
_symmetry_group_IT_number 49
_symmetry_cell_setting 'orthorhombic'
loop_
_space_group_symop_operation_xyz
x,y,z
-x,-y,z
x,-y,1/2-z
-x,y,1/2-z
-x,-y,-z
x,y,-z
-x,y,1/2+z
x,-y,1/2+z
loop_
_atom_site_type_symbol
_atom_site_label
_atom_site_fract_x
_atom_site_fract_y
_atom_site_fract_z
Si Si1 0.602042 0.612081 0.602594
Si Si2 0.935158 0.620379 0.651422
Si Si3 0.568940 0.122232 0.152252
Si Si4 0.069808 0.118983 0.651159
O O1 0.500000 0.500000 0.630461
O O2 0.640372 0.593439 0.500000
O O3 0.756137 0.610725 0.656035
O O4 0.534395 0.746731 0.611049
O O5 0.968292 0.751010 0.609907
O O6 0.000000 0.500000 0.607949
O O7 0.000000 0.623727 0.750000
O O8 0.500000 0.128196 0.250000
O O9 0.749721 0.108752 0.155138
O O10 0.500000 0.000000 0.111098
O O11 0.000000 0.122626 0.750000
O O12 0.000000 0.000000 0.608493
#
# Coordination Sequence:
#
# PCOD9393599 Si02
#       4
#     8   8   8   8
#     4  10  23  40  57  82 119 158 193 235 290 350
#     4   9  19  34  55  82 107 142 191 238 282 332
#     4  10  20  33  55  85 112 145 191 240 287 339
#     4   9  16  28  47  74 107 134 168 222 279 328
#
# _framework density 21.344712000000001
#
# number of rings (size 3 to 8) (size 9 to 14) (size 15 to 20)
#    0.000    2.500    0.000    3.000    0.000   13.500 
#    0.000    0.000    0.000   12.000    0.000    0.000 
#    0.000    1.000    0.000    0.000    0.000    0.000 
#
# Total GULP energy -178397.718273 kJ/mol
# GULP energy per Si atom -5574.928696 kJ/mol
# Density = 2.129613 g / cm^3
# Si number density = 21.344712 Si / 1000 Ang^3
#
#
#
# Elastic Constant Matrix: (Units=GPa)
#
#
# Indices 1 2 3 4 5 6 
#
# 1 92.9747 90.8182 22.3791 0.0000 0.0000 0.0000
# 2 90.8182 274.4385 12.6207 0.0000 0.0000 0.0000
# 3 22.3791 12.6207 55.2154 0.0000 0.0000 0.0000
# 4 0.0000 0.0000 0.0000 17.2497 0.0000 0.0000
# 5 0.0000 0.0000 0.0000 0.0000 -3.0612 0.0000
# 6 0.0000 0.0000 0.0000 0.0000 0.0000 43.6996
#
#
#
# Elastic Compliance Matrix: (Units=1/GPa)
#
#
# Indices 1 2 3 4 5 6 
#
# 1 0.017588 -0.005551 -0.005860 0.000000 0.000000 0.000000
# 2 -0.005551 0.005434 0.001008 0.000000 0.000000 0.000000
# 3 -0.005860 0.001008 0.020256 0.000000 0.000000 0.000000
# 4 0.000000 0.000000 0.000000 0.057972 0.000000 0.000000
# 5 0.000000 0.000000 0.000000 0.000000 -0.326669 0.000000
# 6 0.000000 0.000000 0.000000 0.000000 0.000000 0.022884
#
#
# Mechanical properties :
#
#
# Convention : Reuss Voigt Hill
#
# Bulk Modulus (GPa) = 44.49965 74.91827 59.70896
# Shear Modulus (GPa) = -28.69625 31.36501 1.33438
#
# Velocity S-wave (km/s) = -3.67061 3.83750 0.79153
# Velocity P-wave (km/s) = 1.71139 7.40342 5.37306
#
# Compressibility (1/GPa) = 0.02247209
#
# Stress axis : x y z
#
# Youngs Moduli (GPa) = 56.85632 184.01367 49.36915
#
# Poissons Ratio (x) = 1.02144 0.28929
# Poissons Ratio (y) = 0.31560 -0.04975
# Poissons Ratio (z) = 0.33317 -0.18542
#
# Static dielectric constant tensor:
#      x y z
#    x 1.728370 0.000000 0.000000 
#    y 0.000000 1.886820 0.000000 
#    z 0.000000 0.000000 1.745490 
# 
# From -- ./inp_files/11209.got.cif
#   From: 2010.05.17/outbox.cif.g08.bks.cpg/sg49_6_cif.got.tgz:11209.got - 2010.06.03 21:02:19.
