data_PCOD9393126
_publ_section_title
;
Structure prediction by ZEFSAII (Michael W. Deem and Ramdas Pophale) SiO2 
 PCOD9393126
Probable space group: P C C M
;
_chemical_formula_sum "Si O2"
_cell_formula_units_Z 42
_cell_length_a 6.766798
_cell_length_b 19.606394
_cell_length_c 18.803232
_cell_angle_alpha 90.000000
_cell_angle_beta 90.000000
_cell_angle_gamma 90.000000
_cell_volume 2494.671942
_symmetry_space_group_name_H-M "P C C M"
_symmetry_group_IT_number 49
_symmetry_cell_setting 'orthorhombic'
loop_
_space_group_symop_operation_xyz
x,y,z
-x,-y,z
x,-y,1/2-z
-x,y,1/2-z
-x,-y,-z
x,y,-z
-x,y,1/2+z
x,-y,1/2+z
loop_
_atom_site_type_symbol
_atom_site_label
_atom_site_fract_x
_atom_site_fract_y
_atom_site_fract_z
Si Si1 0.594267 0.171117 0.328740
Si Si2 0.070189 0.285806 0.832184
Si Si3 0.796638 0.187421 0.915641
Si Si4 0.500000 0.500000 0.750000
Si Si5 0.123832 0.438215 0.823465
Si Si6 0.051191 0.079150 0.168297
O O1 0.500000 0.169811 0.250000
O O2 0.744013 0.234749 0.335085
O O3 0.422692 0.179321 0.385725
O O4 0.722993 0.102790 0.340875
O O5 0.119052 0.362878 0.855788
O O6 0.000000 0.285307 0.750000
O O7 0.899073 0.253288 0.880197
O O8 0.920837 0.123814 0.884831
O O9 0.804231 0.190274 0.000000
O O10 0.346343 0.458599 0.800160
O O11 0.000000 0.500000 0.860561
O O12 0.000000 0.430588 0.750000
O O13 0.000000 0.098804 0.250000
O O14 0.000000 0.000000 0.159990
#
# Coordination Sequence:
#
# PCOD9393126 Si02
#       6
#     8   8   8   2   8   8
#     4  11  19  34  57  83 108 143 188 223 266 325
#     4  10  19  33  58  81 108 146 184 228 279 327
#     4  11  23  38  55  82 113 142 183 233 278 327
#     4   8  14  24  40  74 118 140 166 226 272 324
#     4   8  16  27  45  77 112 141 178 223 281 321
#     4  10  21  39  60  82 109 145 182 223 272 327
#
# _framework density 16.835881000000001
#
# number of rings (size 3 to 8) (size 9 to 14) (size 15 to 20)
#    0.000    2.286    3.810    1.143    1.333    5.714 
#    0.000    0.952    0.000    0.571    0.000    2.000 
#    0.000    0.000    0.000    0.000    0.000    0.000 
#
# Total GULP energy -233974.382427 kJ/mol
# GULP energy per Si atom -5570.818629 kJ/mol
# Density = 1.679756 g / cm^3
# Si number density = 16.835881 Si / 1000 Ang^3
#
#
#
# Elastic Constant Matrix: (Units=GPa)
#
#
# Indices 1 2 3 4 5 6 
#
# 1 140.0402 63.6638 45.8378 0.0000 0.0000 0.0000
# 2 63.6638 135.1307 43.1395 0.0000 0.0000 0.0000
# 3 45.8378 43.1395 104.4646 0.0000 0.0000 0.0000
# 4 0.0000 0.0000 0.0000 -3.5629 0.0000 0.0000
# 5 0.0000 0.0000 0.0000 0.0000 16.8032 0.0000
# 6 0.0000 0.0000 0.0000 0.0000 0.0000 23.9866
#
#
#
# Elastic Compliance Matrix: (Units=1/GPa)
#
#
# Indices 1 2 3 4 5 6 
#
# 1 0.009721 -0.003707 -0.002735 0.000000 0.000000 0.000000
# 2 -0.003707 0.009937 -0.002477 0.000000 0.000000 0.000000
# 3 -0.002735 -0.002477 0.011796 0.000000 0.000000 0.000000
# 4 0.000000 0.000000 0.000000 -0.280674 0.000000 0.000000
# 5 0.000000 0.000000 0.000000 0.000000 0.059512 0.000000
# 6 0.000000 0.000000 0.000000 0.000000 0.000000 0.041690
#
#
# Mechanical properties :
#
#
# Convention : Reuss Voigt Hill
#
# Bulk Modulus (GPa) = 73.44013 76.10197 74.77105
# Shear Modulus (GPa) = -39.79605 22.57836 -8.60884
#
# Velocity S-wave (km/s) = -4.86713 3.66606 -2.26373
# Velocity P-wave (km/s) = 3.48290 7.95112 6.13804
#
# Compressibility (1/GPa) = 0.01361653
#
# Stress axis : x y z
#
# Youngs Moduli (GPa) = 102.86899 100.62920 84.77744
#
# Poissons Ratio (x) = 0.37302 0.23184
# Poissons Ratio (y) = 0.38132 0.21001
# Poissons Ratio (z) = 0.28132 0.24928
#
# Static dielectric constant tensor:
#      x y z
#    x 1.565610 0.000000 0.000000 
#    y 0.000000 1.616500 0.000000 
#    z 0.000000 0.000000 1.541480 
# 
# From -- ./inp_files/18955.got.cif
#   From: 2010.05.17/outbox.cif.g08.bks.cpg/sg49_10_cif.got.tgz:18955.got - 2010.06.03 21:02:19.
