data_PCOD9393343
_publ_section_title
;
Structure prediction by ZEFSAII (Michael W. Deem and Ramdas Pophale) SiO2 
 PCOD9393343
Probable space group: P C C M
;
_chemical_formula_sum "Si O2"
_cell_formula_units_Z 56
_cell_length_a 13.141687
_cell_length_b 9.822898
_cell_length_c 21.833096
_cell_angle_alpha 90.000000
_cell_angle_beta 90.000000
_cell_angle_gamma 90.000000
_cell_volume 2818.422375
_symmetry_space_group_name_H-M "P C C M"
_symmetry_group_IT_number 49
_symmetry_cell_setting 'orthorhombic'
loop_
_space_group_symop_operation_xyz
x,y,z
-x,-y,z
x,-y,1/2-z
-x,y,1/2-z
-x,-y,-z
x,y,-z
-x,y,1/2+z
x,-y,1/2+z
loop_
_atom_site_type_symbol
_atom_site_label
_atom_site_fract_x
_atom_site_fract_y
_atom_site_fract_z
Si Si1 0.540351 0.345195 0.685211
Si Si2 0.407622 0.705869 0.928455
Si Si3 0.027163 0.852019 0.845567
Si Si4 0.835120 0.795437 0.930559
Si Si5 0.901886 0.424934 0.813738
Si Si6 0.777504 0.090829 0.071315
Si Si7 0.717169 0.454892 0.382382
O O1 0.500000 0.500000 0.686459
O O2 0.500000 0.284919 0.750000
O O3 0.493094 0.278925 0.623963
O O4 0.659238 0.370746 0.671608
O O5 0.320010 0.817094 0.914261
O O6 0.359567 0.554758 0.918208
O O7 0.438888 0.719937 0.000000
O O8 0.068306 0.731047 0.803709
O O9 0.121065 0.873287 0.891962
O O10 0.927943 0.802407 0.882852
O O11 0.000000 0.000000 0.819298
O O12 0.772027 0.658096 0.922869
O O13 0.764668 0.928524 0.919997
O O14 0.875298 0.806336 0.000000
O O15 0.884492 0.500000 0.750000
O O16 0.803070 0.447710 0.854202
O O17 0.000000 0.500000 0.842989
O O18 0.798241 0.115773 0.000000
#
# Coordination Sequence:
#
# PCOD9393343 Si02
#       7
#     8   8   8   8   8   8   8
#     4   9  21  37  58  85 112 156 202 244 302 367
#     4  10  20  35  58  87 116 149 199 256 306 360
#     4  10  19  36  58  81 114 156 199 238 288 362
#     4  10  20  34  54  85 120 153 191 238 301 369
#     4  11  23  38  56  84 117 152 195 249 302 355
#     4   9  18  33  56  83 116 156 195 241 299 364
#     4  11  21  35  59  84 117 150 194 247 303 354
#
# _framework density 19.869273
#
# number of rings (size 3 to 8) (size 9 to 14) (size 15 to 20)
#    0.000    2.000    2.857    0.857    4.000    4.857 
#    0.000    2.857    0.000    6.000    0.000    0.000 
#    0.000    0.000    0.000    0.000    0.000    0.000 
#
# Total GULP energy -312130.554664 kJ/mol
# GULP energy per Si atom -5573.759905 kJ/mol
# Density = 1.982405 g / cm^3
# Si number density = 19.869273 Si / 1000 Ang^3
#
#
#
# Elastic Constant Matrix: (Units=GPa)
#
#
# Indices 1 2 3 4 5 6 
#
# 1 60.2452 13.9325 32.7926 0.0000 0.0000 0.0000
# 2 13.9325 109.7263 24.3592 0.0000 0.0000 0.0000
# 3 32.7926 24.3592 77.9576 0.0000 0.0000 0.0000
# 4 0.0000 0.0000 0.0000 14.9218 0.0000 0.0000
# 5 0.0000 0.0000 0.0000 0.0000 15.7857 0.0000
# 6 0.0000 0.0000 0.0000 0.0000 0.0000 15.2011
#
#
#
# Elastic Compliance Matrix: (Units=1/GPa)
#
#
# Indices 1 2 3 4 5 6 
#
# 1 0.021590 -0.000779 -0.008838 0.000000 0.000000 0.000000
# 2 -0.000779 0.009821 -0.002741 0.000000 0.000000 0.000000
# 3 -0.008838 -0.002741 0.017402 0.000000 0.000000 0.000000
# 4 0.000000 0.000000 0.000000 0.067016 0.000000 0.000000
# 5 0.000000 0.000000 0.000000 0.000000 0.063349 0.000000
# 6 0.000000 0.000000 0.000000 0.000000 0.000000 0.065785
#
#
# Mechanical properties :
#
#
# Convention : Reuss Voigt Hill
#
# Bulk Modulus (GPa) = 41.50118 43.34420 42.42269
# Shear Modulus (GPa) = 18.00434 20.97136 19.48785
#
# Velocity S-wave (km/s) = 3.01348 3.25232 3.13518
# Velocity P-wave (km/s) = 5.74809 5.99712 5.87393
#
# Compressibility (1/GPa) = 0.02409570
#
# Stress axis : x y z
#
# Youngs Moduli (GPa) = 46.31810 101.82232 57.46569
#
# Poissons Ratio (x) = 0.07935 0.50789
# Poissons Ratio (y) = 0.03610 0.15751
# Poissons Ratio (z) = 0.40937 0.27909
#
# Static dielectric constant tensor:
#      x y z
#    x 1.726800 0.000000 0.000000 
#    y 0.000000 1.719010 0.000000 
#    z 0.000000 0.000000 1.754540 
# 
# From -- ./inp_files/20884.got.cif
#   From: 2010.05.17/outbox.cif.g08.bks.cpg/sg49_11_cif.got.tgz:20884.got - 2010.06.03 21:02:19.
