data_PCOD9393397
_publ_section_title
;
Structure prediction by ZEFSAII (Michael W. Deem and Ramdas Pophale) SiO2 
 PCOD9393397
Probable space group: P C C M
;
_chemical_formula_sum "Si O2"
_cell_formula_units_Z 48
_cell_length_a 10.226202
_cell_length_b 7.596523
_cell_length_c 29.159551
_cell_angle_alpha 90.000000
_cell_angle_beta 90.000000
_cell_angle_gamma 90.000000
_cell_volume 2265.218275
_symmetry_space_group_name_H-M "P C C M"
_symmetry_group_IT_number 49
_symmetry_cell_setting 'orthorhombic'
loop_
_space_group_symop_operation_xyz
x,y,z
-x,-y,z
x,-y,1/2-z
-x,y,1/2-z
-x,-y,-z
x,y,-z
-x,y,1/2+z
x,-y,1/2+z
loop_
_atom_site_type_symbol
_atom_site_label
_atom_site_fract_x
_atom_site_fract_y
_atom_site_fract_z
Si Si1 0.732236 0.280664 0.337971
Si Si2 0.151413 0.715387 0.755718
Si Si3 0.497861 0.289557 0.099235
Si Si4 0.022562 0.209625 0.097969
Si Si5 0.760084 0.692421 0.354754
Si Si6 0.096438 0.169745 0.000000
Si Si7 0.593588 0.165892 0.500000
O O1 0.757832 0.223220 0.286086
O O2 0.605595 0.212352 0.364477
O O3 0.860967 0.237517 0.366751
O O4 0.723714 0.492998 0.341048
O O5 0.149251 0.500000 0.750000
O O6 0.204821 0.773588 0.805210
O O7 0.000000 0.770733 0.750000
O O8 0.500000 0.500000 0.103282
O O9 0.642677 0.229474 0.114655
O O10 0.446557 0.256836 0.047856
O O11 0.892015 0.302215 0.115665
O O12 0.064699 0.268548 0.047205
O O13 0.000000 0.000000 0.096431
O O14 0.251167 0.125854 0.000000
O O15 0.000000 0.000000 0.000000
O O16 0.500000 0.000000 0.500000
#
# Coordination Sequence:
#
# PCOD9393397 Si02
#       7
#     8   8   8   8   8   4   4
#     4  10  19  38  59  84 118 154 189 236 290 338
#     4   9  16  30  57  86 115 151 192 231 281 346
#     4  10  23  39  60  87 120 150 193 242 288 344
#     4  11  22  37  59  82 116 147 195 244 283 341
#     4  10  21  36  59  88 116 153 192 234 287 346
#     4  10  24  41  58  85 113 145 200 243 279 346
#     4  12  25  41  65  82 116 162 192 234 299 349
#
# _framework density 21.190010999999998
#
# number of rings (size 3 to 8) (size 9 to 14) (size 15 to 20)
#    0.000    1.833    3.333    0.750    4.667    0.667 
#    0.000    7.500    0.000    0.000    0.000    3.500 
#    0.000    0.000    0.000    0.000    0.000    0.000 
#
# Total GULP energy -267869.217874 kJ/mol
# GULP energy per Si atom -5580.608706 kJ/mol
# Density = 2.114178 g / cm^3
# Si number density = 21.190011 Si / 1000 Ang^3
#
#
#
# Elastic Constant Matrix: (Units=GPa)
#
#
# Indices 1 2 3 4 5 6 
#
# 1 174.6880 -2.0728 87.1481 0.0000 0.0000 0.0000
# 2 -2.0728 27.8417 -3.8538 0.0000 0.0000 0.0000
# 3 87.1481 -3.8538 182.6444 0.0000 0.0000 0.0000
# 4 0.0000 0.0000 0.0000 -19.0493 0.0000 0.0000
# 5 0.0000 0.0000 0.0000 0.0000 69.8170 0.0000
# 6 0.0000 0.0000 0.0000 0.0000 0.0000 9.9946
#
#
#
# Elastic Compliance Matrix: (Units=1/GPa)
#
#
# Indices 1 2 3 4 5 6 
#
# 1 0.007513 0.000063 -0.003583 0.000000 0.000000 0.000000
# 2 0.000063 0.036023 0.000730 0.000000 0.000000 0.000000
# 3 -0.003583 0.000730 0.007200 0.000000 0.000000 0.000000
# 4 0.000000 0.000000 0.000000 -0.052495 0.000000 0.000000
# 5 0.000000 0.000000 0.000000 0.000000 0.014323 0.000000
# 6 0.000000 0.000000 0.000000 0.000000 0.000000 0.100054
#
#
# Mechanical properties :
#
#
# Convention : Reuss Voigt Hill
#
# Bulk Modulus (GPa) = 22.14549 60.84635 41.49592
# Shear Modulus (GPa) = 37.52320 32.41595 34.96958
#
# Velocity S-wave (km/s) = 4.21265 3.91548 4.06678
# Velocity P-wave (km/s) = 5.84256 7.01557 6.45576
#
# Compressibility (1/GPa) = 0.04515593
#
# Stress axis : x y z
#
# Youngs Moduli (GPa) = 133.10361 27.75994 138.88218
#
# Poissons Ratio (x) = -0.00176 0.49768
# Poissons Ratio (y) = -0.00843 -0.10137
# Poissons Ratio (z) = 0.47697 -0.02026
#
# Static dielectric constant tensor:
#      x y z
#    x 1.760650 0.000000 0.000000 
#    y 0.000000 1.799910 0.000000 
#    z 0.000000 0.000000 2.915520 
# 
# From -- ./inp_files/26347.got.cif
#   From: 2010.05.17/outbox.cif.g08.bks.cpg/sg49_14_cif.got.tgz:26347.got - 2010.06.03 21:02:19.
