data_PCOD9393317
_publ_section_title
;
Structure prediction by ZEFSAII (Michael W. Deem and Ramdas Pophale) SiO2 
 PCOD9393317
Probable space group: P C C M
;
_chemical_formula_sum "Si O2"
_cell_formula_units_Z 64
_cell_length_a 20.395578
_cell_length_b 20.453454
_cell_length_c 8.809534
_cell_angle_alpha 90.000000
_cell_angle_beta 90.000000
_cell_angle_gamma 90.000000
_cell_volume 3674.985348
_symmetry_space_group_name_H-M "P C C M"
_symmetry_group_IT_number 49
_symmetry_cell_setting 'orthorhombic'
loop_
_space_group_symop_operation_xyz
x,y,z
-x,-y,z
x,-y,1/2-z
-x,y,1/2-z
-x,-y,-z
x,y,-z
-x,y,1/2+z
x,-y,1/2+z
loop_
_atom_site_type_symbol
_atom_site_label
_atom_site_fract_x
_atom_site_fract_y
_atom_site_fract_z
Si Si1 0.286649 0.432391 0.184127
Si Si2 0.567218 0.602054 0.821568
Si Si3 0.752076 0.290601 0.683921
Si Si4 0.432148 0.114496 0.321029
Si Si5 0.604553 0.248726 0.679491
Si Si6 0.072519 0.930575 0.181502
Si Si7 0.177652 0.834671 0.317781
Si Si8 0.703337 0.932796 0.820165
O O1 0.260514 0.500000 0.250000
O O2 0.362837 0.424479 0.235786
O O3 0.249180 0.366163 0.233270
O O4 0.286575 0.433934 0.000000
O O5 0.500000 0.577813 0.750000
O O6 0.571617 0.680653 0.802100
O O7 0.565095 0.588511 0.000000
O O8 0.754372 0.291669 0.500000
O O9 0.680689 0.260521 0.720533
O O10 0.807438 0.239578 0.733575
O O11 0.500000 0.089769 0.250000
O O12 0.433163 0.105524 0.500000
O O13 0.425508 0.191231 0.278021
O O14 0.367199 0.082436 0.251342
O O15 0.601264 0.230497 0.500000
O O16 0.120005 0.872571 0.233778
O O17 0.000000 0.920457 0.250000
O O18 0.096407 0.000000 0.250000
O O19 0.069395 0.935401 0.000000
O O20 0.165514 0.835391 0.500000
O O21 0.244534 0.875510 0.291433
O O22 0.728959 0.000000 0.750000
O O23 0.695838 0.939354 0.000000
#
# Coordination Sequence:
#
# PCOD9393317 Si02
#       8
#     8   8   8   8   8   8   8   8
#     4   9  18  32  48  67  94 130 167 208 259 316
#     4   9  18  29  44  63  88 119 158 203 255 319
#     4   8  15  31  54  75  99 133 169 208 259 314
#     4  12  24  36  51  70  93 123 163 212 268 324
#     4   9  16  32  51  69  91 120 158 205 262 317
#     4  11  22  37  57  84 120 157 192 223 256 303
#     4  10  19  35  60  84 108 141 178 218 262 308
#     4  11  23  39  57  76 100 130 167 211 263 316
#
# _framework density 17.415035
#
# number of rings (size 3 to 8) (size 9 to 14) (size 15 to 20)
#    0.000    2.125    1.250    5.250    0.000    4.500 
#    0.000    5.000    0.000    0.000    0.000    0.000 
#    0.000    0.500    0.000    5.750    0.000    1.750 
#
# Total GULP energy -357229.235201 kJ/mol
# GULP energy per Si atom -5581.706800 kJ/mol
# Density = 1.737540 g / cm^3
# Si number density = 17.415035 Si / 1000 Ang^3
#
#
#
# Elastic Constant Matrix: (Units=GPa)
#
#
# Indices 1 2 3 4 5 6 
#
# 1 69.1613 42.9989 34.7637 0.0000 0.0000 0.0000
# 2 42.9989 112.9656 42.1416 0.0000 0.0000 0.0000
# 3 34.7637 42.1416 57.2966 0.0000 0.0000 0.0000
# 4 0.0000 0.0000 0.0000 27.2926 0.0000 0.0000
# 5 0.0000 0.0000 0.0000 0.0000 20.2863 0.0000
# 6 0.0000 0.0000 0.0000 0.0000 0.0000 26.9030
#
#
#
# Elastic Compliance Matrix: (Units=1/GPa)
#
#
# Indices 1 2 3 4 5 6 
#
# 1 0.022541 -0.004793 -0.010151 0.000000 0.000000 0.000000
# 2 -0.004793 0.013219 -0.006814 0.000000 0.000000 0.000000
# 3 -0.010151 -0.006814 0.028624 0.000000 0.000000 0.000000
# 4 0.000000 0.000000 0.000000 0.036640 0.000000 0.000000
# 5 0.000000 0.000000 0.000000 0.000000 0.049294 0.000000
# 6 0.000000 0.000000 0.000000 0.000000 0.000000 0.037171
#
#
# Mechanical properties :
#
#
# Convention : Reuss Voigt Hill
#
# Bulk Modulus (GPa) = 47.92278 53.24799 50.58539
# Shear Modulus (GPa) = 21.01179 22.86435 21.93807
#
# Velocity S-wave (km/s) = 3.47728 3.62734 3.55310
# Velocity P-wave (km/s) = 6.61058 6.94159 6.77811
#
# Compressibility (1/GPa) = 0.02086690
#
# Stress axis : x y z
#
# Youngs Moduli (GPa) = 44.36271 75.65017 34.93585
#
# Poissons Ratio (x) = 0.36261 0.35464
# Poissons Ratio (y) = 0.21264 0.23806
# Poissons Ratio (z) = 0.45033 0.51549
#
# Static dielectric constant tensor:
#      x y z
#    x 1.584780 0.000000 0.000000 
#    y 0.000000 1.642230 0.000000 
#    z 0.000000 0.000000 1.586540 
# 
# From -- ./inp_files/6052.got.cif
#   From: 2010.05.17/outbox.cif.g08.bks.cpg/sg49_4_cif.got.tgz:6052.got - 2010.06.03 21:02:19.
