data_PCOD9393246
_publ_section_title
;
Structure prediction by ZEFSAII (Michael W. Deem and Ramdas Pophale) SiO2 
 PCOD9393246
Probable space group: P C C M
;
_chemical_formula_sum "Si O2"
_cell_formula_units_Z 32
_cell_length_a 7.570871
_cell_length_b 5.304737
_cell_length_c 34.115902
_cell_angle_alpha 90.000000
_cell_angle_beta 90.000000
_cell_angle_gamma 90.000000
_cell_volume 1370.145099
_symmetry_space_group_name_H-M "P C C M"
_symmetry_group_IT_number 49
_symmetry_cell_setting 'orthorhombic'
loop_
_space_group_symop_operation_xyz
x,y,z
-x,-y,z
x,-y,1/2-z
-x,y,1/2-z
-x,-y,-z
x,y,-z
-x,y,1/2+z
x,-y,1/2+z
loop_
_atom_site_type_symbol
_atom_site_label
_atom_site_fract_x
_atom_site_fract_y
_atom_site_fract_z
Si Si1 0.291213 0.050400 0.204366
Si Si2 0.292215 0.207377 0.954618
Si Si3 0.307538 0.293868 0.423348
Si Si4 0.195593 0.562453 0.840726
O O1 0.253522 0.329370 0.187191
O O2 0.500000 0.000000 0.199162
O O3 0.250415 0.000000 0.250000
O O4 0.192645 0.827105 0.181820
O O5 0.497130 0.249881 0.941458
O O6 0.214824 0.482990 0.947138
O O7 0.220650 0.979756 0.928334
O O8 0.283157 0.136821 0.000000
O O9 0.313792 0.387116 0.378824
O O10 0.000000 0.500000 0.855138
#
# Coordination Sequence:
#
# PCOD9393246 Si02
#       4
#     8   8   8   8
#     4  11  26  46  70  97 128 168 222 277 320 379
#     4  10  19  34  60  90 120 166 221 270 317 376
#     4  10  20  33  56  89 124 159 207 270 313 373
#     4  12  26  42  66  98 137 176 213 261 334 403
#
# _framework density 23.355188999999999
#
# number of rings (size 3 to 8) (size 9 to 14) (size 15 to 20)
#    0.000    1.250    0.000    7.500   10.500    5.000 
#    0.000    0.000    0.000    8.250    0.000    0.000 
#    0.000    0.000    0.000    0.000    0.000    0.000 
#
# Total GULP energy -178805.114086 kJ/mol
# GULP energy per Si atom -5587.659815 kJ/mol
# Density = 2.330203 g / cm^3
# Si number density = 23.355189 Si / 1000 Ang^3
#
#
#
# Elastic Constant Matrix: (Units=GPa)
#
#
# Indices 1 2 3 4 5 6 
#
# 1 50.0540 8.5904 10.4112 0.0000 0.0000 0.0000
# 2 8.5904 216.0878 54.1230 0.0000 0.0000 0.0000
# 3 10.4112 54.1230 131.3243 0.0000 0.0000 0.0000
# 4 0.0000 0.0000 0.0000 23.7189 0.0000 0.0000
# 5 0.0000 0.0000 0.0000 0.0000 -17.9131 0.0000
# 6 0.0000 0.0000 0.0000 0.0000 0.0000 15.7499
#
#
#
# Elastic Compliance Matrix: (Units=1/GPa)
#
#
# Indices 1 2 3 4 5 6 
#
# 1 0.020353 -0.000452 -0.001427 0.000000 0.000000 0.000000
# 2 -0.000452 0.005170 -0.002095 0.000000 0.000000 0.000000
# 3 -0.001427 -0.002095 0.008591 0.000000 0.000000 0.000000
# 4 0.000000 0.000000 0.000000 0.042160 0.000000 0.000000
# 5 0.000000 0.000000 0.000000 0.000000 -0.055825 0.000000
# 6 0.000000 0.000000 0.000000 0.000000 0.000000 0.063492
#
#
# Mechanical properties :
#
#
# Convention : Reuss Voigt Hill
#
# Bulk Modulus (GPa) = 38.21696 60.41282 49.31489
# Shear Modulus (GPa) = 49.69546 25.93391 37.81469
#
# Velocity S-wave (km/s) = 4.61783 3.33590 4.02819
# Velocity P-wave (km/s) = 6.69562 6.38442 6.54187
#
# Compressibility (1/GPa) = 0.02616639
#
# Stress axis : x y z
#
# Youngs Moduli (GPa) = 49.13324 193.40643 116.39593
#
# Poissons Ratio (x) = 0.08734 0.16615
# Poissons Ratio (y) = 0.02219 0.24386
# Poissons Ratio (z) = 0.07013 0.40521
#
# Static dielectric constant tensor:
#      x y z
#    x 0.454410 0.000000 0.000000 
#    y 0.000000 1.878850 0.000000 
#    z 0.000000 0.000000 1.879600 
# 
# From -- ./inp_files/26062.got.cif
#   From: 2010.05.17/outbox.cif.g08.bks.cpg/sg49_14_cif.got.tgz:26062.got - 2010.06.03 21:02:19.
