data_PCOD9393862
_publ_section_title
;
Structure prediction by ZEFSAII (Michael W. Deem and Ramdas Pophale) SiO2 
 PCOD9393862
Probable space group: P C C M
;
_chemical_formula_sum "Si O2"
_cell_formula_units_Z 64
_cell_length_a 15.033000
_cell_length_b 12.164054
_cell_length_c 16.604160
_cell_angle_alpha 90.000000
_cell_angle_beta 90.000000
_cell_angle_gamma 90.000000
_cell_volume 3036.273622
_symmetry_space_group_name_H-M "P C C M"
_symmetry_group_IT_number 49
_symmetry_cell_setting 'orthorhombic'
loop_
_space_group_symop_operation_xyz
x,y,z
-x,-y,z
x,-y,1/2-z
-x,y,1/2-z
-x,-y,-z
x,y,-z
-x,y,1/2+z
x,-y,1/2+z
loop_
_atom_site_type_symbol
_atom_site_label
_atom_site_fract_x
_atom_site_fract_y
_atom_site_fract_z
Si Si1 0.504883 0.633265 0.087548
Si Si2 0.144942 0.841929 0.094829
Si Si3 0.639582 0.612474 0.295107
Si Si4 0.692788 0.271556 0.363105
Si Si5 0.879665 0.380843 0.593069
Si Si6 0.771398 0.042766 0.340464
Si Si7 0.194092 0.399605 0.402053
Si Si8 0.050521 0.155226 0.901053
O O1 0.500000 0.500000 0.089489
O O2 0.443299 0.668780 0.161382
O O3 0.603767 0.680216 0.097267
O O4 0.469491 0.667516 0.000000
O O5 0.165948 0.721027 0.126433
O O6 0.047846 0.882922 0.122284
O O7 0.221402 0.930277 0.109725
O O8 0.133985 0.828180 0.000000
O O9 0.612746 0.500000 0.250000
O O10 0.685688 0.689875 0.229591
O O11 0.709558 0.579518 0.363997
O O12 0.780839 0.327312 0.400378
O O13 0.704311 0.139695 0.365938
O O14 0.904001 0.395986 0.500000
O O15 0.870531 0.502829 0.627547
O O16 0.944061 0.284652 0.621582
O O17 0.867755 0.098955 0.355984
O O18 0.759275 0.000000 0.250000
O O19 0.198503 0.402961 0.500000
O O20 0.063306 0.143118 0.000000
#
# Coordination Sequence:
#
# PCOD9393862 Si02
#       8
#     8   8   8   8   8   8   8   8
#     4  11  22  36  58  92 125 148 181 230 292 361
#     4  10  21  37  58  84 115 161 212 255 300 350
#     4  12  21  35  58  85 121 153 190 233 291 365
#     4  11  22  36  59  86 117 158 193 240 301 359
#     4   9  17  32  53  84 120 154 194 244 304 363
#     4  11  23  39  58  83 118 156 205 255 302 351
#     4  10  20  35  56  83 121 164 202 245 298 360
#     4   9  19  35  58  86 116 153 204 261 308 352
#
# _framework density 21.078468999999998
#
# number of rings (size 3 to 8) (size 9 to 14) (size 15 to 20)
#    0.000    1.625    2.500    2.625    0.000    6.000 
#    0.000    2.500    0.000    5.250    0.000    5.250 
#    0.000    0.000    0.000    0.000    0.000    0.000 
#
# Total GULP energy -357153.306826 kJ/mol
# GULP energy per Si atom -5580.520419 kJ/mol
# Density = 2.103049 g / cm^3
# Si number density = 21.078469 Si / 1000 Ang^3
#
#
#
# Elastic Constant Matrix: (Units=GPa)
#
#
# Indices 1 2 3 4 5 6 
#
# 1 54.4046 20.7608 11.2674 0.0000 0.0000 0.0000
# 2 20.7608 134.2336 -2.8933 0.0000 0.0000 0.0000
# 3 11.2674 -2.8933 33.7396 0.0000 0.0000 0.0000
# 4 0.0000 0.0000 0.0000 20.0234 0.0000 0.0000
# 5 0.0000 0.0000 0.0000 0.0000 24.0793 0.0000
# 6 0.0000 0.0000 0.0000 0.0000 0.0000 31.9233
#
#
#
# Elastic Compliance Matrix: (Units=1/GPa)
#
#
# Indices 1 2 3 4 5 6 
#
# 1 0.021223 -0.003442 -0.007383 0.000000 0.000000 0.000000
# 2 -0.003442 0.008022 0.001837 0.000000 0.000000 0.000000
# 3 -0.007383 0.001837 0.032262 0.000000 0.000000 0.000000
# 4 0.000000 0.000000 0.000000 0.049942 0.000000 0.000000
# 5 0.000000 0.000000 0.000000 0.000000 0.041529 0.000000
# 6 0.000000 0.000000 0.000000 0.000000 0.000000 0.031325
#
#
# Mechanical properties :
#
#
# Convention : Reuss Voigt Hill
#
# Bulk Modulus (GPa) = 22.97136 31.18306 27.07721
# Shear Modulus (GPa) = 23.06410 28.08806 25.57608
#
# Velocity S-wave (km/s) = 3.31146 3.65437 3.48713
# Velocity P-wave (km/s) = 5.05398 5.71242 5.39326
#
# Compressibility (1/GPa) = 0.04353247
#
# Stress axis : x y z
#
# Youngs Moduli (GPa) = 47.11858 124.66389 30.99649
#
# Poissons Ratio (x) = 0.42903 0.22883
# Poissons Ratio (y) = 0.16216 -0.05695
# Poissons Ratio (z) = 0.34786 -0.22903
#
# Static dielectric constant tensor:
#      x y z
#    x 1.772110 0.000000 0.000000 
#    y 0.000000 1.815900 0.000000 
#    z 0.000000 0.000000 1.796220 
# 
# From -- ./inp_files/17959.got.cif
#   From: 2010.05.17/outbox.cif.g08.bks.cpg/sg49_9_cif.got.tgz:17959.got - 2010.06.03 21:02:19.
