data_PCOD9393591
_publ_section_title
;
Structure prediction by ZEFSAII (Michael W. Deem and Ramdas Pophale) SiO2 
 PCOD9393591
Probable space group: P C C M
;
_chemical_formula_sum "Si O2"
_cell_formula_units_Z 64
_cell_length_a 11.919089
_cell_length_b 10.237092
_cell_length_c 28.281052
_cell_angle_alpha 90.000000
_cell_angle_beta 90.000000
_cell_angle_gamma 90.000000
_cell_volume 3450.763767
_symmetry_space_group_name_H-M "P C C M"
_symmetry_group_IT_number 49
_symmetry_cell_setting 'orthorhombic'
loop_
_space_group_symop_operation_xyz
x,y,z
-x,-y,z
x,-y,1/2-z
-x,y,1/2-z
-x,-y,-z
x,y,-z
-x,y,1/2+z
x,-y,1/2+z
loop_
_atom_site_type_symbol
_atom_site_label
_atom_site_fract_x
_atom_site_fract_y
_atom_site_fract_z
Si Si1 0.878586 0.547527 0.443602
Si Si2 0.556464 0.699318 0.608944
Si Si3 0.128029 0.137612 0.731394
Si Si4 0.679769 0.574713 0.109521
Si Si5 0.757702 0.818162 0.443826
Si Si6 0.482431 0.153214 0.197798
Si Si7 0.871499 0.012176 0.132055
Si Si8 0.232432 0.236073 0.816793
O O1 0.885505 0.546310 0.500000
O O2 0.776485 0.453421 0.428446
O O3 0.839770 0.695242 0.430977
O O4 0.000000 0.500000 0.424718
O O5 0.425960 0.668439 0.596134
O O6 0.618705 0.562654 0.618742
O O7 0.631913 0.772412 0.570093
O O8 0.555920 0.781128 0.657269
O O9 0.134018 0.118802 0.675247
O O10 0.188283 0.246567 0.762975
O O11 0.000000 0.140108 0.750000
O O12 0.178903 0.000000 0.750000
O O13 0.746743 0.632196 0.154301
O O14 0.766150 0.842788 0.500000
O O15 0.794585 0.938055 0.410613
O O16 0.500000 0.209674 0.250000
O O17 0.354557 0.174739 0.185330
O O18 0.500000 0.000000 0.198904
O O19 0.839698 0.870910 0.154121
O O20 0.000000 0.000000 0.116334
#
# Coordination Sequence:
#
# PCOD9393591 Si02
#       8
#     8   8   8   8   8   8   8   8
#     4   9  19  35  57  82 109 144 195 245 285 344
#     4   9  19  39  57  81 115 149 193 241 290 342
#     4   9  16  31  50  78 107 140 184 220 277 341
#     4   9  19  36  59  80 112 150 192 233 291 346
#     4  10  22  37  57  83 113 155 196 239 298 352
#     4  10  21  32  55  87 112 147 190 238 285 344
#     4  11  21  34  57  82 114 154 187 244 293 343
#     4  10  20  33  53  83 115 143 191 235 278 354
#
# _framework density 18.546619
#
# number of rings (size 3 to 8) (size 9 to 14) (size 15 to 20)
#    0.000    2.375    2.500    0.750    8.750    0.750 
#    0.000    8.125    0.000    7.125    0.000    2.625 
#    0.000    0.000    0.000    0.000    0.000    0.000 
#
# Total GULP energy -356279.702107 kJ/mol
# GULP energy per Si atom -5566.870345 kJ/mol
# Density = 1.850441 g / cm^3
# Si number density = 18.546619 Si / 1000 Ang^3
#
#
#
# Elastic Constant Matrix: (Units=GPa)
#
#
# Indices 1 2 3 4 5 6 
#
# 1 74.3103 14.8420 16.7688 0.0000 0.0000 0.0000
# 2 14.8420 19.5506 13.8518 0.0000 0.0000 0.0000
# 3 16.7688 13.8518 67.6156 0.0000 0.0000 0.0000
# 4 0.0000 0.0000 0.0000 22.6761 0.0000 0.0000
# 5 0.0000 0.0000 0.0000 0.0000 39.5338 0.0000
# 6 0.0000 0.0000 0.0000 0.0000 0.0000 13.3685
#
#
#
# Elastic Compliance Matrix: (Units=1/GPa)
#
#
# Indices 1 2 3 4 5 6 
#
# 1 0.016034 -0.010944 -0.001735 0.000000 0.000000 0.000000
# 2 -0.010944 0.067303 -0.011074 0.000000 0.000000 0.000000
# 3 -0.001735 -0.011074 0.017488 0.000000 0.000000 0.000000
# 4 0.000000 0.000000 0.000000 0.044099 0.000000 0.000000
# 5 0.000000 0.000000 0.000000 0.000000 0.025295 0.000000
# 6 0.000000 0.000000 0.000000 0.000000 0.000000 0.074803
#
#
# Mechanical properties :
#
#
# Convention : Reuss Voigt Hill
#
# Bulk Modulus (GPa) = 18.75409 28.04464 23.39937
# Shear Modulus (GPa) = 16.11343 22.84994 19.48168
#
# Velocity S-wave (km/s) = 2.95075 3.51383 3.24453
# Velocity P-wave (km/s) = 4.66295 5.62287 5.16526
#
# Compressibility (1/GPa) = 0.05332171
#
# Stress axis : x y z
#
# Youngs Moduli (GPa) = 62.36642 14.85818 57.18119
#
# Poissons Ratio (x) = 0.16260 0.09919
# Poissons Ratio (y) = 0.68251 0.63321
# Poissons Ratio (z) = 0.10818 0.16454
#
# Static dielectric constant tensor:
#      x y z
#    x 1.663050 0.000000 0.000000 
#    y 0.000000 1.623130 0.000000 
#    z 0.000000 0.000000 1.655580 
# 
# From -- ./inp_files/23023.got.cif
#   From: 2010.05.17/outbox.cif.g08.bks.cpg/sg49_12_cif.got.tgz:23023.got - 2010.06.03 21:02:19.
