data_PCOD9393220
_publ_section_title
;
Structure prediction by ZEFSAII (Michael W. Deem and Ramdas Pophale) SiO2 
 PCOD9393220
Probable space group: P C C M
;
_chemical_formula_sum "Si O2"
_cell_formula_units_Z 64
_cell_length_a 11.687193
_cell_length_b 16.505804
_cell_length_c 15.115636
_cell_angle_alpha 90.000000
_cell_angle_beta 90.000000
_cell_angle_gamma 90.000000
_cell_volume 2915.904693
_symmetry_space_group_name_H-M "P C C M"
_symmetry_group_IT_number 49
_symmetry_cell_setting 'orthorhombic'
loop_
_space_group_symop_operation_xyz
x,y,z
-x,-y,z
x,-y,1/2-z
-x,y,1/2-z
-x,-y,-z
x,y,-z
-x,y,1/2+z
x,-y,1/2+z
loop_
_atom_site_type_symbol
_atom_site_label
_atom_site_fract_x
_atom_site_fract_y
_atom_site_fract_z
Si Si1 0.706147 0.825351 0.595657
Si Si2 0.711964 0.087579 0.275727
Si Si3 0.030593 0.271498 0.105942
Si Si4 0.539981 0.780031 0.155988
Si Si5 0.808429 0.354076 0.898260
Si Si6 0.633133 0.490880 0.891288
Si Si7 0.956022 0.084709 0.649707
Si Si8 0.731967 0.340993 0.603274
O O1 0.734851 0.862328 0.500000
O O2 0.747824 0.872730 0.681861
O O3 0.570031 0.811794 0.604727
O O4 0.754926 0.735163 0.598536
O O5 0.617391 0.143730 0.318472
O O6 0.818921 0.080662 0.341265
O O7 0.666478 0.000000 0.250000
O O8 0.011154 0.174876 0.117455
O O9 0.156142 0.296333 0.141539
O O10 0.932961 0.332617 0.142191
O O11 0.028184 0.282064 0.000000
O O12 0.500000 0.743634 0.250000
O O13 0.620845 0.715475 0.109894
O O14 0.711093 0.414544 0.861997
O O15 0.828122 0.382378 0.000000
O O16 0.500000 0.500000 0.863404
O O17 0.699981 0.571230 0.860955
O O18 0.628656 0.488109 0.000000
O O19 0.000000 0.082808 0.750000
O O20 0.000000 0.000000 0.607599
O O21 0.756488 0.353465 0.500000
#
# Coordination Sequence:
#
# PCOD9393220 Si02
#       8
#     8   8   8   8   8   8   8   8
#     4  10  21  38  62  87 117 158 204 253 300 350
#     4  11  22  40  60  87 119 151 202 247 301 368
#     4  10  21  36  57  89 122 155 198 254 306 356
#     4  10  21  36  59  84 118 159 201 249 304 362
#     4   9  18  33  54  86 122 154 201 253 299 351
#     4   9  17  30  54  86 120 159 199 246 298 352
#     4  11  21  37  62  85 111 156 204 242 300 374
#     4  10  19  34  57  87 122 157 202 249 300 360
#
# _framework density 21.948591
#
# number of rings (size 3 to 8) (size 9 to 14) (size 15 to 20)
#    0.000    2.000    2.500    1.875    0.000    5.000 
#    0.000    5.000    0.000    9.000    0.000    0.875 
#    0.000    0.000    0.000    0.000    0.000    0.000 
#
# Total GULP energy -357054.043454 kJ/mol
# GULP energy per Si atom -5578.969429 kJ/mol
# Density = 2.189863 g / cm^3
# Si number density = 21.948591 Si / 1000 Ang^3
#
#
#
# Elastic Constant Matrix: (Units=GPa)
#
#
# Indices 1 2 3 4 5 6 
#
# 1 121.8491 37.4677 8.8780 0.0000 0.0000 0.0000
# 2 37.4677 108.5353 10.5141 0.0000 0.0000 0.0000
# 3 8.8780 10.5141 40.1655 0.0000 0.0000 0.0000
# 4 0.0000 0.0000 0.0000 8.2100 0.0000 0.0000
# 5 0.0000 0.0000 0.0000 0.0000 10.5815 0.0000
# 6 0.0000 0.0000 0.0000 0.0000 0.0000 13.4889
#
#
#
# Elastic Compliance Matrix: (Units=1/GPa)
#
#
# Indices 1 2 3 4 5 6 
#
# 1 0.009241 -0.003070 -0.001239 0.000000 0.000000 0.000000
# 2 -0.003070 0.010473 -0.002063 0.000000 0.000000 0.000000
# 3 -0.001239 -0.002063 0.025711 0.000000 0.000000 0.000000
# 4 0.000000 0.000000 0.000000 0.121803 0.000000 0.000000
# 5 0.000000 0.000000 0.000000 0.000000 0.094505 0.000000
# 6 0.000000 0.000000 0.000000 0.000000 0.000000 0.074135
#
#
# Mechanical properties :
#
#
# Convention : Reuss Voigt Hill
#
# Bulk Modulus (GPa) = 30.59864 42.69660 36.64762
# Shear Modulus (GPa) = 13.90797 20.70209 17.30503
#
# Velocity S-wave (km/s) = 2.51999 3.07450 2.81095
# Velocity P-wave (km/s) = 4.73693 5.66557 5.22193
#
# Compressibility (1/GPa) = 0.03268119
#
# Stress axis : x y z
#
# Youngs Moduli (GPa) = 108.21118 95.48095 38.89409
#
# Poissons Ratio (x) = 0.29314 0.04819
# Poissons Ratio (y) = 0.33222 0.08024
# Poissons Ratio (z) = 0.13407 0.19697
#
# Static dielectric constant tensor:
#      x y z
#    x 1.874180 0.000000 0.000000 
#    y 0.000000 1.782250 0.000000 
#    z 0.000000 0.000000 1.840110 
# 
# From -- ./inp_files/17294.got.cif
#   From: 2010.05.17/outbox.cif.g08.bks.cpg/sg49_9_cif.got.tgz:17294.got - 2010.06.03 21:02:19.
