data_PCOD9393540
_publ_section_title
;
Structure prediction by ZEFSAII (Michael W. Deem and Ramdas Pophale) SiO2 
 PCOD9393540
Probable space group: P C C M
;
_chemical_formula_sum "Si O2"
_cell_formula_units_Z 48
_cell_length_a 9.824640
_cell_length_b 31.590169
_cell_length_c 8.750432
_cell_angle_alpha 90.000000
_cell_angle_beta 90.000000
_cell_angle_gamma 90.000000
_cell_volume 2715.801909
_symmetry_space_group_name_H-M "P C C M"
_symmetry_group_IT_number 49
_symmetry_cell_setting 'orthorhombic'
loop_
_space_group_symop_operation_xyz
x,y,z
-x,-y,z
x,-y,1/2-z
-x,y,1/2-z
-x,-y,-z
x,y,-z
-x,y,1/2+z
x,-y,1/2+z
loop_
_atom_site_type_symbol
_atom_site_label
_atom_site_fract_x
_atom_site_fract_y
_atom_site_fract_z
Si Si1 0.147449 0.046457 0.683796
Si Si2 0.850700 0.706325 0.683269
Si Si3 0.652209 0.363761 0.316832
Si Si4 0.653164 0.457496 0.682525
Si Si5 0.851102 0.803601 0.315909
Si Si6 0.650930 0.122014 0.815746
O O1 0.138173 0.044274 0.500000
O O2 0.261638 0.080540 0.726554
O O3 0.000000 0.059216 0.750000
O O4 0.178072 0.000000 0.750000
O O5 0.853798 0.703628 0.500000
O O6 0.744361 0.673083 0.749286
O O7 0.817177 0.755073 0.726111
O O8 0.000000 0.697396 0.750000
O O9 0.500000 0.360821 0.250000
O O10 0.645418 0.360523 0.500000
O O11 0.709768 0.410918 0.279384
O O12 0.719777 0.500000 0.750000
O O13 0.500000 0.456476 0.750000
O O14 0.646009 0.461486 0.500000
O O15 0.859941 0.805734 0.500000
O O16 0.737702 0.837010 0.265084
O O17 0.000000 0.813832 0.250000
O O18 0.500000 0.121432 0.750000
O O19 0.642776 0.123070 0.000000
#
# Coordination Sequence:
#
# PCOD9393540 Si02
#       6
#     8   8   8   8   8   8
#     4  10  20  35  56  80 105 136 175 215 254 300
#     4  10  20  35  55  77 103 135 171 212 257 308
#     4  10  20  33  50  75 105 136 171 211 257 306
#     4   9  16  26  43  67  96 129 165 206 250 298
#     4   9  19  36  56  78 101 130 171 212 252 302
#     4  10  22  37  53  77 108 139 171 209 256 306
#
# _framework density 17.674339
#
# number of rings (size 3 to 8) (size 9 to 14) (size 15 to 20)
#    0.000    2.333    0.000    3.500    0.000    5.667 
#    0.000    3.333    0.000    0.500    0.000    3.500 
#    0.000    0.000    0.000    0.000    0.000    0.000 
#
# Total GULP energy -267739.652558 kJ/mol
# GULP energy per Si atom -5577.909428 kJ/mol
# Density = 1.763411 g / cm^3
# Si number density = 17.674339 Si / 1000 Ang^3
#
#
#
# Elastic Constant Matrix: (Units=GPa)
#
#
# Indices 1 2 3 4 5 6 
#
# 1 122.4702 117.6098 41.3932 0.0000 0.0000 0.0000
# 2 117.6098 158.1896 52.9088 0.0000 0.0000 0.0000
# 3 41.3932 52.9088 49.7945 0.0000 0.0000 0.0000
# 4 0.0000 0.0000 0.0000 26.7904 0.0000 0.0000
# 5 0.0000 0.0000 0.0000 0.0000 32.1530 0.0000
# 6 0.0000 0.0000 0.0000 0.0000 0.0000 35.9611
#
#
#
# Elastic Compliance Matrix: (Units=1/GPa)
#
#
# Indices 1 2 3 4 5 6 
#
# 1 0.028654 -0.020690 -0.001836 0.000000 0.000000 0.000000
# 2 -0.020690 0.024745 -0.009094 0.000000 0.000000 0.000000
# 3 -0.001836 -0.009094 0.031272 0.000000 0.000000 0.000000
# 4 0.000000 0.000000 0.000000 0.037327 0.000000 0.000000
# 5 0.000000 0.000000 0.000000 0.000000 0.031101 0.000000
# 6 0.000000 0.000000 0.000000 0.000000 0.000000 0.027808
#
#
# Mechanical properties :
#
#
# Convention : Reuss Voigt Hill
#
# Bulk Modulus (GPa) = 46.65988 83.80867 65.23428
# Shear Modulus (GPa) = 19.89718 26.88373 23.39046
#
# Velocity S-wave (km/s) = 3.35888 3.90431 3.64182
# Velocity P-wave (km/s) = 6.44204 8.23687 7.39412
#
# Compressibility (1/GPa) = 0.02143169
#
# Stress axis : x y z
#
# Youngs Moduli (GPa) = 34.89857 40.41140 31.97758
#
# Poissons Ratio (x) = 0.83610 0.05872
# Poissons Ratio (y) = 0.72204 0.29081
# Poissons Ratio (z) = 0.06408 0.36751
#
# Static dielectric constant tensor:
#      x y z
#    x 1.563120 0.000000 0.000000 
#    y 0.000000 1.636470 0.000000 
#    z 0.000000 0.000000 1.594850 
# 
# From -- ./inp_files/2110.got.cif
#   From: 2010.05.17/outbox.cif.g08.bks.cpg/sg49_2_cif.got.tgz:2110.got - 2010.06.03 21:02:19.
