data_PCOD9393459
_publ_section_title
;
Structure prediction by ZEFSAII (Michael W. Deem and Ramdas Pophale) SiO2 
 PCOD9393459
Probable space group: P C C M
;
_chemical_formula_sum "Si O2"
_cell_formula_units_Z 56
_cell_length_a 30.750900
_cell_length_b 13.870712
_cell_length_c 8.658920
_cell_angle_alpha 90.000000
_cell_angle_beta 90.000000
_cell_angle_gamma 90.000000
_cell_volume 3693.348701
_symmetry_space_group_name_H-M "P C C M"
_symmetry_group_IT_number 49
_symmetry_cell_setting 'orthorhombic'
loop_
_space_group_symop_operation_xyz
x,y,z
-x,-y,z
x,-y,1/2-z
-x,y,1/2-z
-x,-y,-z
x,y,-z
-x,y,1/2+z
x,-y,1/2+z
loop_
_atom_site_type_symbol
_atom_site_label
_atom_site_fract_x
_atom_site_fract_y
_atom_site_fract_z
Si Si1 0.908515 0.602800 0.315543
Si Si2 0.733305 0.391285 0.686827
Si Si3 0.638550 0.391031 0.313802
Si Si4 0.823449 0.300772 0.686553
Si Si5 0.867551 0.102380 0.315311
Si Si6 0.455574 0.609670 0.314667
Si Si7 0.952740 0.197395 0.185034
O O1 0.922649 0.500000 0.250000
O O2 0.907530 0.598196 0.500000
O O3 0.860402 0.629307 0.254410
O O4 0.938851 0.693169 0.269510
O O5 0.737011 0.500000 0.750000
O O6 0.734079 0.395494 0.500000
O O7 0.685710 0.350378 0.733655
O O8 0.775353 0.331305 0.737241
O O9 0.638723 0.500000 0.250000
O O10 0.638240 0.394904 0.500000
O O11 0.591629 0.347242 0.268610
O O12 0.825629 0.307307 0.500000
O O13 0.836908 0.192180 0.730794
O O14 0.869259 0.098561 0.500000
O O15 0.915243 0.128826 0.251185
O O16 0.853179 0.000000 0.250000
O O17 0.454732 0.500000 0.250000
O O18 0.500000 0.654953 0.250000
O O19 0.458437 0.606196 0.500000
O O20 0.000000 0.174480 0.250000
O O21 0.952682 0.191529 0.000000
#
# Coordination Sequence:
#
# PCOD9393459 Si02
#       7
#     8   8   8   8   8   8   8
#     4  10  20  32  47  66  90 117 143 169 198 232
#     4   9  16  26  39  57  80 106 134 165 199 235
#     4   8  14  22  31  44  65  92 124 160 197 232
#     4   9  18  31  47  65  85 108 136 168 202 239
#     4  10  20  35  53  71  89 109 133 164 200 240
#     4   9  14  19  27  39  56  83 119 160 199 231
#     4  10  21  36  52  71  92 114 139 168 199 234
#
# _framework density 15.162392000000001
#
# number of rings (size 3 to 8) (size 9 to 14) (size 15 to 20)
#    0.000    2.714    0.000    2.571    0.000    5.143 
#    0.000    2.857    0.000    0.000    0.000    0.000 
#    0.000    0.000    0.000    0.000    0.000    0.714 
#
# Total GULP energy -311817.522344 kJ/mol
# GULP energy per Si atom -5568.170042 kJ/mol
# Density = 1.512788 g / cm^3
# Si number density = 15.162392 Si / 1000 Ang^3
#
#
#
# Elastic Constant Matrix: (Units=GPa)
#
#
# Indices 1 2 3 4 5 6 
#
# 1 125.5010 12.8950 16.7137 0.0000 0.0000 0.0000
# 2 12.8950 44.1706 10.4141 0.0000 0.0000 0.0000
# 3 16.7137 10.4141 20.9807 0.0000 0.0000 0.0000
# 4 0.0000 0.0000 0.0000 18.0403 0.0000 0.0000
# 5 0.0000 0.0000 0.0000 0.0000 33.9325 0.0000
# 6 0.0000 0.0000 0.0000 0.0000 0.0000 843.0792
#
#
#
# Elastic Compliance Matrix: (Units=1/GPa)
#
#
# Indices 1 2 3 4 5 6 
#
# 1 0.008957 -0.001056 -0.006611 0.000000 0.000000 0.000000
# 2 -0.001056 0.025765 -0.011947 0.000000 0.000000 0.000000
# 3 -0.006611 -0.011947 0.058860 0.000000 0.000000 0.000000
# 4 0.000000 0.000000 0.000000 0.055431 0.000000 0.000000
# 5 0.000000 0.000000 0.000000 0.000000 0.029470 0.000000
# 6 0.000000 0.000000 0.000000 0.000000 0.000000 0.001186
#
#
# Mechanical properties :
#
#
# Convention : Reuss Voigt Hill
#
# Bulk Modulus (GPa) = 18.39857 30.07755 24.23806
# Shear Modulus (GPa) = 21.09566 189.05237 105.07401
#
# Velocity S-wave (km/s) = 3.73408 11.17836 8.33364
# Velocity P-wave (km/s) = 5.54543 13.65605 10.42208
#
# Compressibility (1/GPa) = 0.05435205
#
# Stress axis : x y z
#
# Youngs Moduli (GPa) = 111.64422 38.81286 16.98960
#
# Poissons Ratio (x) = 0.04099 0.11232
# Poissons Ratio (y) = 0.11792 0.20298
# Poissons Ratio (z) = 0.73809 0.46371
#
# Static dielectric constant tensor:
#      x y z
#    x 1.557540 0.000000 0.000000 
#    y 0.000000 1.476830 0.000000 
#    z 0.000000 0.000000 1.507830 
# 
# From -- ./inp_files/7023.got.cif
#   From: 2010.05.17/outbox.cif.g08.bks.cpg/sg49_4_cif.got.tgz:7023.got - 2010.06.03 21:02:19.
