data_PCOD9393114
_publ_section_title
;
Structure prediction by ZEFSAII (Michael W. Deem and Ramdas Pophale) SiO2 
 PCOD9393114
Probable space group: P C C M
;
_chemical_formula_sum "Si O2"
_cell_formula_units_Z 64
_cell_length_a 14.738763
_cell_length_b 12.940237
_cell_length_c 19.542196
_cell_angle_alpha 90.000000
_cell_angle_beta 90.000000
_cell_angle_gamma 90.000000
_cell_volume 3727.147934
_symmetry_space_group_name_H-M "P C C M"
_symmetry_group_IT_number 49
_symmetry_cell_setting 'orthorhombic'
loop_
_space_group_symop_operation_xyz
x,y,z
-x,-y,z
x,-y,1/2-z
-x,y,1/2-z
-x,-y,-z
x,y,-z
-x,y,1/2+z
x,-y,1/2+z
loop_
_atom_site_type_symbol
_atom_site_label
_atom_site_fract_x
_atom_site_fract_y
_atom_site_fract_z
Si Si1 0.709324 0.325629 0.922161
Si Si2 0.044875 0.112540 0.658919
Si Si3 0.706560 0.930839 0.182046
Si Si4 0.497719 0.621866 0.420872
Si Si5 0.410669 0.737709 0.296383
Si Si6 0.759984 0.380898 0.771797
Si Si7 0.124206 0.792074 0.295161
Si Si8 0.773271 0.091522 0.923033
O O1 0.601784 0.342096 0.914720
O O2 0.758145 0.372210 0.854749
O O3 0.729128 0.204187 0.919540
O O4 0.734672 0.362273 0.000000
O O5 0.095914 0.140982 0.728905
O O6 0.123998 0.106817 0.603525
O O7 0.963371 0.196874 0.655719
O O8 0.000000 0.000000 0.661943
O O9 0.621495 0.854623 0.188897
O O10 0.790986 0.852347 0.173593
O O11 0.715403 0.000000 0.250000
O O12 0.715307 0.012493 0.121689
O O13 0.500000 0.500000 0.405705
O O14 0.468687 0.636030 0.500000
O O15 0.434696 0.680282 0.367045
O O16 0.500000 0.736414 0.250000
O O17 0.330391 0.677231 0.256393
O O18 0.759823 0.500000 0.750000
O O19 0.841950 0.317086 0.735305
O O20 0.775758 0.053726 0.000000
#
# Coordination Sequence:
#
# PCOD9393114 Si02
#       8
#     8   8   8   8   8   8   8   8
#     4  10  20  37  58  81 115 150 186 234 288 345
#     4  11  18  32  59  81 109 144 186 226 277 334
#     4  11  20  37  53  77 116 149 186 228 281 341
#     4  10  21  38  58  80 107 146 191 236 287 339
#     4  11  23  34  56  85 112 147 191 245 286 329
#     4  11  21  36  59  86 113 143 195 244 288 340
#     4  10  19  33  56  84 108 144 181 234 284 329
#     4  11  22  36  58  86 117 154 189 229 283 349
#
# _framework density 17.171306000000001
#
# number of rings (size 3 to 8) (size 9 to 14) (size 15 to 20)
#    0.000    1.375    5.000    2.250    0.000    1.000 
#    0.000    1.250    0.000    3.750    0.000    1.750 
#    0.000    0.000    0.000    0.000    0.000    0.000 
#
# Total GULP energy -356778.644693 kJ/mol
# GULP energy per Si atom -5574.666323 kJ/mol
# Density = 1.713222 g / cm^3
# Si number density = 17.171306 Si / 1000 Ang^3
#
#
#
# Elastic Constant Matrix: (Units=GPa)
#
#
# Indices 1 2 3 4 5 6 
#
# 1 70.2949 46.2651 16.1303 0.0000 0.0000 0.0000
# 2 46.2651 94.9590 55.4545 0.0000 0.0000 0.0000
# 3 16.1303 55.4545 98.9308 0.0000 0.0000 0.0000
# 4 0.0000 0.0000 0.0000 27.0340 0.0000 0.0000
# 5 0.0000 0.0000 0.0000 0.0000 20.8531 0.0000
# 6 0.0000 0.0000 0.0000 0.0000 0.0000 16.2262
#
#
#
# Elastic Compliance Matrix: (Units=1/GPa)
#
#
# Indices 1 2 3 4 5 6 
#
# 1 0.021752 -0.012676 0.003559 0.000000 0.000000 0.000000
# 2 -0.012676 0.023043 -0.010850 0.000000 0.000000 0.000000
# 3 0.003559 -0.010850 0.015609 0.000000 0.000000 0.000000
# 4 0.000000 0.000000 0.000000 0.036990 0.000000 0.000000
# 5 0.000000 0.000000 0.000000 0.000000 0.047955 0.000000
# 6 0.000000 0.000000 0.000000 0.000000 0.000000 0.061629
#
#
# Mechanical properties :
#
#
# Convention : Reuss Voigt Hill
#
# Bulk Modulus (GPa) = 48.85066 55.54272 52.19669
# Shear Modulus (GPa) = 19.70559 22.57832 21.14195
#
# Velocity S-wave (km/s) = 3.39128 3.63007 3.51271
# Velocity P-wave (km/s) = 6.62157 7.07010 6.84951
#
# Compressibility (1/GPa) = 0.02047055
#
# Stress axis : x y z
#
# Youngs Moduli (GPa) = 45.97268 43.39747 64.06391
#
# Poissons Ratio (x) = 0.55011 -0.22800
# Poissons Ratio (y) = 0.58276 0.69507
# Poissons Ratio (z) = -0.16361 0.47084
#
# Static dielectric constant tensor:
#      x y z
#    x 1.639650 0.000000 0.000000 
#    y 0.000000 1.561130 0.000000 
#    z 0.000000 0.000000 1.605390 
# 
# From -- ./inp_files/17975.got.cif
#   From: 2010.05.17/outbox.cif.g08.bks.cpg/sg49_9_cif.got.tgz:17975.got - 2010.06.03 21:02:19.
