data_PCOD9393533
_publ_section_title
;
Structure prediction by ZEFSAII (Michael W. Deem and Ramdas Pophale) SiO2 
 PCOD9393533
Probable space group: P C C M
;
_chemical_formula_sum "Si O2"
_cell_formula_units_Z 58
_cell_length_a 28.520010
_cell_length_b 12.693686
_cell_length_c 8.960513
_cell_angle_alpha 90.000000
_cell_angle_beta 90.000000
_cell_angle_gamma 90.000000
_cell_volume 3243.921221
_symmetry_space_group_name_H-M "P C C M"
_symmetry_group_IT_number 49
_symmetry_cell_setting 'orthorhombic'
loop_
_space_group_symop_operation_xyz
x,y,z
-x,-y,z
x,-y,1/2-z
-x,y,1/2-z
-x,-y,-z
x,y,-z
-x,y,1/2+z
x,-y,1/2+z
loop_
_atom_site_type_symbol
_atom_site_label
_atom_site_fract_x
_atom_site_fract_y
_atom_site_fract_z
Si Si1 0.220397 0.887487 0.178969
Si Si2 0.047224 0.718610 0.174650
Si Si3 0.450839 0.326568 0.675582
Si Si4 0.404260 0.103213 0.323515
Si Si5 0.640866 0.591991 0.832825
Si Si6 0.310637 0.815903 0.670809
Si Si7 0.000000 0.500000 0.250000
Si Si8 0.118621 0.117162 0.181175
O O1 0.263855 0.817680 0.231530
O O2 0.170913 0.861162 0.256097
O O3 0.233324 0.000000 0.250000
O O4 0.215558 0.891836 0.000000
O O5 0.087543 0.783650 0.261127
O O6 0.000000 0.762504 0.250000
O O7 0.036681 0.590080 0.184958
O O8 0.051209 0.742613 0.000000
O O9 0.500000 0.352822 0.750000
O O10 0.453487 0.344913 0.500000
O O11 0.436993 0.204235 0.701883
O O12 0.407068 0.386626 0.745669
O O13 0.397559 0.090674 0.500000
O O14 0.353673 0.121875 0.246422
O O15 0.425613 0.000000 0.250000
O O16 0.667907 0.500000 0.750000
O O17 0.670278 0.697743 0.835276
O O18 0.629566 0.560285 0.000000
O O19 0.302255 0.852911 0.500000
O O20 0.105582 0.000000 0.250000
O O21 0.117851 0.110499 0.000000
#
# Coordination Sequence:
#
# PCOD9393533 Si02
#       8
#     8   8   8   8   8   8   2   8
#     4  11  21  35  56  82 114 149 183 222 267 322
#     4  10  20  36  59  86 116 152 195 241 288 338
#     4  10  21  36  53  74 101 131 168 209 254 308
#     4  10  20  33  50  74 103 136 171 210 253 305
#     4  10  21  37  58  79 102 131 166 212 263 313
#     4  10  20  35  55  79 106 137 174 216 260 313
#     4   8  22  36  64  84 118 148 202 242 290 336
#     4  11  22  37  57  84 119 155 192 237 288 343
#
# _framework density 17.879594999999998
#
# number of rings (size 3 to 8) (size 9 to 14) (size 15 to 20)
#    0.414    1.379    0.000    6.000    0.000    4.138 
#    0.000    4.138    1.517    0.000    0.000    0.000 
#    0.000    0.000    0.000    0.000    0.000    0.000 
#
# Total GULP energy -322945.727336 kJ/mol
# GULP energy per Si atom -5568.029782 kJ/mol
# Density = 1.783890 g / cm^3
# Si number density = 17.879595 Si / 1000 Ang^3
#
#
#
# Elastic Constant Matrix: (Units=GPa)
#
#
# Indices 1 2 3 4 5 6 
#
# 1 75.4444 27.0387 42.1730 0.0000 0.0000 0.0000
# 2 27.0387 67.0353 43.9341 0.0000 0.0000 0.0000
# 3 42.1730 43.9341 127.6718 0.0000 0.0000 0.0000
# 4 0.0000 0.0000 0.0000 21.7250 0.0000 0.0000
# 5 0.0000 0.0000 0.0000 0.0000 30.0530 0.0000
# 6 0.0000 0.0000 0.0000 0.0000 0.0000 -71.6465
#
#
#
# Elastic Compliance Matrix: (Units=1/GPa)
#
#
# Indices 1 2 3 4 5 6 
#
# 1 0.017097 -0.004125 -0.004228 0.000000 0.000000 0.000000
# 2 -0.004125 0.020257 -0.005608 0.000000 0.000000 0.000000
# 3 -0.004228 -0.005608 0.011159 0.000000 0.000000 0.000000
# 4 0.000000 0.000000 0.000000 0.046030 0.000000 0.000000
# 5 0.000000 0.000000 0.000000 0.000000 0.033275 0.000000
# 6 0.000000 0.000000 0.000000 0.000000 0.000000 -0.013957
#
#
# Mechanical properties :
#
#
# Convention : Reuss Voigt Hill
#
# Bulk Modulus (GPa) = 48.56653 55.16036 51.86344
# Shear Modulus (GPa) = 33.63718 6.49335 20.06526
#
# Velocity S-wave (km/s) = 4.34212 1.90777 3.35362
# Velocity P-wave (km/s) = 7.23607 5.98087 6.63820
#
# Compressibility (1/GPa) = 0.02059031
#
# Stress axis : x y z
#
# Youngs Moduli (GPa) = 58.49133 49.36605 89.61348
#
# Poissons Ratio (x) = 0.20363 0.37888
# Poissons Ratio (y) = 0.24128 0.50257
# Poissons Ratio (z) = 0.24730 0.27685
#
# Static dielectric constant tensor:
#      x y z
#    x 1.607120 0.000000 0.000000 
#    y 0.000000 1.771860 0.000000 
#    z 0.000000 0.000000 1.626790 
# 
# From -- ./inp_files/6740.got.cif
#   From: 2010.05.17/outbox.cif.g08.bks.cpg/sg49_4_cif.got.tgz:6740.got - 2010.06.03 21:02:19.
