data_PCOD9393536
_publ_section_title
;
Structure prediction by ZEFSAII (Michael W. Deem and Ramdas Pophale) SiO2 
 PCOD9393536
Probable space group: P C C M
;
_chemical_formula_sum "Si O2"
_cell_formula_units_Z 32
_cell_length_a 12.028722
_cell_length_b 7.970761
_cell_length_c 17.701530
_cell_angle_alpha 90.000000
_cell_angle_beta 90.000000
_cell_angle_gamma 90.000000
_cell_volume 1697.188501
_symmetry_space_group_name_H-M "P C C M"
_symmetry_group_IT_number 49
_symmetry_cell_setting 'orthorhombic'
loop_
_space_group_symop_operation_xyz
x,y,z
-x,-y,z
x,-y,1/2-z
-x,y,1/2-z
-x,-y,-z
x,y,-z
-x,y,1/2+z
x,-y,1/2+z
loop_
_atom_site_type_symbol
_atom_site_label
_atom_site_fract_x
_atom_site_fract_y
_atom_site_fract_z
Si Si1 0.511943 0.199045 0.085490
Si Si2 0.757303 0.655965 0.413473
Si Si3 0.121486 0.297534 0.732613
Si Si4 0.673808 0.635379 0.183648
O O1 0.640157 0.248394 0.095519
O O2 0.434232 0.279052 0.149238
O O3 0.500000 0.000000 0.088148
O O4 0.479809 0.256642 0.000000
O O5 0.791987 0.661906 0.500000
O O6 0.846805 0.724654 0.354522
O O7 0.729302 0.468923 0.384674
O O8 0.116654 0.500000 0.750000
O O9 0.229819 0.245755 0.781485
O O10 0.000000 0.227966 0.750000
O O11 0.646699 0.500000 0.250000
#
# Coordination Sequence:
#
# PCOD9393536 Si02
#       4
#     8   8   8   8
#     4  10  20  33  50  74 104 134 165 204 249 299
#     4   9  17  30  50  72  96 128 164 202 246 296
#     4   8  16  31  47  68  98 125 158 206 250 289
#     4   9  18  31  49  73 100 131 165 204 249 294
#
# _framework density 18.854713
#
# number of rings (size 3 to 8) (size 9 to 14) (size 15 to 20)
#    0.000    3.500    0.000    1.500    0.000   10.000 
#    0.000   21.250    0.000    3.000    0.000    5.250 
#    0.000    0.000    0.000    0.000    0.000    0.000 
#
# Total GULP energy -178251.711481 kJ/mol
# GULP energy per Si atom -5570.365984 kJ/mol
# Density = 1.881180 g / cm^3
# Si number density = 18.854713 Si / 1000 Ang^3
#
#
#
# Elastic Constant Matrix: (Units=GPa)
#
#
# Indices 1 2 3 4 5 6 
#
# 1 110.2123 16.2624 104.6915 0.0000 0.0000 0.0000
# 2 16.2624 14.0432 27.1360 0.0000 0.0000 0.0000
# 3 104.6915 27.1360 167.2217 0.0000 0.0000 0.0000
# 4 0.0000 0.0000 0.0000 15.2638 0.0000 0.0000
# 5 0.0000 0.0000 0.0000 0.0000 26.9849 0.0000
# 6 0.0000 0.0000 0.0000 0.0000 0.0000 -5.2432
#
#
#
# Elastic Compliance Matrix: (Units=1/GPa)
#
#
# Indices 1 2 3 4 5 6 
#
# 1 0.022415 0.001689 -0.014307 0.000000 0.000000 0.000000
# 2 0.001689 0.103865 -0.017912 0.000000 0.000000 0.000000
# 3 -0.014307 -0.017912 0.017844 0.000000 0.000000 0.000000
# 4 0.000000 0.000000 0.000000 0.065514 0.000000 0.000000
# 5 0.000000 0.000000 0.000000 0.000000 0.037058 0.000000
# 6 0.000000 0.000000 0.000000 0.000000 0.000000 -0.190722
#
#
# Mechanical properties :
#
#
# Convention : Reuss Voigt Hill
#
# Bulk Modulus (GPa) = 12.03906 65.29523 38.66714
# Shear Modulus (GPa) = 34.54917 16.96024 25.75470
#
# Velocity S-wave (km/s) = 4.28529 3.00246 3.69989
# Velocity P-wave (km/s) = 5.55733 6.83561 6.22935
#
# Compressibility (1/GPa) = 0.08306300
#
# Stress axis : x y z
#
# Youngs Moduli (GPa) = 44.61392 9.62791 56.04139
#
# Poissons Ratio (x) = -0.01626 0.80179
# Poissons Ratio (y) = -0.07537 1.00383
# Poissons Ratio (z) = 0.63829 0.17246
#
# Static dielectric constant tensor:
#      x y z
#    x 1.695880 0.000000 0.000000 
#    y 0.000000 1.667050 0.000000 
#    z 0.000000 0.000000 1.679750 
# 
# From -- ./inp_files/11191.got.cif
#   From: 2010.05.17/outbox.cif.g08.bks.cpg/sg49_6_cif.got.tgz:11191.got - 2010.06.03 21:02:19.
