data_PCOD9393394
_publ_section_title
;
Structure prediction by ZEFSAII (Michael W. Deem and Ramdas Pophale) SiO2 
 PCOD9393394
Probable space group: P C C M
;
_chemical_formula_sum "Si O2"
_cell_formula_units_Z 64
_cell_length_a 12.758393
_cell_length_b 15.377946
_cell_length_c 16.477117
_cell_angle_alpha 90.000000
_cell_angle_beta 90.000000
_cell_angle_gamma 90.000000
_cell_volume 3232.775401
_symmetry_space_group_name_H-M "P C C M"
_symmetry_group_IT_number 49
_symmetry_cell_setting 'orthorhombic'
loop_
_space_group_symop_operation_xyz
x,y,z
-x,-y,z
x,-y,1/2-z
-x,y,1/2-z
-x,-y,-z
x,y,-z
-x,y,1/2+z
x,-y,1/2+z
loop_
_atom_site_type_symbol
_atom_site_label
_atom_site_fract_x
_atom_site_fract_y
_atom_site_fract_z
Si Si1 0.934855 0.084235 0.901868
Si Si2 0.375423 0.400048 0.742455
Si Si3 0.277742 0.153224 0.360851
Si Si4 0.682136 0.780349 0.180134
Si Si5 0.023568 0.596288 0.900826
Si Si6 0.251122 0.657063 0.091718
Si Si7 0.491970 0.098907 0.094401
Si Si8 0.904419 0.765393 0.097995
O O1 0.816995 0.085802 0.868559
O O2 0.004826 0.167117 0.876745
O O3 0.927105 0.084726 0.000000
O O4 0.000000 0.000000 0.877068
O O5 0.336144 0.500000 0.750000
O O6 0.500000 0.402423 0.750000
O O7 0.338783 0.322950 0.803664
O O8 0.341590 0.368498 0.653358
O O9 0.299268 0.177555 0.268036
O O10 0.237862 0.239611 0.405805
O O11 0.388406 0.129978 0.399764
O O12 0.586224 0.833977 0.139447
O O13 0.790054 0.788504 0.130744
O O14 0.141449 0.619686 0.877392
O O15 0.000000 0.500000 0.872209
O O16 0.942130 0.669932 0.874252
O O17 0.021550 0.597104 0.000000
O O18 0.271099 0.627547 0.000000
O O19 0.500000 0.000000 0.127804
O O20 0.458635 0.094177 0.000000
O O21 0.900783 0.766713 0.000000
#
# Coordination Sequence:
#
# PCOD9393394 Si02
#       8
#     8   8   8   8   8   8   8   8
#     4  10  21  38  62  89 121 164 211 256 309 370
#     4  10  23  43  62  87 127 165 204 263 327 381
#     4  11  22  40  63  89 123 165 208 261 312 375
#     4  11  24  41  63  91 132 167 204 260 332 385
#     4   9  18  33  58  91 122 155 204 263 310 364
#     4  10  19  37  65  89 115 161 216 255 306 382
#     4  11  25  44  69  96 123 163 220 272 322 390
#     4  10  21  39  61  90 129 168 209 262 320 381
#
# _framework density 19.797229999999999
#
# number of rings (size 3 to 8) (size 9 to 14) (size 15 to 20)
#    0.000    1.750    1.250    3.375    3.500    1.500 
#    0.000    3.125    0.000    0.000    0.000    0.000 
#    0.000    0.000    0.000    0.000    0.000    0.000 
#
# Total GULP energy -357219.871902 kJ/mol
# GULP energy per Si atom -5581.560498 kJ/mol
# Density = 1.975217 g / cm^3
# Si number density = 19.797230 Si / 1000 Ang^3
#
#
#
# Elastic Constant Matrix: (Units=GPa)
#
#
# Indices 1 2 3 4 5 6 
#
# 1 135.9020 48.6442 26.6806 0.0000 0.0000 0.0000
# 2 48.6442 112.6019 20.6515 0.0000 0.0000 0.0000
# 3 26.6806 20.6515 47.9990 0.0000 0.0000 0.0000
# 4 0.0000 0.0000 0.0000 14.4740 0.0000 0.0000
# 5 0.0000 0.0000 0.0000 0.0000 15.5638 0.0000
# 6 0.0000 0.0000 0.0000 0.0000 0.0000 34.6143
#
#
#
# Elastic Compliance Matrix: (Units=1/GPa)
#
#
# Indices 1 2 3 4 5 6 
#
# 1 0.009280 -0.003325 -0.003728 0.000000 0.000000 0.000000
# 2 -0.003325 0.010833 -0.002813 0.000000 0.000000 0.000000
# 3 -0.003728 -0.002813 0.024116 0.000000 0.000000 0.000000
# 4 0.000000 0.000000 0.000000 0.069090 0.000000 0.000000
# 5 0.000000 0.000000 0.000000 0.000000 0.064251 0.000000
# 6 0.000000 0.000000 0.000000 0.000000 0.000000 0.028890
#
#
# Mechanical properties :
#
#
# Convention : Reuss Voigt Hill
#
# Bulk Modulus (GPa) = 40.81951 54.27282 47.54617
# Shear Modulus (GPa) = 21.33488 26.29886 23.81687
#
# Velocity S-wave (km/s) = 3.28635 3.64869 3.47225
# Velocity P-wave (km/s) = 5.92146 6.72491 6.33594
#
# Compressibility (1/GPa) = 0.02449809
#
# Stress axis : x y z
#
# Youngs Moduli (GPa) = 107.75400 92.30820 41.46632
#
# Poissons Ratio (x) = 0.30697 0.15458
# Poissons Ratio (y) = 0.35833 0.11662
# Poissons Ratio (z) = 0.40169 0.25962
#
# Static dielectric constant tensor:
#      x y z
#    x 1.613880 0.000000 0.000000 
#    y 0.000000 1.738660 0.000000 
#    z 0.000000 0.000000 1.698290 
# 
# From -- ./inp_files/17321.got.cif
#   From: 2010.05.17/outbox.cif.g08.bks.cpg/sg49_9_cif.got.tgz:17321.got - 2010.06.03 21:02:19.
