data_PCOD9393188
_publ_section_title
;
Structure prediction by ZEFSAII (Michael W. Deem and Ramdas Pophale) SiO2 
 PCOD9393188
Probable space group: P C C M
;
_chemical_formula_sum "Si O2"
_cell_formula_units_Z 40
_cell_length_a 17.598925
_cell_length_b 5.221355
_cell_length_c 25.034581
_cell_angle_alpha 90.000000
_cell_angle_beta 90.000000
_cell_angle_gamma 90.000000
_cell_volume 2300.433532
_symmetry_space_group_name_H-M "P C C M"
_symmetry_group_IT_number 49
_symmetry_cell_setting 'orthorhombic'
loop_
_space_group_symop_operation_xyz
x,y,z
-x,-y,z
x,-y,1/2-z
-x,y,1/2-z
-x,-y,-z
x,y,-z
-x,y,1/2+z
x,-y,1/2+z
loop_
_atom_site_type_symbol
_atom_site_label
_atom_site_fract_x
_atom_site_fract_y
_atom_site_fract_z
Si Si1 0.914801 0.568644 0.065078
Si Si2 0.414037 0.747072 0.226034
Si Si3 0.826695 0.069798 0.935009
Si Si4 0.338893 0.119812 0.062751
Si Si5 0.581434 0.622557 0.601514
O O1 0.885408 0.847607 0.081125
O O2 0.000000 0.500000 0.082345
O O3 0.856357 0.346897 0.082271
O O4 0.915482 0.568031 0.000000
O O5 0.374354 0.500000 0.250000
O O6 0.500000 0.748361 0.250000
O O7 0.419749 0.716904 0.162898
O O8 0.377457 0.000000 0.250000
O O9 0.742407 0.988242 0.918161
O O10 0.824887 0.075788 0.000000
O O11 0.362680 0.381202 0.092275
O O12 0.395987 0.879253 0.069824
O O13 0.333693 0.185142 0.000000
O O14 0.500000 0.500000 0.587345
#
# Coordination Sequence:
#
# PCOD9393188 Si02
#       5
#     8   8   8   8   8
#     4   9  15  24  43  67  86 112 161 215 247 273
#     4  10  19  34  56  76  92 111 143 212 270 326
#     4   9  17  30  43  59  91 130 163 199 244 291
#     4  11  24  37  49  68 102 144 177 206 249 293
#     4  12  23  36  55  75  93 125 177 222 252 304
#
# _framework density 17.388027000000001
#
# number of rings (size 3 to 8) (size 9 to 14) (size 15 to 20)
#    0.000    1.800    2.000    4.200    2.800    8.000 
#    0.000    0.000    0.000    0.000    0.000    0.000 
#    0.000    0.000    0.000    0.000    0.000  210.000 
#
# Total GULP energy -222974.225322 kJ/mol
# GULP energy per Si atom -5574.355633 kJ/mol
# Density = 1.734845 g / cm^3
# Si number density = 17.388027 Si / 1000 Ang^3
#
#
#
# Elastic Constant Matrix: (Units=GPa)
#
#
# Indices 1 2 3 4 5 6 
#
# 1 35.9513 -8.2094 8.1379 0.0000 0.0000 0.0000
# 2 -8.2094 98.5006 5.2174 0.0000 0.0000 0.0000
# 3 8.1379 5.2174 33.5867 0.0000 0.0000 0.0000
# 4 0.0000 0.0000 0.0000 27.5973 0.0000 0.0000
# 5 0.0000 0.0000 0.0000 0.0000 -4.7445 0.0000
# 6 0.0000 0.0000 0.0000 0.0000 0.0000 23.3802
#
#
#
# Elastic Compliance Matrix: (Units=1/GPa)
#
#
# Indices 1 2 3 4 5 6 
#
# 1 0.030247 0.002933 -0.007784 0.000000 0.000000 0.000000
# 2 0.002933 0.010521 -0.002345 0.000000 0.000000 0.000000
# 3 -0.007784 -0.002345 0.032024 0.000000 0.000000 0.000000
# 4 0.000000 0.000000 0.000000 0.036235 0.000000 0.000000
# 5 0.000000 0.000000 0.000000 0.000000 -0.210771 0.000000
# 6 0.000000 0.000000 0.000000 0.000000 0.000000 0.042771
#
#
# Mechanical properties :
#
#
# Convention : Reuss Voigt Hill
#
# Bulk Modulus (GPa) = 17.12335 19.81450 18.46893
# Shear Modulus (GPa) = -199.10123 20.10613 -89.49755
#
# Velocity S-wave (km/s) = -10.71230 3.40416 -7.18210
# Velocity P-wave (km/s) = 11.96392 5.18375 7.62444
#
# Compressibility (1/GPa) = 0.05839978
#
# Stress axis : x y z
#
# Youngs Moduli (GPa) = 33.06080 95.04896 31.22649
#
# Poissons Ratio (x) = -0.27880 0.24308
# Poissons Ratio (y) = -0.09698 0.07323
# Poissons Ratio (z) = 0.25736 0.22289
#
# Static dielectric constant tensor:
#      x y z
#    x 1.609560 0.000000 0.000000 
#    y 0.000000 1.610350 0.000000 
#    z 0.000000 0.000000 1.584570 
# 
# From -- ./inp_files/21726.got.cif
#   From: 2010.05.17/outbox.cif.g08.bks.cpg/sg49_11_cif.got.tgz:21726.got - 2010.06.03 21:02:19.
