data_PCOD9393786
_publ_section_title
;
Structure prediction by ZEFSAII (Michael W. Deem and Ramdas Pophale) SiO2 
 PCOD9393786
Probable space group: P C C M
;
_chemical_formula_sum "Si O2"
_cell_formula_units_Z 48
_cell_length_a 8.898736
_cell_length_b 30.288492
_cell_length_c 9.371257
_cell_angle_alpha 90.000000
_cell_angle_beta 90.000000
_cell_angle_gamma 90.000000
_cell_volume 2525.828284
_symmetry_space_group_name_H-M "P C C M"
_symmetry_group_IT_number 49
_symmetry_cell_setting 'orthorhombic'
loop_
_space_group_symop_operation_xyz
x,y,z
-x,-y,z
x,-y,1/2-z
-x,y,1/2-z
-x,-y,-z
x,y,-z
-x,y,1/2+z
x,-y,1/2+z
loop_
_atom_site_type_symbol
_atom_site_label
_atom_site_fract_x
_atom_site_fract_y
_atom_site_fract_z
Si Si1 0.644687 0.935118 0.500000
Si Si2 0.343571 0.188530 0.165466
Si Si3 0.822247 0.099780 0.268212
Si Si4 0.160645 0.542548 0.172225
Si Si5 0.656714 0.368720 0.168765
Si Si6 0.299027 0.960627 0.500000
Si Si7 0.663668 0.271973 0.172105
O O1 0.720424 0.910670 0.368277
O O2 0.463502 0.936976 0.500000
O O3 0.685396 0.987051 0.500000
O O4 0.500000 0.179580 0.250000
O O5 0.242830 0.145008 0.168650
O O6 0.266982 0.229319 0.250545
O O7 0.373884 0.200162 0.000000
O O8 0.790458 0.057721 0.366518
O O9 0.000000 0.104067 0.250000
O O10 0.234272 0.500000 0.250000
O O11 0.246071 0.588206 0.199221
O O12 0.000000 0.546392 0.250000
O O13 0.148132 0.536037 0.000000
O O14 0.500000 0.371831 0.250000
O O15 0.730127 0.320746 0.200565
O O16 0.625218 0.368283 0.000000
O O17 0.500000 0.273810 0.250000
O O18 0.654331 0.266018 0.000000
#
# Coordination Sequence:
#
# PCOD9393786 Si02
#       7
#     4   8   8   8   8   4   8
#     4  11  25  41  73  87 121 155 199 243 284 337
#     4  11  22  38  61  87 116 152 198 238 281 344
#     4  12  26  41  61  91 127 157 190 240 298 348
#     4  10  20  35  53  76 107 146 193 238 286 346
#     4   9  19  34  54  81 114 145 184 237 287 341
#     4  11  23  47  63  97 115 155 203 241 280 351
#     4   9  17  32  55  84 113 147 191 237 285 335
#
# _framework density 19.003668000000001
#
# number of rings (size 3 to 8) (size 9 to 14) (size 15 to 20)
#    0.000    1.667    0.833    5.500    2.333    5.667 
#    0.000    2.500    0.000    2.000    0.000    0.000 
#    0.000    0.000    0.000    0.000    0.000    0.000 
#
# Total GULP energy -267609.564385 kJ/mol
# GULP energy per Si atom -5575.199258 kJ/mol
# Density = 1.896041 g / cm^3
# Si number density = 19.003668 Si / 1000 Ang^3
#
#
#
# Elastic Constant Matrix: (Units=GPa)
#
#
# Indices 1 2 3 4 5 6 
#
# 1 62.5967 44.2387 18.6827 0.0000 0.0000 0.0000
# 2 44.2387 136.3442 40.5678 0.0000 0.0000 0.0000
# 3 18.6827 40.5678 104.7551 0.0000 0.0000 0.0000
# 4 0.0000 0.0000 0.0000 33.3928 0.0000 0.0000
# 5 0.0000 0.0000 0.0000 0.0000 19.3068 0.0000
# 6 0.0000 0.0000 0.0000 0.0000 0.0000 -10.8929
#
#
#
# Elastic Compliance Matrix: (Units=1/GPa)
#
#
# Indices 1 2 3 4 5 6 
#
# 1 0.020871 -0.006402 -0.001243 0.000000 0.000000 0.000000
# 2 -0.006402 0.010253 -0.002829 0.000000 0.000000 0.000000
# 3 -0.001243 -0.002829 0.010863 0.000000 0.000000 0.000000
# 4 0.000000 0.000000 0.000000 0.029947 0.000000 0.000000
# 5 0.000000 0.000000 0.000000 0.000000 0.051795 0.000000
# 6 0.000000 0.000000 0.000000 0.000000 0.000000 -0.091803
#
#
# Mechanical properties :
#
#
# Convention : Reuss Voigt Hill
#
# Bulk Modulus (GPa) = 47.52955 56.74160 52.13558
# Shear Modulus (GPa) = 83.49027 21.70845 52.59936
#
# Velocity S-wave (km/s) = 6.63545 3.38350 5.26675
# Velocity P-wave (km/s) = 9.15262 6.72214 8.02987
#
# Compressibility (1/GPa) = 0.02103954
#
# Stress axis : x y z
#
# Youngs Moduli (GPa) = 47.91408 97.52950 92.05293
#
# Poissons Ratio (x) = 0.62438 0.11442
# Poissons Ratio (y) = 0.30674 0.26041
# Poissons Ratio (z) = 0.05956 0.27591
#
# Static dielectric constant tensor:
#      x y z
#    x 1.636400 0.000000 0.000000 
#    y 0.000000 1.709200 0.000000 
#    z 0.000000 0.000000 1.650720 
# 
# From -- ./inp_files/2166.got.cif
#   From: 2010.05.17/outbox.cif.g08.bks.cpg/sg49_2_cif.got.tgz:2166.got - 2010.06.03 21:02:19.
