data_PCOD9393060
_publ_section_title
;
Structure prediction by ZEFSAII (Michael W. Deem and Ramdas Pophale) SiO2 
 PCOD9393060
Probable space group: P C C M
;
_chemical_formula_sum "Si O2"
_cell_formula_units_Z 64
_cell_length_a 25.107048
_cell_length_b 15.739696
_cell_length_c 8.678498
_cell_angle_alpha 90.000000
_cell_angle_beta 90.000000
_cell_angle_gamma 90.000000
_cell_volume 3429.545434
_symmetry_space_group_name_H-M "P C C M"
_symmetry_group_IT_number 49
_symmetry_cell_setting 'orthorhombic'
loop_
_space_group_symop_operation_xyz
x,y,z
-x,-y,z
x,-y,1/2-z
-x,y,1/2-z
-x,-y,-z
x,y,-z
-x,y,1/2+z
x,-y,1/2+z
loop_
_atom_site_type_symbol
_atom_site_label
_atom_site_fract_x
_atom_site_fract_y
_atom_site_fract_z
Si Si1 0.904938 0.088061 0.181571
Si Si2 0.233380 0.689575 0.184058
Si Si3 0.327829 0.911233 0.683714
Si Si4 0.857899 0.589404 0.184860
Si Si5 0.056963 0.733416 0.684286
Si Si6 0.559254 0.592021 0.314164
Si Si7 0.354118 0.269271 0.684569
Si Si8 0.206691 0.130539 0.816971
O O1 0.929569 0.172717 0.254515
O O2 0.842102 0.092417 0.223078
O O3 0.926399 0.000000 0.250000
O O4 0.912561 0.089453 0.000000
O O5 0.199377 0.610148 0.240618
O O6 0.296281 0.689625 0.219102
O O7 0.209741 0.770036 0.275711
O O8 0.227065 0.701694 0.000000
O O9 0.330624 0.912648 0.500000
O O10 0.354829 0.824908 0.743950
O O11 0.265014 0.903889 0.727261
O O12 0.348862 0.000000 0.750000
O O13 0.877564 0.500000 0.250000
O O14 0.897944 0.665486 0.229734
O O15 0.853938 0.587046 0.000000
O O16 0.055314 0.736467 0.500000
O O17 0.000000 0.707027 0.750000
O O18 0.576546 0.500000 0.250000
O O19 0.500000 0.607470 0.250000
O O20 0.557715 0.588160 0.500000
O O21 0.599345 0.666922 0.266241
O O22 0.357235 0.259636 0.500000
O O23 0.198065 0.118624 0.000000
#
# Coordination Sequence:
#
# PCOD9393060 Si02
#       8
#     8   8   8   8   8   8   8   8
#     4  12  24  38  60  87 116 151 189 233 284 341
#     4  10  19  34  57  84 117 154 190 229 283 340
#     4  10  20  32  51  79 115 156 196 238 283 336
#     4  11  24  41  63  88 118 150 188 235 285 343
#     4  11  25  45  66  87 114 146 187 238 288 344
#     4  10  20  36  58  84 115 151 194 244 293 343
#     4   9  20  36  55  83 118 155 195 239 286 341
#     4  10  19  33  53  81 115 151 191 231 278 334
#
# _framework density 18.661363999999999
#
# number of rings (size 3 to 8) (size 9 to 14) (size 15 to 20)
#    0.000    1.625    1.250    4.125    0.000    6.500 
#    0.000    3.750    0.000    0.375    0.000    2.625 
#    0.000    0.000    0.000    0.000    0.000    0.000 
#
# Total GULP energy -357556.109518 kJ/mol
# GULP energy per Si atom -5586.814211 kJ/mol
# Density = 1.861889 g / cm^3
# Si number density = 18.661364 Si / 1000 Ang^3
#
#
#
# Elastic Constant Matrix: (Units=GPa)
#
#
# Indices 1 2 3 4 5 6 
#
# 1 75.4892 62.5202 26.4397 0.0000 0.0000 0.0000
# 2 62.5202 137.6224 39.0334 0.0000 0.0000 0.0000
# 3 26.4397 39.0334 49.3880 0.0000 0.0000 0.0000
# 4 0.0000 0.0000 0.0000 30.0619 0.0000 0.0000
# 5 0.0000 0.0000 0.0000 0.0000 28.8993 0.0000
# 6 0.0000 0.0000 0.0000 0.0000 0.0000 -1.9196
#
#
#
# Elastic Compliance Matrix: (Units=1/GPa)
#
#
# Indices 1 2 3 4 5 6 
#
# 1 0.022169 -0.008642 -0.005038 0.000000 0.000000 0.000000
# 2 -0.008642 0.012735 -0.005438 0.000000 0.000000 0.000000
# 3 -0.005038 -0.005438 0.027243 0.000000 0.000000 0.000000
# 4 0.000000 0.000000 0.000000 0.033265 0.000000 0.000000
# 5 0.000000 0.000000 0.000000 0.000000 0.034603 0.000000
# 6 0.000000 0.000000 0.000000 0.000000 0.000000 -0.520937
#
#
# Mechanical properties :
#
#
# Convention : Reuss Voigt Hill
#
# Bulk Modulus (GPa) = 41.82336 57.60960 49.71648
# Shear Modulus (GPa) = -14.50465 20.37540 2.93537
#
# Velocity S-wave (km/s) = -2.79096 3.30790 1.25554
# Velocity P-wave (km/s) = 3.47484 6.74742 5.36666
#
# Compressibility (1/GPa) = 0.02391008
#
# Stress axis : x y z
#
# Youngs Moduli (GPa) = 45.10831 78.52542 36.70696
#
# Poissons Ratio (x) = 0.67863 0.18492
# Poissons Ratio (y) = 0.38984 0.19962
# Poissons Ratio (z) = 0.22724 0.42704
#
# Static dielectric constant tensor:
#      x y z
#    x 1.649990 0.000000 0.000000 
#    y 0.000000 1.670880 0.000000 
#    z 0.000000 0.000000 1.622730 
# 
# From -- ./inp_files/6495.got.cif
#   From: 2010.05.17/outbox.cif.g08.bks.cpg/sg49_4_cif.got.tgz:6495.got - 2010.06.03 21:02:19.
