data_PCOD9393876
_publ_section_title
;
Structure prediction by ZEFSAII (Michael W. Deem and Ramdas Pophale) SiO2 
 PCOD9393876
Probable space group: P C C M
;
_chemical_formula_sum "Si O2"
_cell_formula_units_Z 58
_cell_length_a 19.735428
_cell_length_b 19.861511
_cell_length_c 8.307177
_cell_angle_alpha 90.000000
_cell_angle_beta 90.000000
_cell_angle_gamma 90.000000
_cell_volume 3256.209196
_symmetry_space_group_name_H-M "P C C M"
_symmetry_group_IT_number 49
_symmetry_cell_setting 'orthorhombic'
loop_
_space_group_symop_operation_xyz
x,y,z
-x,-y,z
x,-y,1/2-z
-x,y,1/2-z
-x,-y,-z
x,y,-z
-x,y,1/2+z
x,-y,1/2+z
loop_
_atom_site_type_symbol
_atom_site_label
_atom_site_fract_x
_atom_site_fract_y
_atom_site_fract_z
Si Si1 0.813242 0.423674 0.807564
Si Si2 0.394598 0.898227 0.811264
Si Si3 0.573284 0.250003 0.689252
Si Si4 0.185879 0.212613 0.805465
Si Si5 0.500000 0.000000 0.250000
Si Si6 0.703421 0.682409 0.308485
Si Si7 0.923290 0.681572 0.807968
Si Si8 0.756523 0.072466 0.692929
O O1 0.814142 0.500000 0.750000
O O2 0.746615 0.382255 0.751782
O O3 0.878426 0.381470 0.750181
O O4 0.812930 0.422292 0.000000
O O5 0.408734 0.820004 0.778433
O O6 0.316933 0.914511 0.771918
O O7 0.443512 0.943932 0.699840
O O8 0.409499 0.914057 0.000000
O O9 0.500000 0.272659 0.750000
O O10 0.571255 0.235889 0.500000
O O11 0.632007 0.303392 0.726357
O O12 0.248148 0.254267 0.731374
O O13 0.117809 0.251439 0.754376
O O14 0.194907 0.134712 0.762822
O O15 0.191166 0.217866 0.000000
O O16 0.693647 0.678284 0.500000
O O17 0.000000 0.679598 0.750000
O O18 0.923391 0.680780 0.000000
O O19 0.747805 0.072445 0.500000
O O20 0.781573 0.000000 0.750000
#
# Coordination Sequence:
#
# PCOD9393876 Si02
#       8
#     8   8   8   8   2   8   8   8
#     4  10  21  37  59  89 121 154 187 222 264 322
#     4  12  24  36  51  71  99 137 182 229 278 336
#     4  12  24  37  54  76 105 140 183 231 283 332
#     4   9  19  35  55  77 107 144 184 227 278 331
#     4  12  26  36  52  66 106 148 182 220 286 352
#     4  10  20  35  57  82 109 142 186 230 274 326
#     4  10  20  36  58  86 118 152 186 225 269 324
#     4  11  22  35  52  75 103 137 181 231 283 334
#
# _framework density 17.812123
#
# number of rings (size 3 to 8) (size 9 to 14) (size 15 to 20)
#    0.000    1.379    2.759    3.517    0.000    4.138 
#    0.000    1.379    0.000    0.828    0.000    5.793 
#    0.000    0.000    0.000    0.000    0.000    0.000 
#
# Total GULP energy -323643.131126 kJ/mol
# GULP energy per Si atom -5580.053985 kJ/mol
# Density = 1.777158 g / cm^3
# Si number density = 17.812123 Si / 1000 Ang^3
#
#
#
# Elastic Constant Matrix: (Units=GPa)
#
#
# Indices 1 2 3 4 5 6 
#
# 1 123.3471 82.1475 28.2705 0.0000 0.0000 0.0000
# 2 82.1475 140.9155 28.6756 0.0000 0.0000 0.0000
# 3 28.2705 28.6756 56.7565 0.0000 0.0000 0.0000
# 4 0.0000 0.0000 0.0000 19.9479 0.0000 0.0000
# 5 0.0000 0.0000 0.0000 0.0000 19.0434 0.0000
# 6 0.0000 0.0000 0.0000 0.0000 0.0000 16.1183
#
#
#
# Elastic Compliance Matrix: (Units=1/GPa)
#
#
# Indices 1 2 3 4 5 6 
#
# 1 0.013729 -0.007370 -0.003115 0.000000 0.000000 0.000000
# 2 -0.007370 0.011866 -0.002324 0.000000 0.000000 0.000000
# 3 -0.003115 -0.002324 0.020345 0.000000 0.000000 0.000000
# 4 0.000000 0.000000 0.000000 0.050131 0.000000 0.000000
# 5 0.000000 0.000000 0.000000 0.000000 0.052512 0.000000
# 6 0.000000 0.000000 0.000000 0.000000 0.000000 0.062041
#
#
# Mechanical properties :
#
#
# Convention : Reuss Voigt Hill
#
# Bulk Modulus (GPa) = 49.20759 66.57847 57.89303
# Shear Modulus (GPa) = 20.57485 23.15028 21.86256
#
# Velocity S-wave (km/s) = 3.40237 3.60904 3.50722
# Velocity P-wave (km/s) = 6.56663 7.40447 6.99810
#
# Compressibility (1/GPa) = 0.02032207
#
# Stress axis : x y z
#
# Youngs Moduli (GPa) = 72.83712 84.27736 49.15203
#
# Poissons Ratio (x) = 0.62109 0.15311
# Poissons Ratio (y) = 0.53678 0.11424
# Poissons Ratio (z) = 0.22690 0.19587
#
# Static dielectric constant tensor:
#      x y z
#    x 1.597730 0.000000 0.000000 
#    y 0.000000 1.612360 0.000000 
#    z 0.000000 0.000000 2.288530 
# 
# From -- ./inp_files/5112.got.cif
#   From: 2010.05.17/outbox.cif.g08.bks.cpg/sg49_3_cif.got.tgz:5112.got - 2010.06.03 21:02:19.
