data_PCOD9393845
_publ_section_title
;
Structure prediction by ZEFSAII (Michael W. Deem and Ramdas Pophale) SiO2 
 PCOD9393845
Probable space group: P C C M
;
_chemical_formula_sum "Si O2"
_cell_formula_units_Z 40
_cell_length_a 26.267816
_cell_length_b 9.372668
_cell_length_c 8.591858
_cell_angle_alpha 90.000000
_cell_angle_beta 90.000000
_cell_angle_gamma 90.000000
_cell_volume 2115.311302
_symmetry_space_group_name_H-M "P C C M"
_symmetry_group_IT_number 49
_symmetry_cell_setting 'orthorhombic'
loop_
_space_group_symop_operation_xyz
x,y,z
-x,-y,z
x,-y,1/2-z
-x,y,1/2-z
-x,-y,-z
x,y,-z
-x,y,1/2+z
x,-y,1/2+z
loop_
_atom_site_type_symbol
_atom_site_label
_atom_site_fract_x
_atom_site_fract_y
_atom_site_fract_z
Si Si1 0.443999 0.841471 0.186185
Si Si2 0.748390 0.160160 0.687765
Si Si3 0.055027 0.840202 0.687008
Si Si4 0.846845 0.340164 0.687990
Si Si5 0.351053 0.340300 0.812735
O O1 0.500000 0.803909 0.250000
O O2 0.401600 0.732860 0.245803
O O3 0.431981 0.000000 0.250000
O O4 0.445165 0.845528 0.000000
O O5 0.749152 0.154842 0.500000
O O6 0.798504 0.246275 0.739772
O O7 0.697757 0.245800 0.734837
O O8 0.748140 0.000000 0.750000
O O9 0.053251 0.845786 0.500000
O O10 0.100864 0.737255 0.736108
O O11 0.000000 0.793233 0.750000
O O12 0.064176 0.000000 0.750000
O O13 0.843608 0.500000 0.750000
O O14 0.846120 0.344317 0.500000
O O15 0.345551 0.500000 0.750000
O O16 0.353611 0.342379 0.000000
#
# Coordination Sequence:
#
# PCOD9393845 Si02
#       5
#     8   8   8   8   8
#     4  11  22  39  62  88 118 153 194 238 283 335
#     4  10  22  39  60  85 113 146 188 232 279 335
#     4  10  20  35  56  81 110 144 187 231 277 330
#     4  10  22  38  56  82 113 147 185 229 279 334
#     4  11  23  39  59  86 118 152 190 234 285 340
#
# _framework density 18.909744
#
# number of rings (size 3 to 8) (size 9 to 14) (size 15 to 20)
#    0.000    1.600    0.000    6.000    0.000    6.400 
#    0.000    4.000    0.000    0.000    0.000    0.000 
#    0.000    0.000    0.000    0.000    0.000    0.000 
#
# Total GULP energy -223635.843178 kJ/mol
# GULP energy per Si atom -5590.896079 kJ/mol
# Density = 1.886670 g / cm^3
# Si number density = 18.909744 Si / 1000 Ang^3
#
#
#
# Elastic Constant Matrix: (Units=GPa)
#
#
# Indices 1 2 3 4 5 6 
#
# 1 162.8393 136.1321 49.7424 0.0000 0.0000 0.0000
# 2 136.1321 182.0881 45.8533 0.0000 0.0000 0.0000
# 3 49.7424 45.8533 70.8057 0.0000 0.0000 0.0000
# 4 0.0000 0.0000 0.0000 38.1142 0.0000 0.0000
# 5 0.0000 0.0000 0.0000 0.0000 28.4948 0.0000
# 6 0.0000 0.0000 0.0000 0.0000 0.0000 -141.4694
#
#
#
# Elastic Compliance Matrix: (Units=1/GPa)
#
#
# Indices 1 2 3 4 5 6 
#
# 1 0.017534 -0.011957 -0.004575 0.000000 0.000000 0.000000
# 2 -0.011957 0.014716 -0.001130 0.000000 0.000000 0.000000
# 3 -0.004575 -0.001130 0.018069 0.000000 0.000000 0.000000
# 4 0.000000 0.000000 0.000000 0.026237 0.000000 0.000000
# 5 0.000000 0.000000 0.000000 0.000000 0.035094 0.000000
# 6 0.000000 0.000000 0.000000 0.000000 0.000000 -0.007069
#
#
# Mechanical properties :
#
#
# Convention : Reuss Voigt Hill
#
# Bulk Modulus (GPa) = 66.68712 97.68764 82.18738
# Shear Modulus (GPa) = 34.50579 -2.70506 15.90037
#
# Velocity S-wave (km/s) = 4.27636 -1.19734 2.90290
# Velocity P-wave (km/s) = 7.72823 7.06120 7.40223
#
# Compressibility (1/GPa) = 0.01499540
#
# Stress axis : x y z
#
# Youngs Moduli (GPa) = 57.03043 67.95525 55.34398
#
# Poissons Ratio (x) = 0.81254 0.25320
# Poissons Ratio (y) = 0.68191 0.06252
# Poissons Ratio (z) = 0.26092 0.07677
#
# Static dielectric constant tensor:
#      x y z
#    x 1.648250 0.000000 0.000000 
#    y 0.000000 1.608700 0.000000 
#    z 0.000000 0.000000 1.643770 
# 
# From -- ./inp_files/1669.got.cif
#   From: 2010.05.17/outbox.cif.g08.bks.cpg/sg49_1_cif.got.tgz:1669.got - 2010.06.03 21:02:19.
