data_PCOD9393918
_publ_section_title
;
Structure prediction by ZEFSAII (Michael W. Deem and Ramdas Pophale) SiO2 
 PCOD9393918
Probable space group: P C C M
;
_chemical_formula_sum "Si O2"
_cell_formula_units_Z 40
_cell_length_a 23.611851
_cell_length_b 8.464513
_cell_length_c 10.300355
_cell_angle_alpha 90.000000
_cell_angle_beta 90.000000
_cell_angle_gamma 90.000000
_cell_volume 2058.657995
_symmetry_space_group_name_H-M "P C C M"
_symmetry_group_IT_number 49
_symmetry_cell_setting 'orthorhombic'
loop_
_space_group_symop_operation_xyz
x,y,z
-x,-y,z
x,-y,1/2-z
-x,y,1/2-z
-x,-y,-z
x,y,-z
-x,y,1/2+z
x,-y,1/2+z
loop_
_atom_site_type_symbol
_atom_site_label
_atom_site_fract_x
_atom_site_fract_y
_atom_site_fract_z
Si Si1 0.577715 0.826739 0.500000
Si Si2 0.750353 0.651452 0.154936
Si Si3 0.866196 0.189845 0.738266
Si Si4 0.627545 0.689064 0.236927
Si Si5 0.057016 0.809399 0.500000
Si Si6 0.926889 0.194744 0.000000
Si Si7 0.553020 0.200712 0.500000
O O1 0.610737 0.769702 0.372233
O O2 0.513522 0.761316 0.500000
O O3 0.566966 0.014137 0.500000
O O4 0.752714 0.500000 0.250000
O O5 0.804591 0.753389 0.195232
O O6 0.690353 0.734053 0.187347
O O7 0.751661 0.614361 0.000000
O O8 0.910143 0.242281 0.628032
O O9 0.891086 0.245770 0.875214
O O10 0.865307 0.000000 0.750000
O O11 0.627508 0.500000 0.250000
O O12 0.582107 0.732250 0.128219
O O13 0.992291 0.754186 0.500000
O O14 0.064429 0.002209 0.500000
#
# Coordination Sequence:
#
# PCOD9393918 Si02
#       7
#     4   8   8   8   4   4   4
#     4  11  25  40  67  96 130 167 198 253 320 373
#     4  11  25  44  64  86 121 163 203 253 308 362
#     4  10  20  35  60  90 120 153 201 254 301 363
#     4  11  24  42  66  92 123 166 216 258 301 369
#     4   9  16  33  53  84 126 155 194 249 300 361
#     4   9  18  29  55  90 118 157 196 243 310 359
#     4  11  23  44  63  96 134 163 202 251 316 375
#
# _framework density 19.430133000000001
#
# number of rings (size 3 to 8) (size 9 to 14) (size 15 to 20)
#    0.000    1.600    2.000    2.400    5.600    8.000 
#    0.000    0.000    0.000    3.600    0.000    0.000 
#    0.000    0.000    0.000    0.000    0.000    0.000 
#
# Total GULP energy -223321.416006 kJ/mol
# GULP energy per Si atom -5583.035400 kJ/mol
# Density = 1.938591 g / cm^3
# Si number density = 19.430133 Si / 1000 Ang^3
#
#
#
# Elastic Constant Matrix: (Units=GPa)
#
#
# Indices 1 2 3 4 5 6 
#
# 1 163.9726 21.4638 91.7798 0.0000 0.0000 0.0000
# 2 21.4638 19.0706 24.6698 0.0000 0.0000 0.0000
# 3 91.7798 24.6698 212.9134 0.0000 0.0000 0.0000
# 4 0.0000 0.0000 0.0000 27.7255 0.0000 0.0000
# 5 0.0000 0.0000 0.0000 0.0000 59.1953 0.0000
# 6 0.0000 0.0000 0.0000 0.0000 0.0000 34.9020
#
#
#
# Elastic Compliance Matrix: (Units=1/GPa)
#
#
# Indices 1 2 3 4 5 6 
#
# 1 0.008534 -0.005701 -0.003018 0.000000 0.000000 0.000000
# 2 -0.005701 0.065490 -0.005131 0.000000 0.000000 0.000000
# 3 -0.003018 -0.005131 0.006592 0.000000 0.000000 0.000000
# 4 0.000000 0.000000 0.000000 0.036068 0.000000 0.000000
# 5 0.000000 0.000000 0.000000 0.000000 0.016893 0.000000
# 6 0.000000 0.000000 0.000000 0.000000 0.000000 0.028652
#
#
# Mechanical properties :
#
#
# Convention : Reuss Voigt Hill
#
# Bulk Modulus (GPa) = 18.89748 74.64258 46.77003
# Shear Modulus (GPa) = 24.08847 41.56744 32.82796
#
# Velocity S-wave (km/s) = 3.52483 4.63031 4.11486
# Velocity P-wave (km/s) = 5.12960 8.19058 6.83368
#
# Compressibility (1/GPa) = 0.05291712
#
# Stress axis : x y z
#
# Youngs Moduli (GPa) = 117.17544 15.26945 151.69162
#
# Poissons Ratio (x) = 0.08705 0.45785
# Poissons Ratio (y) = 0.66799 0.77830
# Poissons Ratio (z) = 0.35367 0.07834
#
# Static dielectric constant tensor:
#      x y z
#    x 1.670170 0.000000 0.000000 
#    y 0.000000 1.692940 0.000000 
#    z 0.000000 0.000000 1.663690 
# 
# From -- ./inp_files/6264.got.cif
#   From: 2010.05.17/outbox.cif.g08.bks.cpg/sg49_4_cif.got.tgz:6264.got - 2010.06.03 21:02:19.
