data_PCOD9393700
_publ_section_title
;
Structure prediction by ZEFSAII (Michael W. Deem and Ramdas Pophale) SiO2 
 PCOD9393700
Probable space group: P C C M
;
_chemical_formula_sum "Si O2"
_cell_formula_units_Z 64
_cell_length_a 17.752542
_cell_length_b 21.019031
_cell_length_c 8.830239
_cell_angle_alpha 90.000000
_cell_angle_beta 90.000000
_cell_angle_gamma 90.000000
_cell_volume 3294.926247
_symmetry_space_group_name_H-M "P C C M"
_symmetry_group_IT_number 49
_symmetry_cell_setting 'orthorhombic'
loop_
_space_group_symop_operation_xyz
x,y,z
-x,-y,z
x,-y,1/2-z
-x,y,1/2-z
-x,-y,-z
x,y,-z
-x,y,1/2+z
x,-y,1/2+z
loop_
_atom_site_type_symbol
_atom_site_label
_atom_site_fract_x
_atom_site_fract_y
_atom_site_fract_z
Si Si1 0.366727 0.797581 0.182849
Si Si2 0.422615 0.338840 0.680505
Si Si3 0.207301 0.062829 0.819261
Si Si4 0.124056 0.567919 0.678770
Si Si5 0.199188 0.794644 0.319718
Si Si6 0.304607 0.567629 0.321828
Si Si7 0.375820 0.935950 0.819427
Si Si8 0.078038 0.700368 0.819744
O O1 0.412602 0.735015 0.224968
O O2 0.284357 0.791414 0.257596
O O3 0.403462 0.865511 0.225632
O O4 0.357182 0.798201 0.000000
O O5 0.500000 0.364239 0.750000
O O6 0.425238 0.343146 0.500000
O O7 0.351285 0.377346 0.741572
O O8 0.172149 0.132370 0.792762
O O9 0.289110 0.065513 0.738691
O O10 0.168853 0.000000 0.750000
O O11 0.217448 0.055207 0.000000
O O12 0.102224 0.500000 0.750000
O O13 0.106706 0.568918 0.500000
O O14 0.214693 0.574764 0.697163
O O15 0.088748 0.628355 0.761033
O O16 0.199729 0.783372 0.500000
O O17 0.146419 0.743540 0.239774
O O18 0.325990 0.500000 0.250000
O O19 0.320888 0.567904 0.500000
O O20 0.410259 0.000000 0.750000
O O21 0.377761 0.941684 0.000000
O O22 0.000000 0.725070 0.750000
O O23 0.075378 0.701186 0.000000
#
# Coordination Sequence:
#
# PCOD9393700 Si02
#       8
#     8   8   8   8   8   8   8   8
#     4   9  19  34  53  77 106 141 179 221 269 322
#     4  11  23  38  55  77 107 142 181 223 268 318
#     4   9  16  26  44  72 105 137 171 215 265 316
#     4  10  21  39  63  90 117 144 178 219 264 316
#     4  10  20  34  54  81 110 141 180 224 270 322
#     4  10  21  38  61  87 113 141 174 215 261 312
#     4   9  15  25  43  70 102 133 169 214 265 316
#     4  12  25  40  58  80 110 147 185 225 270 318
#
# _framework density 19.423804000000001
#
# number of rings (size 3 to 8) (size 9 to 14) (size 15 to 20)
#    0.000    2.000    0.000    4.875    0.000    7.000 
#    0.000    2.500    0.000    0.750    0.000    5.250 
#    0.000    0.000    0.000    0.000    0.000    0.000 
#
# Total GULP energy -357330.201795 kJ/mol
# GULP energy per Si atom -5583.284403 kJ/mol
# Density = 1.937959 g / cm^3
# Si number density = 19.423804 Si / 1000 Ang^3
#
#
#
# Elastic Constant Matrix: (Units=GPa)
#
#
# Indices 1 2 3 4 5 6 
#
# 1 46.4058 27.9042 28.8183 0.0000 0.0000 0.0000
# 2 27.9042 107.3033 40.7352 0.0000 0.0000 0.0000
# 3 28.8183 40.7352 69.7010 0.0000 0.0000 0.0000
# 4 0.0000 0.0000 0.0000 35.5463 0.0000 0.0000
# 5 0.0000 0.0000 0.0000 0.0000 0.8878 0.0000
# 6 0.0000 0.0000 0.0000 0.0000 0.0000 -26.9608
#
#
#
# Elastic Compliance Matrix: (Units=1/GPa)
#
#
# Indices 1 2 3 4 5 6 
#
# 1 0.030280 -0.004012 -0.010175 0.000000 0.000000 0.000000
# 2 -0.004012 0.012508 -0.005651 0.000000 0.000000 0.000000
# 3 -0.010175 -0.005651 0.021857 0.000000 0.000000 0.000000
# 4 0.000000 0.000000 0.000000 0.028132 0.000000 0.000000
# 5 0.000000 0.000000 0.000000 0.000000 1.126432 0.000000
# 6 0.000000 0.000000 0.000000 0.000000 0.000000 -0.037091
#
#
# Mechanical properties :
#
#
# Convention : Reuss Voigt Hill
#
# Bulk Modulus (GPa) = 40.05002 46.48061 43.26531
# Shear Modulus (GPa) = 4.06465 10.29149 7.17807
#
# Velocity S-wave (km/s) = 1.44816 2.30432 1.92445
# Velocity P-wave (km/s) = 4.84355 5.57329 5.22118
#
# Compressibility (1/GPa) = 0.02496878
#
# Stress axis : x y z
#
# Youngs Moduli (GPa) = 33.02523 79.94867 45.75251
#
# Poissons Ratio (x) = 0.32072 0.46553
# Poissons Ratio (y) = 0.13248 0.25857
# Poissons Ratio (z) = 0.33603 0.45182
#
# Static dielectric constant tensor:
#      x y z
#    x 1.652750 0.000000 0.000000 
#    y 0.000000 1.720830 0.000000 
#    z 0.000000 0.000000 1.644220 
# 
# From -- ./inp_files/5291.got.cif
#   From: 2010.05.17/outbox.cif.g08.bks.cpg/sg49_3_cif.got.tgz:5291.got - 2010.06.03 21:02:19.
