data_PCOD9393253
_publ_section_title
;
Structure prediction by ZEFSAII (Michael W. Deem and Ramdas Pophale) SiO2 
 PCOD9393253
Probable space group: P C C M
;
_chemical_formula_sum "Si O2"
_cell_formula_units_Z 32
_cell_length_a 17.200718
_cell_length_b 15.136755
_cell_length_c 5.492829
_cell_angle_alpha 90.000000
_cell_angle_beta 90.000000
_cell_angle_gamma 90.000000
_cell_volume 1430.129735
_symmetry_space_group_name_H-M "P C C M"
_symmetry_group_IT_number 49
_symmetry_cell_setting 'orthorhombic'
loop_
_space_group_symop_operation_xyz
x,y,z
-x,-y,z
x,-y,1/2-z
-x,y,1/2-z
-x,-y,-z
x,y,-z
-x,y,1/2+z
x,-y,1/2+z
loop_
_atom_site_type_symbol
_atom_site_label
_atom_site_fract_x
_atom_site_fract_y
_atom_site_fract_z
Si Si1 0.914260 0.889494 0.000000
Si Si2 0.452292 0.749111 0.000000
Si Si3 0.148199 0.084872 0.500000
Si Si4 0.036299 0.712550 0.500000
Si Si5 0.782166 0.517129 0.000000
Si Si6 0.387632 0.450086 0.500000
Si Si7 0.774630 0.717313 0.000000
Si Si8 0.284855 0.187910 0.500000
O O1 0.872088 0.869607 0.250031
O O2 0.983230 0.819697 0.000000
O O3 0.905810 0.996456 0.000000
O O4 0.500000 0.761258 0.250000
O O5 0.377123 0.812078 0.000000
O O6 0.419762 0.648544 0.000000
O O7 0.241713 0.091383 0.500000
O O8 0.130326 0.707670 0.500000
O O9 0.000000 0.677061 0.250000
O O10 0.826686 0.500000 0.750000
O O11 0.706893 0.453361 0.000000
O O12 0.748565 0.615641 0.000000
O O13 0.410721 0.500000 0.750000
O O14 0.742379 0.761936 0.750190
#
# Coordination Sequence:
#
# PCOD9393253 Si02
#       8
#     4   4   4   4   4   4   4   4
#     4  10  20  38  58  91 127 156 211 247 303 370
#     4  12  26  39  56  92 130 161 196 250 326 384
#     4  10  19  36  62  87 123 159 215 256 287 354
#     4  12  24  40  62  94 137 170 194 255 330 376
#     4  10  20  36  59  87 111 149 208 269 299 344
#     4  10  19  35  53  78 115 155 198 235 300 369
#     4  12  23  40  67  90 122 164 227 258 298 375
#     4  12  21  40  66  87 121 174 214 262 295 363
#
# _framework density 22.375592000000001
#
# number of rings (size 3 to 8) (size 9 to 14) (size 15 to 20)
#    0.000    1.000    2.500    6.750    0.000    1.500 
#    0.000    7.500    0.000    2.250    0.000   10.500 
#    0.000    0.000    0.000    0.000    0.000    0.000 
#
# Total GULP energy -178180.208643 kJ/mol
# GULP energy per Si atom -5568.131520 kJ/mol
# Density = 2.232466 g / cm^3
# Si number density = 22.375592 Si / 1000 Ang^3
#
#
#
# Elastic Constant Matrix: (Units=GPa)
#
#
# Indices 1 2 3 4 5 6 
#
# 1 130.8793 -2.5703 51.5652 0.0000 0.0000 0.0000
# 2 -2.5703 25.7140 1.4389 0.0000 0.0000 0.0000
# 3 51.5652 1.4389 240.9672 0.0000 0.0000 0.0000
# 4 0.0000 0.0000 0.0000 -581.1928 0.0000 0.0000
# 5 0.0000 0.0000 0.0000 0.0000 43.8213 0.0000
# 6 0.0000 0.0000 0.0000 0.0000 0.0000 17.2215
#
#
#
# Elastic Compliance Matrix: (Units=1/GPa)
#
#
# Indices 1 2 3 4 5 6 
#
# 1 0.008367 0.000937 -0.001796 0.000000 0.000000 0.000000
# 2 0.000937 0.039007 -0.000433 0.000000 0.000000 0.000000
# 3 -0.001796 -0.000433 0.004537 0.000000 0.000000 0.000000
# 4 0.000000 0.000000 0.000000 -0.001721 0.000000 0.000000
# 5 0.000000 0.000000 0.000000 0.000000 0.022820 0.000000
# 6 0.000000 0.000000 0.000000 0.000000 0.000000 0.058067
#
#
# Mechanical properties :
#
#
# Convention : Reuss Voigt Hill
#
# Bulk Modulus (GPa) = 20.27344 55.38088 37.82716
# Shear Modulus (GPa) = 33.31021 -80.88824 -23.78901
#
# Velocity S-wave (km/s) = 3.86253 -6.01903 -3.26416
# Velocity P-wave (km/s) = 5.38260 4.84774 1.65406
#
# Compressibility (1/GPa) = 0.04932562
#
# Stress axis : x y z
#
# Youngs Moduli (GPa) = 119.52240 25.63624 220.41679
#
# Poissons Ratio (x) = -0.02402 0.39587
# Poissons Ratio (y) = -0.11197 0.09553
# Poissons Ratio (z) = 0.21466 0.01111
#
# Static dielectric constant tensor:
#      x y z
#    x 1.862200 0.000000 0.000000 
#    y 0.000000 2.169700 0.000000 
#    z 0.000000 0.000000 1.853370 
# 
# From -- ./inp_files/459.got.cif
#   From: 2010.05.17/outbox.cif.g08.bks.cpg/sg49_1_cif.got.tgz:459.got - 2010.06.03 21:02:19.
