data_PCOD9393077
_publ_section_title
;
Structure prediction by ZEFSAII (Michael W. Deem and Ramdas Pophale) SiO2 
 PCOD9393077
Probable space group: P C C M
;
_chemical_formula_sum "Si O2"
_cell_formula_units_Z 58
_cell_length_a 26.456363
_cell_length_b 15.073624
_cell_length_c 8.408862
_cell_angle_alpha 90.000000
_cell_angle_beta 90.000000
_cell_angle_gamma 90.000000
_cell_volume 3353.397559
_symmetry_space_group_name_H-M "P C C M"
_symmetry_group_IT_number 49
_symmetry_cell_setting 'orthorhombic'
loop_
_space_group_symop_operation_xyz
x,y,z
-x,-y,z
x,-y,1/2-z
-x,y,1/2-z
-x,-y,-z
x,y,-z
-x,y,1/2+z
x,-y,1/2+z
loop_
_atom_site_type_symbol
_atom_site_label
_atom_site_fract_x
_atom_site_fract_y
_atom_site_fract_z
Si Si1 0.290290 0.406138 0.691521
Si Si2 0.148901 0.785553 0.309705
Si Si3 0.500000 0.000000 0.250000
Si Si4 0.549936 0.168926 0.806763
Si Si5 0.055340 0.899775 0.810642
Si Si6 0.663207 0.778526 0.691774
Si Si7 0.826809 0.405507 0.809906
Si Si8 0.246518 0.100956 0.190297
O O1 0.311337 0.500000 0.750000
O O2 0.290634 0.406467 0.500000
O O3 0.318664 0.318261 0.747649
O O4 0.231866 0.400599 0.745350
O O5 0.150216 0.785637 0.500000
O O6 0.099913 0.838007 0.251575
O O7 0.148139 0.684422 0.250795
O O8 0.199488 0.837740 0.252229
O O9 0.541025 0.076906 0.290727
O O10 0.500000 0.222584 0.750000
O O11 0.604576 0.206364 0.769002
O O12 0.547444 0.152204 0.000000
O O13 0.000000 0.871591 0.750000
O O14 0.063839 0.000000 0.750000
O O15 0.055132 0.900628 0.000000
O O16 0.667227 0.780830 0.500000
O O17 0.701406 0.852672 0.756415
O O18 0.847501 0.500000 0.750000
O O19 0.827463 0.405832 0.000000
O O20 0.242205 0.000000 0.250000
O O21 0.244878 0.099262 0.000000
#
# Coordination Sequence:
#
# PCOD9393077 Si02
#       8
#     8   8   2   8   8   8   8   8
#     4   9  18  32  53  76 105 137 174 219 268 321
#     4  11  22  37  56  81 113 148 187 228 274 328
#     4   8  18  32  50  68  96 124 178 216 264 304
#     4   9  19  32  50  71  98 129 170 217 263 312
#     4  11  22  38  60  85 113 148 192 237 280 325
#     4  10  20  36  53  76 106 139 174 220 271 324
#     4  10  19  33  54  80 110 145 183 227 275 327
#     4  11  24  36  50  75 109 147 180 217 264 322
#
# _framework density 17.295891999999998
#
# number of rings (size 3 to 8) (size 9 to 14) (size 15 to 20)
#    0.414    1.517    1.379    3.517    0.966    4.414 
#    0.000    0.000    0.000    0.828    0.000    5.793 
#    0.000    0.000    0.000    0.000    0.000    0.000 
#
# Total GULP energy -322944.289803 kJ/mol
# GULP energy per Si atom -5568.004997 kJ/mol
# Density = 1.725653 g / cm^3
# Si number density = 17.295892 Si / 1000 Ang^3
#
#
#
# Elastic Constant Matrix: (Units=GPa)
#
#
# Indices 1 2 3 4 5 6 
#
# 1 119.8209 70.8278 29.1766 0.0000 0.0000 0.0000
# 2 70.8278 126.7349 28.5302 0.0000 0.0000 0.0000
# 3 29.1766 28.5302 44.4624 0.0000 0.0000 0.0000
# 4 0.0000 0.0000 0.0000 22.2255 0.0000 0.0000
# 5 0.0000 0.0000 0.0000 0.0000 23.8477 0.0000
# 6 0.0000 0.0000 0.0000 0.0000 0.0000 25.8788
#
#
#
# Elastic Compliance Matrix: (Units=1/GPa)
#
#
# Indices 1 2 3 4 5 6 
#
# 1 0.013221 -0.006354 -0.004599 0.000000 0.000000 0.000000
# 2 -0.006354 0.012276 -0.003708 0.000000 0.000000 0.000000
# 3 -0.004599 -0.003708 0.027888 0.000000 0.000000 0.000000
# 4 0.000000 0.000000 0.000000 0.044993 0.000000 0.000000
# 5 0.000000 0.000000 0.000000 0.000000 0.041933 0.000000
# 6 0.000000 0.000000 0.000000 0.000000 0.000000 0.038642
#
#
# Mechanical properties :
#
#
# Convention : Reuss Voigt Hill
#
# Bulk Modulus (GPa) = 41.55517 60.89860 51.22689
# Shear Modulus (GPa) = 23.11649 25.22264 24.16956
#
# Velocity S-wave (km/s) = 3.65983 3.82292 3.74226
# Velocity P-wave (km/s) = 6.47590 7.40085 6.95377
#
# Compressibility (1/GPa) = 0.02406439
#
# Stress axis : x y z
#
# Youngs Moduli (GPa) = 75.63488 81.45959 35.85769
#
# Poissons Ratio (x) = 0.51757 0.16491
# Poissons Ratio (y) = 0.48056 0.13295
# Poissons Ratio (z) = 0.34785 0.30204
#
# Static dielectric constant tensor:
#      x y z
#    x 1.601780 0.000000 0.000000 
#    y 0.000000 1.581160 0.000000 
#    z 0.000000 0.000000 1.614900 
# 
# From -- ./inp_files/6465.got.cif
#   From: 2010.05.17/outbox.cif.g08.bks.cpg/sg49_4_cif.got.tgz:6465.got - 2010.06.03 21:02:19.
