data_PCOD9393301
_publ_section_title
;
Structure prediction by ZEFSAII (Michael W. Deem and Ramdas Pophale) SiO2 
 PCOD9393301
Probable space group: P C C M
;
_chemical_formula_sum "Si O2"
_cell_formula_units_Z 52
_cell_length_a 14.578504
_cell_length_b 8.774743
_cell_length_c 20.474552
_cell_angle_alpha 90.000000
_cell_angle_beta 90.000000
_cell_angle_gamma 90.000000
_cell_volume 2619.158456
_symmetry_space_group_name_H-M "P C C M"
_symmetry_group_IT_number 49
_symmetry_cell_setting 'orthorhombic'
loop_
_space_group_symop_operation_xyz
x,y,z
-x,-y,z
x,-y,1/2-z
-x,y,1/2-z
-x,-y,-z
x,y,-z
-x,y,1/2+z
x,-y,1/2+z
loop_
_atom_site_type_symbol
_atom_site_label
_atom_site_fract_x
_atom_site_fract_y
_atom_site_fract_z
Si Si1 0.128352 0.358952 0.891483
Si Si2 0.242565 0.212291 0.000000
Si Si3 0.078680 0.708283 0.112287
Si Si4 0.364293 0.318153 0.255230
Si Si5 0.541793 0.169630 0.500000
Si Si6 0.490213 0.183928 0.146220
Si Si7 0.850017 0.317795 0.753396
Si Si8 0.104057 0.065990 0.500000
O O1 0.127169 0.542886 0.890024
O O2 0.136200 0.276213 0.821676
O O3 0.025376 0.315144 0.912451
O O4 0.209988 0.307070 0.937282
O O5 0.348104 0.169530 0.000000
O O6 0.177240 0.066776 0.000000
O O7 0.088349 0.750170 0.188872
O O8 0.119399 0.831446 0.063991
O O9 0.378109 0.500000 0.250000
O O10 0.402457 0.238491 0.189134
O O11 0.424625 0.254174 0.314427
O O12 0.256978 0.292058 0.267751
O O13 0.513293 0.236340 0.429296
O O14 0.500000 0.000000 0.500000
O O15 0.500000 0.000000 0.148104
O O16 0.869997 0.500000 0.750000
O O17 0.000000 0.000000 0.500000
#
# Coordination Sequence:
#
# PCOD9393301 Si02
#       8
#     8   4   8   8   4   8   8   4
#     4  10  19  36  61  88 112 154 201 236 291 343
#     4  12  23  38  63  81 118 155 195 247 297 351
#     4  10  20  36  59  84 119 155 194 242 282 353
#     4  10  19  35  58  86 114 146 184 237 302 353
#     4  10  24  41  58  85 112 152 201 251 295 356
#     4  10  20  37  59  77 109 144 197 239 287 354
#     4   9  19  34  57  87 116 146 193 242 289 345
#     4  12  23  39  55  84 123 160 198 237 293 353
#
# _framework density 19.853705000000001
#
# number of rings (size 3 to 8) (size 9 to 14) (size 15 to 20)
#    0.000    1.846    1.538    3.692    0.000    5.538 
#    0.000    3.846    0.000    5.538    0.000    0.000 
#    0.000    0.000    0.000    0.000    0.000    0.000 
#
# Total GULP energy -290057.661367 kJ/mol
# GULP energy per Si atom -5578.031949 kJ/mol
# Density = 1.980852 g / cm^3
# Si number density = 19.853705 Si / 1000 Ang^3
#
#
#
# Elastic Constant Matrix: (Units=GPa)
#
#
# Indices 1 2 3 4 5 6 
#
# 1 70.8061 20.9182 27.4313 0.0000 0.0000 0.0000
# 2 20.9182 55.1811 23.2628 0.0000 0.0000 0.0000
# 3 27.4313 23.2628 141.3277 0.0000 0.0000 0.0000
# 4 0.0000 0.0000 0.0000 -8.0144 0.0000 0.0000
# 5 0.0000 0.0000 0.0000 0.0000 20.9128 0.0000
# 6 0.0000 0.0000 0.0000 0.0000 0.0000 21.5170
#
#
#
# Elastic Compliance Matrix: (Units=1/GPa)
#
#
# Indices 1 2 3 4 5 6 
#
# 1 0.016600 -0.005302 -0.002349 0.000000 0.000000 0.000000
# 2 -0.005302 0.021167 -0.002455 0.000000 0.000000 0.000000
# 3 -0.002349 -0.002455 0.007936 0.000000 0.000000 0.000000
# 4 0.000000 0.000000 0.000000 -0.124776 0.000000 0.000000
# 5 0.000000 0.000000 0.000000 0.000000 0.047818 0.000000
# 6 0.000000 0.000000 0.000000 0.000000 0.000000 0.046475
#
#
# Mechanical properties :
#
#
# Convention : Reuss Voigt Hill
#
# Bulk Modulus (GPa) = 39.23159 45.61551 42.42355
# Shear Modulus (GPa) = 113.82070 19.92991 66.87530
#
# Velocity S-wave (km/s) = 7.57985 3.17178 5.81009
# Velocity P-wave (km/s) = 9.81880 6.03649 8.15009
#
# Compressibility (1/GPa) = 0.02548966
#
# Stress axis : x y z
#
# Youngs Moduli (GPa) = 60.24227 47.24306 126.01097
#
# Poissons Ratio (x) = 0.25050 0.29602
# Poissons Ratio (y) = 0.31942 0.30936
# Poissons Ratio (z) = 0.14152 0.11598
#
# Static dielectric constant tensor:
#      x y z
#    x 1.686130 0.000000 0.000000 
#    y 0.000000 1.477160 0.000000 
#    z 0.000000 0.000000 1.770490 
# 
# From -- ./inp_files/20818.got.cif
#   From: 2010.05.17/outbox.cif.g08.bks.cpg/sg49_11_cif.got.tgz:20818.got - 2010.06.03 21:02:19.
