data_PCOD9393546
_publ_section_title
;
Structure prediction by ZEFSAII (Michael W. Deem and Ramdas Pophale) SiO2 
 PCOD9393546
Probable space group: P C C M
;
_chemical_formula_sum "Si O2"
_cell_formula_units_Z 58
_cell_length_a 26.230189
_cell_length_b 15.170070
_cell_length_c 8.350830
_cell_angle_alpha 90.000000
_cell_angle_beta 90.000000
_cell_angle_gamma 90.000000
_cell_volume 3322.910526
_symmetry_space_group_name_H-M "P C C M"
_symmetry_group_IT_number 49
_symmetry_cell_setting 'orthorhombic'
loop_
_space_group_symop_operation_xyz
x,y,z
-x,-y,z
x,-y,1/2-z
-x,y,1/2-z
-x,-y,-z
x,y,-z
-x,y,1/2+z
x,-y,1/2+z
loop_
_atom_site_type_symbol
_atom_site_label
_atom_site_fract_x
_atom_site_fract_y
_atom_site_fract_z
Si Si1 0.500000 0.000000 0.250000
Si Si2 0.446067 0.670262 0.309058
Si Si3 0.165307 0.399433 0.190913
Si Si4 0.338058 0.595273 0.690551
Si Si5 0.745388 0.725961 0.689241
Si Si6 0.421221 0.135412 0.308132
Si Si7 0.303228 0.902438 0.192475
Si Si8 0.947057 0.398822 0.308851
O O1 0.542538 0.926927 0.200711
O O2 0.500000 0.634273 0.250000
O O3 0.447759 0.684333 0.500000
O O4 0.397550 0.609635 0.272870
O O5 0.436096 0.764034 0.224285
O O6 0.174480 0.500000 0.250000
O O7 0.208464 0.330644 0.240173
O O8 0.108871 0.367378 0.246006
O O9 0.164436 0.404791 0.000000
O O10 0.320872 0.500000 0.750000
O O11 0.330525 0.602566 0.500000
O O12 0.305559 0.670306 0.775932
O O13 0.753600 0.731552 0.500000
O O14 0.733598 0.824276 0.752649
O O15 0.429071 0.115197 0.500000
O O16 0.362220 0.119067 0.265476
O O17 0.290256 0.000000 0.250000
O O18 0.301442 0.900919 0.000000
O O19 0.947731 0.500000 0.250000
O O20 0.948447 0.397733 0.500000
O O21 0.000000 0.356605 0.250000
#
# Coordination Sequence:
#
# PCOD9393546 Si02
#       8
#     2   8   8   8   8   8   8   8
#     4  12  22  32  56  86 104 128 158 196 260 312
#     4  11  24  39  57  77  99 126 159 199 249 303
#     4  10  20  33  50  76 109 147 187 228 266 308
#     4  11  24  40  58  79 101 132 168 209 257 309
#     4  11  22  37  56  78 105 139 175 217 262 307
#     4  11  22  36  53  77 105 128 156 195 244 306
#     4  10  22  38  56  78 103 133 166 206 256 311
#     4   9  16  26  43  68 102 143 185 223 264 305
#
# _framework density 17.454578999999999
#
# number of rings (size 3 to 8) (size 9 to 14) (size 15 to 20)
#    0.000    1.517    2.759    3.103    0.000    5.793 
#    0.000    1.379    0.000    0.000    0.000    0.000 
#    0.000    0.552    0.000    6.069    0.000    4.414 
#
# Total GULP energy -323410.490409 kJ/mol
# GULP energy per Si atom -5576.042938 kJ/mol
# Density = 1.741485 g / cm^3
# Si number density = 17.454579 Si / 1000 Ang^3
#
#
#
# Elastic Constant Matrix: (Units=GPa)
#
#
# Indices 1 2 3 4 5 6 
#
# 1 130.2516 43.1405 27.6971 0.0000 0.0000 0.0000
# 2 43.1405 79.7456 10.5088 0.0000 0.0000 0.0000
# 3 27.6971 10.5088 31.2139 0.0000 0.0000 0.0000
# 4 0.0000 0.0000 0.0000 13.9823 0.0000 0.0000
# 5 0.0000 0.0000 0.0000 0.0000 21.1068 0.0000
# 6 0.0000 0.0000 0.0000 0.0000 0.0000 3.7523
#
#
#
# Elastic Compliance Matrix: (Units=1/GPa)
#
#
# Indices 1 2 3 4 5 6 
#
# 1 0.011029 -0.004894 -0.008139 0.000000 0.000000 0.000000
# 2 -0.004894 0.015294 -0.000806 0.000000 0.000000 0.000000
# 3 -0.008139 -0.000806 0.039530 0.000000 0.000000 0.000000
# 4 0.000000 0.000000 0.000000 0.071519 0.000000 0.000000
# 5 0.000000 0.000000 0.000000 0.000000 0.047378 0.000000
# 6 0.000000 0.000000 0.000000 0.000000 0.000000 0.266500
#
#
# Mechanical properties :
#
#
# Convention : Reuss Voigt Hill
#
# Bulk Modulus (GPa) = 26.19533 44.87822 35.53677
# Shear Modulus (GPa) = 10.16977 18.42594 14.29786
#
# Velocity S-wave (km/s) = 2.41642 3.25260 2.86518
# Velocity P-wave (km/s) = 4.77763 6.31452 5.59906
#
# Compressibility (1/GPa) = 0.03817475
#
# Stress axis : x y z
#
# Youngs Moduli (GPa) = 90.67011 65.38662 25.29712
#
# Poissons Ratio (x) = 0.32000 0.20589
# Poissons Ratio (y) = 0.44373 0.02040
# Poissons Ratio (z) = 0.73794 0.05273
#
# Static dielectric constant tensor:
#      x y z
#    x 1.631640 0.000000 0.000000 
#    y 0.000000 1.565520 0.000000 
#    z 0.000000 0.000000 1.625830 
# 
# From -- ./inp_files/6452.got.cif
#   From: 2010.05.17/outbox.cif.g08.bks.cpg/sg49_4_cif.got.tgz:6452.got - 2010.06.03 21:02:19.
