data_PCOD9393497
_publ_section_title
;
Structure prediction by ZEFSAII (Michael W. Deem and Ramdas Pophale) SiO2 
 PCOD9393497
Probable space group: P C C M
;
_chemical_formula_sum "Si O2"
_cell_formula_units_Z 64
_cell_length_a 13.745645
_cell_length_b 23.470735
_cell_length_c 8.946222
_cell_angle_alpha 90.000000
_cell_angle_beta 90.000000
_cell_angle_gamma 90.000000
_cell_volume 2886.233641
_symmetry_space_group_name_H-M "P C C M"
_symmetry_group_IT_number 49
_symmetry_cell_setting 'orthorhombic'
loop_
_space_group_symop_operation_xyz
x,y,z
-x,-y,z
x,-y,1/2-z
-x,y,1/2-z
-x,-y,-z
x,y,-z
-x,y,1/2+z
x,-y,1/2+z
loop_
_atom_site_type_symbol
_atom_site_label
_atom_site_fract_x
_atom_site_fract_y
_atom_site_fract_z
Si Si1 0.179781 0.058185 0.320122
Si Si2 0.873816 0.701711 0.166902
Si Si3 0.862403 0.185265 0.829819
Si Si4 0.630307 0.791877 0.667142
Si Si5 0.099069 0.587186 0.175766
Si Si6 0.358585 0.679753 0.666509
Si Si7 0.693798 0.558033 0.180643
Si Si8 0.402395 0.084640 0.681348
O O1 0.173942 0.055603 0.500000
O O2 0.132321 0.119366 0.277400
O O3 0.295179 0.061475 0.279799
O O4 0.139425 0.000000 0.250000
O O5 0.897746 0.765506 0.218785
O O6 0.901710 0.655123 0.290339
O O7 0.757211 0.693229 0.156154
O O8 0.912047 0.688762 0.000000
O O9 0.747185 0.200036 0.841598
O O10 0.901362 0.189723 0.000000
O O11 0.590973 0.791731 0.500000
O O12 0.604462 0.732686 0.740877
O O13 0.599663 0.850461 0.742609
O O14 0.195846 0.564877 0.257948
O O15 0.000000 0.565002 0.250000
O O16 0.103483 0.575448 0.000000
O O17 0.399866 0.679995 0.500000
O O18 0.362993 0.615548 0.727828
O O19 0.653621 0.500000 0.250000
O O20 0.696022 0.556557 0.000000
O O21 0.500000 0.058943 0.750000
O O22 0.407716 0.083901 0.500000
#
# Coordination Sequence:
#
# PCOD9393497 Si02
#       8
#     8   8   8   8   8   8   8   8
#     4   9  18  30  42  58  83 113 148 183 216 254
#     4   9  16  27  43  64  85 105 134 173 214 258
#     4   8  14  26  42  59  79 105 135 172 216 259
#     4   8  14  25  41  58  77 101 133 170 212 256
#     4  11  21  33  47  63  86 117 149 181 214 248
#     4   8  15  26  41  61  83 103 130 169 210 250
#     4  10  20  33  46  64  88 115 148 181 211 249
#     4   9  18  30  41  57  81 111 145 181 214 252
#
# _framework density 22.174226999999998
#
# number of rings (size 3 to 8) (size 9 to 14) (size 15 to 20)
#    0.000    3.000    0.000    4.125    0.000    5.500 
#    0.000    5.000    0.000    0.000    0.000    0.000 
#    0.000    1.000    0.000   10.750    0.000    7.625 
#
# Total GULP energy -356895.545285 kJ/mol
# GULP energy per Si atom -5576.492895 kJ/mol
# Density = 2.212376 g / cm^3
# Si number density = 22.174227 Si / 1000 Ang^3
#
#
#
# Elastic Constant Matrix: (Units=GPa)
#
#
# Indices 1 2 3 4 5 6 
#
# 1 32.4212 -9.6799 -0.0073 0.0000 0.0000 0.0000
# 2 -9.6799 205.9709 39.5790 0.0000 0.0000 0.0000
# 3 -0.0073 39.5790 51.5371 0.0000 0.0000 0.0000
# 4 0.0000 0.0000 0.0000 41.1673 0.0000 0.0000
# 5 0.0000 0.0000 0.0000 0.0000 -41.2740 0.0000
# 6 0.0000 0.0000 0.0000 0.0000 0.0000 -11.9756
#
#
#
# Elastic Compliance Matrix: (Units=1/GPa)
#
#
# Indices 1 2 3 4 5 6 
#
# 1 0.031360 0.001728 -0.001323 0.000000 0.000000 0.000000
# 2 0.001728 0.005791 -0.004447 0.000000 0.000000 0.000000
# 3 -0.001323 -0.004447 0.022818 0.000000 0.000000 0.000000
# 4 0.000000 0.000000 0.000000 0.024291 0.000000 0.000000
# 5 0.000000 0.000000 0.000000 0.000000 -0.024228 0.000000
# 6 0.000000 0.000000 0.000000 0.000000 0.000000 -0.083503
#
#
# Mechanical properties :
#
#
# Convention : Reuss Voigt Hill
#
# Bulk Modulus (GPa) = 19.27315 38.85700 29.06508
# Shear Modulus (GPa) = 2622.16522 14.91936 1318.54229
#
# Velocity S-wave (km/s) = 34.42522 2.59670 24.41146
# Velocity P-wave (km/s) = 39.86023 5.15286 28.41997
#
# Compressibility (1/GPa) = 0.05188565
#
# Stress axis : x y z
#
# Youngs Moduli (GPa) = 31.88818 172.68856 43.82423
#
# Poissons Ratio (x) = -0.29839 0.05796
# Poissons Ratio (y) = -0.05510 0.19488
# Poissons Ratio (z) = 0.04218 0.76793
#
# Static dielectric constant tensor:
#      x y z
#    x 1.876150 0.000000 0.000000 
#    y 0.000000 1.855570 0.000000 
#    z 0.000000 0.000000 1.770510 
# 
# From -- ./inp_files/6079.got.cif
#   From: 2010.05.17/outbox.cif.g08.bks.cpg/sg49_4_cif.got.tgz:6079.got - 2010.06.03 21:02:19.
