data_PCOD9393689
_publ_section_title
;
Structure prediction by ZEFSAII (Michael W. Deem and Ramdas Pophale) SiO2 
 PCOD9393689
Probable space group: P C C M
;
_chemical_formula_sum "Si O2"
_cell_formula_units_Z 64
_cell_length_a 8.850402
_cell_length_b 22.286311
_cell_length_c 17.375875
_cell_angle_alpha 90.000000
_cell_angle_beta 90.000000
_cell_angle_gamma 90.000000
_cell_volume 3427.266436
_symmetry_space_group_name_H-M "P C C M"
_symmetry_group_IT_number 49
_symmetry_cell_setting 'orthorhombic'
loop_
_space_group_symop_operation_xyz
x,y,z
-x,-y,z
x,-y,1/2-z
-x,y,1/2-z
-x,-y,-z
x,y,-z
-x,y,1/2+z
x,-y,1/2+z
loop_
_atom_site_type_symbol
_atom_site_label
_atom_site_fract_x
_atom_site_fract_y
_atom_site_fract_z
Si Si1 0.663194 0.747471 0.150793
Si Si2 0.820707 0.374221 0.908410
Si Si3 0.193563 0.869317 0.410377
Si Si4 0.820623 0.627764 0.091485
Si Si5 0.327704 0.929494 0.265765
Si Si6 0.316980 0.742186 0.835638
Si Si7 0.816212 0.501112 0.838772
Si Si8 0.098878 0.155459 0.675546
O O1 0.750844 0.802041 0.110794
O O2 0.730433 0.684069 0.124354
O O3 0.485273 0.753518 0.133873
O O4 0.679847 0.749741 0.243185
O O5 0.733346 0.323567 0.861497
O O6 0.770408 0.440752 0.882924
O O7 0.999949 0.367076 0.890556
O O8 0.800870 0.366812 0.000000
O O9 0.214267 0.881411 0.500000
O O10 0.284025 0.912845 0.352932
O O11 0.019149 0.872093 0.384160
O O12 0.767365 0.563722 0.124010
O O13 0.806063 0.627181 0.000000
O O14 0.500000 0.910674 0.250000
O O15 0.215437 0.892443 0.210818
O O16 0.313270 0.000000 0.250000
O O17 0.192631 0.790450 0.861454
O O18 0.769207 0.500000 0.750000
O O19 0.000000 0.500000 0.841153
O O20 0.000000 0.176597 0.750000
#
# Coordination Sequence:
#
# PCOD9393689 Si02
#       8
#     8   8   8   8   8   8   8   8
#     4  11  22  37  57  84 119 154 201 243 301 362
#     4  10  21  34  53  81 113 145 191 250 301 353
#     4  11  23  39  63  96 129 159 206 262 307 347
#     4  10  20  34  54  78 110 149 187 239 303 357
#     4  10  21  42  69  95 126 172 210 241 294 367
#     4  11  22  36  57  84 115 158 201 242 295 368
#     4   9  17  32  53  78 103 140 191 244 296 359
#     4  10  20  37  62  89 121 161 201 246 294 358
#
# _framework density 18.673774000000002
#
# number of rings (size 3 to 8) (size 9 to 14) (size 15 to 20)
#    0.000    1.750    2.500    3.000    0.000    7.250 
#    0.000    5.000    0.000    3.750    0.000    0.000 
#    0.000    0.000    0.000    0.000    0.000    0.000 
#
# Total GULP energy -357440.685453 kJ/mol
# GULP energy per Si atom -5585.010710 kJ/mol
# Density = 1.863127 g / cm^3
# Si number density = 18.673774 Si / 1000 Ang^3
#
#
#
# Elastic Constant Matrix: (Units=GPa)
#
#
# Indices 1 2 3 4 5 6 
#
# 1 97.5302 47.3163 41.2790 0.0000 0.0000 0.0000
# 2 47.3163 94.5973 36.5585 0.0000 0.0000 0.0000
# 3 41.2790 36.5585 84.7230 0.0000 0.0000 0.0000
# 4 0.0000 0.0000 0.0000 17.2352 0.0000 0.0000
# 5 0.0000 0.0000 0.0000 0.0000 10.9581 0.0000
# 6 0.0000 0.0000 0.0000 0.0000 0.0000 62.7483
#
#
#
# Elastic Compliance Matrix: (Units=1/GPa)
#
#
# Indices 1 2 3 4 5 6 
#
# 1 0.015066 -0.005639 -0.004907 0.000000 0.000000 0.000000
# 2 -0.005639 0.014798 -0.003638 0.000000 0.000000 0.000000
# 3 -0.004907 -0.003638 0.015764 0.000000 0.000000 0.000000
# 4 0.000000 0.000000 0.000000 0.058021 0.000000 0.000000
# 5 0.000000 0.000000 0.000000 0.000000 0.091256 0.000000
# 6 0.000000 0.000000 0.000000 0.000000 0.000000 0.015937
#
#
# Mechanical properties :
#
#
# Convention : Reuss Voigt Hill
#
# Bulk Modulus (GPa) = 57.94031 58.57313 58.25672
# Shear Modulus (GPa) = 20.41128 28.30145 24.35637
#
# Velocity S-wave (km/s) = 3.30971 3.89726 3.61544
# Velocity P-wave (km/s) = 6.76022 7.18931 6.97806
#
# Compressibility (1/GPa) = 0.01725914
#
# Stress axis : x y z
#
# Youngs Moduli (GPa) = 66.37432 67.57797 63.43704
#
# Poissons Ratio (x) = 0.38110 0.31129
# Poissons Ratio (y) = 0.37431 0.23076
# Poissons Ratio (z) = 0.32570 0.24582
#
# Static dielectric constant tensor:
#      x y z
#    x 1.661420 0.000000 0.000000 
#    y 0.000000 1.638080 0.000000 
#    z 0.000000 0.000000 1.626230 
# 
# From -- ./inp_files/16550.got.cif
#   From: 2010.05.17/outbox.cif.g08.bks.cpg/sg49_9_cif.got.tgz:16550.got - 2010.06.03 21:02:19.
