data_PCOD9393074
_publ_section_title
;
Structure prediction by ZEFSAII (Michael W. Deem and Ramdas Pophale) SiO2 
 PCOD9393074
Probable space group: P C C M
;
_chemical_formula_sum "Si O2"
_cell_formula_units_Z 42
_cell_length_a 11.278096
_cell_length_b 13.186757
_cell_length_c 14.989128
_cell_angle_alpha 90.000000
_cell_angle_beta 90.000000
_cell_angle_gamma 90.000000
_cell_volume 2229.205770
_symmetry_space_group_name_H-M "P C C M"
_symmetry_group_IT_number 49
_symmetry_cell_setting 'orthorhombic'
loop_
_space_group_symop_operation_xyz
x,y,z
-x,-y,z
x,-y,1/2-z
-x,y,1/2-z
-x,-y,-z
x,y,-z
-x,y,1/2+z
x,-y,1/2+z
loop_
_atom_site_type_symbol
_atom_site_label
_atom_site_fract_x
_atom_site_fract_y
_atom_site_fract_z
Si Si1 0.638497 0.518829 0.107244
Si Si2 0.828160 0.897720 0.608068
Si Si3 0.617261 0.057997 0.394364
Si Si4 0.000000 0.000000 0.250000
Si Si5 0.435182 0.724762 0.342970
Si Si6 0.305041 0.305407 0.398914
O O1 0.500000 0.500000 0.128929
O O2 0.655431 0.633500 0.138815
O O3 0.704235 0.418345 0.142823
O O4 0.649336 0.519037 0.000000
O O5 0.860948 0.894344 0.500000
O O6 0.767238 0.790828 0.635609
O O7 0.727892 0.984405 0.615936
O O8 0.925907 0.929971 0.680424
O O9 0.601647 0.077838 0.500000
O O10 0.625693 0.166707 0.348799
O O11 0.500000 0.000000 0.362123
O O12 0.500000 0.710260 0.250000
O O13 0.554014 0.720885 0.403908
O O14 0.262289 0.316657 0.500000
#
# Coordination Sequence:
#
# PCOD9393074 Si02
#       6
#     8   8   8   2   8   8
#     4   8  15  28  46  68 102 147 182 210 257 327
#     4  10  22  39  60  85 111 149 195 242 300 349
#     4  10  19  33  54  79 113 150 185 229 284 354
#     4  12  26  40  62  78 118 148 202 258 292 344
#     4  11  20  26  45  78 122 152 180 216 270 342
#     4   9  17  33  53  73 105 145 186 226 271 338
#
# _framework density 18.840792
#
# number of rings (size 3 to 8) (size 9 to 14) (size 15 to 20)
#    0.000    2.286    1.905    3.143    2.667    3.810 
#    0.000    0.000    0.000    0.000    0.000    2.667 
#    0.000    7.619    0.000    0.000    0.000    0.000 
#
# Total GULP energy -233826.550542 kJ/mol
# GULP energy per Si atom -5567.298822 kJ/mol
# Density = 1.879791 g / cm^3
# Si number density = 18.840792 Si / 1000 Ang^3
#
#
#
# Elastic Constant Matrix: (Units=GPa)
#
#
# Indices 1 2 3 4 5 6 
#
# 1 47.9288 45.3339 34.2891 0.0000 0.0000 0.0000
# 2 45.3339 207.1359 49.9932 0.0000 0.0000 0.0000
# 3 34.2891 49.9932 77.3987 0.0000 0.0000 0.0000
# 4 0.0000 0.0000 0.0000 -5.8802 0.0000 0.0000
# 5 0.0000 0.0000 0.0000 0.0000 127.0396 0.0000
# 6 0.0000 0.0000 0.0000 0.0000 0.0000 20.1150
#
#
#
# Elastic Compliance Matrix: (Units=1/GPa)
#
#
# Indices 1 2 3 4 5 6 
#
# 1 0.033712 -0.004470 -0.012047 0.000000 0.000000 0.000000
# 2 -0.004470 0.006312 -0.002097 0.000000 0.000000 0.000000
# 3 -0.012047 -0.002097 0.019612 0.000000 0.000000 0.000000
# 4 0.000000 0.000000 0.000000 -0.170062 0.000000 0.000000
# 5 0.000000 0.000000 0.000000 0.000000 0.007872 0.000000
# 6 0.000000 0.000000 0.000000 0.000000 0.000000 0.049714
#
#
# Mechanical properties :
#
#
# Convention : Reuss Voigt Hill
#
# Bulk Modulus (GPa) = 44.62998 65.74397 55.18698
# Shear Modulus (GPa) = -614.04699 41.77801 -286.13449
#
# Velocity S-wave (km/s) = -18.07266 4.71406 -12.33691
# Velocity P-wave (km/s) = 20.29176 8.03742 13.17489
#
# Compressibility (1/GPa) = 0.02240646
#
# Stress axis : x y z
#
# Youngs Moduli (GPa) = 29.66339 158.42356 50.99029
#
# Poissons Ratio (x) = 0.70823 0.61430
# Poissons Ratio (y) = 0.13261 0.10691
# Poissons Ratio (z) = 0.35736 0.33216
#
# Static dielectric constant tensor:
#      x y z
#    x 1.664910 0.000000 0.000000 
#    y 0.000000 1.728590 0.000000 
#    z 0.000000 0.000000 1.856830 
# 
# From -- ./inp_files/16986.got.cif
#   From: 2010.05.17/outbox.cif.g08.bks.cpg/sg49_9_cif.got.tgz:16986.got - 2010.06.03 21:02:19.
