data_PCOD9393623
_publ_section_title
;
Structure prediction by ZEFSAII (Michael W. Deem and Ramdas Pophale) SiO2 
 PCOD9393623
Probable space group: P C C M
;
_chemical_formula_sum "Si O2"
_cell_formula_units_Z 64
_cell_length_a 24.361775
_cell_length_b 16.088000
_cell_length_c 8.777229
_cell_angle_alpha 90.000000
_cell_angle_beta 90.000000
_cell_angle_gamma 90.000000
_cell_volume 3440.078990
_symmetry_space_group_name_H-M "P C C M"
_symmetry_group_IT_number 49
_symmetry_cell_setting 'orthorhombic'
loop_
_space_group_symop_operation_xyz
x,y,z
-x,-y,z
x,-y,1/2-z
-x,y,1/2-z
-x,-y,-z
x,y,-z
-x,y,1/2+z
x,-y,1/2+z
loop_
_atom_site_type_symbol
_atom_site_label
_atom_site_fract_x
_atom_site_fract_y
_atom_site_fract_z
Si Si1 0.060751 0.088360 0.683495
Si Si2 0.264533 0.245830 0.678229
Si Si3 0.439350 0.083301 0.680463
Si Si4 0.621612 0.762303 0.819996
Si Si5 0.139679 0.239453 0.316898
Si Si6 0.438707 0.590355 0.683545
Si Si7 0.259649 0.417623 0.173229
Si Si8 0.872704 0.584039 0.170421
O O1 0.058067 0.083435 0.500000
O O2 0.100440 0.163925 0.727432
O O3 0.000000 0.102432 0.750000
O O4 0.080092 0.000000 0.750000
O O5 0.271447 0.225287 0.500000
O O6 0.315399 0.217264 0.778826
O O7 0.202967 0.222623 0.730311
O O8 0.267559 0.344330 0.707474
O O9 0.500000 0.086136 0.750000
O O10 0.441606 0.075046 0.500000
O O11 0.411943 0.169078 0.728662
O O12 0.412025 0.000000 0.750000
O O13 0.601301 0.668407 0.779260
O O14 0.612275 0.771521 0.000000
O O15 0.140738 0.245408 0.500000
O O16 0.119600 0.328296 0.254475
O O17 0.421935 0.500000 0.750000
O O18 0.500000 0.607459 0.750000
O O19 0.441942 0.584087 0.500000
O O20 0.282577 0.500000 0.250000
O O21 0.193600 0.425807 0.160174
O O22 0.280460 0.401529 0.000000
O O23 0.893404 0.500000 0.250000
O O24 0.894814 0.589649 0.000000
#
# Coordination Sequence:
#
# PCOD9393623 Si02
#       8
#     8   8   8   8   8   8   8   8
#     4  10  20  36  59  87 115 142 177 224 273 326
#     4  10  20  34  51  73 104 144 184 224 271 325
#     4  11  22  39  63  88 110 135 170 218 273 328
#     4  11  23  38  55  80 112 147 186 229 275 329
#     4   9  19  35  54  77 109 146 184 225 272 324
#     4  10  21  36  56  79 108 144 186 233 282 334
#     4   9  16  27  43  65  94 131 175 222 265 308
#     4   9  16  26  45  72 102 137 178 219 261 309
#
# _framework density 18.604223000000001
#
# number of rings (size 3 to 8) (size 9 to 14) (size 15 to 20)
#    0.000    2.125    0.000    4.875    0.000    8.000 
#    0.000    1.875    0.000    1.875    0.000    2.625 
#    0.000    0.000    0.000    0.000    0.000    0.000 
#
# Total GULP energy -356862.690234 kJ/mol
# GULP energy per Si atom -5575.979535 kJ/mol
# Density = 1.856188 g / cm^3
# Si number density = 18.604223 Si / 1000 Ang^3
#
#
#
# Elastic Constant Matrix: (Units=GPa)
#
#
# Indices 1 2 3 4 5 6 
#
# 1 62.9878 62.1562 28.7426 0.0000 0.0000 0.0000
# 2 62.1562 130.6229 53.3995 0.0000 0.0000 0.0000
# 3 28.7426 53.3995 88.6320 0.0000 0.0000 0.0000
# 4 0.0000 0.0000 0.0000 37.8496 0.0000 0.0000
# 5 0.0000 0.0000 0.0000 0.0000 14.3862 0.0000
# 6 0.0000 0.0000 0.0000 0.0000 0.0000 -7.2531
#
#
#
# Elastic Compliance Matrix: (Units=1/GPa)
#
#
# Indices 1 2 3 4 5 6 
#
# 1 0.030080 -0.013700 -0.001501 0.000000 0.000000 0.000000
# 2 -0.013700 0.016397 -0.005436 0.000000 0.000000 0.000000
# 3 -0.001501 -0.005436 0.015044 0.000000 0.000000 0.000000
# 4 0.000000 0.000000 0.000000 0.026420 0.000000 0.000000
# 5 0.000000 0.000000 0.000000 0.000000 0.069511 0.000000
# 6 0.000000 0.000000 0.000000 0.000000 0.000000 -0.137871
#
#
# Mechanical properties :
#
#
# Convention : Reuss Voigt Hill
#
# Bulk Modulus (GPa) = 49.38786 63.42658 56.40722
# Shear Modulus (GPa) = 73.95978 18.19283 46.07630
#
# Velocity S-wave (km/s) = 6.31194 3.13051 4.98200
# Velocity P-wave (km/s) = 8.92889 6.87265 7.96738
#
# Compressibility (1/GPa) = 0.02024789
#
# Stress axis : x y z
#
# Youngs Moduli (GPa) = 33.24476 60.98673 66.46950
#
# Poissons Ratio (x) = 0.83551 0.09975
# Poissons Ratio (y) = 0.45545 0.36134
# Poissons Ratio (z) = 0.04989 0.33154
#
# Static dielectric constant tensor:
#      x y z
#    x 1.684550 0.000000 0.000000 
#    y 0.000000 1.682130 0.000000 
#    z 0.000000 0.000000 1.642080 
# 
# From -- ./inp_files/6516.got.cif
#   From: 2010.05.17/outbox.cif.g08.bks.cpg/sg49_4_cif.got.tgz:6516.got - 2010.06.03 21:02:19.
