data_PCOD9393594
_publ_section_title
;
Structure prediction by ZEFSAII (Michael W. Deem and Ramdas Pophale) SiO2 
 PCOD9393594
Probable space group: P C C M
;
_chemical_formula_sum "Si O2"
_cell_formula_units_Z 32
_cell_length_a 7.349770
_cell_length_b 19.143404
_cell_length_c 11.136989
_cell_angle_alpha 90.000000
_cell_angle_beta 90.000000
_cell_angle_gamma 90.000000
_cell_volume 1566.970080
_symmetry_space_group_name_H-M "P C C M"
_symmetry_group_IT_number 49
_symmetry_cell_setting 'orthorhombic'
loop_
_space_group_symop_operation_xyz
x,y,z
-x,-y,z
x,-y,1/2-z
-x,y,1/2-z
-x,-y,-z
x,y,-z
-x,y,1/2+z
x,-y,1/2+z
loop_
_atom_site_type_symbol
_atom_site_label
_atom_site_fract_x
_atom_site_fract_y
_atom_site_fract_z
Si Si1 0.125230 0.693897 0.365887
Si Si2 0.376270 0.173385 0.866703
Si Si3 0.206689 0.469163 0.129878
Si Si4 0.793886 0.028827 0.628797
O O1 0.037880 0.701410 0.500000
O O2 0.283504 0.751082 0.360496
O O3 0.194523 0.614320 0.359704
O O4 0.000000 0.705320 0.250000
O O5 0.500000 0.163417 0.750000
O O6 0.223677 0.112407 0.864391
O O7 0.465874 0.167225 0.000000
O O8 0.292209 0.500000 0.250000
O O9 0.000000 0.500000 0.127157
O O10 0.287321 0.487654 0.000000
O O11 0.713347 0.006991 0.500000
O O12 0.706949 0.000000 0.750000
O O13 0.000000 0.000000 0.627687
#
# Coordination Sequence:
#
# PCOD9393594 Si02
#       4
#     8   8   8   8
#     4  10  20  33  54  84 113 144 187 236 280 327
#     4  10  23  41  58  81 115 152 187 226 275 333
#     4   9  15  26  45  75 110 139 175 226 279 324
#     4   9  19  36  58  84 111 141 182 229 275 324
#
# _framework density 20.421575000000001
#
# number of rings (size 3 to 8) (size 9 to 14) (size 15 to 20)
#    0.000    2.500    2.500    0.000    3.500    2.500 
#    0.000    2.500    0.000    0.750    0.000    5.250 
#    0.000    0.000    0.000    0.000    0.000    0.000 
#
# Total GULP energy -178174.171615 kJ/mol
# GULP energy per Si atom -5567.942863 kJ/mol
# Density = 2.037509 g / cm^3
# Si number density = 20.421575 Si / 1000 Ang^3
#
#
#
# Elastic Constant Matrix: (Units=GPa)
#
#
# Indices 1 2 3 4 5 6 
#
# 1 64.5657 32.9286 47.4339 0.0000 0.0000 0.0000
# 2 32.9286 129.5961 43.6494 0.0000 0.0000 0.0000
# 3 47.4339 43.6494 255.7265 0.0000 0.0000 0.0000
# 4 0.0000 0.0000 0.0000 29.6548 0.0000 0.0000
# 5 0.0000 0.0000 0.0000 0.0000 95.5797 0.0000
# 6 0.0000 0.0000 0.0000 0.0000 0.0000 -8.0998
#
#
#
# Elastic Compliance Matrix: (Units=1/GPa)
#
#
# Indices 1 2 3 4 5 6 
#
# 1 0.019716 -0.004008 -0.002973 0.000000 0.000000 0.000000
# 2 -0.004008 0.009002 -0.000793 0.000000 0.000000 0.000000
# 3 -0.002973 -0.000793 0.004597 0.000000 0.000000 0.000000
# 4 0.000000 0.000000 0.000000 0.033721 0.000000 0.000000
# 5 0.000000 0.000000 0.000000 0.000000 0.010462 0.000000
# 6 0.000000 0.000000 0.000000 0.000000 0.000000 -0.123459
#
#
# Mechanical properties :
#
#
# Convention : Reuss Voigt Hill
#
# Bulk Modulus (GPa) = 56.28447 77.54579 66.91513
# Shear Modulus (GPa) = -204.17285 45.15202 -79.51041
#
# Velocity S-wave (km/s) = -10.00980 4.70722 -6.24652
# Velocity P-wave (km/s) = 10.29435 8.22185 4.38034
#
# Compressibility (1/GPa) = 0.01776689
#
# Stress axis : x y z
#
# Youngs Moduli (GPa) = 50.71894 111.08831 217.52226
#
# Poissons Ratio (x) = 0.44528 0.64669
# Poissons Ratio (y) = 0.20330 0.17250
# Poissons Ratio (z) = 0.15079 0.08809
#
# Static dielectric constant tensor:
#      x y z
#    x 1.685540 0.000000 0.000000 
#    y 0.000000 1.694330 0.000000 
#    z 0.000000 0.000000 1.819130 
# 
# From -- ./inp_files/7944.got.cif
#   From: 2010.05.17/outbox.cif.g08.bks.cpg/sg49_4_cif.got.tgz:7944.got - 2010.06.03 21:02:19.
