data_PCOD9393321
_publ_section_title
;
Structure prediction by ZEFSAII (Michael W. Deem and Ramdas Pophale) SiO2 
 PCOD9393321
Probable space group: P C C M
;
_chemical_formula_sum "Si O2"
_cell_formula_units_Z 64
_cell_length_a 20.999185
_cell_length_b 8.960221
_cell_length_c 16.651542
_cell_angle_alpha 90.000000
_cell_angle_beta 90.000000
_cell_angle_gamma 90.000000
_cell_volume 3133.109823
_symmetry_space_group_name_H-M "P C C M"
_symmetry_group_IT_number 49
_symmetry_cell_setting 'orthorhombic'
loop_
_space_group_symop_operation_xyz
x,y,z
-x,-y,z
x,-y,1/2-z
-x,y,1/2-z
-x,-y,-z
x,y,-z
-x,y,1/2+z
x,-y,1/2+z
loop_
_atom_site_type_symbol
_atom_site_label
_atom_site_fract_x
_atom_site_fract_y
_atom_site_fract_z
Si Si1 0.739999 0.070196 0.336091
Si Si2 0.093718 0.860975 0.096083
Si Si3 0.399555 0.838959 0.720894
Si Si4 0.658408 0.403880 0.829240
Si Si5 0.017421 0.661543 0.656344
Si Si6 0.861178 0.193256 0.597026
Si Si7 0.441115 0.388093 0.907807
Si Si8 0.773103 0.761442 0.406620
O O1 0.668921 0.129997 0.322602
O O2 0.790389 0.191314 0.366682
O O3 0.759376 0.000000 0.250000
O O4 0.746197 0.930470 0.396438
O O5 0.154603 0.765561 0.125575
O O6 0.027221 0.791126 0.120739
O O7 0.108632 0.031043 0.119354
O O8 0.096481 0.859840 0.000000
O O9 0.383962 0.735932 0.798141
O O10 0.440660 0.744150 0.657728
O O11 0.423419 0.000000 0.750000
O O12 0.668939 0.500000 0.750000
O O13 0.620555 0.508877 0.890531
O O14 0.724530 0.343790 0.861605
O O15 0.090666 0.691338 0.636471
O O16 0.000000 0.500000 0.621587
O O17 0.000000 0.660531 0.750000
O O18 0.859736 0.206840 0.500000
O O19 0.500000 0.500000 0.895304
O O20 0.441722 0.334876 0.000000
O O21 0.774437 0.722317 0.500000
#
# Coordination Sequence:
#
# PCOD9393321 Si02
#       8
#     8   8   8   8   8   8   8   8
#     4  10  19  35  62  95 124 154 198 268 316 370
#     4   9  20  38  59  82 109 146 196 249 309 373
#     4  10  20  39  65  97 130 165 213 265 320 370
#     4  10  20  37  61  90 127 170 212 253 311 384
#     4  11  25  40  53  79 114 155 201 255 312 376
#     4  10  22  38  61  88 113 152 203 252 315 384
#     4  10  23  43  65  93 134 178 218 260 309 376
#     4  10  19  35  60  88 121 159 201 256 318 379
#
# _framework density 20.426988999999999
#
# number of rings (size 3 to 8) (size 9 to 14) (size 15 to 20)
#    0.000    2.000    2.500    2.250    3.500    5.750 
#    6.750    1.250    0.000    1.500    0.000    0.000 
#    0.000    0.000    0.000    0.000    0.000    0.000 
#
# Total GULP energy -357375.029357 kJ/mol
# GULP energy per Si atom -5583.984834 kJ/mol
# Density = 2.038050 g / cm^3
# Si number density = 20.426989 Si / 1000 Ang^3
#
#
#
# Elastic Constant Matrix: (Units=GPa)
#
#
# Indices 1 2 3 4 5 6 
#
# 1 79.8438 13.4258 19.5858 0.0000 0.0000 0.0000
# 2 13.4258 66.8579 16.9428 0.0000 0.0000 0.0000
# 3 19.5858 16.9428 55.0621 0.0000 0.0000 0.0000
# 4 0.0000 0.0000 0.0000 -26.1110 0.0000 0.0000
# 5 0.0000 0.0000 0.0000 0.0000 27.3906 0.0000
# 6 0.0000 0.0000 0.0000 0.0000 0.0000 27.2525
#
#
#
# Elastic Compliance Matrix: (Units=1/GPa)
#
#
# Indices 1 2 3 4 5 6 
#
# 1 0.013891 -0.001667 -0.004428 0.000000 0.000000 0.000000
# 2 -0.001667 0.016422 -0.004460 0.000000 0.000000 0.000000
# 3 -0.004428 -0.004460 0.021109 0.000000 0.000000 0.000000
# 4 0.000000 0.000000 0.000000 -0.038298 0.000000 0.000000
# 5 0.000000 0.000000 0.000000 0.000000 0.036509 0.000000
# 6 0.000000 0.000000 0.000000 0.000000 0.000000 0.036694
#
#
# Mechanical properties :
#
#
# Convention : Reuss Voigt Hill
#
# Bulk Modulus (GPa) = 32.99128 33.51917 33.25523
# Shear Modulus (GPa) = 42.53826 15.82705 29.18266
#
# Velocity S-wave (km/s) = 4.56834 2.78656 3.78383
# Velocity P-wave (km/s) = 6.63417 5.17669 5.95022
#
# Compressibility (1/GPa) = 0.03031104
#
# Stress axis : x y z
#
# Youngs Moduli (GPa) = 71.98894 60.89330 47.37369
#
# Poissons Ratio (x) = 0.10153 0.20977
# Poissons Ratio (y) = 0.12003 0.21129
# Poissons Ratio (z) = 0.31877 0.27159
#
# Static dielectric constant tensor:
#      x y z
#    x 1.761310 0.000000 0.000000 
#    y 0.000000 1.746870 0.000000 
#    z 0.000000 0.000000 1.726620 
# 
# From -- ./inp_files/18291.got.cif
#   From: 2010.05.17/outbox.cif.g08.bks.cpg/sg49_10_cif.got.tgz:18291.got - 2010.06.03 21:02:19.
