data_PCOD9393368
_publ_section_title
;
Structure prediction by ZEFSAII (Michael W. Deem and Ramdas Pophale) SiO2 
 PCOD9393368
Probable space group: P C C M
;
_chemical_formula_sum "Si O2"
_cell_formula_units_Z 64
_cell_length_a 12.096880
_cell_length_b 15.176728
_cell_length_c 15.196789
_cell_angle_alpha 90.000000
_cell_angle_beta 90.000000
_cell_angle_gamma 90.000000
_cell_volume 2789.994562
_symmetry_space_group_name_H-M "P C C M"
_symmetry_group_IT_number 49
_symmetry_cell_setting 'orthorhombic'
loop_
_space_group_symop_operation_xyz
x,y,z
-x,-y,z
x,-y,1/2-z
-x,y,1/2-z
-x,-y,-z
x,y,-z
-x,y,1/2+z
x,-y,1/2+z
loop_
_atom_site_type_symbol
_atom_site_label
_atom_site_fract_x
_atom_site_fract_y
_atom_site_fract_z
Si Si1 0.822340 0.322277 0.896590
Si Si2 0.875069 0.991229 0.854379
Si Si3 0.772993 0.802821 0.105060
Si Si4 0.068757 0.645287 0.392880
Si Si5 0.539001 0.591674 0.898327
Si Si6 0.242828 0.489179 0.851811
Si Si7 0.523141 0.786977 0.108167
Si Si8 0.294609 0.852169 0.894658
O O1 0.753986 0.412621 0.890026
O O2 0.763343 0.236446 0.858215
O O3 0.944661 0.339180 0.859673
O O4 0.837157 0.303796 0.000000
O O5 0.785426 0.065218 0.880460
O O6 0.883155 0.000000 0.750000
O O7 0.830644 0.895548 0.878509
O O8 0.000000 0.000000 0.891077
O O9 0.850384 0.723743 0.138522
O O10 0.647151 0.807454 0.138945
O O11 0.765268 0.789092 0.000000
O O12 0.066109 0.644961 0.500000
O O13 0.123190 0.553697 0.364809
O O14 0.500000 0.500000 0.856380
O O15 0.671134 0.578968 0.894938
O O16 0.501821 0.685670 0.862965
O O17 0.502133 0.591214 0.000000
O O18 0.267837 0.500000 0.750000
O O19 0.422361 0.849672 0.136639
O O20 0.526231 0.787319 0.000000
O O21 0.303404 0.843090 0.000000
#
# Coordination Sequence:
#
# PCOD9393368 Si02
#       8
#     8   8   8   8   8   8   8   8
#     4  10  21  37  59  85 116 158 208 260 305 349
#     4  11  25  43  63  89 124 161 196 240 302 369
#     4  10  20  38  66  92 116 154 203 251 301 355
#     4  10  20  37  60  85 116 156 208 262 302 351
#     4  10  19  36  62  85 113 157 207 253 293 345
#     4  12  24  35  53  84 124 163 200 245 306 369
#     4   9  18  35  62  93 120 150 194 250 303 350
#     4  10  21  40  65  94 122 151 199 254 302 356
#
# _framework density 22.939112999999999
#
# number of rings (size 3 to 8) (size 9 to 14) (size 15 to 20)
#    0.000    1.750    1.250    3.375    0.000    7.750 
#    0.000    3.125    0.000    0.000    0.000    0.000 
#    0.000    0.000    0.000    0.000    0.000    0.000 
#
# Total GULP energy -357625.325253 kJ/mol
# GULP energy per Si atom -5587.895707 kJ/mol
# Density = 2.288690 g / cm^3
# Si number density = 22.939113 Si / 1000 Ang^3
#
#
#
# Elastic Constant Matrix: (Units=GPa)
#
#
# Indices 1 2 3 4 5 6 
#
# 1 122.2659 39.3986 6.7067 0.0000 0.0000 0.0000
# 2 39.3986 108.7139 -13.5066 0.0000 0.0000 0.0000
# 3 6.7067 -13.5066 38.2564 0.0000 0.0000 0.0000
# 4 0.0000 0.0000 0.0000 68.1481 0.0000 0.0000
# 5 0.0000 0.0000 0.0000 0.0000 10.7425 0.0000
# 6 0.0000 0.0000 0.0000 0.0000 0.0000 35.0211
#
#
#
# Elastic Compliance Matrix: (Units=1/GPa)
#
#
# Indices 1 2 3 4 5 6 
#
# 1 0.009587 -0.003852 -0.003041 0.000000 0.000000 0.000000
# 2 -0.003852 0.011168 0.004618 0.000000 0.000000 0.000000
# 3 -0.003041 0.004618 0.028303 0.000000 0.000000 0.000000
# 4 0.000000 0.000000 0.000000 0.014674 0.000000 0.000000
# 5 0.000000 0.000000 0.000000 0.000000 0.093088 0.000000
# 6 0.000000 0.000000 0.000000 0.000000 0.000000 0.028554
#
#
# Mechanical properties :
#
#
# Convention : Reuss Voigt Hill
#
# Bulk Modulus (GPa) = 22.46728 37.15929 29.81329
# Shear Modulus (GPa) = 24.41886 38.55818 31.48852
#
# Velocity S-wave (km/s) = 3.26622 4.10432 3.70902
# Velocity P-wave (km/s) = 4.90304 6.22052 5.60065
#
# Compressibility (1/GPa) = 0.04450917
#
# Stress axis : x y z
#
# Youngs Moduli (GPa) = 104.30797 89.53926 35.33197
#
# Poissons Ratio (x) = 0.34492 0.10743
# Poissons Ratio (y) = 0.40181 -0.16317
# Poissons Ratio (z) = 0.31717 -0.41352
#
# Static dielectric constant tensor:
#      x y z
#    x 1.929180 0.000000 0.000000 
#    y 0.000000 1.781350 0.000000 
#    z 0.000000 0.000000 1.886390 
# 
# From -- ./inp_files/17349.got.cif
#   From: 2010.05.17/outbox.cif.g08.bks.cpg/sg49_9_cif.got.tgz:17349.got - 2010.06.03 21:02:19.
