data_PCOD9393705
_publ_section_title
;
Structure prediction by ZEFSAII (Michael W. Deem and Ramdas Pophale) SiO2 
 PCOD9393705
Probable space group: P C C M
;
_chemical_formula_sum "Si O2"
_cell_formula_units_Z 48
_cell_length_a 30.228089
_cell_length_b 8.949854
_cell_length_c 9.455537
_cell_angle_alpha 90.000000
_cell_angle_beta 90.000000
_cell_angle_gamma 90.000000
_cell_volume 2558.072455
_symmetry_space_group_name_H-M "P C C M"
_symmetry_group_IT_number 49
_symmetry_cell_setting 'orthorhombic'
loop_
_space_group_symop_operation_xyz
x,y,z
-x,-y,z
x,-y,1/2-z
-x,y,1/2-z
-x,-y,-z
x,y,-z
-x,y,1/2+z
x,-y,1/2+z
loop_
_atom_site_type_symbol
_atom_site_label
_atom_site_fract_x
_atom_site_fract_y
_atom_site_fract_z
Si Si1 0.187206 0.849216 0.837928
Si Si2 0.284530 0.161423 0.329284
Si Si3 0.632044 0.842447 0.168529
Si Si4 0.040629 0.197361 0.500000
Si Si5 0.542161 0.657261 0.168588
Si Si6 0.935834 0.146973 0.500000
Si Si7 0.099826 0.322982 0.734375
O O1 0.235115 0.776597 0.804151
O O2 0.146477 0.738089 0.821517
O O3 0.179967 0.000000 0.750000
O O4 0.190248 0.898038 0.000000
O O5 0.291739 0.151320 0.500000
O O6 0.326296 0.233807 0.249305
O O7 0.282139 0.000000 0.250000
O O8 0.586923 0.750882 0.182362
O O9 0.625973 0.000000 0.250000
O O10 0.641130 0.862528 0.000000
O O11 0.059281 0.285732 0.632095
O O12 0.988106 0.184185 0.500000
O O13 0.063575 0.033046 0.500000
O O14 0.548364 0.500000 0.250000
O O15 0.500000 0.728062 0.250000
O O16 0.533399 0.638500 0.000000
O O17 0.911757 0.223330 0.630553
O O18 0.102405 0.500000 0.750000
#
# Coordination Sequence:
#
# PCOD9393705 Si02
#       7
#     8   8   8   4   8   4   8
#     4  10  21  38  61  86 114 151 196 237 279 342
#     4   9  17  31  54  82 110 145 188 234 280 331
#     4  10  20  34  54  83 116 147 186 237 288 341
#     4  11  23  45  65  87 119 149 201 243 274 351
#     4  10  21  36  55  78 108 147 194 239 287 348
#     4  11  25  41  67  91 111 157 197 237 288 335
#     4  12  25  40  60  89 125 154 187 239 296 348
#
# _framework density 18.764127999999999
#
# number of rings (size 3 to 8) (size 9 to 14) (size 15 to 20)
#    0.000    1.667    0.833    5.500    1.167    7.000 
#    0.000    2.500    0.000    2.000    0.000    0.000 
#    0.000    0.000    0.000    0.000    0.000    0.000 
#
# Total GULP energy -267584.414289 kJ/mol
# GULP energy per Si atom -5574.675298 kJ/mol
# Density = 1.872142 g / cm^3
# Si number density = 18.764128 Si / 1000 Ang^3
#
#
#
# Elastic Constant Matrix: (Units=GPa)
#
#
# Indices 1 2 3 4 5 6 
#
# 1 116.4245 34.2303 32.5404 0.0000 0.0000 0.0000
# 2 34.2303 60.4429 16.1282 0.0000 0.0000 0.0000
# 3 32.5404 16.1282 115.4160 0.0000 0.0000 0.0000
# 4 0.0000 0.0000 0.0000 21.7160 0.0000 0.0000
# 5 0.0000 0.0000 0.0000 0.0000 29.8271 0.0000
# 6 0.0000 0.0000 0.0000 0.0000 0.0000 -15.3338
#
#
#
# Elastic Compliance Matrix: (Units=1/GPa)
#
#
# Indices 1 2 3 4 5 6 
#
# 1 0.010857 -0.005538 -0.002287 0.000000 0.000000 0.000000
# 2 -0.005538 0.020010 -0.001235 0.000000 0.000000 0.000000
# 3 -0.002287 -0.001235 0.009482 0.000000 0.000000 0.000000
# 4 0.000000 0.000000 0.000000 0.046049 0.000000 0.000000
# 5 0.000000 0.000000 0.000000 0.000000 0.033527 0.000000
# 6 0.000000 0.000000 0.000000 0.000000 0.000000 -0.065215
#
#
# Mechanical properties :
#
#
# Convention : Reuss Voigt Hill
#
# Bulk Modulus (GPa) = 44.98676 50.89791 47.94234
# Shear Modulus (GPa) = 62.31388 21.20081 41.75734
#
# Velocity S-wave (km/s) = 5.76898 3.36498 4.72251
# Velocity P-wave (km/s) = 8.27054 6.50242 7.43920
#
# Compressibility (1/GPa) = 0.02222876
#
# Stress axis : x y z
#
# Youngs Moduli (GPa) = 92.10826 49.97391 105.46655
#
# Poissons Ratio (x) = 0.27677 0.24121
# Poissons Ratio (y) = 0.51011 0.13023
# Poissons Ratio (z) = 0.21066 0.06171
#
# Static dielectric constant tensor:
#      x y z
#    x 1.691760 0.000000 0.000000 
#    y 0.000000 1.620320 0.000000 
#    z 0.000000 0.000000 1.637490 
# 
# From -- ./inp_files/6920.got.cif
#   From: 2010.05.17/outbox.cif.g08.bks.cpg/sg49_4_cif.got.tgz:6920.got - 2010.06.03 21:02:19.
