data_PCOD9393917
_publ_section_title
;
Structure prediction by ZEFSAII (Michael W. Deem and Ramdas Pophale) SiO2 
 PCOD9393917
Probable space group: P C C M
;
_chemical_formula_sum "Si O2"
_cell_formula_units_Z 58
_cell_length_a 12.364757
_cell_length_b 7.398459
_cell_length_c 26.126319
_cell_angle_alpha 90.000000
_cell_angle_beta 90.000000
_cell_angle_gamma 90.000000
_cell_volume 2390.039521
_symmetry_space_group_name_H-M "P C C M"
_symmetry_group_IT_number 49
_symmetry_cell_setting 'orthorhombic'
loop_
_space_group_symop_operation_xyz
x,y,z
-x,-y,z
x,-y,1/2-z
-x,y,1/2-z
-x,-y,-z
x,y,-z
-x,y,1/2+z
x,-y,1/2+z
loop_
_atom_site_type_symbol
_atom_site_label
_atom_site_fract_x
_atom_site_fract_y
_atom_site_fract_z
Si Si1 0.703303 0.317955 0.326198
Si Si2 0.416455 0.166627 0.556642
Si Si3 0.869547 0.676509 0.909944
Si Si4 0.467212 0.295171 0.664588
Si Si5 0.951845 0.802756 0.344729
Si Si6 0.000000 0.500000 0.000000
Si Si7 0.257533 0.725223 0.781376
Si Si8 0.835883 0.918545 0.555678
O O1 0.754232 0.337770 0.382307
O O2 0.588107 0.219745 0.332548
O O3 0.754939 0.216551 0.277709
O O4 0.715783 0.518931 0.301289
O O5 0.433526 0.248922 0.500000
O O6 0.431449 0.294000 0.605443
O O7 0.293189 0.095236 0.557643
O O8 0.500000 0.000000 0.561479
O O9 0.947171 0.678219 0.859719
O O10 0.910012 0.547723 0.954360
O O11 0.872514 0.876209 0.935037
O O12 0.500000 0.500000 0.681666
O O13 0.372207 0.199886 0.696602
O O14 0.859777 0.757292 0.304954
O O15 0.886863 0.810343 0.398282
O O16 0.000000 0.000000 0.333650
O O17 0.875721 0.853931 0.500000
#
# Coordination Sequence:
#
# PCOD9393917 Si02
#       8
#     8   8   8   8   8   2   8   8
#     4  10  22  39  64  92 129 163 212 268 335 399
#     4  10  20  35  60  88 126 172 210 256 326 401
#     4  11  23  39  58  92 123 165 214 272 324 389
#     4  10  20  38  65  95 127 163 218 271 329 401
#     4  10  22  38  64  90 124 166 216 265 317 390
#     4  12  24  40  62  90 132 168 220 286 332 382
#     4  10  20  41  65  91 123 171 210 264 334 401
#     4  10  20  38  61  85 121 170 210 256 321 392
#
# _framework density 24.267382000000001
#
# number of rings (size 3 to 8) (size 9 to 14) (size 15 to 20)
#    0.000    1.793    2.069    2.069    0.966    3.310 
#    1.241    6.207    0.000    0.828    0.000    0.000 
#    0.000    0.000    0.000    0.000    0.000    0.000 
#
# Total GULP energy -322929.014337 kJ/mol
# GULP energy per Si atom -5567.741626 kJ/mol
# Density = 2.421215 g / cm^3
# Si number density = 24.267382 Si / 1000 Ang^3
#
#
#
# Elastic Constant Matrix: (Units=GPa)
#
#
# Indices 1 2 3 4 5 6 
#
# 1 109.0081 -7.3987 27.5226 0.0000 0.0000 0.0000
# 2 -7.3987 29.7032 -13.4895 0.0000 0.0000 0.0000
# 3 27.5226 -13.4895 118.5250 0.0000 0.0000 0.0000
# 4 0.0000 0.0000 0.0000 4.7634 0.0000 0.0000
# 5 0.0000 0.0000 0.0000 0.0000 24.9454 0.0000
# 6 0.0000 0.0000 0.0000 0.0000 0.0000 19.0681
#
#
#
# Elastic Compliance Matrix: (Units=1/GPa)
#
#
# Indices 1 2 3 4 5 6 
#
# 1 0.009807 0.001485 -0.002108 0.000000 0.000000 0.000000
# 2 0.001485 0.035726 0.003721 0.000000 0.000000 0.000000
# 3 -0.002108 0.003721 0.009350 0.000000 0.000000 0.000000
# 4 0.000000 0.000000 0.000000 0.209933 0.000000 0.000000
# 5 0.000000 0.000000 0.000000 0.000000 0.040088 0.000000
# 6 0.000000 0.000000 0.000000 0.000000 0.000000 0.052444
#
#
# Mechanical properties :
#
#
# Convention : Reuss Voigt Hill
#
# Bulk Modulus (GPa) = 16.37202 30.05613 23.21408
# Shear Modulus (GPa) = 13.45856 26.46217 19.96037
#
# Velocity S-wave (km/s) = 2.35754 3.30577 2.87107
# Velocity P-wave (km/s) = 3.76455 5.19452 4.53624
#
# Compressibility (1/GPa) = 0.06107982
#
# Stress axis : x y z
#
# Youngs Moduli (GPa) = 101.97094 27.99052 106.95090
#
# Poissons Ratio (x) = -0.04157 0.22547
# Poissons Ratio (y) = -0.15146 -0.39798
# Poissons Ratio (z) = 0.21497 -0.10416
#
# Static dielectric constant tensor:
#      x y z
#    x 0.472310 0.000000 0.000000 
#    y 0.000000 1.643320 0.000000 
#    z 0.000000 0.000000 2.070980 
# 
# From -- ./inp_files/24871.got.cif
#   From: 2010.05.17/outbox.cif.g08.bks.cpg/sg49_13_cif.got.tgz:24871.got - 2010.06.03 21:02:19.
