data_PCOD9393449
_publ_section_title
;
Structure prediction by ZEFSAII (Michael W. Deem and Ramdas Pophale) SiO2 
 PCOD9393449
Probable space group: P C C M
;
_chemical_formula_sum "Si O2"
_cell_formula_units_Z 56
_cell_length_a 23.333107
_cell_length_b 14.476858
_cell_length_c 8.866690
_cell_angle_alpha 90.000000
_cell_angle_beta 90.000000
_cell_angle_gamma 90.000000
_cell_volume 2995.079896
_symmetry_space_group_name_H-M "P C C M"
_symmetry_group_IT_number 49
_symmetry_cell_setting 'orthorhombic'
loop_
_space_group_symop_operation_xyz
x,y,z
-x,-y,z
x,-y,1/2-z
-x,y,1/2-z
-x,-y,-z
x,y,-z
-x,y,1/2+z
x,-y,1/2+z
loop_
_atom_site_type_symbol
_atom_site_label
_atom_site_fract_x
_atom_site_fract_y
_atom_site_fract_z
Si Si1 0.902407 0.092627 0.179225
Si Si2 0.291437 0.408160 0.321336
Si Si3 0.669572 0.798558 0.318612
Si Si4 0.939861 0.299811 0.819194
Si Si5 0.174798 0.642573 0.329574
Si Si6 0.560567 0.897479 0.181541
Si Si7 0.785461 0.856237 0.171294
O O1 0.930400 0.190983 0.222729
O O2 0.836745 0.098255 0.235975
O O3 0.928465 0.000000 0.250000
O O4 0.904139 0.085570 0.000000
O O5 0.318270 0.500000 0.250000
O O6 0.291773 0.416656 0.500000
O O7 0.320281 0.309939 0.282176
O O8 0.226131 0.402071 0.263275
O O9 0.666653 0.808326 0.500000
O O10 0.612838 0.835694 0.239263
O O11 0.724663 0.854155 0.255108
O O12 0.886344 0.355982 0.751796
O O13 0.000000 0.330212 0.750000
O O14 0.939837 0.305829 0.000000
O O15 0.171228 0.605787 0.500000
O O16 0.194381 0.749624 0.338826
O O17 0.500000 0.864246 0.250000
O O18 0.569167 0.000000 0.250000
O O19 0.558108 0.901530 0.000000
O O20 0.781039 0.892614 0.000000
#
# Coordination Sequence:
#
# PCOD9393449 Si02
#       7
#     8   8   8   8   8   8   8
#     4  10  20  32  45  63  90 124 162 209 263 320
#     4  10  20  34  56  85 117 148 180 220 268 324
#     4  10  20  35  55  82 114 147 184 227 273 321
#     4  10  20  33  49  68  91 123 166 212 261 316
#     4   9  17  31  51  73  99 129 164 206 255 309
#     4  11  22  38  59  83 113 150 192 235 276 320
#     4   9  17  30  48  70  95 126 164 207 257 313
#
# _framework density 18.697330999999998
#
# number of rings (size 3 to 8) (size 9 to 14) (size 15 to 20)
#    0.000    2.143    0.000    4.286    0.000    7.714 
#    0.000    4.286    0.000    0.857    0.000    6.000 
#    0.000    0.000    0.000    0.000    0.000    0.000 
#
# Total GULP energy -312603.065548 kJ/mol
# GULP energy per Si atom -5582.197599 kJ/mol
# Density = 1.865478 g / cm^3
# Si number density = 18.697331 Si / 1000 Ang^3
#
#
#
# Elastic Constant Matrix: (Units=GPa)
#
#
# Indices 1 2 3 4 5 6 
#
# 1 138.3869 25.8711 53.7122 0.0000 0.0000 0.0000
# 2 25.8711 37.9694 18.7648 0.0000 0.0000 0.0000
# 3 53.7122 18.7648 86.5935 0.0000 0.0000 0.0000
# 4 0.0000 0.0000 0.0000 262.3207 0.0000 0.0000
# 5 0.0000 0.0000 0.0000 0.0000 28.0115 0.0000
# 6 0.0000 0.0000 0.0000 0.0000 0.0000 9.4616
#
#
#
# Elastic Compliance Matrix: (Units=1/GPa)
#
#
# Indices 1 2 3 4 5 6 
#
# 1 0.010091 -0.004236 -0.005341 0.000000 0.000000 0.000000
# 2 -0.004236 0.031274 -0.004150 0.000000 0.000000 0.000000
# 3 -0.005341 -0.004150 0.015761 0.000000 0.000000 0.000000
# 4 0.000000 0.000000 0.000000 0.003812 0.000000 0.000000
# 5 0.000000 0.000000 0.000000 0.000000 0.035700 0.000000
# 6 0.000000 0.000000 0.000000 0.000000 0.000000 0.105691
#
#
# Mechanical properties :
#
#
# Convention : Reuss Voigt Hill
#
# Bulk Modulus (GPa) = 33.70199 51.07176 42.38688
# Shear Modulus (GPa) = 20.86175 70.93222 45.89698
#
# Velocity S-wave (km/s) = 3.34392 6.16599 4.95990
# Velocity P-wave (km/s) = 5.74224 8.83555 7.45118
#
# Compressibility (1/GPa) = 0.02967184
#
# Stress axis : x y z
#
# Youngs Moduli (GPa) = 99.09624 31.97539 63.44947
#
# Poissons Ratio (x) = 0.13545 0.33891
# Poissons Ratio (y) = 0.41978 0.26329
# Poissons Ratio (z) = 0.52931 0.13268
#
# Static dielectric constant tensor:
#      x y z
#    x 1.618690 0.000000 0.000000 
#    y 0.000000 1.694660 0.000000 
#    z 0.000000 0.000000 1.634070 
# 
# From -- ./inp_files/5822.got.cif
#   From: 2010.05.17/outbox.cif.g08.bks.cpg/sg49_3_cif.got.tgz:5822.got - 2010.06.03 21:02:19.
