data_PCOD9393274
_publ_section_title
;
Structure prediction by ZEFSAII (Michael W. Deem and Ramdas Pophale) SiO2 
 PCOD9393274
Probable space group: P C C M
;
_chemical_formula_sum "Si O2"
_cell_formula_units_Z 64
_cell_length_a 12.002920
_cell_length_b 18.518201
_cell_length_c 14.257953
_cell_angle_alpha 90.000000
_cell_angle_beta 90.000000
_cell_angle_gamma 90.000000
_cell_volume 3169.150646
_symmetry_space_group_name_H-M "P C C M"
_symmetry_group_IT_number 49
_symmetry_cell_setting 'orthorhombic'
loop_
_space_group_symop_operation_xyz
x,y,z
-x,-y,z
x,-y,1/2-z
-x,y,1/2-z
-x,-y,-z
x,y,-z
-x,y,1/2+z
x,-y,1/2+z
loop_
_atom_site_type_symbol
_atom_site_label
_atom_site_fract_x
_atom_site_fract_y
_atom_site_fract_z
Si Si1 0.188732 0.076073 0.725280
Si Si2 0.327617 0.785071 0.202285
Si Si3 0.871164 0.502172 0.360537
Si Si4 0.434048 0.248491 0.112133
Si Si5 0.956247 0.723874 0.112426
Si Si6 0.818287 0.661462 0.609397
Si Si7 0.023234 0.109505 0.888492
Si Si8 0.259011 0.645534 0.609645
O O1 0.262779 0.140407 0.683086
O O2 0.083564 0.068093 0.653746
O O3 0.130445 0.095659 0.824293
O O4 0.246223 0.000000 0.750000
O O5 0.442803 0.771297 0.146481
O O6 0.356273 0.793062 0.313243
O O7 0.257721 0.714947 0.169232
O O8 0.882746 0.500000 0.250000
O O9 0.805825 0.575421 0.386439
O O10 0.792905 0.433651 0.381882
O O11 0.000000 0.500000 0.398349
O O12 0.384598 0.329609 0.135891
O O13 0.425009 0.234524 0.000000
O O14 0.837313 0.698576 0.149299
O O15 0.054902 0.672241 0.143658
O O16 0.994656 0.805022 0.130303
O O17 0.950388 0.717368 0.000000
O O18 0.808516 0.683798 0.500000
O O19 0.036713 0.097909 0.000000
O O20 0.261193 0.660147 0.500000
#
# Coordination Sequence:
#
# PCOD9393274 Si02
#       8
#     8   8   8   8   8   8   8   8
#     4  11  24  39  60  94 130 167 208 261 331 403
#     4  11  23  43  67  90 121 160 211 273 321 391
#     4  11  22  33  49  84 132 176 217 267 328 387
#     4  10  23  43  67  90 116 160 216 270 324 378
#     4   9  17  30  55  86 119 162 208 255 310 376
#     4  11  21  36  60  91 126 169 220 270 327 391
#     4  10  20  37  59  91 135 177 212 252 314 404
#     4  10  19  35  56  82 120 164 213 265 318 375
#
# _framework density 20.194685
#
# number of rings (size 3 to 8) (size 9 to 14) (size 15 to 20)
#    0.000    1.625    2.500    3.000    0.000    3.500 
#    0.000    1.875    0.000    5.250    0.000    0.000 
#    0.000    0.000    0.000    0.000    0.000    0.000 
#
# Total GULP energy -356288.212632 kJ/mol
# GULP energy per Si atom -5567.003322 kJ/mol
# Density = 2.014872 g / cm^3
# Si number density = 20.194685 Si / 1000 Ang^3
#
#
#
# Elastic Constant Matrix: (Units=GPa)
#
#
# Indices 1 2 3 4 5 6 
#
# 1 101.3976 48.3388 30.4794 0.0000 0.0000 0.0000
# 2 48.3388 82.9405 2.5700 0.0000 0.0000 0.0000
# 3 30.4794 2.5700 127.8849 0.0000 0.0000 0.0000
# 4 0.0000 0.0000 0.0000 21.7001 0.0000 0.0000
# 5 0.0000 0.0000 0.0000 0.0000 17.3642 0.0000
# 6 0.0000 0.0000 0.0000 0.0000 0.0000 22.0602
#
#
#
# Elastic Compliance Matrix: (Units=1/GPa)
#
#
# Indices 1 2 3 4 5 6 
#
# 1 0.015003 -0.008639 -0.003402 0.000000 0.000000 0.000000
# 2 -0.008639 0.017038 0.001716 0.000000 0.000000 0.000000
# 3 -0.003402 0.001716 0.008596 0.000000 0.000000 0.000000
# 4 0.000000 0.000000 0.000000 0.046083 0.000000 0.000000
# 5 0.000000 0.000000 0.000000 0.000000 0.057590 0.000000
# 6 0.000000 0.000000 0.000000 0.000000 0.000000 0.045331
#
#
# Mechanical properties :
#
#
# Convention : Reuss Voigt Hill
#
# Bulk Modulus (GPa) = 50.02810 52.77773 51.40292
# Shear Modulus (GPa) = 23.04659 27.61387 25.33023
#
# Velocity S-wave (km/s) = 3.38186 3.70183 3.54545
# Velocity P-wave (km/s) = 6.33056 6.66802 6.50148
#
# Compressibility (1/GPa) = 0.01998877
#
# Stress axis : x y z
#
# Youngs Moduli (GPa) = 66.65319 58.69126 116.33478
#
# Poissons Ratio (x) = 0.50701 0.39579
# Poissons Ratio (y) = 0.57579 -0.19968
# Poissons Ratio (z) = 0.22676 -0.10074
#
# Static dielectric constant tensor:
#      x y z
#    x 1.744480 0.000000 0.000000 
#    y 0.000000 1.829790 0.000000 
#    z 0.000000 0.000000 1.763060 
# 
# From -- ./inp_files/13102.got.cif
#   From: 2010.05.17/outbox.cif.g08.bks.cpg/sg49_7_cif.got.tgz:13102.got - 2010.06.03 21:02:19.
