data_PCOD9393414
_publ_section_title
;
Structure prediction by ZEFSAII (Michael W. Deem and Ramdas Pophale) SiO2 
 PCOD9393414
Probable space group: P C C M
;
_chemical_formula_sum "Si O2"
_cell_formula_units_Z 40
_cell_length_a 8.054070
_cell_length_b 14.773468
_cell_length_c 15.009265
_cell_angle_alpha 90.000000
_cell_angle_beta 90.000000
_cell_angle_gamma 90.000000
_cell_volume 1785.900592
_symmetry_space_group_name_H-M "P C C M"
_symmetry_group_IT_number 49
_symmetry_cell_setting 'orthorhombic'
loop_
_space_group_symop_operation_xyz
x,y,z
-x,-y,z
x,-y,1/2-z
-x,y,1/2-z
-x,-y,-z
x,y,-z
-x,y,1/2+z
x,-y,1/2+z
loop_
_atom_site_type_symbol
_atom_site_label
_atom_site_fract_x
_atom_site_fract_y
_atom_site_fract_z
Si Si1 0.250986 0.949580 0.500000
Si Si2 0.172237 0.083422 0.196865
Si Si3 0.731193 0.279806 0.322115
Si Si4 0.606473 0.847255 0.500000
Si Si5 0.125070 0.356776 0.000000
Si Si6 0.761614 0.447450 0.000000
Si Si7 0.647413 0.687725 0.360808
O O1 0.152782 0.936216 0.407979
O O2 0.409546 0.878048 0.500000
O O3 0.310290 0.054156 0.500000
O O4 0.277982 0.173360 0.196793
O O5 0.000000 0.099215 0.250000
O O6 0.252939 0.000000 0.250000
O O7 0.840847 0.301619 0.408904
O O8 0.547062 0.313723 0.340049
O O9 0.770590 0.316254 0.223637
O O10 0.660291 0.781727 0.417770
O O11 0.241583 0.445241 0.000000
O O12 0.944708 0.401815 0.000000
O O13 0.678137 0.402014 0.915962
#
# Coordination Sequence:
#
# PCOD9393414 Si02
#       7
#     4   8   8   4   4   4   8
#     4  11  21  40  65  92 131 186 231 296 345 409
#     4  11  25  42  62  98 141 184 236 285 354 426
#     4  11  23  42  68  97 136 182 226 288 351 419
#     4  10  19  39  67  94 126 175 238 290 349 406
#     4  11  25  45  69 100 139 179 227 279 370 432
#     4  10  25  45  69 102 133 177 228 296 348 437
#     4  10  22  42  67 101 133 172 232 289 346 413
#
# _framework density 22.397663999999999
#
# number of rings (size 3 to 8) (size 9 to 14) (size 15 to 20)
#    0.000    1.400    2.000    3.000    2.800    4.000 
#    3.600    4.000    0.000    0.000    0.000    0.000 
#    0.000    0.000    0.000    0.000    0.000    0.000 
#
# Total GULP energy -223156.222964 kJ/mol
# GULP energy per Si atom -5578.905574 kJ/mol
# Density = 2.234669 g / cm^3
# Si number density = 22.397664 Si / 1000 Ang^3
#
#
#
# Elastic Constant Matrix: (Units=GPa)
#
#
# Indices 1 2 3 4 5 6 
#
# 1 49.7520 7.0555 22.6835 0.0000 0.0000 0.0000
# 2 7.0555 102.7812 23.7590 0.0000 0.0000 0.0000
# 3 22.6835 23.7590 171.4892 0.0000 0.0000 0.0000
# 4 0.0000 0.0000 0.0000 9.8607 0.0000 0.0000
# 5 0.0000 0.0000 0.0000 0.0000 -12.6922 0.0000
# 6 0.0000 0.0000 0.0000 0.0000 0.0000 95.4947
#
#
#
# Elastic Compliance Matrix: (Units=1/GPa)
#
#
# Indices 1 2 3 4 5 6 
#
# 1 0.021460 -0.000844 -0.002722 0.000000 0.000000 0.000000
# 2 -0.000844 0.010084 -0.001286 0.000000 0.000000 0.000000
# 3 -0.002722 -0.001286 0.006369 0.000000 0.000000 0.000000
# 4 0.000000 0.000000 0.000000 0.101413 0.000000 0.000000
# 5 0.000000 0.000000 0.000000 0.000000 -0.078788 0.000000
# 6 0.000000 0.000000 0.000000 0.000000 0.000000 0.010472
#
#
# Mechanical properties :
#
#
# Convention : Reuss Voigt Hill
#
# Bulk Modulus (GPa) = 35.44624 47.89092 41.66858
# Shear Modulus (GPa) = 55.48338 36.56760 46.02549
#
# Velocity S-wave (km/s) = 4.98254 4.04499 4.53804
# Velocity P-wave (km/s) = 6.99723 6.57605 6.78991
#
# Compressibility (1/GPa) = 0.02821174
#
# Stress axis : x y z
#
# Youngs Moduli (GPa) = 46.59769 99.16208 157.00111
#
# Poissons Ratio (x) = 0.08369 0.42731
# Poissons Ratio (y) = 0.03933 0.20183
# Poissons Ratio (z) = 0.12682 0.12747
#
# Static dielectric constant tensor:
#      x y z
#    x 1.858000 0.000000 0.000000 
#    y 0.000000 1.801650 0.000000 
#    z 0.000000 0.000000 1.929830 
# 
# From -- ./inp_files/11654.got.cif
#   From: 2010.05.17/outbox.cif.g08.bks.cpg/sg49_6_cif.got.tgz:11654.got - 2010.06.03 21:02:19.
