data_PCOD9393366
_publ_section_title
;
Structure prediction by ZEFSAII (Michael W. Deem and Ramdas Pophale) SiO2 
 PCOD9393366
Probable space group: P C C M
;
_chemical_formula_sum "Si O2"
_cell_formula_units_Z 48
_cell_length_a 9.397415
_cell_length_b 16.969208
_cell_length_c 14.144623
_cell_angle_alpha 90.000000
_cell_angle_beta 90.000000
_cell_angle_gamma 90.000000
_cell_volume 2255.596208
_symmetry_space_group_name_H-M "P C C M"
_symmetry_group_IT_number 49
_symmetry_cell_setting 'orthorhombic'
loop_
_space_group_symop_operation_xyz
x,y,z
-x,-y,z
x,-y,1/2-z
-x,y,1/2-z
-x,-y,-z
x,y,-z
-x,y,1/2+z
x,-y,1/2+z
loop_
_atom_site_type_symbol
_atom_site_label
_atom_site_fract_x
_atom_site_fract_y
_atom_site_fract_z
Si Si1 0.624725 0.816169 0.823251
Si Si2 0.141409 0.708791 0.893502
Si Si3 0.069246 0.421699 0.853522
Si Si4 0.416320 0.082374 0.000000
Si Si5 0.838009 0.976094 0.500000
Si Si6 0.663665 0.645833 0.776738
Si Si7 0.863675 0.880676 0.691282
O O1 0.500000 0.803963 0.750000
O O2 0.673099 0.726279 0.839454
O O3 0.742755 0.867731 0.769818
O O4 0.561305 0.863541 0.909999
O O5 0.254062 0.668719 0.821169
O O6 0.104121 0.793803 0.850623
O O7 0.999635 0.655929 0.897800
O O8 0.199272 0.717079 0.000000
O O9 0.238112 0.416768 0.833775
O O10 0.000000 0.500000 0.897402
O O11 0.000000 0.419325 0.750000
O O12 0.500000 0.000000 0.000000
O O13 0.253669 0.054788 0.000000
O O14 0.814498 0.929900 0.599163
O O15 0.000000 0.000000 0.500000
O O16 0.500000 0.625153 0.750000
O O17 0.000000 0.910452 0.750000
#
# Coordination Sequence:
#
# PCOD9393366 Si02
#       7
#     8   8   8   4   4   8   8
#     4  10  22  41  63  88 122 164 208 258 310 378
#     4  10  19  36  61  84 118 161 210 259 316 387
#     4   9  18  35  59  89 125 165 209 255 314 383
#     4  12  26  42  62  92 124 163 213 254 326 391
#     4  12  26  38  56  88 116 155 206 260 322 377
#     4   9  19  39  61  91 122 165 210 256 315 371
#     4  11  22  40  60  83 117 160 208 261 317 376
#
# _framework density 21.280404999999998
#
# number of rings (size 3 to 8) (size 9 to 14) (size 15 to 20)
#    0.000    1.833    0.833    4.500    0.000    4.333 
#   13.500    6.667    0.000    1.000    0.000    0.000 
#    0.000    0.000    0.000    0.000    0.000    0.000 
#
# Total GULP energy -267736.099208 kJ/mol
# GULP energy per Si atom -5577.835400 kJ/mol
# Density = 2.123197 g / cm^3
# Si number density = 21.280405 Si / 1000 Ang^3
#
#
#
# Elastic Constant Matrix: (Units=GPa)
#
#
# Indices 1 2 3 4 5 6 
#
# 1 94.3829 15.3135 -6.6710 0.0000 0.0000 0.0000
# 2 15.3135 73.2609 37.4997 0.0000 0.0000 0.0000
# 3 -6.6710 37.4997 97.7933 0.0000 0.0000 0.0000
# 4 0.0000 0.0000 0.0000 47.7531 0.0000 0.0000
# 5 0.0000 0.0000 0.0000 0.0000 11.2842 0.0000
# 6 0.0000 0.0000 0.0000 0.0000 0.0000 -15.6277
#
#
#
# Elastic Compliance Matrix: (Units=1/GPa)
#
#
# Indices 1 2 3 4 5 6 
#
# 1 0.011299 -0.003429 0.002086 0.000000 0.000000 0.000000
# 2 -0.003429 0.018024 -0.007145 0.000000 0.000000 0.000000
# 3 0.002086 -0.007145 0.013108 0.000000 0.000000 0.000000
# 4 0.000000 0.000000 0.000000 0.020941 0.000000 0.000000
# 5 0.000000 0.000000 0.000000 0.000000 0.088620 0.000000
# 6 0.000000 0.000000 0.000000 0.000000 0.000000 -0.063989
#
#
# Mechanical properties :
#
#
# Convention : Reuss Voigt Hill
#
# Bulk Modulus (GPa) = 39.28826 39.74684 39.51755
# Shear Modulus (GPa) = 44.06639 23.30158 33.68399
#
# Velocity S-wave (km/s) = 4.55549 3.31264 3.98284
# Velocity P-wave (km/s) = 6.79501 5.77491 6.30563
#
# Compressibility (1/GPa) = 0.02545290
#
# Stress axis : x y z
#
# Youngs Moduli (GPa) = 88.50357 55.48088 76.28967
#
# Poissons Ratio (x) = 0.19027 -0.15913
# Poissons Ratio (y) = 0.30352 0.54513
# Poissons Ratio (z) = -0.18460 0.39644
#
# Static dielectric constant tensor:
#      x y z
#    x 2.110550 0.000000 0.000000 
#    y 0.000000 1.809280 0.000000 
#    z 0.000000 0.000000 1.789090 
# 
# From -- ./inp_files/11870.got.cif
#   From: 2010.05.17/outbox.cif.g08.bks.cpg/sg49_6_cif.got.tgz:11870.got - 2010.06.03 21:02:19.
