data_PCOD9393016
_publ_section_title
;
Structure prediction by ZEFSAII (Michael W. Deem and Ramdas Pophale) SiO2 
 PCOD9393016
Probable space group: P C C M
;
_chemical_formula_sum "Si O2"
_cell_formula_units_Z 64
_cell_length_a 20.322360
_cell_length_b 20.252220
_cell_length_c 8.767494
_cell_angle_alpha 90.000000
_cell_angle_beta 90.000000
_cell_angle_gamma 90.000000
_cell_volume 3608.462981
_symmetry_space_group_name_H-M "P C C M"
_symmetry_group_IT_number 49
_symmetry_cell_setting 'orthorhombic'
loop_
_space_group_symop_operation_xyz
x,y,z
-x,-y,z
x,-y,1/2-z
-x,y,1/2-z
-x,-y,-z
x,y,-z
-x,y,1/2+z
x,-y,1/2+z
loop_
_atom_site_type_symbol
_atom_site_label
_atom_site_fract_x
_atom_site_fract_y
_atom_site_fract_z
Si Si1 0.248192 0.397146 0.320209
Si Si2 0.890878 0.433646 0.317478
Si Si3 0.205788 0.755022 0.179184
Si Si4 0.429575 0.072694 0.817213
Si Si5 0.068773 0.285542 0.182168
Si Si6 0.387668 0.569585 0.318763
Si Si7 0.668820 0.810184 0.817704
Si Si8 0.431928 0.706396 0.818192
O O1 0.257233 0.412028 0.500000
O O2 0.181582 0.428152 0.255884
O O3 0.237401 0.318399 0.303939
O O4 0.310967 0.421106 0.226508
O O5 0.922092 0.500000 0.250000
O O6 0.886781 0.438387 0.500000
O O7 0.924192 0.363706 0.277799
O O8 0.200264 0.231356 0.500000
O O9 0.133546 0.750068 0.252457
O O10 0.256943 0.804730 0.257190
O O11 0.500000 0.095326 0.750000
O O12 0.371099 0.123252 0.779295
O O13 0.417272 0.000000 0.750000
O O14 0.435432 0.068847 0.000000
O O15 0.000000 0.261121 0.250000
O O16 0.068661 0.280413 0.000000
O O17 0.410307 0.500000 0.250000
O O18 0.395939 0.570796 0.500000
O O19 0.422540 0.632220 0.242672
O O20 0.627207 0.751078 0.742792
O O21 0.668512 0.802077 0.000000
O O22 0.500000 0.732885 0.750000
O O23 0.432995 0.706808 0.000000
#
# Coordination Sequence:
#
# PCOD9393016 Si02
#       8
#     8   8   8   8   8   8   8   8
#     4  10  19  33  51  73  98 127 167 215 271 331
#     4  10  20  32  47  68  94 127 166 214 269 330
#     4  10  20  34  56  81 107 139 179 225 273 325
#     4  10  21  36  57  86 122 163 200 234 274 323
#     4  10  21  36  53  73 102 137 175 221 278 337
#     4  12  24  38  55  73  97 129 169 222 280 338
#     4  11  22  37  59  87 116 149 188 231 276 322
#     4  12  25  41  58  79 104 136 178 224 278 333
#
# _framework density 17.736083000000001
#
# number of rings (size 3 to 8) (size 9 to 14) (size 15 to 20)
#    0.000    1.375    1.250    5.625    0.000    6.000 
#    0.000    2.500    0.000    0.000    0.000    0.000 
#    0.000    0.500    0.000    5.250    0.000    2.875 
#
# Total GULP energy -357805.458132 kJ/mol
# GULP energy per Si atom -5590.710283 kJ/mol
# Density = 1.769572 g / cm^3
# Si number density = 17.736083 Si / 1000 Ang^3
#
#
#
# Elastic Constant Matrix: (Units=GPa)
#
#
# Indices 1 2 3 4 5 6 
#
# 1 134.9497 49.4391 54.9232 0.0000 0.0000 0.0000
# 2 49.4391 73.9543 42.7897 0.0000 0.0000 0.0000
# 3 54.9232 42.7897 96.9291 0.0000 0.0000 0.0000
# 4 0.0000 0.0000 0.0000 36.1857 0.0000 0.0000
# 5 0.0000 0.0000 0.0000 0.0000 25.8225 0.0000
# 6 0.0000 0.0000 0.0000 0.0000 0.0000 18.2387
#
#
#
# Elastic Compliance Matrix: (Units=1/GPa)
#
#
# Indices 1 2 3 4 5 6 
#
# 1 0.010834 -0.004957 -0.003951 0.000000 0.000000 0.000000
# 2 -0.004957 0.020428 -0.006209 0.000000 0.000000 0.000000
# 3 -0.003951 -0.006209 0.015297 0.000000 0.000000 0.000000
# 4 0.000000 0.000000 0.000000 0.027635 0.000000 0.000000
# 5 0.000000 0.000000 0.000000 0.000000 0.038726 0.000000
# 6 0.000000 0.000000 0.000000 0.000000 0.000000 0.054829
#
#
# Mechanical properties :
#
#
# Convention : Reuss Voigt Hill
#
# Bulk Modulus (GPa) = 61.25575 66.68191 63.96883
# Shear Modulus (GPa) = 24.57919 26.62811 25.60365
#
# Velocity S-wave (km/s) = 3.72671 3.87893 3.80358
# Velocity P-wave (km/s) = 7.28905 7.59867 7.44547
#
# Compressibility (1/GPa) = 0.01632500
#
# Stress axis : x y z
#
# Youngs Moduli (GPa) = 92.30211 48.95176 65.37389
#
# Poissons Ratio (x) = 0.24264 0.25827
# Poissons Ratio (y) = 0.45752 0.40594
# Poissons Ratio (z) = 0.36466 0.30396
#
# Static dielectric constant tensor:
#      x y z
#    x 1.746020 0.000000 0.000000 
#    y 0.000000 1.606130 0.000000 
#    z 0.000000 0.000000 1.585780 
# 
# From -- ./inp_files/5960.got.cif
#   From: 2010.05.17/outbox.cif.g08.bks.cpg/sg49_3_cif.got.tgz:5960.got - 2010.06.03 21:02:19.
