data_PCOD9393265
_publ_section_title
;
Structure prediction by ZEFSAII (Michael W. Deem and Ramdas Pophale) SiO2 
 PCOD9393265
Probable space group: P C C M
;
_chemical_formula_sum "Si O2"
_cell_formula_units_Z 64
_cell_length_a 19.129676
_cell_length_b 11.471228
_cell_length_c 16.542987
_cell_angle_alpha 90.000000
_cell_angle_beta 90.000000
_cell_angle_gamma 90.000000
_cell_volume 3630.207542
_symmetry_space_group_name_H-M "P C C M"
_symmetry_group_IT_number 49
_symmetry_cell_setting 'orthorhombic'
loop_
_space_group_symop_operation_xyz
x,y,z
-x,-y,z
x,-y,1/2-z
-x,y,1/2-z
-x,-y,-z
x,y,-z
-x,y,1/2+z
x,-y,1/2+z
loop_
_atom_site_type_symbol
_atom_site_label
_atom_site_fract_x
_atom_site_fract_y
_atom_site_fract_z
Si Si1 0.890692 0.447739 0.405852
Si Si2 0.619416 0.215095 0.594297
Si Si3 0.028361 0.342521 0.339807
Si Si4 0.476761 0.866621 0.902614
Si Si5 0.055518 0.904419 0.906808
Si Si6 0.769742 0.729789 0.098656
Si Si7 0.345230 0.963166 0.843001
Si Si8 0.809548 0.987555 0.156497
O O1 0.881053 0.476566 0.500000
O O2 0.910527 0.565284 0.358596
O O3 0.823592 0.372713 0.378656
O O4 0.961244 0.370990 0.395954
O O5 0.613485 0.244812 0.500000
O O6 0.539862 0.216287 0.627661
O O7 0.688180 0.282388 0.625441
O O8 0.639783 0.078198 0.603086
O O9 0.052321 0.212227 0.355368
O O10 0.000000 0.358214 0.250000
O O11 0.399233 0.861951 0.866289
O O12 0.500000 0.000000 0.883109
O O13 0.472762 0.857358 0.000000
O O14 0.131038 0.961644 0.899669
O O15 0.038856 0.876061 0.000000
O O16 0.000000 0.000000 0.877806
O O17 0.795652 0.852675 0.134757
O O18 0.770544 0.738577 0.000000
O O19 0.356890 0.000000 0.750000
O O20 0.263118 0.941996 0.852576
O O21 0.831318 0.000000 0.250000
#
# Coordination Sequence:
#
# PCOD9393265 Si02
#       8
#     8   8   8   8   8   8   8   8
#     4  10  19  35  56  74  97 126 163 213 266 312
#     4   8  14  24  37  59  87 118 160 199 237 292
#     4  11  23  36  53  77 101 125 165 216 267 316
#     4   8  13  21  35  54  81 119 159 197 235 284
#     4  11  24  38  54  74  99 135 176 212 254 312
#     4   9  17  30  50  70  95 131 167 207 256 309
#     4   9  16  25  36  58  88 125 165 203 250 294
#     4  10  21  32  46  69 100 132 170 215 257 309
#
# _framework density 17.629846000000001
#
# number of rings (size 3 to 8) (size 9 to 14) (size 15 to 20)
#    0.000    2.500    0.000    4.500    3.500    5.750 
#    0.000    0.000    0.000    0.000    0.000    0.000 
#    0.000    1.000    0.000    7.500    2.750    2.375 
#
# Total GULP energy -356390.882371 kJ/mol
# GULP energy per Si atom -5568.607537 kJ/mol
# Density = 1.758972 g / cm^3
# Si number density = 17.629846 Si / 1000 Ang^3
#
#
#
# Elastic Constant Matrix: (Units=GPa)
#
#
# Indices 1 2 3 4 5 6 
#
# 1 125.6460 58.9979 25.6617 0.0000 0.0000 0.0000
# 2 58.9979 73.2531 27.6694 0.0000 0.0000 0.0000
# 3 25.6617 27.6694 33.8030 0.0000 0.0000 0.0000
# 4 0.0000 0.0000 0.0000 8.1368 0.0000 0.0000
# 5 0.0000 0.0000 0.0000 0.0000 -731.8790 0.0000
# 6 0.0000 0.0000 0.0000 0.0000 0.0000 25.8230
#
#
#
# Elastic Compliance Matrix: (Units=1/GPa)
#
#
# Indices 1 2 3 4 5 6 
#
# 1 0.012880 -0.009670 -0.001862 0.000000 0.000000 0.000000
# 2 -0.009670 0.027021 -0.014777 0.000000 0.000000 0.000000
# 3 -0.001862 -0.014777 0.043093 0.000000 0.000000 0.000000
# 4 0.000000 0.000000 0.000000 0.122899 0.000000 0.000000
# 5 0.000000 0.000000 0.000000 0.000000 -0.001366 0.000000
# 6 0.000000 0.000000 0.000000 0.000000 0.000000 0.038725
#
#
# Mechanical properties :
#
#
# Convention : Reuss Voigt Hill
#
# Bulk Modulus (GPa) = 32.92207 50.81780 41.86993
# Shear Modulus (GPa) = 16.34010 -131.55899 -57.60945
#
# Velocity S-wave (km/s) = 3.04771 -8.64783 -5.72260
# Velocity P-wave (km/s) = 5.57668 8.41580 4.45682
#
# Compressibility (1/GPa) = 0.03037476
#
# Stress axis : x y z
#
# Youngs Moduli (GPa) = 77.64081 37.00809 23.20565
#
# Poissons Ratio (x) = 0.35786 0.04322
# Poissons Ratio (y) = 0.75078 0.34291
# Poissons Ratio (z) = 0.14461 0.54688
#
# Static dielectric constant tensor:
#      x y z
#    x 1.677920 0.000000 0.000000 
#    y 0.000000 1.582080 0.000000 
#    z 0.000000 0.000000 1.627590 
# 
# From -- ./inp_files/18246.got.cif
#   From: 2010.05.17/outbox.cif.g08.bks.cpg/sg49_10_cif.got.tgz:18246.got - 2010.06.03 21:02:19.
