data_PCOD9393995
_publ_section_title
;
Structure prediction by ZEFSAII (Michael W. Deem and Ramdas Pophale) SiO2 
 PCOD9393995
Probable space group: P C C M
;
_chemical_formula_sum "Si O2"
_cell_formula_units_Z 18
_cell_length_a 10.578740
_cell_length_b 10.256837
_cell_length_c 8.930162
_cell_angle_alpha 90.000000
_cell_angle_beta 90.000000
_cell_angle_gamma 90.000000
_cell_volume 968.961975
_symmetry_space_group_name_H-M "P C C M"
_symmetry_group_IT_number 49
_symmetry_cell_setting 'orthorhombic'
loop_
_space_group_symop_operation_xyz
x,y,z
-x,-y,z
x,-y,1/2-z
-x,y,1/2-z
-x,-y,-z
x,y,-z
-x,y,1/2+z
x,-y,1/2+z
loop_
_atom_site_type_symbol
_atom_site_label
_atom_site_fract_x
_atom_site_fract_y
_atom_site_fract_z
Si Si1 0.500000 0.000000 0.750000
Si Si2 0.129659 0.644471 0.679357
Si Si3 0.376311 0.255597 0.668486
O O1 0.411744 0.102026 0.663159
O O2 0.142617 0.500000 0.750000
O O3 0.120922 0.637772 0.500000
O O4 0.252847 0.721394 0.733294
O O5 0.000000 0.699379 0.750000
O O6 0.500000 0.315469 0.750000
O O7 0.359332 0.305683 0.500000
#
# Coordination Sequence:
#
# PCOD9393995 Si02
#       3
#     2   8   8
#     4   8  22  36  62  80 118 144 192 230 286 320
#     4  11  22  38  59  84 116 150 186 231 281 337
#     4  10  20  36  59  85 114 149 188 231 281 332
#
# _framework density 18.576581000000001
#
# number of rings (size 3 to 8) (size 9 to 14) (size 15 to 20)
#    1.333    0.444    0.000    7.333    0.000    0.889 
#    0.000    5.556    0.000    5.333    0.000    0.000 
#    0.000    0.000    0.000    0.000    0.000    0.000 
#
# Total GULP energy -100222.237900 kJ/mol
# GULP energy per Si atom -5567.902106 kJ/mol
# Density = 1.853430 g / cm^3
# Si number density = 18.576581 Si / 1000 Ang^3
#
#
#
# Elastic Constant Matrix: (Units=GPa)
#
#
# Indices 1 2 3 4 5 6 
#
# 1 175.8297 35.7299 81.8036 0.0000 0.0000 0.0000
# 2 35.7299 33.1116 19.0712 0.0000 0.0000 0.0000
# 3 81.8036 19.0712 209.2741 0.0000 0.0000 0.0000
# 4 0.0000 0.0000 0.0000 26.8563 0.0000 0.0000
# 5 0.0000 0.0000 0.0000 0.0000 48.3191 0.0000
# 6 0.0000 0.0000 0.0000 0.0000 0.0000 34.5245
#
#
#
# Elastic Compliance Matrix: (Units=1/GPa)
#
#
# Indices 1 2 3 4 5 6 
#
# 1 0.008448 -0.007614 -0.002608 0.000000 0.000000 0.000000
# 2 -0.007614 0.038736 -0.000554 0.000000 0.000000 0.000000
# 3 -0.002608 -0.000554 0.005849 0.000000 0.000000 0.000000
# 4 0.000000 0.000000 0.000000 0.037235 0.000000 0.000000
# 5 0.000000 0.000000 0.000000 0.000000 0.020696 0.000000
# 6 0.000000 0.000000 0.000000 0.000000 0.000000 0.028965
#
#
# Mechanical properties :
#
#
# Convention : Reuss Voigt Hill
#
# Bulk Modulus (GPa) = 31.76598 76.82498 54.29548
# Shear Modulus (GPa) = 29.07425 40.71402 34.89414
#
# Velocity S-wave (km/s) = 3.96043 4.68662 4.33875
# Velocity P-wave (km/s) = 6.16851 8.41020 7.37502
#
# Compressibility (1/GPa) = 0.03148022
#
# Stress axis : x y z
#
# Youngs Moduli (GPa) = 118.37072 25.81602 170.98372
#
# Poissons Ratio (x) = 0.19656 0.44600
# Poissons Ratio (y) = 0.90124 0.09470
# Poissons Ratio (z) = 0.30876 0.01430
#
# Static dielectric constant tensor:
#      x y z
#    x 1.649400 0.000000 0.000000 
#    y 0.000000 1.650240 0.000000 
#    z 0.000000 0.000000 1.653840 
# 
# From -- ./inp_files/995.got.cif
#   From: 2010.05.17/outbox.cif.g08.bks.cpg/sg49_1_cif.got.tgz:995.got - 2010.06.03 21:02:19.
