data_PCOD9393716
_publ_section_title
;
Structure prediction by ZEFSAII (Michael W. Deem and Ramdas Pophale) SiO2 
 PCOD9393716
Probable space group: P C C M
;
_chemical_formula_sum "Si O2"
_cell_formula_units_Z 64
_cell_length_a 22.812694
_cell_length_b 9.470994
_cell_length_c 15.118879
_cell_angle_alpha 90.000000
_cell_angle_beta 90.000000
_cell_angle_gamma 90.000000
_cell_volume 3266.568185
_symmetry_space_group_name_H-M "P C C M"
_symmetry_group_IT_number 49
_symmetry_cell_setting 'orthorhombic'
loop_
_space_group_symop_operation_xyz
x,y,z
-x,-y,z
x,-y,1/2-z
-x,y,1/2-z
-x,-y,-z
x,y,-z
-x,y,1/2+z
x,-y,1/2+z
loop_
_atom_site_type_symbol
_atom_site_label
_atom_site_fract_x
_atom_site_fract_y
_atom_site_fract_z
Si Si1 0.857996 0.831457 0.105035
Si Si2 0.069840 0.332682 0.250000
Si Si3 0.723914 0.838853 0.892170
Si Si4 0.723914 0.838853 0.392170
Si Si5 0.142004 0.168543 0.605035
Si Si6 0.500000 0.159434 0.855159
Si Si7 0.614787 0.341278 0.394391
Si Si8 0.385213 0.658722 0.105609
O O1 0.901402 0.741831 0.164822
O O2 0.790463 0.799905 0.131398
O O3 0.866515 0.000000 0.118406
O O4 0.864637 0.803968 0.000000
O O5 0.082083 0.500000 0.250000
O O6 0.098598 0.258169 0.335178
O O7 0.000000 0.312666 0.250000
O O8 0.673187 0.735464 0.859990
O O9 0.712412 1.000000 0.863586
O O10 0.722769 0.840076 0.000000
O O11 0.722769 0.840076 0.500000
O O12 0.790463 0.799905 0.368602
O O13 0.673187 0.735464 0.359990
O O14 0.135363 0.196032 0.500000
O O15 0.500000 0.149196 0.750000
O O16 0.442098 0.245605 0.880247
O O17 0.557902 0.245605 0.880247
O O18 0.500000 0.000000 0.892010
O O19 0.622171 0.351898 0.500000
O O20 0.606910 0.500000 0.359491
O O21 0.377829 0.648102 0.000000
#
# Coordination Sequence:
#
# PCOD9393716 Si02
#       8
#     8   8   8   8   8   8   8   8
#     4   9  19  38  64  91 118 153 199 249 297 345
#     4  11  25  41  57  85 125 164 201 240 289 353
#     4   8  15  31  56  84 111 139 177 226 278 332
#     4   8  15  31  56  84 111 139 177 226 278 332
#     4   9  19  38  64  91 118 153 199 249 297 345
#     4  11  24  39  52  70 100 141 188 231 274 326
#     4  10  20  34  55  82 108 137 176 222 276 337
#     4  10  20  34  55  82 108 137 176 222 276 337
#
# _framework density 19.592428000000002
#
# number of rings (size 3 to 8) (size 9 to 14) (size 15 to 20)
#    0.000    2.500    0.000    3.375    0.000    7.000 
#    2.250    5.000    0.000    0.000    0.000    0.000 
#    0.000    0.000    0.000    0.000    0.000    0.000 
#
# Total GULP energy -357349.364374 kJ/mol
# GULP energy per Si atom -5583.583818 kJ/mol
# Density = 1.954783 g / cm^3
# Si number density = 19.592428 Si / 1000 Ang^3
#
#
#
# Elastic Constant Matrix: (Units=GPa)
#
#
# Indices 1 2 3 4 5 6 
#
# 1 165.0694 125.6488 49.2507 0.0000 0.0000 0.0000
# 2 125.6488 159.5636 48.5899 0.0000 0.0000 0.0000
# 3 49.2507 48.5899 73.3504 0.0000 0.0000 0.0000
# 4 0.0000 0.0000 0.0000 14.6462 0.0000 0.0000
# 5 0.0000 0.0000 0.0000 0.0000 47.9127 0.0000
# 6 0.0000 0.0000 0.0000 0.0000 0.0000 76.5459
#
#
#
# Elastic Compliance Matrix: (Units=1/GPa)
#
#
# Indices 1 2 3 4 5 6 
#
# 1 0.015609 -0.011399 -0.002929 0.000000 0.000000 0.000000
# 2 -0.011399 0.016176 -0.003061 0.000000 0.000000 0.000000
# 3 -0.002929 -0.003061 0.017628 0.000000 0.000000 0.000000
# 4 0.000000 0.000000 0.000000 0.068277 0.000000 0.000000
# 5 0.000000 0.000000 0.000000 0.000000 0.020871 0.000000
# 6 0.000000 0.000000 0.000000 0.000000 0.000000 0.013064
#
#
# Mechanical properties :
#
#
# Convention : Reuss Voigt Hill
#
# Bulk Modulus (GPa) = 68.33953 93.88469 81.11211
# Shear Modulus (GPa) = 26.13924 39.45389 32.79656
#
# Velocity S-wave (km/s) = 3.65656 4.49233 4.09582
# Velocity P-wave (km/s) = 7.26523 8.65627 7.99107
#
# Compressibility (1/GPa) = 0.01463282
#
# Stress axis : x y z
#
# Youngs Moduli (GPa) = 64.06482 61.82044 56.72792
#
# Poissons Ratio (x) = 0.70472 0.16617
# Poissons Ratio (y) = 0.73031 0.17367
# Poissons Ratio (z) = 0.18766 0.18926
#
# Static dielectric constant tensor:
#      x y z
#    x 1.659190 0.000000 0.000000 
#    y 0.000000 1.679650 0.000000 
#    z 0.000000 0.000000 1.718730 
# 
# From -- ./inp_files/14548.got.cif
#   From: 2010.05.17/outbox.cif.g08.bks.cpg/sg49_8_cif.got.tgz:14548.got - 2010.06.03 21:02:19.
