data_PCOD9393854
_publ_section_title
;
Structure prediction by ZEFSAII (Michael W. Deem and Ramdas Pophale) SiO2 
 PCOD9393854
Probable space group: P C C M
;
_chemical_formula_sum "Si O2"
_cell_formula_units_Z 48
_cell_length_a 17.602081
_cell_length_b 7.337762
_cell_length_c 15.545889
_cell_angle_alpha 90.000000
_cell_angle_beta 90.000000
_cell_angle_gamma 90.000000
_cell_volume 2007.905175
_symmetry_space_group_name_H-M "P C C M"
_symmetry_group_IT_number 49
_symmetry_cell_setting 'orthorhombic'
loop_
_space_group_symop_operation_xyz
x,y,z
-x,-y,z
x,-y,1/2-z
-x,y,1/2-z
-x,-y,-z
x,y,-z
-x,y,1/2+z
x,-y,1/2+z
loop_
_atom_site_type_symbol
_atom_site_label
_atom_site_fract_x
_atom_site_fract_y
_atom_site_fract_z
Si Si1 0.174785 0.717512 0.273239
Si Si2 0.925365 0.382770 0.406008
Si Si3 0.797558 0.305254 0.096179
Si Si4 0.312833 0.195856 0.899142
Si Si5 0.362481 0.780084 0.098930
Si Si6 0.521902 0.289438 0.402287
O O1 0.178211 0.500000 0.250000
O O2 0.099159 0.745603 0.328712
O O3 0.175434 0.807978 0.179118
O O4 0.245509 0.763615 0.333679
O O5 0.934499 0.295413 0.500000
O O6 0.855111 0.525848 0.412585
O O7 0.000000 0.500000 0.387435
O O8 0.709051 0.349098 0.120182
O O9 0.796097 0.220971 0.000000
O O10 0.393609 0.274286 0.866265
O O11 0.326924 0.979490 0.898452
O O12 0.297976 0.251616 0.000000
O O13 0.445872 0.791006 0.141159
O O14 0.380471 0.730282 0.000000
O O15 0.500000 0.500000 0.406936
O O16 0.531693 0.211664 0.500000
#
# Coordination Sequence:
#
# PCOD9393854 Si02
#       6
#     8   8   8   8   8   8
#     4  10  21  33  53  83 113 145 189 238 289 343
#     4   9  18  34  58  87 118 149 182 228 288 348
#     4   9  19  34  54  76 107 147 189 232 282 338
#     4  10  20  35  56  82 115 152 194 242 295 353
#     4   9  18  34  55  80 112 154 197 238 291 356
#     4   9  18  30  53  84 113 150 193 239 291 346
#
# _framework density 23.90551
#
# number of rings (size 3 to 8) (size 9 to 14) (size 15 to 20)
#    0.000    2.667    0.000    1.000    4.667    6.333 
#    0.000    0.833    0.000    3.000    0.000   10.500 
#    0.000    0.000    0.000    0.000    0.000    0.000 
#
# Total GULP energy -267469.069312 kJ/mol
# GULP energy per Si atom -5572.272277 kJ/mol
# Density = 2.385110 g / cm^3
# Si number density = 23.905510 Si / 1000 Ang^3
#
#
#
# Elastic Constant Matrix: (Units=GPa)
#
#
# Indices 1 2 3 4 5 6 
#
# 1 94.1972 7.3462 39.8021 0.0000 0.0000 0.0000
# 2 7.3462 39.7530 0.3443 0.0000 0.0000 0.0000
# 3 39.8021 0.3443 155.4890 0.0000 0.0000 0.0000
# 4 0.0000 0.0000 0.0000 23.1828 0.0000 0.0000
# 5 0.0000 0.0000 0.0000 0.0000 430.4467 0.0000
# 6 0.0000 0.0000 0.0000 0.0000 0.0000 18.9054
#
#
#
# Elastic Compliance Matrix: (Units=1/GPa)
#
#
# Indices 1 2 3 4 5 6 
#
# 1 0.012094 -0.002208 -0.003091 0.000000 0.000000 0.000000
# 2 -0.002208 0.025559 0.000509 0.000000 0.000000 0.000000
# 3 -0.003091 0.000509 0.007221 0.000000 0.000000 0.000000
# 4 0.000000 0.000000 0.000000 0.043135 0.000000 0.000000
# 5 0.000000 0.000000 0.000000 0.000000 0.002323 0.000000
# 6 0.000000 0.000000 0.000000 0.000000 0.000000 0.052895
#
#
# Mechanical properties :
#
#
# Convention : Reuss Voigt Hill
#
# Bulk Modulus (GPa) = 28.33371 42.71381 35.52376
# Shear Modulus (GPa) = 30.38148 110.63676 70.50912
#
# Velocity S-wave (km/s) = 3.56883 6.81038 5.43681
# Velocity P-wave (km/s) = 5.37217 8.93019 7.36914
#
# Compressibility (1/GPa) = 0.03529365
#
# Stress axis : x y z
#
# Youngs Moduli (GPa) = 82.68354 39.12513 138.47668
#
# Poissons Ratio (x) = 0.08640 0.42803
# Poissons Ratio (y) = 0.18258 -0.07044
# Poissons Ratio (z) = 0.25558 -0.01990
#
# Static dielectric constant tensor:
#      x y z
#    x 1.988140 0.000000 0.000000 
#    y 0.000000 1.994110 0.000000 
#    z 0.000000 0.000000 2.047430 
# 
# From -- ./inp_files/14005.got.cif
#   From: 2010.05.17/outbox.cif.g08.bks.cpg/sg49_8_cif.got.tgz:14005.got - 2010.06.03 21:02:19.
