data_PCOD9393115
_publ_section_title
;
Structure prediction by ZEFSAII (Michael W. Deem and Ramdas Pophale) SiO2 
 PCOD9393115
Probable space group: P C C M
;
_chemical_formula_sum "Si O2"
_cell_formula_units_Z 64
_cell_length_a 12.499771
_cell_length_b 16.727041
_cell_length_c 16.168359
_cell_angle_alpha 90.000000
_cell_angle_beta 90.000000
_cell_angle_gamma 90.000000
_cell_volume 3380.548116
_symmetry_space_group_name_H-M "P C C M"
_symmetry_group_IT_number 49
_symmetry_cell_setting 'orthorhombic'
loop_
_space_group_symop_operation_xyz
x,y,z
-x,-y,z
x,-y,1/2-z
-x,y,1/2-z
-x,-y,-z
x,y,-z
-x,y,1/2+z
x,-y,1/2+z
loop_
_atom_site_type_symbol
_atom_site_label
_atom_site_fract_x
_atom_site_fract_y
_atom_site_fract_z
Si Si1 0.880581 0.028336 0.600674
Si Si2 0.107157 0.754668 0.851741
Si Si3 0.733057 0.887456 0.404988
Si Si4 0.339546 0.300140 0.900433
Si Si5 0.564312 0.233633 0.101025
Si Si6 0.869857 0.791233 0.158819
Si Si7 0.619155 0.519714 0.152981
Si Si8 0.265669 0.632303 0.902611
O O1 0.878568 0.029074 0.500000
O O2 0.859646 0.116643 0.633295
O O3 0.791934 0.964787 0.631253
O O4 0.000000 0.000000 0.625264
O O5 0.178311 0.816913 0.903760
O O6 0.121423 0.782786 0.757455
O O7 0.160127 0.667865 0.860714
O O8 0.983515 0.759635 0.875538
O O9 0.707367 0.907722 0.500000
O O10 0.627477 0.845068 0.368355
O O11 0.442814 0.248028 0.873221
O O12 0.230536 0.258833 0.872701
O O13 0.352972 0.388783 0.864087
O O14 0.342362 0.306057 0.000000
O O15 0.635500 0.310798 0.125561
O O16 0.565798 0.230795 0.000000
O O17 0.500000 0.500000 0.119513
O O18 0.618101 0.500000 0.250000
O O19 0.703372 0.458331 0.114226
O O20 0.253229 0.644344 0.000000
#
# Coordination Sequence:
#
# PCOD9393115 Si02
#       8
#     8   8   8   8   8   8   8   8
#     4  10  19  33  56  84 112 145 196 247 285 338
#     4  10  21  37  55  81 112 152 190 236 294 355
#     4   9  17  33  56  81 109 145 194 240 279 336
#     4  11  22  37  58  85 120 153 190 238 291 344
#     4   8  16  31  53  81 110 145 185 231 282 330
#     4  11  23  37  53  82 120 152 187 241 303 350
#     4  11  22  36  57  89 121 153 187 234 287 341
#     4  10  19  35  60  83 110 148 200 240 270 334
#
# _framework density 18.931840999999999
#
# number of rings (size 3 to 8) (size 9 to 14) (size 15 to 20)
#    0.000    2.000    2.500    2.625    0.000    2.500 
#    0.000    1.250    0.000    6.750    0.000    3.500 
#    0.000    0.000    0.000    0.000    0.000    0.000 
#
# Total GULP energy -357157.060095 kJ/mol
# GULP energy per Si atom -5580.579064 kJ/mol
# Density = 1.888875 g / cm^3
# Si number density = 18.931841 Si / 1000 Ang^3
#
#
#
# Elastic Constant Matrix: (Units=GPa)
#
#
# Indices 1 2 3 4 5 6 
#
# 1 151.1190 99.0143 18.1646 0.0000 0.0000 0.0000
# 2 99.0143 152.2708 20.4140 0.0000 0.0000 0.0000
# 3 18.1646 20.4140 29.6651 0.0000 0.0000 0.0000
# 4 0.0000 0.0000 0.0000 21.3453 0.0000 0.0000
# 5 0.0000 0.0000 0.0000 0.0000 20.2789 0.0000
# 6 0.0000 0.0000 0.0000 0.0000 0.0000 29.2965
#
#
#
# Elastic Compliance Matrix: (Units=1/GPa)
#
#
# Indices 1 2 3 4 5 6 
#
# 1 0.011649 -0.007291 -0.002115 0.000000 0.000000 0.000000
# 2 -0.007291 0.011798 -0.003654 0.000000 0.000000 0.000000
# 3 -0.002115 -0.003654 0.037520 0.000000 0.000000 0.000000
# 4 0.000000 0.000000 0.000000 0.046849 0.000000 0.000000
# 5 0.000000 0.000000 0.000000 0.000000 0.049312 0.000000
# 6 0.000000 0.000000 0.000000 0.000000 0.000000 0.034134
#
#
# Mechanical properties :
#
#
# Convention : Reuss Voigt Hill
#
# Bulk Modulus (GPa) = 28.69864 67.58229 48.14046
# Shear Modulus (GPa) = 21.83422 27.21493 24.52458
#
# Velocity S-wave (km/s) = 3.39972 3.79558 3.60309
# Velocity P-wave (km/s) = 5.53197 7.41510 6.54165
#
# Compressibility (1/GPa) = 0.03484486
#
# Stress axis : x y z
#
# Youngs Moduli (GPa) = 85.84669 84.75913 26.65256
#
# Poissons Ratio (x) = 0.61798 0.05638
# Poissons Ratio (y) = 0.62590 0.09740
# Poissons Ratio (z) = 0.18160 0.30975
#
# Static dielectric constant tensor:
#      x y z
#    x 1.667100 0.000000 0.000000 
#    y 0.000000 1.651390 0.000000 
#    z 0.000000 0.000000 1.681730 
# 
# From -- ./inp_files/17327.got.cif
#   From: 2010.05.17/outbox.cif.g08.bks.cpg/sg49_9_cif.got.tgz:17327.got - 2010.06.03 21:02:19.
