data_PCOD9393369
_publ_section_title
;
Structure prediction by ZEFSAII (Michael W. Deem and Ramdas Pophale) SiO2 
 PCOD9393369
Probable space group: P C C M
;
_chemical_formula_sum "Si O2"
_cell_formula_units_Z 64
_cell_length_a 13.318546
_cell_length_b 14.560387
_cell_length_c 18.283465
_cell_angle_alpha 90.000000
_cell_angle_beta 90.000000
_cell_angle_gamma 90.000000
_cell_volume 3545.587748
_symmetry_space_group_name_H-M "P C C M"
_symmetry_group_IT_number 49
_symmetry_cell_setting 'orthorhombic'
loop_
_space_group_symop_operation_xyz
x,y,z
-x,-y,z
x,-y,1/2-z
-x,y,1/2-z
-x,-y,-z
x,y,-z
-x,y,1/2+z
x,-y,1/2+z
loop_
_atom_site_type_symbol
_atom_site_label
_atom_site_fract_x
_atom_site_fract_y
_atom_site_fract_z
Si Si1 0.393558 0.860242 0.784072
Si Si2 0.273670 0.923410 0.912724
Si Si3 0.393558 0.639758 0.784072
Si Si4 0.936823 0.750000 0.824092
Si Si5 0.135237 0.750000 0.086778
Si Si6 0.273671 0.576590 0.912724
Si Si7 0.200976 0.426886 0.191816
Si Si8 0.799024 0.073114 0.691816
O O1 0.500000 0.887068 0.750000
O O2 0.371771 0.902361 0.863973
O O3 0.390680 0.750000 0.789633
O O4 0.303115 0.893110 0.731631
O O5 0.197142 0.840742 0.891011
O O6 0.227881 0.017229 0.881323
O O7 0.288260 0.923172 0.000000
O O8 0.500000 0.612932 0.750000
O O9 0.371771 0.597639 0.863973
O O10 0.303115 0.606890 0.731631
O O11 0.868588 0.659428 0.824385
O O12 0.868588 0.840572 0.824385
O O13 0.000000 0.750000 0.750000
O O14 0.022461 0.750000 0.885172
O O15 0.197143 0.659258 0.108989
O O16 0.134757 0.750000 0.000000
O O17 0.227881 0.482771 0.881323
O O18 0.288260 0.576828 0.000000
O O19 0.155093 0.500000 0.250000
O O20 0.844907 0.000000 0.750000
#
# Coordination Sequence:
#
# PCOD9393369 Si02
#       8
#     8   8   8   8   8   8   8   8
#     4  10  19  36  62  87 113 148 189 235 286 341
#     4  10  21  39  61  85 114 151 194 237 284 344
#     4  10  19  36  62  87 113 148 189 235 286 341
#     4  12  22  36  56  83 117 153 196 242 291 338
#     4  10  22  38  58  81 110 151 195 238 287 336
#     4  10  21  39  61  85 114 151 194 237 284 344
#     4  10  22  36  56  85 118 150 192 240 286 338
#     4  10  22  36  56  85 118 150 192 240 286 338
#
# _framework density 18.050604
#
# number of rings (size 3 to 8) (size 9 to 14) (size 15 to 20)
#    0.000    1.750    2.500    3.000    0.000    9.000 
#    0.000    5.000    0.000    1.500    0.000    0.000 
#    0.000    0.000    0.000    0.000    0.000    0.000 
#
# Total GULP energy -357278.494074 kJ/mol
# GULP energy per Si atom -5582.476470 kJ/mol
# Density = 1.800952 g / cm^3
# Si number density = 18.050604 Si / 1000 Ang^3
#
#
#
# Elastic Constant Matrix: (Units=GPa)
#
#
# Indices 1 2 3 4 5 6 
#
# 1 105.1140 56.7035 61.8643 0.0000 0.0000 0.0000
# 2 56.7035 131.4875 59.6338 0.0000 0.0000 0.0000
# 3 61.8643 59.6338 105.5804 0.0000 0.0000 0.0000
# 4 0.0000 0.0000 0.0000 28.4605 0.0000 0.0000
# 5 0.0000 0.0000 0.0000 0.0000 30.3898 0.0000
# 6 0.0000 0.0000 0.0000 0.0000 0.0000 -4.8047
#
#
#
# Elastic Compliance Matrix: (Units=1/GPa)
#
#
# Indices 1 2 3 4 5 6 
#
# 1 0.015619 -0.003475 -0.007189 0.000000 0.000000 0.000000
# 2 -0.003475 0.010998 -0.004175 0.000000 0.000000 0.000000
# 3 -0.007189 -0.004175 0.016042 0.000000 0.000000 0.000000
# 4 0.000000 0.000000 0.000000 0.035136 0.000000 0.000000
# 5 0.000000 0.000000 0.000000 0.000000 0.032906 0.000000
# 6 0.000000 0.000000 0.000000 0.000000 0.000000 -0.208129
#
#
# Mechanical properties :
#
#
# Convention : Reuss Voigt Hill
#
# Bulk Modulus (GPa) = 77.04386 77.62056 77.33221
# Shear Modulus (GPa) = -78.83729 21.74115 -28.54807
#
# Velocity S-wave (km/s) = -6.61593 3.47429 -3.98119
# Velocity P-wave (km/s) = 3.94790 7.69346 4.66923
#
# Compressibility (1/GPa) = 0.01297962
#
# Stress axis : x y z
#
# Youngs Moduli (GPa) = 64.02305 90.92862 62.33536
#
# Poissons Ratio (x) = 0.31600 0.44814
# Poissons Ratio (y) = 0.22250 0.26027
# Poissons Ratio (z) = 0.46027 0.37966
#
# Static dielectric constant tensor:
#      x y z
#    x 1.496320 0.000000 0.000000 
#    y 0.000000 1.656010 0.000000 
#    z 0.000000 0.000000 1.499080 
# 
# From -- ./inp_files/17337.got.cif
#   From: 2010.05.17/outbox.cif.g08.bks.cpg/sg49_9_cif.got.tgz:17337.got - 2010.06.03 21:02:19.
