data_PCOD9393358
_publ_section_title
;
Structure prediction by ZEFSAII (Michael W. Deem and Ramdas Pophale) SiO2 
 PCOD9393358
Probable space group: P C C M
;
_chemical_formula_sum "Si O2"
_cell_formula_units_Z 40
_cell_length_a 5.274907
_cell_length_b 20.834822
_cell_length_c 17.963797
_cell_angle_alpha 90.000000
_cell_angle_beta 90.000000
_cell_angle_gamma 90.000000
_cell_volume 1974.252698
_symmetry_space_group_name_H-M "P C C M"
_symmetry_group_IT_number 49
_symmetry_cell_setting 'orthorhombic'
loop_
_space_group_symop_operation_xyz
x,y,z
-x,-y,z
x,-y,1/2-z
-x,y,1/2-z
-x,-y,-z
x,y,-z
-x,y,1/2+z
x,-y,1/2+z
loop_
_atom_site_type_symbol
_atom_site_label
_atom_site_fract_x
_atom_site_fract_y
_atom_site_fract_z
Si Si1 0.520129 0.422946 0.662462
Si Si2 0.744468 0.072065 0.282058
Si Si3 0.973799 0.637735 0.590143
Si Si4 0.435471 0.863954 0.411923
Si Si5 0.065012 0.214828 0.589495
O O1 0.500000 0.500000 0.658425
O O2 0.500000 0.405015 0.750000
O O3 0.280666 0.397118 0.616507
O O4 0.779629 0.394695 0.627716
O O5 0.500000 0.107357 0.250000
O O6 0.676373 0.074165 0.368717
O O7 0.000000 0.101534 0.250000
O O8 0.747115 0.000000 0.250000
O O9 0.001120 0.635740 0.500000
O O10 0.934705 0.711816 0.615146
O O11 0.446131 0.875841 0.500000
O O12 0.704035 0.832536 0.388717
O O13 0.211003 0.813833 0.394504
O O14 0.089064 0.217852 0.500000
#
# Coordination Sequence:
#
# PCOD9393358 Si02
#       5
#     8   8   8   8   8
#     4  11  24  41  59  83 122 164 199 245 304 361
#     4  10  21  38  56  80 116 149 181 233 289 333
#     4  11  22  39  63  89 117 152 202 257 302 353
#     4  10  19  36  60  83 110 151 195 228 280 356
#     4   9  19  35  58  87 116 145 185 243 296 339
#
# _framework density 20.260829999999999
#
# number of rings (size 3 to 8) (size 9 to 14) (size 15 to 20)
#    0.000    1.800    0.000    4.200    0.000    7.200 
#    0.000   14.000    0.000    0.000    0.000    0.000 
#    0.000    0.000    0.000    0.000    0.000    0.000 
#
# Total GULP energy -222844.996346 kJ/mol
# GULP energy per Si atom -5571.124909 kJ/mol
# Density = 2.021472 g / cm^3
# Si number density = 20.260830 Si / 1000 Ang^3
#
#
#
# Elastic Constant Matrix: (Units=GPa)
#
#
# Indices 1 2 3 4 5 6 
#
# 1 162.2118 10.8003 39.2955 0.0000 0.0000 0.0000
# 2 10.8003 58.6366 25.7458 0.0000 0.0000 0.0000
# 3 39.2955 25.7458 66.8171 0.0000 0.0000 0.0000
# 4 0.0000 0.0000 0.0000 8.2225 0.0000 0.0000
# 5 0.0000 0.0000 0.0000 0.0000 28.9988 0.0000
# 6 0.0000 0.0000 0.0000 0.0000 0.0000 49.5791
#
#
#
# Elastic Compliance Matrix: (Units=1/GPa)
#
#
# Indices 1 2 3 4 5 6 
#
# 1 0.007209 0.000642 -0.004487 0.000000 0.000000 0.000000
# 2 0.000642 0.020584 -0.008309 0.000000 0.000000 0.000000
# 3 -0.004487 -0.008309 0.020807 0.000000 0.000000 0.000000
# 4 0.000000 0.000000 0.000000 0.121618 0.000000 0.000000
# 5 0.000000 0.000000 0.000000 0.000000 0.034484 0.000000
# 6 0.000000 0.000000 0.000000 0.000000 0.000000 0.020170
#
#
# Mechanical properties :
#
#
# Convention : Reuss Voigt Hill
#
# Bulk Modulus (GPa) = 41.16579 48.81651 44.99115
# Shear Modulus (GPa) = 19.43426 31.48167 25.45796
#
# Velocity S-wave (km/s) = 3.10046 3.94613 3.54858
# Velocity P-wave (km/s) = 5.76014 6.70141 6.24852
#
# Compressibility (1/GPa) = 0.02429201
#
# Stress axis : x y z
#
# Youngs Moduli (GPa) = 138.71516 48.58078 48.06108
#
# Poissons Ratio (x) = -0.03121 0.21566
# Poissons Ratio (y) = -0.08911 0.39935
# Poissons Ratio (z) = 0.62244 0.40367
#
# Static dielectric constant tensor:
#      x y z
#    x 1.785500 0.000000 0.000000 
#    y 0.000000 1.762020 0.000000 
#    z 0.000000 0.000000 1.830730 
# 
# From -- ./inp_files/15335.got.cif
#   From: 2010.05.17/outbox.cif.g08.bks.cpg/sg49_8_cif.got.tgz:15335.got - 2010.06.03 21:02:19.
