data_PCOD9393941
_publ_section_title
;
Structure prediction by ZEFSAII (Michael W. Deem and Ramdas Pophale) SiO2 
 PCOD9393941
Probable space group: P C C M
;
_chemical_formula_sum "Si O2"
_cell_formula_units_Z 48
_cell_length_a 9.656179
_cell_length_b 31.785867
_cell_length_c 8.570746
_cell_angle_alpha 90.000000
_cell_angle_beta 90.000000
_cell_angle_gamma 90.000000
_cell_volume 2630.619253
_symmetry_space_group_name_H-M "P C C M"
_symmetry_group_IT_number 49
_symmetry_cell_setting 'orthorhombic'
loop_
_space_group_symop_operation_xyz
x,y,z
-x,-y,z
x,-y,1/2-z
-x,y,1/2-z
-x,-y,-z
x,y,-z
-x,y,1/2+z
x,-y,1/2+z
loop_
_atom_site_type_symbol
_atom_site_label
_atom_site_fract_x
_atom_site_fract_y
_atom_site_fract_z
Si Si1 0.848420 0.452923 0.686938
Si Si2 0.154898 0.786874 0.188226
Si Si3 0.843788 0.304484 0.686803
Si Si4 0.655788 0.379769 0.186665
Si Si5 0.657813 0.956953 0.686641
Si Si6 0.343921 0.864762 0.811869
O O1 0.823480 0.500000 0.750000
O O2 0.851228 0.453285 0.500000
O O3 0.734095 0.420872 0.748704
O O4 0.000000 0.439772 0.750000
O O5 0.200639 0.741923 0.256424
O O6 0.251563 0.825480 0.238465
O O7 0.000000 0.794059 0.250000
O O8 0.153218 0.784306 0.000000
O O9 0.846169 0.306184 0.500000
O O10 0.742629 0.339745 0.753684
O O11 0.000000 0.311216 0.750000
O O12 0.500000 0.378047 0.250000
O O13 0.655219 0.380585 0.000000
O O14 0.500000 0.956402 0.750000
O O15 0.654374 0.959504 0.500000
O O16 0.714407 0.911002 0.733749
O O17 0.723951 0.000000 0.750000
O O18 0.500000 0.860910 0.750000
O O19 0.349318 0.864266 0.000000
#
# Coordination Sequence:
#
# PCOD9393941 Si02
#       6
#     8   8   8   8   8   8
#     4  11  22  40  64  92 121 156 197 239 280 327
#     4  10  20  36  55  78 105 138 177 221 266 319
#     4  11  22  39  61  85 110 144 185 228 272 325
#     4  12  25  42  61  87 119 153 189 232 282 334
#     4   9  15  25  41  65  94 127 163 206 253 305
#     4   9  19  32  49  73 103 133 169 213 262 314
#
# _framework density 18.246656000000002
#
# number of rings (size 3 to 8) (size 9 to 14) (size 15 to 20)
#    0.000    1.667    0.000    8.000    0.000    3.000 
#    0.000    3.333    0.000    0.500    0.000    3.500 
#    0.000    0.000    0.000    0.000    0.000    0.000 
#
# Total GULP energy -268035.767691 kJ/mol
# GULP energy per Si atom -5584.078494 kJ/mol
# Density = 1.820513 g / cm^3
# Si number density = 18.246656 Si / 1000 Ang^3
#
#
#
# Elastic Constant Matrix: (Units=GPa)
#
#
# Indices 1 2 3 4 5 6 
#
# 1 87.4957 97.4005 45.1790 0.0000 0.0000 0.0000
# 2 97.4005 160.9307 64.2158 0.0000 0.0000 0.0000
# 3 45.1790 64.2158 143.1011 0.0000 0.0000 0.0000
# 4 0.0000 0.0000 0.0000 32.9416 0.0000 0.0000
# 5 0.0000 0.0000 0.0000 0.0000 18.6795 0.0000
# 6 0.0000 0.0000 0.0000 0.0000 0.0000 36.0544
#
#
#
# Elastic Compliance Matrix: (Units=1/GPa)
#
#
# Indices 1 2 3 4 5 6 
#
# 1 0.035453 -0.020697 -0.001905 0.000000 0.000000 0.000000
# 2 -0.020697 0.019652 -0.002284 0.000000 0.000000 0.000000
# 3 -0.001905 -0.002284 0.008615 0.000000 0.000000 0.000000
# 4 0.000000 0.000000 0.000000 0.030357 0.000000 0.000000
# 5 0.000000 0.000000 0.000000 0.000000 0.053535 0.000000
# 6 0.000000 0.000000 0.000000 0.000000 0.000000 0.027736
#
#
# Mechanical properties :
#
#
# Convention : Reuss Voigt Hill
#
# Bulk Modulus (GPa) = 71.70422 89.45754 80.58088
# Shear Modulus (GPa) = 21.76102 29.85057 25.80580
#
# Velocity S-wave (km/s) = 3.45716 4.04907 3.76477
# Velocity P-wave (km/s) = 7.43763 8.42575 7.94706
#
# Compressibility (1/GPa) = 0.01394618
#
# Stress axis : x y z
#
# Youngs Moduli (GPa) = 28.20643 50.88579 116.08082
#
# Poissons Ratio (x) = 1.05318 0.22117
# Poissons Ratio (y) = 0.58379 0.26517
# Poissons Ratio (z) = 0.05374 0.11624
#
# Static dielectric constant tensor:
#      x y z
#    x 1.588830 0.000000 0.000000 
#    y 0.000000 1.657670 0.000000 
#    z 0.000000 0.000000 1.611920 
# 
# From -- ./inp_files/2019.got.cif
#   From: 2010.05.17/outbox.cif.g08.bks.cpg/sg49_2_cif.got.tgz:2019.got - 2010.06.03 21:02:19.
