data_PCOD9393869
_publ_section_title
;
Structure prediction by ZEFSAII (Michael W. Deem and Ramdas Pophale) SiO2 
 PCOD9393869
Probable space group: P C C M
;
_chemical_formula_sum "Si O2"
_cell_formula_units_Z 60
_cell_length_a 22.897020
_cell_length_b 14.588971
_cell_length_c 9.177864
_cell_angle_alpha 90.000000
_cell_angle_beta 90.000000
_cell_angle_gamma 90.000000
_cell_volume 3065.810042
_symmetry_space_group_name_H-M "P C C M"
_symmetry_group_IT_number 49
_symmetry_cell_setting 'orthorhombic'
loop_
_space_group_symop_operation_xyz
x,y,z
-x,-y,z
x,-y,1/2-z
-x,y,1/2-z
-x,-y,-z
x,y,-z
-x,y,1/2+z
x,-y,1/2+z
loop_
_atom_site_type_symbol
_atom_site_label
_atom_site_fract_x
_atom_site_fract_y
_atom_site_fract_z
Si Si1 0.408480 0.089517 0.669510
Si Si2 0.061132 0.899375 0.178504
Si Si3 0.313096 0.369915 0.342390
Si Si4 0.717715 0.844055 0.331981
Si Si5 0.833415 0.789251 0.823459
Si Si6 0.500000 0.754390 0.250000
Si Si7 0.179679 0.591586 0.829432
Si Si8 0.422936 0.412773 0.839079
O O1 0.403566 0.068806 0.500000
O O2 0.341953 0.108763 0.722289
O O3 0.451607 0.176489 0.684198
O O4 0.431620 0.000000 0.750000
O O5 0.112969 0.837246 0.240673
O O6 0.000000 0.866606 0.250000
O O7 0.069849 0.000000 0.250000
O O8 0.059142 0.902661 0.000000
O O9 0.340059 0.391279 0.500000
O O10 0.300182 0.262231 0.340613
O O11 0.250144 0.415799 0.333161
O O12 0.358089 0.391929 0.217604
O O13 0.731408 0.873492 0.500000
O O14 0.774687 0.842890 0.230120
O O15 0.831671 0.684665 0.761848
O O16 0.837823 0.790776 0.000000
O O17 0.539580 0.680374 0.165288
O O18 0.156547 0.500000 0.750000
O O19 0.160985 0.599937 0.000000
O O20 0.443224 0.500000 0.750000
O O21 0.421807 0.445789 0.000000
#
# Coordination Sequence:
#
# PCOD9393869 Si02
#       8
#     8   8   8   8   8   4   8   8
#     4  11  25  45  67  89 115 148 193 247 307 370
#     4  11  22  40  65  96 133 173 216 262 311 367
#     4   9  18  36  60  83 115 153 192 239 298 358
#     4   9  19  39  62  85 118 158 195 248 306 358
#     4  11  22  37  61  95 131 170 212 257 307 366
#     4  12  26  46  64  84 110 152 194 250 300 372
#     4  10  20  35  56  87 124 167 210 258 307 363
#     4  12  26  40  61  87 113 146 189 238 299 368
#
# _framework density 19.570684
#
# number of rings (size 3 to 8) (size 9 to 14) (size 15 to 20)
#    0.000    1.467    1.333    5.600    0.000    8.533 
#    0.000    1.333    0.000    0.400    0.000    2.800 
#    0.000    0.000    0.000    0.000    0.000    0.000 
#
# Total GULP energy -334487.020550 kJ/mol
# GULP energy per Si atom -5574.783676 kJ/mol
# Density = 1.952614 g / cm^3
# Si number density = 19.570684 Si / 1000 Ang^3
#
#
#
# Elastic Constant Matrix: (Units=GPa)
#
#
# Indices 1 2 3 4 5 6 
#
# 1 112.6193 47.5448 64.2595 0.0000 0.0000 0.0000
# 2 47.5448 87.9664 49.0087 0.0000 0.0000 0.0000
# 3 64.2595 49.0087 170.2303 0.0000 0.0000 0.0000
# 4 0.0000 0.0000 0.0000 27.2997 0.0000 0.0000
# 5 0.0000 0.0000 0.0000 0.0000 63.2595 0.0000
# 6 0.0000 0.0000 0.0000 0.0000 0.0000 24.4755
#
#
#
# Elastic Compliance Matrix: (Units=1/GPa)
#
#
# Indices 1 2 3 4 5 6 
#
# 1 0.012997 -0.005111 -0.003435 0.000000 0.000000 0.000000
# 2 -0.005111 0.015550 -0.002547 0.000000 0.000000 0.000000
# 3 -0.003435 -0.002547 0.007904 0.000000 0.000000 0.000000
# 4 0.000000 0.000000 0.000000 0.036630 0.000000 0.000000
# 5 0.000000 0.000000 0.000000 0.000000 0.015808 0.000000
# 6 0.000000 0.000000 0.000000 0.000000 0.000000 0.040857
#
#
# Mechanical properties :
#
#
# Convention : Reuss Voigt Hill
#
# Bulk Modulus (GPa) = 70.10329 76.93803 73.52066
# Shear Modulus (GPa) = 31.91056 37.00713 34.45885
#
# Velocity S-wave (km/s) = 4.04236 4.35322 4.20067
# Velocity P-wave (km/s) = 7.59512 8.04149 7.82149
#
# Compressibility (1/GPa) = 0.01426467
#
# Stress axis : x y z
#
# Youngs Moduli (GPa) = 76.94024 64.30996 126.51318
#
# Poissons Ratio (x) = 0.32870 0.43454
# Poissons Ratio (y) = 0.39326 0.32227
# Poissons Ratio (z) = 0.26427 0.16382
#
# Static dielectric constant tensor:
#      x y z
#    x 1.710590 0.000000 0.000000 
#    y 0.000000 1.708310 0.000000 
#    z 0.000000 0.000000 1.688450 
# 
# From -- ./inp_files/6422.got.cif
#   From: 2010.05.17/outbox.cif.g08.bks.cpg/sg49_4_cif.got.tgz:6422.got - 2010.06.03 21:02:19.
