data_PCOD9393159
_publ_section_title
;
Structure prediction by ZEFSAII (Michael W. Deem and Ramdas Pophale) SiO2 
 PCOD9393159
Probable space group: P C C M
;
_chemical_formula_sum "Si O2"
_cell_formula_units_Z 48
_cell_length_a 9.241440
_cell_length_b 32.476337
_cell_length_c 8.568151
_cell_angle_alpha 90.000000
_cell_angle_beta 90.000000
_cell_angle_gamma 90.000000
_cell_volume 2571.543050
_symmetry_space_group_name_H-M "P C C M"
_symmetry_group_IT_number 49
_symmetry_cell_setting 'orthorhombic'
loop_
_space_group_symop_operation_xyz
x,y,z
-x,-y,z
x,-y,1/2-z
-x,y,1/2-z
-x,-y,-z
x,y,-z
-x,y,1/2+z
x,-y,1/2+z
loop_
_atom_site_type_symbol
_atom_site_label
_atom_site_fract_x
_atom_site_fract_y
_atom_site_fract_z
Si Si1 0.837516 0.799634 0.813592
Si Si2 0.662146 0.122166 0.813429
Si Si3 0.664354 0.631167 0.687935
Si Si4 0.665652 0.457679 0.187140
Si Si5 0.664907 0.278491 0.188363
Si Si6 0.837380 0.955260 0.813197
O O1 0.752694 0.838636 0.744589
O O2 0.757905 0.758104 0.759359
O O3 0.000000 0.799855 0.750000
O O4 0.837692 0.802248 0.000000
O O5 0.500000 0.125644 0.750000
O O6 0.735752 0.080907 0.747827
O O7 0.661658 0.121052 0.000000
O O8 0.500000 0.631178 0.750000
O O9 0.659808 0.630896 0.500000
O O10 0.730067 0.586890 0.735795
O O11 0.724289 0.675914 0.734119
O O12 0.733422 0.500000 0.250000
O O13 0.500000 0.457108 0.250000
O O14 0.661679 0.459884 0.000000
O O15 0.500000 0.275400 0.250000
O O16 0.663779 0.275398 0.000000
O O17 0.000000 0.948127 0.750000
O O18 0.790994 0.000000 0.750000
O O19 0.840348 0.955847 0.000000
#
# Coordination Sequence:
#
# PCOD9393159 Si02
#       6
#     8   8   8   8   8   8
#     4  12  25  42  61  84 111 144 182 226 275 330
#     4  12  25  43  64  90 120 154 192 235 281 331
#     4   8  15  25  39  59  88 124 165 207 255 308
#     4   9  14  20  30  49  78 117 159 202 247 300
#     4  10  19  34  54  78 106 140 178 222 270 324
#     4  11  22  40  64  93 125 162 201 241 284 332
#
# _framework density 18.665837
#
# number of rings (size 3 to 8) (size 9 to 14) (size 15 to 20)
#    0.000    1.667    0.000    7.500    0.000    1.667 
#    0.000    1.667    0.000    0.000    0.000    0.000 
#    0.000    0.667    0.000    7.667    0.000    4.500 
#
# Total GULP energy -267895.553752 kJ/mol
# GULP energy per Si atom -5581.157370 kJ/mol
# Density = 1.862335 g / cm^3
# Si number density = 18.665837 Si / 1000 Ang^3
#
#
#
# Elastic Constant Matrix: (Units=GPa)
#
#
# Indices 1 2 3 4 5 6 
#
# 1 78.8523 91.1028 41.5485 0.0000 0.0000 0.0000
# 2 91.1028 216.1102 75.4210 0.0000 0.0000 0.0000
# 3 41.5485 75.4210 148.1505 0.0000 0.0000 0.0000
# 4 0.0000 0.0000 0.0000 40.8525 0.0000 0.0000
# 5 0.0000 0.0000 0.0000 0.0000 23.8024 0.0000
# 6 0.0000 0.0000 0.0000 0.0000 0.0000 -38.4141
#
#
#
# Elastic Compliance Matrix: (Units=1/GPa)
#
#
# Indices 1 2 3 4 5 6 
#
# 1 0.025210 -0.009923 -0.002018 0.000000 0.000000 0.000000
# 2 -0.009923 0.009533 -0.002070 0.000000 0.000000 0.000000
# 3 -0.002018 -0.002070 0.008370 0.000000 0.000000 0.000000
# 4 0.000000 0.000000 0.000000 0.024478 0.000000 0.000000
# 5 0.000000 0.000000 0.000000 0.000000 0.042012 0.000000
# 6 0.000000 0.000000 0.000000 0.000000 0.000000 -0.026032
#
#
# Mechanical properties :
#
#
# Convention : Reuss Voigt Hill
#
# Bulk Modulus (GPa) = 66.27092 95.47305 80.87199
# Shear Modulus (GPa) = 42.87245 20.91756 31.89501
#
# Velocity S-wave (km/s) = 4.79774 3.35122 4.13817
# Velocity P-wave (km/s) = 8.14076 8.13842 8.13959
#
# Compressibility (1/GPa) = 0.01508957
#
# Stress axis : x y z
#
# Youngs Moduli (GPa) = 39.66630 104.89993 119.47672
#
# Poissons Ratio (x) = 1.04094 0.24116
# Poissons Ratio (y) = 0.39361 0.24733
# Poissons Ratio (z) = 0.08007 0.21715
#
# Static dielectric constant tensor:
#      x y z
#    x 1.599300 0.000000 0.000000 
#    y 0.000000 1.697000 0.000000 
#    z 0.000000 0.000000 1.625290 
# 
# From -- ./inp_files/2020.got.cif
#   From: 2010.05.17/outbox.cif.g08.bks.cpg/sg49_2_cif.got.tgz:2020.got - 2010.06.03 21:02:19.
