data_PCOD9393342
_publ_section_title
;
Structure prediction by ZEFSAII (Michael W. Deem and Ramdas Pophale) SiO2 
 PCOD9393342
Probable space group: P C C M
;
_chemical_formula_sum "Si O2"
_cell_formula_units_Z 52
_cell_length_a 19.030041
_cell_length_b 15.082774
_cell_length_c 9.490774
_cell_angle_alpha 90.000000
_cell_angle_beta 90.000000
_cell_angle_gamma 90.000000
_cell_volume 2724.097072
_symmetry_space_group_name_H-M "P C C M"
_symmetry_group_IT_number 49
_symmetry_cell_setting 'orthorhombic'
loop_
_space_group_symop_operation_xyz
x,y,z
-x,-y,z
x,-y,1/2-z
-x,y,1/2-z
-x,-y,-z
x,y,-z
-x,y,1/2+z
x,-y,1/2+z
loop_
_atom_site_type_symbol
_atom_site_label
_atom_site_fract_x
_atom_site_fract_y
_atom_site_fract_z
Si Si1 0.301160 0.259909 0.661029
Si Si2 0.611251 0.020555 0.500000
Si Si3 0.068066 0.649316 0.337646
Si Si4 0.583546 0.867113 0.733556
Si Si5 0.791321 0.081769 0.834097
Si Si6 0.930030 0.135902 0.334327
Si Si7 0.224692 0.410378 0.830246
O O1 0.294236 0.292792 0.500000
O O2 0.378922 0.223852 0.689816
O O3 0.253835 0.170786 0.672325
O O4 0.272017 0.331001 0.770261
O O5 0.598648 0.942620 0.618924
O O6 0.614829 0.096616 0.622028
O O7 0.056829 0.624950 0.500000
O O8 0.073301 0.756680 0.330256
O O9 0.143131 0.611317 0.292090
O O10 0.000000 0.621424 0.250000
O O11 0.500000 0.858823 0.750000
O O12 0.863781 0.099860 0.752095
O O13 0.757180 0.000000 0.750000
O O14 0.799791 0.059152 0.000000
O O15 0.930488 0.109644 0.500000
O O16 0.000000 0.109183 0.250000
O O17 0.244481 0.500000 0.750000
O O18 0.229116 0.416965 0.000000
#
# Coordination Sequence:
#
# PCOD9393342 Si02
#       7
#     8   4   8   8   8   8   8
#     4  11  25  41  62  90 124 163 206 250 306 367
#     4  10  21  36  60  94 134 174 211 248 299 358
#     4   9  19  35  60  90 119 152 192 246 310 373
#     4  11  21  37  60  93 133 172 212 255 298 356
#     4  11  24  38  55  83 118 158 203 248 296 352
#     4  10  19  36  58  81 112 151 198 247 297 354
#     4  11  24  44  66  92 123 160 204 255 313 373
#
# _framework density 19.088895000000001
#
# number of rings (size 3 to 8) (size 9 to 14) (size 15 to 20)
#    0.000    1.538    2.308    3.231    3.231    3.077 
#    0.000    3.077    0.000    0.462    0.000    2.154 
#    0.000    0.000    0.000    0.000    0.000    0.000 
#
# Total GULP energy -289537.492620 kJ/mol
# GULP energy per Si atom -5568.028704 kJ/mol
# Density = 1.904545 g / cm^3
# Si number density = 19.088895 Si / 1000 Ang^3
#
#
#
# Elastic Constant Matrix: (Units=GPa)
#
#
# Indices 1 2 3 4 5 6 
#
# 1 53.7303 19.4340 26.2648 0.0000 0.0000 0.0000
# 2 19.4340 70.1700 38.8758 0.0000 0.0000 0.0000
# 3 26.2648 38.8758 152.2136 0.0000 0.0000 0.0000
# 4 0.0000 0.0000 0.0000 39.7254 0.0000 0.0000
# 5 0.0000 0.0000 0.0000 0.0000 -24.2095 0.0000
# 6 0.0000 0.0000 0.0000 0.0000 0.0000 6.5883
#
#
#
# Elastic Compliance Matrix: (Units=1/GPa)
#
#
# Indices 1 2 3 4 5 6 
#
# 1 0.021501 -0.004542 -0.002550 0.000000 0.000000 0.000000
# 2 -0.004542 0.017559 -0.003701 0.000000 0.000000 0.000000
# 3 -0.002550 -0.003701 0.007955 0.000000 0.000000 0.000000
# 4 0.000000 0.000000 0.000000 0.025173 0.000000 0.000000
# 5 0.000000 0.000000 0.000000 0.000000 -0.041306 0.000000
# 6 0.000000 0.000000 0.000000 0.000000 0.000000 0.151785
#
#
# Mechanical properties :
#
#
# Convention : Reuss Voigt Hill
#
# Bulk Modulus (GPa) = 39.32484 49.47369 44.39926
# Shear Modulus (GPa) = 23.50402 17.19012 20.34707
#
# Velocity S-wave (km/s) = 3.51279 3.00414 3.26837
# Velocity P-wave (km/s) = 6.09085 6.16498 6.12803
#
# Compressibility (1/GPa) = 0.02542922
#
# Stress axis : x y z
#
# Youngs Moduli (GPa) = 46.50992 56.94929 125.70775
#
# Poissons Ratio (x) = 0.25867 0.32055
# Poissons Ratio (y) = 0.21125 0.46524
# Poissons Ratio (z) = 0.11860 0.21077
#
# Static dielectric constant tensor:
#      x y z
#    x 1.703340 0.000000 0.000000 
#    y 0.000000 1.665850 0.000000 
#    z 0.000000 0.000000 1.646810 
# 
# From -- ./inp_files/5734.got.cif
#   From: 2010.05.17/outbox.cif.g08.bks.cpg/sg49_3_cif.got.tgz:5734.got - 2010.06.03 21:02:19.
