data_PCOD9393198
_publ_section_title
;
Structure prediction by ZEFSAII (Michael W. Deem and Ramdas Pophale) SiO2 
 PCOD9393198
Probable space group: P C C M
;
_chemical_formula_sum "Si O2"
_cell_formula_units_Z 56
_cell_length_a 21.647227
_cell_length_b 14.142097
_cell_length_c 9.556946
_cell_angle_alpha 90.000000
_cell_angle_beta 90.000000
_cell_angle_gamma 90.000000
_cell_volume 2925.736536
_symmetry_space_group_name_H-M "P C C M"
_symmetry_group_IT_number 49
_symmetry_cell_setting 'orthorhombic'
loop_
_space_group_symop_operation_xyz
x,y,z
-x,-y,z
x,-y,1/2-z
-x,y,1/2-z
-x,-y,-z
x,y,-z
-x,y,1/2+z
x,-y,1/2+z
loop_
_atom_site_type_symbol
_atom_site_label
_atom_site_fract_x
_atom_site_fract_y
_atom_site_fract_z
Si Si1 0.694212 0.087313 0.660182
Si Si2 0.441921 0.599698 0.330879
Si Si3 0.939304 0.635259 0.339077
Si Si4 0.836824 0.122982 0.650283
Si Si5 0.688595 0.300429 0.331754
Si Si6 0.820477 0.648669 0.839471
Si Si7 0.943138 0.865723 0.655096
O O1 0.671242 0.083464 0.500000
O O2 0.768707 0.081236 0.654469
O O3 0.683900 0.192494 0.720902
O O4 0.670099 0.000000 0.750000
O O5 0.436296 0.500000 0.250000
O O6 0.500000 0.647112 0.250000
O O7 0.452285 0.591047 0.500000
O O8 0.376621 0.650484 0.309504
O O9 0.940932 0.601121 0.500000
O O10 0.875614 0.611393 0.258189
O O11 0.941094 0.750469 0.345469
O O12 0.000000 0.607516 0.250000
O O13 0.866312 0.100024 0.500000
O O14 0.829349 0.237292 0.652693
O O15 0.879426 0.099990 0.779737
O O16 0.698676 0.292125 0.500000
O O17 0.749794 0.357549 0.283288
O O18 0.825448 0.612564 0.000000
O O19 0.951877 0.899389 0.500000
O O20 0.000000 0.892933 0.750000
#
# Coordination Sequence:
#
# PCOD9393198 Si02
#       7
#     8   8   8   8   8   8   8
#     4   9  17  30  47  68  92 123 162 204 247 291
#     4  10  19  34  56  83 113 143 172 202 239 291
#     4   9  15  21  30  49  78 113 151 196 245 293
#     4   8  14  24  37  52  74 103 140 186 237 288
#     4   8  16  31  51  72 100 137 171 204 250 303
#     4   8  13  24  40  57  79 114 157 198 240 290
#     4   9  15  21  31  47  68  96 136 184 238 293
#
# _framework density 19.140478999999999
#
# number of rings (size 3 to 8) (size 9 to 14) (size 15 to 20)
#    0.000    3.286    0.000    3.429    0.000    4.000 
#    0.000    5.000    0.000    0.857    0.000    6.000 
#    0.000    0.571    0.000    6.571    0.000    8.000 
#
# Total GULP energy -312017.236831 kJ/mol
# GULP energy per Si atom -5571.736372 kJ/mol
# Density = 1.909691 g / cm^3
# Si number density = 19.140479 Si / 1000 Ang^3
#
#
#
# Elastic Constant Matrix: (Units=GPa)
#
#
# Indices 1 2 3 4 5 6 
#
# 1 137.9916 26.1140 66.1109 0.0000 0.0000 0.0000
# 2 26.1140 48.5240 21.2447 0.0000 0.0000 0.0000
# 3 66.1109 21.2447 119.6218 0.0000 0.0000 0.0000
# 4 0.0000 0.0000 0.0000 13.3619 0.0000 0.0000
# 5 0.0000 0.0000 0.0000 0.0000 19.6677 0.0000
# 6 0.0000 0.0000 0.0000 0.0000 0.0000 8.4404
#
#
#
# Elastic Compliance Matrix: (Units=1/GPa)
#
#
# Indices 1 2 3 4 5 6 
#
# 1 0.010327 -0.003317 -0.005118 0.000000 0.000000 0.000000
# 2 -0.003317 0.023411 -0.002325 0.000000 0.000000 0.000000
# 3 -0.005118 -0.002325 0.011601 0.000000 0.000000 0.000000
# 4 0.000000 0.000000 0.000000 0.074840 0.000000 0.000000
# 5 0.000000 0.000000 0.000000 0.000000 0.050845 0.000000
# 6 0.000000 0.000000 0.000000 0.000000 0.000000 0.118478
#
#
# Mechanical properties :
#
#
# Convention : Reuss Voigt Hill
#
# Bulk Modulus (GPa) = 41.98193 59.23072 50.60632
# Shear Modulus (GPa) = 15.67597 21.13853 18.40725
#
# Velocity S-wave (km/s) = 2.86491 3.32684 3.10448
# Velocity P-wave (km/s) = 5.73802 6.76532 6.27274
#
# Compressibility (1/GPa) = 0.02381977
#
# Stress axis : x y z
#
# Youngs Moduli (GPa) = 96.83816 42.71482 86.19826
#
# Poissons Ratio (x) = 0.14167 0.44117
# Poissons Ratio (y) = 0.32117 0.20039
# Poissons Ratio (z) = 0.49563 0.09930
#
# Static dielectric constant tensor:
#      x y z
#    x 1.673040 0.000000 0.000000 
#    y 0.000000 1.706090 0.000000 
#    z 0.000000 0.000000 1.662860 
# 
# From -- ./inp_files/5891.got.cif
#   From: 2010.05.17/outbox.cif.g08.bks.cpg/sg49_3_cif.got.tgz:5891.got - 2010.06.03 21:02:19.
