data_PCOD9393399
_publ_section_title
;
Structure prediction by ZEFSAII (Michael W. Deem and Ramdas Pophale) SiO2 
 PCOD9393399
Probable space group: P C C M
;
_chemical_formula_sum "Si O2"
_cell_formula_units_Z 58
_cell_length_a 12.311597
_cell_length_b 15.203814
_cell_length_c 14.699234
_cell_angle_alpha 90.000000
_cell_angle_beta 90.000000
_cell_angle_gamma 90.000000
_cell_volume 2751.450111
_symmetry_space_group_name_H-M "P C C M"
_symmetry_group_IT_number 49
_symmetry_cell_setting 'orthorhombic'
loop_
_space_group_symop_operation_xyz
x,y,z
-x,-y,z
x,-y,1/2-z
-x,y,1/2-z
-x,-y,-z
x,y,-z
-x,y,1/2+z
x,-y,1/2+z
loop_
_atom_site_type_symbol
_atom_site_label
_atom_site_fract_x
_atom_site_fract_y
_atom_site_fract_z
Si Si1 0.753487 0.710257 0.260259
Si Si2 0.595140 0.057203 0.104645
Si Si3 0.077373 0.784560 0.897194
Si Si4 0.827148 0.824705 0.099243
Si Si5 0.500000 0.500000 0.500000
Si Si6 0.441509 0.741360 0.100898
Si Si7 0.591998 0.399416 0.670664
Si Si8 0.834334 0.024085 0.848834
O O1 0.861250 0.726136 0.321625
O O2 0.761041 0.786303 0.183769
O O3 0.656769 0.723241 0.331843
O O4 0.711880 0.619947 0.211367
O O5 0.550314 0.154970 0.098790
O O6 0.708109 0.051071 0.155458
O O7 0.500000 0.000000 0.144782
O O8 0.617464 0.027605 0.000000
O O9 0.108869 0.888174 0.885743
O O10 0.947469 0.783128 0.890792
O O11 0.110986 0.759161 0.000000
O O12 0.839469 0.930467 0.101088
O O13 0.782085 0.800034 0.000000
O O14 0.580889 0.463056 0.583614
O O15 0.549155 0.694114 0.133179
O O16 0.416297 0.705539 0.000000
O O17 0.500000 0.415890 0.750000
O O18 0.877235 0.000000 0.750000
#
# Coordination Sequence:
#
# PCOD9393399 Si02
#       8
#     8   8   8   8   2   8   8   8
#     4  11  22  38  59  89 122 165 212 267 319 389
#     4  10  21  33  49  74 112 165 227 275 320 379
#     4  11  22  39  58  80 119 175 237 294 343 384
#     4  11  24  36  55  82 123 171 237 292 345 377
#     4  12  22  48  72 102 138 170 180 246 320 406
#     4  10  19  38  60  87 120 169 214 262 318 384
#     4  10  24  40  68  99 133 166 203 246 312 401
#     4  12  22  35  52  77 112 175 234 300 344 389
#
# _framework density 21.079792000000001
#
# number of rings (size 3 to 8) (size 9 to 14) (size 15 to 20)
#    0.000    1.241    3.448    2.690    2.897    1.931 
#    2.483    0.000    0.000    0.000    0.000    0.000 
#    0.000   52.966    0.000    0.000    0.000    0.000 
#
# Total GULP energy -323017.021219 kJ/mol
# GULP energy per Si atom -5569.258987 kJ/mol
# Density = 2.103181 g / cm^3
# Si number density = 21.079792 Si / 1000 Ang^3
#
#
#
# Elastic Constant Matrix: (Units=GPa)
#
#
# Indices 1 2 3 4 5 6 
#
# 1 45.1159 20.2690 17.8705 0.0000 0.0000 0.0000
# 2 20.2690 30.6676 24.8745 0.0000 0.0000 0.0000
# 3 17.8705 24.8745 154.7386 0.0000 0.0000 0.0000
# 4 0.0000 0.0000 0.0000 35.2578 0.0000 0.0000
# 5 0.0000 0.0000 0.0000 0.0000 21.7793 0.0000
# 6 0.0000 0.0000 0.0000 0.0000 0.0000 9.7902
#
#
#
# Elastic Compliance Matrix: (Units=1/GPa)
#
#
# Indices 1 2 3 4 5 6 
#
# 1 0.031541 -0.020575 -0.000335 0.000000 0.000000 0.000000
# 2 -0.020575 0.050918 -0.005809 0.000000 0.000000 0.000000
# 3 -0.000335 -0.005809 0.007435 0.000000 0.000000 0.000000
# 4 0.000000 0.000000 0.000000 0.028363 0.000000 0.000000
# 5 0.000000 0.000000 0.000000 0.000000 0.045915 0.000000
# 6 0.000000 0.000000 0.000000 0.000000 0.000000 0.102143
#
#
# Mechanical properties :
#
#
# Convention : Reuss Voigt Hill
#
# Bulk Modulus (GPa) = 27.43002 39.61669 33.52336
# Shear Modulus (GPa) = 15.06458 24.53266 19.79862
#
# Velocity S-wave (km/s) = 2.67619 3.41515 3.06800
# Velocity P-wave (km/s) = 4.75290 5.86391 5.33739
#
# Compressibility (1/GPa) = 0.03645641
#
# Stress axis : x y z
#
# Youngs Moduli (GPa) = 31.70442 19.63958 134.49843
#
# Poissons Ratio (x) = 0.40408 0.04509
# Poissons Ratio (y) = 0.65230 0.78130
# Poissons Ratio (z) = 0.01063 0.11409
#
# Static dielectric constant tensor:
#      x y z
#    x 1.708360 0.000000 0.000000 
#    y 0.000000 1.577470 0.000000 
#    z 0.000000 0.000000 1.796080 
# 
# From -- ./inp_files/13033.got.cif
#   From: 2010.05.17/outbox.cif.g08.bks.cpg/sg49_7_cif.got.tgz:13033.got - 2010.06.03 21:02:19.
