data_PCOD9393747
_publ_section_title
;
Structure prediction by ZEFSAII (Michael W. Deem and Ramdas Pophale) SiO2 
 PCOD9393747
Probable space group: P C C M
;
_chemical_formula_sum "Si O2"
_cell_formula_units_Z 56
_cell_length_a 30.833154
_cell_length_b 4.955296
_cell_length_c 17.430534
_cell_angle_alpha 90.000000
_cell_angle_beta 90.000000
_cell_angle_gamma 90.000000
_cell_volume 2663.166052
_symmetry_space_group_name_H-M "P C C M"
_symmetry_group_IT_number 49
_symmetry_cell_setting 'orthorhombic'
loop_
_space_group_symop_operation_xyz
x,y,z
-x,-y,z
x,-y,1/2-z
-x,y,1/2-z
-x,-y,-z
x,y,-z
-x,y,1/2+z
x,-y,1/2+z
loop_
_atom_site_type_symbol
_atom_site_label
_atom_site_fract_x
_atom_site_fract_y
_atom_site_fract_z
Si Si1 0.774756 0.003287 0.662498
Si Si2 0.185174 0.506793 0.909535
Si Si3 0.909101 0.591940 0.662125
Si Si4 0.542015 0.647639 0.587385
Si Si5 0.320198 0.765499 0.303744
Si Si6 0.397889 0.869287 0.413878
Si Si7 0.950032 0.088828 0.411503
O O1 0.802445 0.201078 0.609822
O O2 0.726705 0.128412 0.668472
O O3 0.791777 0.000000 0.750000
O O4 0.779138 0.705034 0.628354
O O5 0.139396 0.564135 0.869766
O O6 0.182723 0.551265 0.000000
O O7 0.911224 0.500000 0.750000
O O8 0.940452 0.394000 0.613466
O O9 0.923940 0.895385 0.645690
O O10 0.500000 0.500000 0.624323
O O11 0.528588 0.731952 0.500000
O O12 0.574936 0.402456 0.581823
O O13 0.569494 0.900616 0.620408
O O14 0.316400 0.500000 0.250000
O O15 0.354200 0.773704 0.372255
O O16 0.338250 0.000000 0.250000
O O17 0.387170 0.968371 0.500000
O O18 0.935709 0.050775 0.500000
O O19 0.000000 0.000000 0.406871
#
# Coordination Sequence:
#
# PCOD9393747 Si02
#       7
#     8   8   8   8   8   8   8
#     4  11  23  43  65  89 121 163 208 250 308 381
#     4  12  25  42  65  94 126 160 203 259 318 371
#     4  12  25  42  65  94 128 167 210 257 309 376
#     4   9  17  31  53  83 117 152 194 245 299 352
#     4  11  23  41  62  86 120 162 200 246 311 378
#     4  10  20  34  57  87 116 151 199 251 296 354
#     4  11  24  43  66  93 128 168 210 260 316 370
#
# _framework density 21.027602999999999
#
# number of rings (size 3 to 8) (size 9 to 14) (size 15 to 20)
#    0.000    1.143    0.000    7.714    0.000    5.714 
#    0.000    1.429    0.000    6.429    0.000    0.000 
#    0.000    0.000    0.000    0.000    0.000    0.000 
#
# Total GULP energy -312684.174223 kJ/mol
# GULP energy per Si atom -5583.645968 kJ/mol
# Density = 2.097974 g / cm^3
# Si number density = 21.027603 Si / 1000 Ang^3
#
#
#
# Elastic Constant Matrix: (Units=GPa)
#
#
# Indices 1 2 3 4 5 6 
#
# 1 71.1213 2.1766 22.6521 0.0000 0.0000 0.0000
# 2 2.1766 88.3632 -2.2224 0.0000 0.0000 0.0000
# 3 22.6521 -2.2224 93.6459 0.0000 0.0000 0.0000
# 4 0.0000 0.0000 0.0000 26.2920 0.0000 0.0000
# 5 0.0000 0.0000 0.0000 0.0000 13.4569 0.0000
# 6 0.0000 0.0000 0.0000 0.0000 0.0000 44.3196
#
#
#
# Elastic Compliance Matrix: (Units=1/GPa)
#
#
# Indices 1 2 3 4 5 6 
#
# 1 0.015254 -0.000469 -0.003701 0.000000 0.000000 0.000000
# 2 -0.000469 0.011338 0.000382 0.000000 0.000000 0.000000
# 3 -0.003701 0.000382 0.011583 0.000000 0.000000 0.000000
# 4 0.000000 0.000000 0.000000 0.038034 0.000000 0.000000
# 5 0.000000 0.000000 0.000000 0.000000 0.074311 0.000000
# 6 0.000000 0.000000 0.000000 0.000000 0.000000 0.022563
#
#
# Mechanical properties :
#
#
# Convention : Reuss Voigt Hill
#
# Bulk Modulus (GPa) = 32.67961 33.14923 32.91442
# Shear Modulus (GPa) = 26.19755 32.18200 29.18977
#
# Velocity S-wave (km/s) = 3.53351 3.91636 3.72985
# Velocity P-wave (km/s) = 5.67650 6.02074 5.85115
#
# Compressibility (1/GPa) = 0.03060012
#
# Stress axis : x y z
#
# Youngs Moduli (GPa) = 65.55858 88.19820 86.33496
#
# Poissons Ratio (x) = 0.04135 0.31951
# Poissons Ratio (y) = 0.03073 -0.03302
# Poissons Ratio (z) = 0.24262 -0.03373
#
# Static dielectric constant tensor:
#      x y z
#    x 1.767730 0.000000 0.000000 
#    y 0.000000 1.727150 0.000000 
#    z 0.000000 0.000000 1.803380 
# 
# From -- ./inp_files/14610.got.cif
#   From: 2010.05.17/outbox.cif.g08.bks.cpg/sg49_8_cif.got.tgz:14610.got - 2010.06.03 21:02:19.
