data_PCOD9393021
_publ_section_title
;
Structure prediction by ZEFSAII (Michael W. Deem and Ramdas Pophale) SiO2 
 PCOD9393021
Probable space group: P C C M
;
_chemical_formula_sum "Si O2"
_cell_formula_units_Z 64
_cell_length_a 15.737741
_cell_length_b 25.377607
_cell_length_c 8.564164
_cell_angle_alpha 90.000000
_cell_angle_beta 90.000000
_cell_angle_gamma 90.000000
_cell_volume 3420.408969
_symmetry_space_group_name_H-M "P C C M"
_symmetry_group_IT_number 49
_symmetry_cell_setting 'orthorhombic'
loop_
_space_group_symop_operation_xyz
x,y,z
-x,-y,z
x,-y,1/2-z
-x,y,1/2-z
-x,-y,-z
x,y,-z
-x,y,1/2+z
x,-y,1/2+z
loop_
_atom_site_type_symbol
_atom_site_label
_atom_site_fract_x
_atom_site_fract_y
_atom_site_fract_z
Si Si1 0.367878 0.709162 0.185419
Si Si2 0.772479 0.557098 0.187857
Si Si3 0.815575 0.733720 0.187517
Si Si4 0.909789 0.639322 0.313945
Si Si5 0.588676 0.823547 0.812965
Si Si6 0.906582 0.058815 0.311674
Si Si7 0.587708 0.595855 0.186172
Si Si8 0.224054 0.147884 0.810763
O O1 0.268762 0.710799 0.231535
O O2 0.404537 0.763000 0.256685
O O3 0.405789 0.656269 0.257039
O O4 0.379272 0.709260 0.000000
O O5 0.798172 0.500000 0.250000
O O6 0.835053 0.601312 0.254325
O O7 0.675145 0.568426 0.238566
O O8 0.775553 0.558806 0.000000
O O9 0.891702 0.697433 0.244941
O O10 0.817248 0.795507 0.229623
O O11 0.806359 0.729630 0.000000
O O12 0.909948 0.641109 0.500000
O O13 0.000000 0.620067 0.250000
O O14 0.500000 0.846059 0.750000
O O15 0.677130 0.850668 0.759145
O O16 0.587238 0.824145 0.000000
O O17 0.908799 0.057966 0.500000
O O18 0.834455 0.099805 0.257784
O O19 0.000000 0.074330 0.250000
O O20 0.889519 0.000000 0.250000
O O21 0.500000 0.572548 0.250000
O O22 0.585318 0.594960 0.000000
O O23 0.226181 0.145705 0.000000
#
# Coordination Sequence:
#
# PCOD9393021 Si02
#       8
#     8   8   8   8   8   8   8   8
#     4  11  20  32  53  81 113 151 191 230 277 336
#     4  11  25  45  67  88 115 149 189 240 291 343
#     4  10  19  36  58  84 118 153 188 231 285 339
#     4  12  25  42  65  91 119 152 190 234 286 347
#     4  10  19  33  51  76 111 151 191 236 283 334
#     4  10  19  35  56  82 111 147 190 237 288 337
#     4  11  23  38  59  85 116 151 189 234 284 339
#     4   8  18  34  55  80 114 154 190 231 284 340
#
# _framework density 18.711213000000001
#
# number of rings (size 3 to 8) (size 9 to 14) (size 15 to 20)
#    0.000    1.625    1.250    5.625    0.000    2.500 
#    0.000   11.250    0.000    0.375    0.000    2.625 
#    0.000    0.000    0.000    0.000    0.000    0.000 
#
# Total GULP energy -357486.452937 kJ/mol
# GULP energy per Si atom -5585.725827 kJ/mol
# Density = 1.866863 g / cm^3
# Si number density = 18.711213 Si / 1000 Ang^3
#
#
#
# Elastic Constant Matrix: (Units=GPa)
#
#
# Indices 1 2 3 4 5 6 
#
# 1 125.9101 61.6779 27.4958 0.0000 0.0000 0.0000
# 2 61.6779 85.6620 16.0551 0.0000 0.0000 0.0000
# 3 27.4958 16.0551 56.9348 0.0000 0.0000 0.0000
# 4 0.0000 0.0000 0.0000 16.6449 0.0000 0.0000
# 5 0.0000 0.0000 0.0000 0.0000 -12.6285 0.0000
# 6 0.0000 0.0000 0.0000 0.0000 0.0000 -15.8796
#
#
#
# Elastic Compliance Matrix: (Units=1/GPa)
#
#
# Indices 1 2 3 4 5 6 
#
# 1 0.013022 -0.008655 -0.003848 0.000000 0.000000 0.000000
# 2 -0.008655 0.018077 -0.000918 0.000000 0.000000 0.000000
# 3 -0.003848 -0.000918 0.019681 0.000000 0.000000 0.000000
# 4 0.000000 0.000000 0.000000 0.060079 0.000000 0.000000
# 5 0.000000 0.000000 0.000000 0.000000 -0.079186 0.000000
# 6 0.000000 0.000000 0.000000 0.000000 0.000000 -0.062974
#
#
# Mechanical properties :
#
#
# Convention : Reuss Voigt Hill
#
# Bulk Modulus (GPa) = 41.77334 53.21829 47.49581
# Shear Modulus (GPa) = 1419.85183 8.51257 714.18220
#
# Velocity S-wave (km/s) = 27.57665 2.13526 19.55800
# Velocity P-wave (km/s) = 32.19217 5.88071 23.13999
#
# Compressibility (1/GPa) = 0.02393871
#
# Stress axis : x y z
#
# Youngs Moduli (GPa) = 76.79189 55.31743 50.80977
#
# Poissons Ratio (x) = 0.47877 0.19553
# Poissons Ratio (y) = 0.66463 0.04664
# Poissons Ratio (z) = 0.29552 0.05078
#
# Static dielectric constant tensor:
#      x y z
#    x 1.724480 0.000000 0.000000 
#    y 0.000000 1.623800 0.000000 
#    z 0.000000 0.000000 1.627640 
# 
# From -- ./inp_files/4397.got.cif
#   From: 2010.05.17/outbox.cif.g08.bks.cpg/sg49_3_cif.got.tgz:4397.got - 2010.06.03 21:02:19.
