data_PCOD9393871
_publ_section_title
;
Structure prediction by ZEFSAII (Michael W. Deem and Ramdas Pophale) SiO2 
 PCOD9393871
Probable space group: P C C M
;
_chemical_formula_sum "Si O2"
_cell_formula_units_Z 64
_cell_length_a 11.591610
_cell_length_b 8.269284
_cell_length_c 33.275817
_cell_angle_alpha 90.000000
_cell_angle_beta 90.000000
_cell_angle_gamma 90.000000
_cell_volume 3189.630648
_symmetry_space_group_name_H-M "P C C M"
_symmetry_group_IT_number 49
_symmetry_cell_setting 'orthorhombic'
loop_
_space_group_symop_operation_xyz
x,y,z
-x,-y,z
x,-y,1/2-z
-x,y,1/2-z
-x,-y,-z
x,y,-z
-x,y,1/2+z
x,-y,1/2+z
loop_
_atom_site_type_symbol
_atom_site_label
_atom_site_fract_x
_atom_site_fract_y
_atom_site_fract_z
Si Si1 0.136557 0.805115 0.245808
Si Si2 0.782496 0.278813 0.330475
Si Si3 0.615692 0.918339 0.111839
Si Si4 0.021910 0.809717 0.956455
Si Si5 0.238008 0.332419 0.662313
Si Si6 0.004309 0.311720 0.373578
Si Si7 0.295480 0.176719 0.453926
Si Si8 0.440745 0.664109 0.104770
O O1 0.211432 0.740556 0.282988
O O2 0.196858 0.735537 0.205495
O O3 0.000000 0.754696 0.250000
O O4 0.138254 0.000000 0.250000
O O5 0.697583 0.160535 0.354755
O O6 0.761497 0.470191 0.339034
O O7 0.910693 0.229506 0.345522
O O8 0.549320 0.771045 0.090784
O O9 0.500000 0.000000 0.130343
O O10 0.673381 0.032807 0.078016
O O11 0.969324 0.715770 0.919293
O O12 0.159456 0.793147 0.955660
O O13 0.976706 0.759075 0.000000
O O14 0.000000 0.000000 0.951288
O O15 0.135469 0.263182 0.634102
O O16 0.359292 0.282243 0.642435
O O17 0.000000 0.500000 0.363388
O O18 0.333324 0.143788 0.500000
O O19 0.356011 0.331278 0.433350
O O20 0.500000 0.500000 0.117045
#
# Coordination Sequence:
#
# PCOD9393871 Si02
#       8
#     8   8   8   8   8   8   8   8
#     4  11  25  40  63 100 130 158 204 271 322 378
#     4  11  22  41  65  92 125 165 213 256 323 380
#     4  10  23  39  64  90 123 169 211 260 314 382
#     4  10  20  35  56  88 127 165 204 254 317 383
#     4  11  22  41  65  93 123 165 210 260 323 385
#     4  10  21  35  62  91 120 160 206 256 312 376
#     4  10  22  40  63  92 127 167 215 270 323 375
#     4  11  22  41  66  89 125 166 216 263 318 386
#
# _framework density 20.065017999999998
#
# number of rings (size 3 to 8) (size 9 to 14) (size 15 to 20)
#    0.000    1.500    3.750    1.125    3.500    4.250 
#    0.000    0.625    0.000    0.750    0.000    0.000 
#    0.000    0.000    0.000    0.000    0.000    0.000 
#
# Total GULP energy -356389.021804 kJ/mol
# GULP energy per Si atom -5568.578466 kJ/mol
# Density = 2.001935 g / cm^3
# Si number density = 20.065018 Si / 1000 Ang^3
#
#
#
# Elastic Constant Matrix: (Units=GPa)
#
#
# Indices 1 2 3 4 5 6 
#
# 1 49.6020 18.3680 33.1480 0.0000 0.0000 0.0000
# 2 18.3680 23.3556 17.3032 0.0000 0.0000 0.0000
# 3 33.1480 17.3032 129.1793 0.0000 0.0000 0.0000
# 4 0.0000 0.0000 0.0000 34.1059 0.0000 0.0000
# 5 0.0000 0.0000 0.0000 0.0000 140.2990 0.0000
# 6 0.0000 0.0000 0.0000 0.0000 0.0000 27.1945
#
#
#
# Elastic Compliance Matrix: (Units=1/GPa)
#
#
# Indices 1 2 3 4 5 6 
#
# 1 0.031372 -0.020770 -0.005268 0.000000 0.000000 0.000000
# 2 -0.020770 0.061284 -0.002879 0.000000 0.000000 0.000000
# 3 -0.005268 -0.002879 0.009479 0.000000 0.000000 0.000000
# 4 0.000000 0.000000 0.000000 0.029320 0.000000 0.000000
# 5 0.000000 0.000000 0.000000 0.000000 0.007128 0.000000
# 6 0.000000 0.000000 0.000000 0.000000 0.000000 0.036772
#
#
# Mechanical properties :
#
#
# Convention : Reuss Voigt Hill
#
# Bulk Modulus (GPa) = 22.57316 37.75281 30.16299
# Shear Modulus (GPa) = 20.16488 49.20773 34.68631
#
# Velocity S-wave (km/s) = 3.17358 4.95756 4.16227
# Velocity P-wave (km/s) = 4.97023 7.18512 6.17775
#
# Compressibility (1/GPa) = 0.04430040
#
# Stress axis : x y z
#
# Youngs Moduli (GPa) = 31.87526 16.31757 105.49984
#
# Poissons Ratio (x) = 0.33891 0.55580
# Poissons Ratio (y) = 0.66204 0.30375
# Poissons Ratio (z) = 0.16793 0.04698
#
# Static dielectric constant tensor:
#      x y z
#    x 1.738060 0.000000 0.000000 
#    y 0.000000 1.833460 0.000000 
#    z 0.000000 0.000000 1.710090 
# 
# From -- ./inp_files/26668.got.cif
#   From: 2010.05.17/outbox.cif.g08.bks.cpg/sg49_14_cif.got.tgz:26668.got - 2010.06.03 21:02:19.
