data_PCOD9393619
_publ_section_title
;
Structure prediction by ZEFSAII (Michael W. Deem and Ramdas Pophale) SiO2 
 PCOD9393619
Probable space group: P C C M
;
_chemical_formula_sum "Si O2"
_cell_formula_units_Z 56
_cell_length_a 15.487556
_cell_length_b 21.996275
_cell_length_c 8.453992
_cell_angle_alpha 90.000000
_cell_angle_beta 90.000000
_cell_angle_gamma 90.000000
_cell_volume 2880.009119
_symmetry_space_group_name_H-M "P C C M"
_symmetry_group_IT_number 49
_symmetry_cell_setting 'orthorhombic'
loop_
_space_group_symop_operation_xyz
x,y,z
-x,-y,z
x,-y,1/2-z
-x,y,1/2-z
-x,-y,-z
x,y,-z
-x,y,1/2+z
x,-y,1/2+z
loop_
_atom_site_type_symbol
_atom_site_label
_atom_site_fract_x
_atom_site_fract_y
_atom_site_fract_z
Si Si1 0.901741 0.934851 0.311856
Si Si2 0.096440 0.567604 0.811211
Si Si3 0.838446 0.194929 0.321969
Si Si4 0.592680 0.690076 0.317924
Si Si5 0.334377 0.184115 0.321785
Si Si6 0.788466 0.676967 0.189849
Si Si7 0.401908 0.061967 0.809612
O O1 0.899352 0.937413 0.500000
O O2 0.864535 0.868877 0.258883
O O3 0.000000 0.933992 0.250000
O O4 0.864104 0.000000 0.250000
O O5 0.117798 0.500000 0.750000
O O6 0.163534 0.617073 0.748582
O O7 0.000000 0.581983 0.750000
O O8 0.095769 0.567340 0.000000
O O9 0.873723 0.193425 0.500000
O O10 0.734882 0.194088 0.314974
O O11 0.845550 0.263691 0.252241
O O12 0.500000 0.669066 0.250000
O O13 0.596642 0.670889 0.500000
O O14 0.594265 0.763832 0.311677
O O15 0.687306 0.675290 0.243579
O O16 0.296304 0.189548 0.500000
O O17 0.365665 0.117479 0.288833
O O18 0.789569 0.680422 0.000000
O O19 0.500000 0.059664 0.750000
O O20 0.358754 0.000000 0.750000
O O21 0.396906 0.068290 0.000000
#
# Coordination Sequence:
#
# PCOD9393619 Si02
#       7
#     8   8   8   8   8   8   8
#     4  11  22  38  58  78 103 137 181 231 286 350
#     4  11  22  39  64  94 129 166 205 243 288 346
#     4  10  21  37  56  80 109 141 180 228 282 337
#     4  10  20  34  55  82 113 151 194 240 291 346
#     4  10  20  34  51  73 100 131 171 219 273 332
#     4  10  21  38  60  88 123 159 199 248 299 350
#     4  11  21  33  47  64  88 120 160 207 262 322
#
# _framework density 19.444382999999998
#
# number of rings (size 3 to 8) (size 9 to 14) (size 15 to 20)
#    0.000    1.571    0.000    7.286    0.000    5.714 
#    0.000    2.857    0.000    0.429    0.000    3.000 
#    0.000    0.000    0.000    0.000    0.000    0.000 
#
# Total GULP energy -311790.396838 kJ/mol
# GULP energy per Si atom -5567.685658 kJ/mol
# Density = 1.940013 g / cm^3
# Si number density = 19.444383 Si / 1000 Ang^3
#
#
#
# Elastic Constant Matrix: (Units=GPa)
#
#
# Indices 1 2 3 4 5 6 
#
# 1 68.2658 63.9168 35.0704 0.0000 0.0000 0.0000
# 2 63.9168 125.9941 47.2481 0.0000 0.0000 0.0000
# 3 35.0704 47.2481 133.0085 0.0000 0.0000 0.0000
# 4 0.0000 0.0000 0.0000 2.4446 0.0000 0.0000
# 5 0.0000 0.0000 0.0000 0.0000 29.2249 0.0000
# 6 0.0000 0.0000 0.0000 0.0000 0.0000 3.8024
#
#
#
# Elastic Compliance Matrix: (Units=1/GPa)
#
#
# Indices 1 2 3 4 5 6 
#
# 1 0.028759 -0.013551 -0.002769 0.000000 0.000000 0.000000
# 2 -0.013551 0.015542 -0.001948 0.000000 0.000000 0.000000
# 3 -0.002769 -0.001948 0.008940 0.000000 0.000000 0.000000
# 4 0.000000 0.000000 0.000000 0.409072 0.000000 0.000000
# 5 0.000000 0.000000 0.000000 0.000000 0.034217 0.000000
# 6 0.000000 0.000000 0.000000 0.000000 0.000000 0.262994
#
#
# Mechanical properties :
#
#
# Convention : Reuss Voigt Hill
#
# Bulk Modulus (GPa) = 59.86221 68.85987 64.36104
# Shear Modulus (GPa) = 6.23730 19.16324 12.70027
#
# Velocity S-wave (km/s) = 1.79297 3.14274 2.55847
# Velocity P-wave (km/s) = 5.92786 6.97565 6.47299
#
# Compressibility (1/GPa) = 0.01670503
#
# Stress axis : x y z
#
# Youngs Moduli (GPa) = 34.77188 64.34309 111.85175
#
# Poissons Ratio (x) = 0.87191 0.30974
# Poissons Ratio (y) = 0.47119 0.21787
# Poissons Ratio (z) = 0.09629 0.12533
#
# Static dielectric constant tensor:
#      x y z
#    x 1.689570 0.000000 0.000000 
#    y 0.000000 1.811520 0.000000 
#    z 0.000000 0.000000 1.712410 
# 
# From -- ./inp_files/4102.got.cif
#   From: 2010.05.17/outbox.cif.g08.bks.cpg/sg49_3_cif.got.tgz:4102.got - 2010.06.03 21:02:19.
