data_PCOD9393140
_publ_section_title
;
Structure prediction by ZEFSAII (Michael W. Deem and Ramdas Pophale) SiO2 
 PCOD9393140
Probable space group: P C C M
;
_chemical_formula_sum "Si O2"
_cell_formula_units_Z 48
_cell_length_a 14.260353
_cell_length_b 20.528387
_cell_length_c 7.902068
_cell_angle_alpha 90.000000
_cell_angle_beta 90.000000
_cell_angle_gamma 90.000000
_cell_volume 2313.267547
_symmetry_space_group_name_H-M "P C C M"
_symmetry_group_IT_number 49
_symmetry_cell_setting 'orthorhombic'
loop_
_space_group_symop_operation_xyz
x,y,z
-x,-y,z
x,-y,1/2-z
-x,y,1/2-z
-x,-y,-z
x,y,-z
-x,y,1/2+z
x,-y,1/2+z
loop_
_atom_site_type_symbol
_atom_site_label
_atom_site_fract_x
_atom_site_fract_y
_atom_site_fract_z
Si Si1 0.692085 0.429743 0.797127
Si Si2 0.100274 0.256972 0.191283
Si Si3 0.608735 0.289662 0.795498
Si Si4 0.258923 0.821945 0.810926
Si Si5 0.900434 0.596764 0.703010
Si Si6 0.108515 0.075160 0.701457
O O1 0.647791 0.500000 0.750000
O O2 0.650433 0.359987 0.735538
O O3 0.801139 0.432341 0.742255
O O4 0.688791 0.426455 0.000000
O O5 0.178224 0.232551 0.317519
O O6 0.097259 0.334026 0.204281
O O7 0.000000 0.232107 0.250000
O O8 0.120852 0.236756 0.000000
O O9 0.500000 0.288518 0.750000
O O10 0.658770 0.222696 0.730785
O O11 0.620433 0.288324 0.000000
O O12 0.195924 0.880677 0.731845
O O13 0.289171 0.842509 0.000000
O O14 0.897986 0.605234 0.500000
O O15 0.000000 0.565883 0.750000
O O16 0.111954 0.082628 0.500000
O O17 0.000000 0.090623 0.750000
O O18 0.123248 0.000000 0.750000
#
# Coordination Sequence:
#
# PCOD9393140 Si02
#       6
#     8   8   8   8   8   8
#     4  10  22  39  59  79 110 146 182 232 286 345
#     4  11  20  29  48  78 109 142 181 224 267 320
#     4  10  22  42  62  83 110 140 182 240 298 347
#     4  10  20  37  58  80 113 151 188 231 283 330
#     4  10  19  34  52  74 107 145 180 221 272 327
#     4  10  20  34  56  85 123 164 193 227 266 318
#
# _framework density 20.749870000000001
#
# number of rings (size 3 to 8) (size 9 to 14) (size 15 to 20)
#    0.000    1.833    1.667    4.500    0.000    6.000 
#    0.000    3.333    0.000    0.500    0.000    3.500 
#    0.000    0.000    0.000    0.000    0.000    0.000 
#
# Total GULP energy -267297.565553 kJ/mol
# GULP energy per Si atom -5568.699282 kJ/mol
# Density = 2.070264 g / cm^3
# Si number density = 20.749870 Si / 1000 Ang^3
#
#
#
# Elastic Constant Matrix: (Units=GPa)
#
#
# Indices 1 2 3 4 5 6 
#
# 1 131.7017 66.0051 1.4232 0.0000 0.0000 0.0000
# 2 66.0051 169.5686 5.6873 0.0000 0.0000 0.0000
# 3 1.4232 5.6873 56.1030 0.0000 0.0000 0.0000
# 4 0.0000 0.0000 0.0000 -0.2587 0.0000 0.0000
# 5 0.0000 0.0000 0.0000 0.0000 22.5540 0.0000
# 6 0.0000 0.0000 0.0000 0.0000 0.0000-1682.9637
#
#
#
# Elastic Compliance Matrix: (Units=1/GPa)
#
#
# Indices 1 2 3 4 5 6 
#
# 1 0.009434 -0.003677 0.000133 0.000000 0.000000 0.000000
# 2 -0.003677 0.007350 -0.000652 0.000000 0.000000 0.000000
# 3 0.000133 -0.000652 0.017887 0.000000 0.000000 0.000000
# 4 0.000000 0.000000 0.000000 -3.865852 0.000000 0.000000
# 5 0.000000 0.000000 0.000000 0.000000 0.044338 0.000000
# 6 0.000000 0.000000 0.000000 0.000000 0.000000 -0.000594
#
#
# Mechanical properties :
#
#
# Convention : Reuss Voigt Hill
#
# Bulk Modulus (GPa) = 38.05009 55.95607 47.00308
# Shear Modulus (GPa) = -1.32616 -313.18315 -157.25466
#
# Velocity S-wave (km/s) = -0.80032 -12.29879 -8.71495
# Velocity P-wave (km/s) = 4.18609 13.21570 8.86373
#
# Compressibility (1/GPa) = 0.02628115
#
# Stress axis : x y z
#
# Youngs Moduli (GPa) = 105.99782 136.04769 55.90640
#
# Poissons Ratio (x) = 0.50021 -0.00746
# Poissons Ratio (y) = 0.38973 0.03644
# Poissons Ratio (z) = -0.01414 0.08868
#
# Static dielectric constant tensor:
#      x y z
#    x 1.748720 0.000000 0.000000 
#    y 0.000000 1.802560 0.000000 
#    z 0.000000 0.000000 1.786970 
# 
# From -- ./inp_files/3854.got.cif
#   From: 2010.05.17/outbox.cif.g08.bks.cpg/sg49_2_cif.got.tgz:3854.got - 2010.06.03 21:02:19.
