data_PCOD9393620
_publ_section_title
;
Structure prediction by ZEFSAII (Michael W. Deem and Ramdas Pophale) SiO2 
 PCOD9393620
Probable space group: P C C M
;
_chemical_formula_sum "Si O2"
_cell_formula_units_Z 58
_cell_length_a 36.983525
_cell_length_b 10.192065
_cell_length_c 8.854777
_cell_angle_alpha 90.000000
_cell_angle_beta 90.000000
_cell_angle_gamma 90.000000
_cell_volume 3337.706278
_symmetry_space_group_name_H-M "P C C M"
_symmetry_group_IT_number 49
_symmetry_cell_setting 'orthorhombic'
loop_
_space_group_symop_operation_xyz
x,y,z
-x,-y,z
x,-y,1/2-z
-x,y,1/2-z
-x,-y,-z
x,y,-z
-x,y,1/2+z
x,-y,1/2+z
loop_
_atom_site_type_symbol
_atom_site_label
_atom_site_fract_x
_atom_site_fract_y
_atom_site_fract_z
Si Si1 0.181106 0.142117 0.182441
Si Si2 0.606904 0.353802 0.179836
Si Si3 0.500000 0.000000 0.250000
Si Si4 0.239845 0.354668 0.181660
Si Si5 0.535516 0.742647 0.169101
Si Si6 0.320260 0.646540 0.680938
Si Si7 0.038880 0.356738 0.182258
Si Si8 0.098054 0.858802 0.318498
O O1 0.208871 0.254525 0.232276
O O2 0.139514 0.172531 0.225841
O O3 0.190192 0.000000 0.250000
O O4 0.182688 0.134441 0.000000
O O5 0.604089 0.500000 0.250000
O O6 0.571125 0.279694 0.233821
O O7 0.643976 0.292090 0.245609
O O8 0.608959 0.361834 0.000000
O O9 0.525327 0.897139 0.163197
O O10 0.235811 0.500000 0.250000
O O11 0.280223 0.300222 0.216318
O O12 0.237865 0.367450 0.000000
O O13 0.500000 0.682530 0.250000
O O14 0.540431 0.691222 0.000000
O O15 0.319203 0.500000 0.750000
O O16 0.324616 0.640848 0.500000
O O17 0.047070 0.500000 0.250000
O O18 0.069729 0.253052 0.225244
O O19 0.000000 0.317155 0.250000
O O20 0.036574 0.364712 0.000000
O O21 0.097257 0.869076 0.500000
O O22 0.088640 0.000000 0.250000
#
# Coordination Sequence:
#
# PCOD9393620 Si02
#       8
#     8   8   2   8   8   8   8   8
#     4   9  18  34  52  73 102 135 169 209 255 305
#     4  11  21  33  51  76 104 132 164 201 246 294
#     4   8  22  36  60  72  98 124 166 198 246 284
#     4   9  18  31  51  77 104 132 168 209 253 302
#     4  10  20  35  55  76  99 128 162 200 241 287
#     4   9  16  29  48  71  99 130 160 197 243 290
#     4  10  20  34  51  73 100 133 168 208 256 306
#     4   9  19  34  52  73  99 131 170 211 254 303
#
# _framework density 17.377203000000002
#
# number of rings (size 3 to 8) (size 9 to 14) (size 15 to 20)
#    0.414    2.069    0.000    3.931    0.000    3.310 
#    0.000    2.759    1.517    0.000    0.000    0.000 
#    0.000    0.000    0.000    0.000    0.000    0.000 
#
# Total GULP energy -323030.872120 kJ/mol
# GULP energy per Si atom -5569.497795 kJ/mol
# Density = 1.733765 g / cm^3
# Si number density = 17.377203 Si / 1000 Ang^3
#
#
#
# Elastic Constant Matrix: (Units=GPa)
#
#
# Indices 1 2 3 4 5 6 
#
# 1 164.8147 88.3522 52.5677 0.0000 0.0000 0.0000
# 2 88.3522 71.3542 29.0599 0.0000 0.0000 0.0000
# 3 52.5677 29.0599 77.9239 0.0000 0.0000 0.0000
# 4 0.0000 0.0000 0.0000 23.6582 0.0000 0.0000
# 5 0.0000 0.0000 0.0000 0.0000 15.2705 0.0000
# 6 0.0000 0.0000 0.0000 0.0000 0.000017768.0978
#
#
#
# Elastic Compliance Matrix: (Units=1/GPa)
#
#
# Indices 1 2 3 4 5 6 
#
# 1 0.019511 -0.022165 -0.004896 0.000000 0.000000 0.000000
# 2 -0.022165 0.041704 -0.000600 0.000000 0.000000 0.000000
# 3 -0.004896 -0.000600 0.016360 0.000000 0.000000 0.000000
# 4 0.000000 0.000000 0.000000 0.042269 0.000000 0.000000
# 5 0.000000 0.000000 0.000000 0.000000 0.065486 0.000000
# 6 0.000000 0.000000 0.000000 0.000000 0.000000 0.000056
#
#
# Mechanical properties :
#
#
# Convention : Reuss Voigt Hill
#
# Bulk Modulus (GPa) = 44.93897 72.67249 58.80573
# Shear Modulus (GPa) = 20.15114 3571.01285 1795.58199
#
# Velocity S-wave (km/s) = 3.40903 45.38127 32.17982
# Velocity P-wave (km/s) = 6.43524 52.80017 37.61163
#
# Compressibility (1/GPa) = 0.02225240
#
# Stress axis : x y z
#
# Youngs Moduli (GPa) = 51.25315 23.97861 61.12509
#
# Poissons Ratio (x) = 0.53148 0.29929
# Poissons Ratio (y) = 1.13602 0.03668
# Poissons Ratio (z) = 0.25095 0.01439
#
# Static dielectric constant tensor:
#      x y z
#    x 1.623240 0.000000 0.000000 
#    y 0.000000 1.564560 0.000000 
#    z 0.000000 0.000000 1.602670 
# 
# From -- ./inp_files/6974.got.cif
#   From: 2010.05.17/outbox.cif.g08.bks.cpg/sg49_4_cif.got.tgz:6974.got - 2010.06.03 21:02:19.
