data_PCOD9393998
_publ_section_title
;
Structure prediction by ZEFSAII (Michael W. Deem and Ramdas Pophale) SiO2 
 PCOD9393998
Probable space group: P C C M
;
_chemical_formula_sum "Si O2"
_cell_formula_units_Z 56
_cell_length_a 22.176178
_cell_length_b 14.259763
_cell_length_c 9.162808
_cell_angle_alpha 90.000000
_cell_angle_beta 90.000000
_cell_angle_gamma 90.000000
_cell_volume 2897.527675
_symmetry_space_group_name_H-M "P C C M"
_symmetry_group_IT_number 49
_symmetry_cell_setting 'orthorhombic'
loop_
_space_group_symop_operation_xyz
x,y,z
-x,-y,z
x,-y,1/2-z
-x,y,1/2-z
-x,-y,-z
x,y,-z
-x,y,1/2+z
x,-y,1/2+z
loop_
_atom_site_type_symbol
_atom_site_label
_atom_site_fract_x
_atom_site_fract_y
_atom_site_fract_z
Si Si1 0.825281 0.644429 0.833690
Si Si2 0.687613 0.194486 0.325870
Si Si3 0.059915 0.368027 0.667065
Si Si4 0.806002 0.840886 0.675796
Si Si5 0.558125 0.899199 0.173202
Si Si6 0.308241 0.409112 0.834154
Si Si7 0.061026 0.138579 0.667099
O O1 0.883114 0.600690 0.760050
O O2 0.811730 0.734626 0.734074
O O3 0.764661 0.584863 0.839059
O O4 0.839220 0.674159 0.000000
O O5 0.702656 0.198043 0.500000
O O6 0.740981 0.135700 0.246629
O O7 0.622012 0.150792 0.306501
O O8 0.682073 0.303441 0.275045
O O9 0.062321 0.399181 0.500000
O O10 0.060399 0.253070 0.666431
O O11 0.000000 0.395936 0.750000
O O12 0.803207 0.845328 0.500000
O O13 0.870830 0.886298 0.721369
O O14 0.500000 0.852287 0.250000
O O15 0.563417 0.000000 0.250000
O O16 0.547339 0.908155 0.000000
O O17 0.331494 0.500000 0.750000
O O18 0.331077 0.410552 0.000000
O O19 0.056589 0.106623 0.500000
O O20 0.000000 0.109456 0.750000
#
# Coordination Sequence:
#
# PCOD9393998 Si02
#       7
#     8   8   8   8   8   8   8
#     4   9  16  26  38  54  80 113 151 200 257 310
#     4   9  19  34  51  74 106 141 173 212 260 308
#     4   9  15  22  33  50  71 100 143 195 253 314
#     4   9  16  25  39  62  90 122 166 214 256 304
#     4  10  20  36  59  87 118 147 176 206 244 299
#     4   9  18  31  47  68  94 127 168 212 257 299
#     4   8  14  21  30  49  78 113 154 201 250 299
#
# _framework density 19.326820999999999
#
# number of rings (size 3 to 8) (size 9 to 14) (size 15 to 20)
#    0.000    3.000    0.000    3.857    0.000    8.000 
#    0.000    0.000    0.000    0.857    0.000    6.000 
#    0.000    0.571    0.000    6.286    0.000    9.143 
#
# Total GULP energy -311779.140687 kJ/mol
# GULP energy per Si atom -5567.484655 kJ/mol
# Density = 1.928283 g / cm^3
# Si number density = 19.326821 Si / 1000 Ang^3
#
#
#
# Elastic Constant Matrix: (Units=GPa)
#
#
# Indices 1 2 3 4 5 6 
#
# 1 143.2099 26.1528 63.2781 0.0000 0.0000 0.0000
# 2 26.1528 45.3371 17.6338 0.0000 0.0000 0.0000
# 3 63.2781 17.6338 69.5666 0.0000 0.0000 0.0000
# 4 0.0000 0.0000 0.0000 9.5188 0.0000 0.0000
# 5 0.0000 0.0000 0.0000 0.0000 25.9969 0.0000
# 6 0.0000 0.0000 0.0000 0.0000 0.0000 -6.4717
#
#
#
# Elastic Compliance Matrix: (Units=1/GPa)
#
#
# Indices 1 2 3 4 5 6 
#
# 1 0.012027 -0.002976 -0.010185 0.000000 0.000000 0.000000
# 2 -0.002976 0.025206 -0.003682 0.000000 0.000000 0.000000
# 3 -0.010185 -0.003682 0.024572 0.000000 0.000000 0.000000
# 4 0.000000 0.000000 0.000000 0.105056 0.000000 0.000000
# 5 0.000000 0.000000 0.000000 0.000000 0.038466 0.000000
# 6 0.000000 0.000000 0.000000 0.000000 0.000000 -0.154520
#
#
# Mechanical properties :
#
#
# Convention : Reuss Voigt Hill
#
# Bulk Modulus (GPa) = 35.56398 52.47146 44.01772
# Shear Modulus (GPa) = 53.26720 15.87872 34.57296
#
# Velocity S-wave (km/s) = 5.25558 2.86945 4.23408
# Velocity P-wave (km/s) = 7.43434 6.17955 6.83580
#
# Compressibility (1/GPa) = 0.02811834
#
# Stress axis : x y z
#
# Youngs Moduli (GPa) = 83.14932 39.67320 40.69603
#
# Poissons Ratio (x) = 0.11807 0.41449
# Poissons Ratio (y) = 0.24746 0.14985
# Poissons Ratio (z) = 0.84688 0.14608
#
# Static dielectric constant tensor:
#      x y z
#    x 1.672780 0.000000 0.000000 
#    y 0.000000 1.707690 0.000000 
#    z 0.000000 0.000000 1.684380 
# 
# From -- ./inp_files/5883.got.cif
#   From: 2010.05.17/outbox.cif.g08.bks.cpg/sg49_3_cif.got.tgz:5883.got - 2010.06.03 21:02:19.
