data_PCOD9393983
_publ_section_title
;
Structure prediction by ZEFSAII (Michael W. Deem and Ramdas Pophale) SiO2 
 PCOD9393983
Probable space group: P C C M
;
_chemical_formula_sum "Si O2"
_cell_formula_units_Z 34
_cell_length_a 6.989993
_cell_length_b 21.257396
_cell_length_c 10.420273
_cell_angle_alpha 90.000000
_cell_angle_beta 90.000000
_cell_angle_gamma 90.000000
_cell_volume 1548.338458
_symmetry_space_group_name_H-M "P C C M"
_symmetry_group_IT_number 49
_symmetry_cell_setting 'orthorhombic'
loop_
_space_group_symop_operation_xyz
x,y,z
-x,-y,z
x,-y,1/2-z
-x,y,1/2-z
-x,-y,-z
x,y,-z
-x,y,1/2+z
x,-y,1/2+z
loop_
_atom_site_type_symbol
_atom_site_label
_atom_site_fract_x
_atom_site_fract_y
_atom_site_fract_z
Si Si1 0.159224 0.417586 0.644197
Si Si2 0.270268 0.062585 0.500000
Si Si3 0.500000 0.500000 0.750000
Si Si4 0.673476 0.720430 0.649334
Si Si5 0.267903 0.146535 0.261823
Si Si6 0.732809 0.082383 0.500000
O O1 0.090537 0.430804 0.500000
O O2 0.355274 0.455781 0.670031
O O3 0.206870 0.343483 0.652929
O O4 0.000000 0.432183 0.750000
O O5 0.210022 0.097647 0.371086
O O6 0.501369 0.072884 0.500000
O O7 0.208765 0.990379 0.500000
O O8 0.500000 0.712375 0.750000
O O9 0.782908 0.783191 0.694410
O O10 0.390349 0.730117 0.000000
O O11 0.500000 0.147666 0.250000
O O12 0.206705 0.121347 0.124285
#
# Coordination Sequence:
#
# PCOD9393983 Si02
#       6
#     8   4   2   8   8   4
#     4  11  26  46  71 105 141 179 227 275 327 394
#     4   9  14  24  36  60 101 151 198 260 318 386
#     4  12  24  48  76 108 138 184 216 270 330 394
#     4  10  20  36  58  85 120 166 219 269 324 387
#     4   9  16  25  40  67 102 152 205 259 319 383
#     4   9  16  22  36  62 103 149 202 256 322 386
#
# _framework density 21.959022999999998
#
# number of rings (size 3 to 8) (size 9 to 14) (size 15 to 20)
#    0.000    2.118    2.353    1.412    4.941    6.588 
#    0.000    0.000    0.000    0.000    0.000    0.000 
#    0.000    5.647    0.000    0.000    0.000    0.000 
#
# Total GULP energy -189988.558522 kJ/mol
# GULP energy per Si atom -5587.898780 kJ/mol
# Density = 2.190904 g / cm^3
# Si number density = 21.959023 Si / 1000 Ang^3
#
#
#
# Elastic Constant Matrix: (Units=GPa)
#
#
# Indices 1 2 3 4 5 6 
#
# 1 109.4855 18.9291 54.9768 0.0000 0.0000 0.0000
# 2 18.9291 191.3141 98.3594 0.0000 0.0000 0.0000
# 3 54.9768 98.3594 237.3232 0.0000 0.0000 0.0000
# 4 0.0000 0.0000 0.0000 70.7246 0.0000 0.0000
# 5 0.0000 0.0000 0.0000 0.0000 0.8646 0.0000
# 6 0.0000 0.0000 0.0000 0.0000 0.0000 -13.7340
#
#
#
# Elastic Compliance Matrix: (Units=1/GPa)
#
#
# Indices 1 2 3 4 5 6 
#
# 1 0.010346 0.000265 -0.002507 0.000000 0.000000 0.000000
# 2 0.000265 0.006649 -0.002817 0.000000 0.000000 0.000000
# 3 -0.002507 -0.002817 0.005962 0.000000 0.000000 0.000000
# 4 0.000000 0.000000 0.000000 0.014139 0.000000 0.000000
# 5 0.000000 0.000000 0.000000 0.000000 1.156568 0.000000
# 6 0.000000 0.000000 0.000000 0.000000 0.000000 -0.072812
#
#
# Mechanical properties :
#
#
# Convention : Reuss Voigt Hill
#
# Bulk Modulus (GPa) = 77.88160 98.07260 87.97710
# Shear Modulus (GPa) = 4.40431 35.96155 20.18293
#
# Velocity S-wave (km/s) = 1.41776 4.05120 3.03498
# Velocity P-wave (km/s) = 6.18254 8.16343 7.24104
#
# Compressibility (1/GPa) = 0.01284000
#
# Stress axis : x y z
#
# Youngs Moduli (GPa) = 96.65116 150.39497 167.73123
#
# Poissons Ratio (x) = -0.03986 0.42044
# Poissons Ratio (y) = -0.02561 0.47253
# Poissons Ratio (z) = 0.24227 0.42369
#
# Static dielectric constant tensor:
#      x y z
#    x 1.825040 0.000000 0.000000 
#    y 0.000000 1.786080 0.000000 
#    z 0.000000 0.000000 1.771790 
# 
# From -- ./inp_files/1572.got.cif
#   From: 2010.05.17/outbox.cif.g08.bks.cpg/sg49_1_cif.got.tgz:1572.got - 2010.06.03 21:02:19.
