data_PCOD9393841
_publ_section_title
;
Structure prediction by ZEFSAII (Michael W. Deem and Ramdas Pophale) SiO2 
 PCOD9393841
Probable space group: P C C M
;
_chemical_formula_sum "Si O2"
_cell_formula_units_Z 64
_cell_length_a 14.385730
_cell_length_b 25.245357
_cell_length_c 8.269824
_cell_angle_alpha 90.000000
_cell_angle_beta 90.000000
_cell_angle_gamma 90.000000
_cell_volume 3003.375878
_symmetry_space_group_name_H-M "P C C M"
_symmetry_group_IT_number 49
_symmetry_cell_setting 'orthorhombic'
loop_
_space_group_symop_operation_xyz
x,y,z
-x,-y,z
x,-y,1/2-z
-x,y,1/2-z
-x,-y,-z
x,y,-z
-x,y,1/2+z
x,-y,1/2+z
loop_
_atom_site_type_symbol
_atom_site_label
_atom_site_fract_x
_atom_site_fract_y
_atom_site_fract_z
Si Si1 0.393416 0.661417 0.806984
Si Si2 0.892851 0.159448 0.196193
Si Si3 0.392194 0.773046 0.306647
Si Si4 0.217020 0.942922 0.191857
Si Si5 0.892176 0.726075 0.304768
Si Si6 0.105272 0.608950 0.804894
Si Si7 0.712686 0.443159 0.805073
Si Si8 0.394213 0.110181 0.193587
O O1 0.500000 0.660296 0.750000
O O2 0.350086 0.718065 0.756109
O O3 0.343946 0.608196 0.746787
O O4 0.391079 0.660760 0.000000
O O5 0.839536 0.107701 0.257875
O O6 0.853708 0.217006 0.252269
O O7 0.000000 0.156383 0.250000
O O8 0.889724 0.159336 0.000000
O O9 0.500000 0.771934 0.250000
O O10 0.389247 0.771826 0.500000
O O11 0.359933 0.831099 0.249501
O O12 0.323511 0.933029 0.241117
O O13 0.183655 0.000000 0.250000
O O14 0.209976 0.941983 0.000000
O O15 0.886601 0.726107 0.500000
O O16 0.860642 0.667763 0.250569
O O17 0.000000 0.727093 0.250000
O O18 0.181000 0.566499 0.750044
O O19 0.000000 0.600056 0.750000
O O20 0.104780 0.609368 0.000000
O O21 0.677136 0.500000 0.750000
O O22 0.710828 0.442347 0.000000
O O23 0.500000 0.102888 0.250000
O O24 0.392790 0.109737 0.000000
#
# Coordination Sequence:
#
# PCOD9393841 Si02
#       8
#     8   8   8   8   8   8   8   8
#     4  10  20  35  56  81 109 142 178 220 270 321
#     4   9  19  35  57  83 110 143 179 221 274 327
#     4   9  17  31  54  84 114 142 174 215 266 324
#     4  11  24  40  57  80 110 147 192 235 276 324
#     4   8  14  28  51  78 106 133 167 211 261 320
#     4   9  18  34  55  79 106 136 171 213 264 319
#     4  10  23  39  54  75 104 141 184 227 269 317
#     4  10  21  38  60  86 115 146 181 224 274 328
#
# _framework density 21.309353999999999
#
# number of rings (size 3 to 8) (size 9 to 14) (size 15 to 20)
#    0.000    2.500    0.000    2.250    0.000    6.000 
#    0.000    7.500    0.000    6.000    0.000    0.000 
#    0.000    0.000    0.000    0.000    0.000    0.000 
#
# Total GULP energy -357078.641309 kJ/mol
# GULP energy per Si atom -5579.353770 kJ/mol
# Density = 2.126085 g / cm^3
# Si number density = 21.309354 Si / 1000 Ang^3
#
#
#
# Elastic Constant Matrix: (Units=GPa)
#
#
# Indices 1 2 3 4 5 6 
#
# 1 37.4863 12.5340 -6.3664 0.0000 0.0000 0.0000
# 2 12.5340 112.8006 11.4584 0.0000 0.0000 0.0000
# 3 -6.3664 11.4584 23.8849 0.0000 0.0000 0.0000
# 4 0.0000 0.0000 0.0000 21.9207 0.0000 0.0000
# 5 0.0000 0.0000 0.0000 0.0000 8.6201 0.0000
# 6 0.0000 0.0000 0.0000 0.0000 0.0000 31.8885
#
#
#
# Elastic Compliance Matrix: (Units=1/GPa)
#
#
# Indices 1 2 3 4 5 6 
#
# 1 0.029829 -0.004333 0.010029 0.000000 0.000000 0.000000
# 2 -0.004333 0.009949 -0.005928 0.000000 0.000000 0.000000
# 3 0.010029 -0.005928 0.047385 0.000000 0.000000 0.000000
# 4 0.000000 0.000000 0.000000 0.045619 0.000000 0.000000
# 5 0.000000 0.000000 0.000000 0.000000 0.116008 0.000000
# 6 0.000000 0.000000 0.000000 0.000000 0.000000 0.031359
#
#
# Mechanical properties :
#
#
# Convention : Reuss Voigt Hill
#
# Bulk Modulus (GPa) = 11.53416 23.26929 17.40172
# Shear Modulus (GPa) = 16.15452 22.92224 19.53838
#
# Velocity S-wave (km/s) = 2.75634 3.28333 3.03131
# Velocity P-wave (km/s) = 3.94390 5.03161 4.52059
#
# Compressibility (1/GPa) = 0.08669897
#
# Stress axis : x y z
#
# Youngs Moduli (GPa) = 33.52485 100.51418 21.10391
#
# Poissons Ratio (x) = 0.43555 -0.21166
# Poissons Ratio (y) = 0.14527 0.12510
# Poissons Ratio (z) = -0.33624 0.59583
#
# Static dielectric constant tensor:
#      x y z
#    x 1.756630 0.000000 0.000000 
#    y 0.000000 1.813720 0.000000 
#    z 0.000000 0.000000 1.720070 
# 
# From -- ./inp_files/4354.got.cif
#   From: 2010.05.17/outbox.cif.g08.bks.cpg/sg49_3_cif.got.tgz:4354.got - 2010.06.03 21:02:19.
