data_PCOD9393051
_publ_section_title
;
Structure prediction by ZEFSAII (Michael W. Deem and Ramdas Pophale) SiO2 
 PCOD9393051
Probable space group: P C C M
;
_chemical_formula_sum "Si O2"
_cell_formula_units_Z 64
_cell_length_a 18.964563
_cell_length_b 21.208571
_cell_length_c 8.371079
_cell_angle_alpha 90.000000
_cell_angle_beta 90.000000
_cell_angle_gamma 90.000000
_cell_volume 3366.942407
_symmetry_space_group_name_H-M "P C C M"
_symmetry_group_IT_number 49
_symmetry_cell_setting 'orthorhombic'
loop_
_space_group_symop_operation_xyz
x,y,z
-x,-y,z
x,-y,1/2-z
-x,y,1/2-z
-x,-y,-z
x,y,-z
-x,y,1/2+z
x,-y,1/2+z
loop_
_atom_site_type_symbol
_atom_site_label
_atom_site_fract_x
_atom_site_fract_y
_atom_site_fract_z
Si Si1 0.670149 0.811115 0.804801
Si Si2 0.079712 0.930435 0.810018
Si Si3 0.830524 0.569114 0.192798
Si Si4 0.332212 0.430980 0.192764
Si Si5 0.419985 0.310071 0.806728
Si Si6 0.080131 0.310491 0.806671
Si Si7 0.167848 0.811992 0.693187
Si Si8 0.420259 0.930648 0.308603
O O1 0.625345 0.750372 0.753537
O O2 0.751155 0.808078 0.752403
O O3 0.631249 0.875091 0.753197
O O4 0.670451 0.810930 0.000000
O O5 0.130669 0.875887 0.748454
O O6 0.000000 0.918399 0.750000
O O7 0.100559 0.000000 0.750000
O O8 0.078876 0.930764 0.000000
O O9 0.853405 0.500000 0.250000
O O10 0.749150 0.578768 0.245293
O O11 0.879942 0.626096 0.247975
O O12 0.830614 0.569339 0.000000
O O13 0.355060 0.500000 0.250000
O O14 0.381868 0.374271 0.248204
O O15 0.332193 0.430641 0.000000
O O16 0.500000 0.306159 0.750000
O O17 0.419550 0.310189 0.000000
O O18 0.123023 0.248667 0.752748
O O19 0.000000 0.308559 0.750000
O O20 0.080805 0.310579 0.000000
O O21 0.168151 0.811302 0.500000
O O22 0.500000 0.918897 0.250000
O O23 0.421157 0.931096 0.500000
O O24 0.398779 0.000000 0.250000
#
# Coordination Sequence:
#
# PCOD9393051 Si02
#       8
#     8   8   8   8   8   8   8   8
#     4   9  19  35  56  78 103 137 177 216 261 312
#     4  11  22  38  59  84 112 144 180 219 263 315
#     4   9  18  34  54  77 102 136 176 216 261 313
#     4   9  18  33  54  76 102 134 172 213 258 310
#     4  10  20  35  54  77 104 138 177 219 263 314
#     4  10  21  35  54  77 105 138 174 214 261 314
#     4  10  20  37  58  80 107 141 178 221 268 318
#     4  10  19  33  53  77 104 136 171 210 254 306
#
# _framework density 19.008344999999998
#
# number of rings (size 3 to 8) (size 9 to 14) (size 15 to 20)
#    0.000    2.250    0.000    3.750    0.000    6.500 
#    0.000    6.250    0.000    3.000    0.000    0.000 
#    0.000    0.000    0.000    0.000    0.000    0.000 
#
# Total GULP energy -357386.382823 kJ/mol
# GULP energy per Si atom -5584.162232 kJ/mol
# Density = 1.896508 g / cm^3
# Si number density = 19.008345 Si / 1000 Ang^3
#
#
#
# Elastic Constant Matrix: (Units=GPa)
#
#
# Indices 1 2 3 4 5 6 
#
# 1 163.2528 147.5741 21.3104 0.0000 0.0000 0.0000
# 2 147.5741 209.0263 25.1521 0.0000 0.0000 0.0000
# 3 21.3104 25.1521 21.4487 0.0000 0.0000 0.0000
# 4 0.0000 0.0000 0.0000 14.1175 0.0000 0.0000
# 5 0.0000 0.0000 0.0000 0.0000 23.8010 0.0000
# 6 0.0000 0.0000 0.0000 0.0000 0.0000 43.4474
#
#
#
# Elastic Compliance Matrix: (Units=1/GPa)
#
#
# Indices 1 2 3 4 5 6 
#
# 1 0.017129 -0.011696 -0.003304 0.000000 0.000000 0.000000
# 2 -0.011696 0.013556 -0.004276 0.000000 0.000000 0.000000
# 3 -0.003304 -0.004276 0.054920 0.000000 0.000000 0.000000
# 4 0.000000 0.000000 0.000000 0.070834 0.000000 0.000000
# 5 0.000000 0.000000 0.000000 0.000000 0.042015 0.000000
# 6 0.000000 0.000000 0.000000 0.000000 0.000000 0.023016
#
#
# Mechanical properties :
#
#
# Convention : Reuss Voigt Hill
#
# Bulk Modulus (GPa) = 21.25223 86.86678 54.05951
# Shear Modulus (GPa) = 18.13520 29.58590 23.86055
#
# Velocity S-wave (km/s) = 3.09215 3.94949 3.54682
# Velocity P-wave (km/s) = 4.89420 8.16067 6.72866
#
# Compressibility (1/GPa) = 0.04705388
#
# Stress axis : x y z
#
# Youngs Moduli (GPa) = 58.37920 73.76768 18.20838
#
# Poissons Ratio (x) = 0.86278 0.06015
# Poissons Ratio (y) = 0.68280 0.07786
# Poissons Ratio (z) = 0.19286 0.31544
#
# Static dielectric constant tensor:
#      x y z
#    x 1.632550 0.000000 0.000000 
#    y 0.000000 1.648030 0.000000 
#    z 0.000000 0.000000 1.663210 
# 
# From -- ./inp_files/5303.got.cif
#   From: 2010.05.17/outbox.cif.g08.bks.cpg/sg49_3_cif.got.tgz:5303.got - 2010.06.03 21:02:19.
