data_PCOD9393893
_publ_section_title
;
Structure prediction by ZEFSAII (Michael W. Deem and Ramdas Pophale) SiO2 
 PCOD9393893
Probable space group: P C C M
;
_chemical_formula_sum "Si O2"
_cell_formula_units_Z 40
_cell_length_a 10.204439
_cell_length_b 9.120496
_cell_length_c 20.557803
_cell_angle_alpha 90.000000
_cell_angle_beta 90.000000
_cell_angle_gamma 90.000000
_cell_volume 1913.305373
_symmetry_space_group_name_H-M "P C C M"
_symmetry_group_IT_number 49
_symmetry_cell_setting 'orthorhombic'
loop_
_space_group_symop_operation_xyz
x,y,z
-x,-y,z
x,-y,1/2-z
-x,y,1/2-z
-x,-y,-z
x,y,-z
-x,y,1/2+z
x,-y,1/2+z
loop_
_atom_site_type_symbol
_atom_site_label
_atom_site_fract_x
_atom_site_fract_y
_atom_site_fract_z
Si Si1 0.870305 0.062793 0.823163
Si Si2 0.372129 0.801908 0.000000
Si Si3 0.569929 0.343665 0.130460
Si Si4 0.306770 0.175501 0.859394
Si Si5 0.685844 0.136380 0.500000
Si Si6 0.204758 0.343215 0.265826
O O1 0.876833 0.235135 0.812032
O O2 0.871022 0.000000 0.750000
O O3 0.735549 0.994571 0.850228
O O4 0.000000 0.000000 0.857185
O O5 0.352514 0.709558 0.066114
O O6 0.528740 0.836241 0.000000
O O7 0.299893 0.959222 0.000000
O O8 0.500000 0.500000 0.117249
O O9 0.458232 0.221558 0.144828
O O10 0.661328 0.362827 0.193141
O O11 0.263707 0.206553 0.933356
O O12 0.235672 0.264578 0.802580
O O13 0.147998 0.500000 0.250000
#
# Coordination Sequence:
#
# PCOD9393893 Si02
#       6
#     8   4   8   8   4   8
#     4   9  20  39  58  80 109 147 202 243 284 346
#     4   9  19  32  50  78 115 161 194 219 279 351
#     4  11  20  33  55  84 125 152 188 233 289 357
#     4  10  20  35  58  80 118 156 188 240 286 336
#     4   9  18  34  51  80 111 151 204 232 274 355
#     4  11  21  35  58  88 119 150 186 240 299 344
#
# _framework density 20.906227999999999
#
# number of rings (size 3 to 8) (size 9 to 14) (size 15 to 20)
#    0.000    2.000    2.000    2.100    0.000    2.400 
#    0.000   15.500    0.000    0.000    0.000    1.400 
#    0.000    0.000    0.000    0.000    0.000    0.000 
#
# Total GULP energy -222926.490777 kJ/mol
# GULP energy per Si atom -5573.162269 kJ/mol
# Density = 2.085864 g / cm^3
# Si number density = 20.906228 Si / 1000 Ang^3
#
#
#
# Elastic Constant Matrix: (Units=GPa)
#
#
# Indices 1 2 3 4 5 6 
#
# 1 57.6583 38.0326 15.7376 0.0000 0.0000 0.0000
# 2 38.0326 129.9727 35.0218 0.0000 0.0000 0.0000
# 3 15.7376 35.0218 126.2668 0.0000 0.0000 0.0000
# 4 0.0000 0.0000 0.0000 28.5313 0.0000 0.0000
# 5 0.0000 0.0000 0.0000 0.0000 0.5613 0.0000
# 6 0.0000 0.0000 0.0000 0.0000 0.0000 9.1000
#
#
#
# Elastic Compliance Matrix: (Units=1/GPa)
#
#
# Indices 1 2 3 4 5 6 
#
# 1 0.021612 -0.006050 -0.001015 0.000000 0.000000 0.000000
# 2 -0.006050 0.010009 -0.002022 0.000000 0.000000 0.000000
# 3 -0.001015 -0.002022 0.008607 0.000000 0.000000 0.000000
# 4 0.000000 0.000000 0.000000 0.035049 0.000000 0.000000
# 5 0.000000 0.000000 0.000000 0.000000 1.781556 0.000000
# 6 0.000000 0.000000 0.000000 0.000000 0.000000 0.109891
#
#
# Mechanical properties :
#
#
# Convention : Reuss Voigt Hill
#
# Bulk Modulus (GPa) = 45.34698 54.60909 49.97804
# Shear Modulus (GPa) = 2.50972 22.64558 12.57765
#
# Velocity S-wave (km/s) = 1.09685 3.29477 2.45546
# Velocity P-wave (km/s) = 4.83134 6.37587 5.65657
#
# Compressibility (1/GPa) = 0.02205219
#
# Stress axis : x y z
#
# Youngs Moduli (GPa) = 46.27126 99.90757 116.18236
#
# Poissons Ratio (x) = 0.60448 0.11798
# Poissons Ratio (y) = 0.27996 0.23493
# Poissons Ratio (z) = 0.04699 0.20202
#
# Static dielectric constant tensor:
#      x y z
#    x 1.819870 0.000000 0.000000 
#    y 0.000000 1.820920 0.000000 
#    z 0.000000 0.000000 1.769170 
# 
# From -- ./inp_files/20340.got.cif
#   From: 2010.05.17/outbox.cif.g08.bks.cpg/sg49_11_cif.got.tgz:20340.got - 2010.06.03 21:02:19.
