data_PCOD9393890
_publ_section_title
;
Structure prediction by ZEFSAII (Michael W. Deem and Ramdas Pophale) SiO2 
 PCOD9393890
Probable space group: P C C M
;
_chemical_formula_sum "Si O2"
_cell_formula_units_Z 56
_cell_length_a 19.357168
_cell_length_b 9.098264
_cell_length_c 13.948448
_cell_angle_alpha 90.000000
_cell_angle_beta 90.000000
_cell_angle_gamma 90.000000
_cell_volume 2456.553582
_symmetry_space_group_name_H-M "P C C M"
_symmetry_group_IT_number 49
_symmetry_cell_setting 'orthorhombic'
loop_
_space_group_symop_operation_xyz
x,y,z
-x,-y,z
x,-y,1/2-z
-x,y,1/2-z
-x,-y,-z
x,y,-z
-x,y,1/2+z
x,-y,1/2+z
loop_
_atom_site_type_symbol
_atom_site_label
_atom_site_fract_x
_atom_site_fract_y
_atom_site_fract_z
Si Si1 0.923700 0.435689 0.116480
Si Si2 0.799986 0.948541 0.111497
Si Si3 0.783705 0.614913 0.116114
Si Si4 0.943148 0.108521 0.888151
Si Si5 0.312642 0.161517 0.392827
Si Si6 0.572490 0.937986 0.142524
Si Si7 0.636901 0.353550 0.714870
O O1 0.851593 0.517883 0.143862
O O2 0.926895 0.268196 0.153480
O O3 0.000000 0.500000 0.140780
O O4 0.920575 0.437192 0.000000
O O5 0.797906 0.783233 0.146508
O O6 0.875707 0.010706 0.113779
O O7 0.753053 0.078520 0.151479
O O8 0.777341 0.939613 0.000000
O O9 0.706903 0.592344 0.160112
O O10 0.778846 0.604731 0.000000
O O11 0.963033 0.138193 0.000000
O O12 0.000000 0.000000 0.848113
O O13 0.298951 0.225512 0.500000
O O14 0.340856 0.271095 0.312914
O O15 0.366055 0.028063 0.403723
O O16 0.592835 0.765510 0.152441
O O17 0.500000 0.000000 0.103285
O O18 0.572713 0.000000 0.250000
O O19 0.598014 0.500000 0.750000
#
# Coordination Sequence:
#
# PCOD9393890 Si02
#       7
#     8   8   8   8   8   8   8
#     4   9  17  29  48  79 121 164 210 264 328 396
#     4   9  17  30  52  81 115 157 207 260 308 367
#     4  10  20  35  57  88 129 173 214 265 329 392
#     4   9  16  26  44  75 113 155 208 264 315 375
#     4  10  21  39  62  92 127 169 222 269 315 387
#     4   9  19  40  66  92 125 167 214 261 320 398
#     4  11  24  39  62  98 135 169 210 264 333 393
#
# _framework density 22.796164999999998
#
# number of rings (size 3 to 8) (size 9 to 14) (size 15 to 20)
#    0.000    2.429    1.429    0.857    2.000    4.286 
#    0.000    5.714    0.000    1.286    0.000    1.000 
#    0.000    0.571    0.000    0.000    0.000    0.714 
#
# Total GULP energy -312130.403215 kJ/mol
# GULP energy per Si atom -5573.757200 kJ/mol
# Density = 2.274428 g / cm^3
# Si number density = 22.796165 Si / 1000 Ang^3
#
#
#
# Elastic Constant Matrix: (Units=GPa)
#
#
# Indices 1 2 3 4 5 6 
#
# 1 111.8560 45.2647 23.2239 0.0000 0.0000 0.0000
# 2 45.2647 140.1536 15.4112 0.0000 0.0000 0.0000
# 3 23.2239 15.4112 98.9262 0.0000 0.0000 0.0000
# 4 0.0000 0.0000 0.0000 16.7860 0.0000 0.0000
# 5 0.0000 0.0000 0.0000 0.0000 21.3183 0.0000
# 6 0.0000 0.0000 0.0000 0.0000 0.0000 -17.7756
#
#
#
# Elastic Compliance Matrix: (Units=1/GPa)
#
#
# Indices 1 2 3 4 5 6 
#
# 1 0.010660 -0.003223 -0.002000 0.000000 0.000000 0.000000
# 2 -0.003223 0.008234 -0.000526 0.000000 0.000000 0.000000
# 3 -0.002000 -0.000526 0.010660 0.000000 0.000000 0.000000
# 4 0.000000 0.000000 0.000000 0.059573 0.000000 0.000000
# 5 0.000000 0.000000 0.000000 0.000000 0.046908 0.000000
# 6 0.000000 0.000000 0.000000 0.000000 0.000000 -0.056257
#
#
# Mechanical properties :
#
#
# Convention : Reuss Voigt Hill
#
# Bulk Modulus (GPa) = 55.38650 57.63725 56.51188
# Shear Modulus (GPa) = 51.39037 21.86815 36.62926
#
# Velocity S-wave (km/s) = 4.75314 3.10060 4.01286
# Velocity P-wave (km/s) = 7.38054 6.17713 6.80549
#
# Compressibility (1/GPa) = 0.01805494
#
# Stress axis : x y z
#
# Youngs Moduli (GPa) = 93.81289 121.45208 93.80759
#
# Poissons Ratio (x) = 0.39140 0.18765
# Poissons Ratio (y) = 0.30233 0.04935
# Poissons Ratio (z) = 0.18766 0.06390
#
# Static dielectric constant tensor:
#      x y z
#    x 1.851320 0.000000 0.000000 
#    y 0.000000 1.783750 0.000000 
#    z 0.000000 0.000000 1.943120 
# 
# From -- ./inp_files/14370.got.cif
#   From: 2010.05.17/outbox.cif.g08.bks.cpg/sg49_8_cif.got.tgz:14370.got - 2010.06.03 21:02:19.
