data_PCOD9393090
_publ_section_title
;
Structure prediction by ZEFSAII (Michael W. Deem and Ramdas Pophale) SiO2 
 PCOD9393090
Probable space group: P C C M
;
_chemical_formula_sum "Si O2"
_cell_formula_units_Z 56
_cell_length_a 15.660161
_cell_length_b 20.421157
_cell_length_c 8.742307
_cell_angle_alpha 90.000000
_cell_angle_beta 90.000000
_cell_angle_gamma 90.000000
_cell_volume 2795.777596
_symmetry_space_group_name_H-M "P C C M"
_symmetry_group_IT_number 49
_symmetry_cell_setting 'orthorhombic'
loop_
_space_group_symop_operation_xyz
x,y,z
-x,-y,z
x,-y,1/2-z
-x,y,1/2-z
-x,-y,-z
x,y,-z
-x,y,1/2+z
x,-y,1/2+z
loop_
_atom_site_type_symbol
_atom_site_label
_atom_site_fract_x
_atom_site_fract_y
_atom_site_fract_z
Si Si1 0.136419 0.249167 0.820828
Si Si2 0.315594 0.795517 0.817674
Si Si3 0.408806 0.333939 0.681763
Si Si4 0.731970 0.430292 0.317551
Si Si5 0.721122 0.931608 0.815422
Si Si6 0.089291 0.615836 0.180908
Si Si7 0.912327 0.900071 0.178077
O O1 0.232143 0.235057 0.763503
O O2 0.096966 0.306862 0.720957
O O3 0.091261 0.178908 0.807307
O O4 0.136065 0.268553 0.000000
O O5 0.389962 0.743026 0.791095
O O6 0.326515 0.867653 0.748457
O O7 0.300353 0.800063 0.000000
O O8 0.500000 0.352466 0.750000
O O9 0.406856 0.345082 0.500000
O O10 0.332931 0.375341 0.757481
O O11 0.704497 0.500000 0.250000
O O12 0.732319 0.431472 0.500000
O O13 0.827226 0.415613 0.256905
O O14 0.820649 0.924307 0.761226
O O15 0.688117 0.000000 0.750000
O O16 0.720065 0.930488 0.000000
O O17 0.000000 0.591560 0.250000
O O18 0.091231 0.605925 0.000000
O O19 0.000000 0.924018 0.250000
O O20 0.913975 0.916698 0.000000
#
# Coordination Sequence:
#
# PCOD9393090 Si02
#       7
#     8   8   8   8   8   8   8
#     4  10  19  33  54  82 116 158 206 257 316 370
#     4  10  20  36  61  90 123 160 203 254 310 372
#     4  11  24  43  70 104 135 167 210 257 315 384
#     4  12  26  46  70  96 132 173 214 265 321 380
#     4  10  21  36  54  79 113 155 206 254 312 379
#     4  12  24  39  60  90 126 169 220 268 319 377
#     4   9  19  31  45  70 105 147 197 252 306 366
#
# _framework density 20.030204000000001
#
# number of rings (size 3 to 8) (size 9 to 14) (size 15 to 20)
#    0.000    1.429    1.429    5.571    0.000    7.143 
#    0.000    4.286    0.000    0.429    0.000    3.000 
#    0.000    0.000    0.000    0.000    0.000    0.000 
#
# Total GULP energy -313040.300586 kJ/mol
# GULP energy per Si atom -5590.005368 kJ/mol
# Density = 1.998461 g / cm^3
# Si number density = 20.030204 Si / 1000 Ang^3
#
#
#
# Elastic Constant Matrix: (Units=GPa)
#
#
# Indices 1 2 3 4 5 6 
#
# 1 86.6896 30.4895 51.4501 0.0000 0.0000 0.0000
# 2 30.4895 107.7954 50.7947 0.0000 0.0000 0.0000
# 3 51.4501 50.7947 124.8213 0.0000 0.0000 0.0000
# 4 0.0000 0.0000 0.0000 28.1865 0.0000 0.0000
# 5 0.0000 0.0000 0.0000 0.0000 35.8814 0.0000
# 6 0.0000 0.0000 0.0000 0.0000 0.0000 -17.4900
#
#
#
# Elastic Compliance Matrix: (Units=1/GPa)
#
#
# Indices 1 2 3 4 5 6 
#
# 1 0.015519 -0.001702 -0.005705 0.000000 0.000000 0.000000
# 2 -0.001702 0.011664 -0.004045 0.000000 0.000000 0.000000
# 3 -0.005705 -0.004045 0.012009 0.000000 0.000000 0.000000
# 4 0.000000 0.000000 0.000000 0.035478 0.000000 0.000000
# 5 0.000000 0.000000 0.000000 0.000000 0.027870 0.000000
# 6 0.000000 0.000000 0.000000 0.000000 0.000000 -0.057176
#
#
# Mechanical properties :
#
#
# Convention : Reuss Voigt Hill
#
# Bulk Modulus (GPa) = 61.38737 64.97497 63.18117
# Shear Modulus (GPa) = 67.84483 21.75372 44.79928
#
# Velocity S-wave (km/s) = 5.82622 3.29910 4.73439
# Velocity P-wave (km/s) = 8.71629 6.85718 7.84202
#
# Compressibility (1/GPa) = 0.01629000
#
# Stress axis : x y z
#
# Youngs Moduli (GPa) = 64.43508 85.73153 83.27085
#
# Poissons Ratio (x) = 0.14588 0.47502
# Poissons Ratio (y) = 0.10964 0.33686
# Poissons Ratio (z) = 0.36757 0.34681
#
# Static dielectric constant tensor:
#      x y z
#    x 1.693190 0.000000 0.000000 
#    y 0.000000 1.739440 0.000000 
#    z 0.000000 0.000000 1.671710 
# 
# From -- ./inp_files/4006.got.cif
#   From: 2010.05.17/outbox.cif.g08.bks.cpg/sg49_3_cif.got.tgz:4006.got - 2010.06.03 21:02:19.
