data_PCOD9393015
_publ_section_title
;
Structure prediction by ZEFSAII (Michael W. Deem and Ramdas Pophale) SiO2 
 PCOD9393015
Probable space group: P C C M
;
_chemical_formula_sum "Si O2"
_cell_formula_units_Z 48
_cell_length_a 9.650768
_cell_length_b 32.682922
_cell_length_c 8.623186
_cell_angle_alpha 90.000000
_cell_angle_beta 90.000000
_cell_angle_gamma 90.000000
_cell_volume 2719.884780
_symmetry_space_group_name_H-M "P C C M"
_symmetry_group_IT_number 49
_symmetry_cell_setting 'orthorhombic'
loop_
_space_group_symop_operation_xyz
x,y,z
-x,-y,z
x,-y,1/2-z
-x,y,1/2-z
-x,-y,-z
x,y,-z
-x,y,1/2+z
x,-y,1/2+z
loop_
_atom_site_type_symbol
_atom_site_label
_atom_site_fract_x
_atom_site_fract_y
_atom_site_fract_z
Si Si1 0.844882 0.543435 0.185903
Si Si2 0.345055 0.619962 0.313681
Si Si3 0.655581 0.707340 0.685082
Si Si4 0.157015 0.779994 0.686862
Si Si5 0.156761 0.869739 0.686686
Si Si6 0.158112 0.958114 0.686044
O O1 0.791751 0.500000 0.250000
O O2 0.750346 0.581766 0.231357
O O3 0.000000 0.548812 0.250000
O O4 0.850211 0.541273 0.000000
O O5 0.500000 0.613922 0.250000
O O6 0.349571 0.622718 0.500000
O O7 0.293609 0.663243 0.246743
O O8 0.500000 0.712582 0.750000
O O9 0.651326 0.706734 0.500000
O O10 0.751256 0.743862 0.744786
O O11 0.154669 0.777357 0.500000
O O12 0.214664 0.825304 0.732395
O O13 0.000000 0.777028 0.750000
O O14 0.151138 0.870032 0.500000
O O15 0.220139 0.913769 0.733114
O O16 0.000000 0.869748 0.750000
O O17 0.153570 0.960613 0.500000
O O18 0.000000 0.957418 0.750000
O O19 0.223195 0.000000 0.750000
#
# Coordination Sequence:
#
# PCOD9393015 Si02
#       6
#     8   8   8   8   8   8
#     4  10  21  36  56  80 108 139 172 207 247 292
#     4  10  21  37  56  79 104 134 170 209 250 297
#     4  11  22  37  56  77 102 134 168 209 255 302
#     4  10  19  33  51  73 100 131 167 208 251 300
#     4   8  15  25  38  56  83 117 153 193 238 285
#     4   9  14  20  30  48  74 109 149 187 229 279
#
# _framework density 17.647808000000001
#
# number of rings (size 3 to 8) (size 9 to 14) (size 15 to 20)
#    0.000    2.333    0.000    5.500    0.000    5.000 
#    0.000    3.333    0.000    0.000    0.000    0.000 
#    0.000    0.667    0.000    7.667    0.000    4.500 
#
# Total GULP energy -267469.812194 kJ/mol
# GULP energy per Si atom -5572.287754 kJ/mol
# Density = 1.760764 g / cm^3
# Si number density = 17.647808 Si / 1000 Ang^3
#
#
#
# Elastic Constant Matrix: (Units=GPa)
#
#
# Indices 1 2 3 4 5 6 
#
# 1 31.0684 68.6013 20.8152 0.0000 0.0000 0.0000
# 2 68.6013 239.0948 63.2569 0.0000 0.0000 0.0000
# 3 20.8152 63.2569 72.4223 0.0000 0.0000 0.0000
# 4 0.0000 0.0000 0.0000 -14.9145 0.0000 0.0000
# 5 0.0000 0.0000 0.0000 0.0000 21.2330 0.0000
# 6 0.0000 0.0000 0.0000 0.0000 0.0000 -21.5272
#
#
#
# Elastic Compliance Matrix: (Units=1/GPa)
#
#
# Indices 1 2 3 4 5 6 
#
# 1 0.088828 -0.024362 -0.004252 0.000000 0.000000 0.000000
# 2 -0.024362 0.012121 -0.003585 0.000000 0.000000 0.000000
# 3 -0.004252 -0.003585 0.018161 0.000000 0.000000 0.000000
# 4 0.000000 0.000000 0.000000 -0.067049 0.000000 0.000000
# 5 0.000000 0.000000 0.000000 0.000000 0.047097 0.000000
# 6 0.000000 0.000000 0.000000 0.000000 0.000000 -0.046453
#
#
# Mechanical properties :
#
#
# Convention : Reuss Voigt Hill
#
# Bulk Modulus (GPa) = 18.27718 71.99248 45.13483
# Shear Modulus (GPa) = 36.94415 9.61907 23.28161
#
# Velocity S-wave (km/s) = 4.58035 2.33718 3.63607
# Velocity P-wave (km/s) = 6.19289 6.94016 6.57714
#
# Compressibility (1/GPa) = 0.05471303
#
# Stress axis : x y z
#
# Youngs Moduli (GPa) = 11.25771 82.50295 55.06254
#
# Poissons Ratio (x) = 2.00991 0.23412
# Poissons Ratio (y) = 0.27426 0.19740
# Poissons Ratio (z) = 0.04787 0.29577
#
# Static dielectric constant tensor:
#      x y z
#    x 1.555570 0.000000 0.000000 
#    y 0.000000 1.665850 0.000000 
#    z 0.000000 0.000000 1.594600 
# 
# From -- ./inp_files/2965.got.cif
#   From: 2010.05.17/outbox.cif.g08.bks.cpg/sg49_2_cif.got.tgz:2965.got - 2010.06.03 21:02:19.
