data_PCOD9393086
_publ_section_title
;
Structure prediction by ZEFSAII (Michael W. Deem and Ramdas Pophale) SiO2 
 PCOD9393086
Probable space group: P C C M
;
_chemical_formula_sum "Si O2"
_cell_formula_units_Z 56
_cell_length_a 8.372450
_cell_length_b 15.525359
_cell_length_c 23.078752
_cell_angle_alpha 90.000000
_cell_angle_beta 90.000000
_cell_angle_gamma 90.000000
_cell_volume 2999.898317
_symmetry_space_group_name_H-M "P C C M"
_symmetry_group_IT_number 49
_symmetry_cell_setting 'orthorhombic'
loop_
_space_group_symop_operation_xyz
x,y,z
-x,-y,z
x,-y,1/2-z
-x,y,1/2-z
-x,-y,-z
x,y,-z
-x,y,1/2+z
x,-y,1/2+z
loop_
_atom_site_type_symbol
_atom_site_label
_atom_site_fract_x
_atom_site_fract_y
_atom_site_fract_z
Si Si1 0.809156 0.702581 0.143669
Si Si2 0.688184 0.994895 0.437329
Si Si3 0.890829 0.083735 0.837942
Si Si4 0.323159 0.518796 0.680300
Si Si5 0.116818 0.634453 0.194242
Si Si6 0.887774 0.167625 0.564249
Si Si7 0.692287 0.208924 0.754827
O O1 0.720659 0.614527 0.160769
O O2 0.795879 0.745226 0.081387
O O3 0.753723 0.774220 0.189996
O O4 0.994770 0.681614 0.152692
O O5 0.736751 0.955400 0.500000
O O6 0.764228 0.089215 0.437110
O O7 0.500000 0.000000 0.435593
O O8 0.752410 0.949136 0.380583
O O9 0.802544 0.136763 0.786588
O O10 0.994747 0.141354 0.882953
O O11 0.000000 0.000000 0.821007
O O12 0.500000 0.500000 0.658547
O O13 0.325843 0.500000 0.750000
O O14 0.190123 0.448945 0.664071
O O15 0.256845 0.700545 0.213675
O O16 0.000000 0.614121 0.250000
O O17 0.960532 0.174143 0.500000
O O18 0.500000 0.194939 0.750000
#
# Coordination Sequence:
#
# PCOD9393086 Si02
#       7
#     8   8   8   8   8   8   8
#     4  11  22  35  59  85 119 153 192 241 293 356
#     4   9  19  37  60  84 111 148 202 255 292 335
#     4  10  21  39  61  82 116 158 196 239 291 358
#     4  11  20  32  52  84 116 153 195 234 282 349
#     4  10  19  33  54  81 115 152 190 232 277 345
#     4  10  21  39  62  86 110 149 205 255 298 339
#     4  11  22  35  57  89 124 154 186 238 296 359
#
# _framework density 18.667297999999999
#
# number of rings (size 3 to 8) (size 9 to 14) (size 15 to 20)
#    0.000    1.714    4.286    1.714    2.000    1.714 
#    0.000    5.000    0.000    2.143    0.000    0.000 
#    0.000    0.000    0.000    0.000    0.000    0.000 
#
# Total GULP energy -311861.089318 kJ/mol
# GULP energy per Si atom -5568.948024 kJ/mol
# Density = 1.862481 g / cm^3
# Si number density = 18.667298 Si / 1000 Ang^3
#
#
#
# Elastic Constant Matrix: (Units=GPa)
#
#
# Indices 1 2 3 4 5 6 
#
# 1 118.0791 53.0413 44.3765 0.0000 0.0000 0.0000
# 2 53.0413 104.4353 54.0091 0.0000 0.0000 0.0000
# 3 44.3765 54.0091 58.5638 0.0000 0.0000 0.0000
# 4 0.0000 0.0000 0.0000 20.3024 0.0000 0.0000
# 5 0.0000 0.0000 0.0000 0.0000 33.0185 0.0000
# 6 0.0000 0.0000 0.0000 0.0000 0.0000 19.5311
#
#
#
# Elastic Compliance Matrix: (Units=1/GPa)
#
#
# Indices 1 2 3 4 5 6 
#
# 1 0.012230 -0.002713 -0.006766 0.000000 0.000000 0.000000
# 2 -0.002713 0.018908 -0.015382 0.000000 0.000000 0.000000
# 3 -0.006766 -0.015382 0.036388 0.000000 0.000000 0.000000
# 4 0.000000 0.000000 0.000000 0.049255 0.000000 0.000000
# 5 0.000000 0.000000 0.000000 0.000000 0.030286 0.000000
# 6 0.000000 0.000000 0.000000 0.000000 0.000000 0.051200
#
#
# Mechanical properties :
#
#
# Convention : Reuss Voigt Hill
#
# Bulk Modulus (GPa) = 56.16310 64.88135 60.52223
# Shear Modulus (GPa) = 19.69105 23.21380 21.45243
#
# Velocity S-wave (km/s) = 3.25136 3.53023 3.39366
# Velocity P-wave (km/s) = 6.65182 7.17279 6.91721
#
# Compressibility (1/GPa) = 0.01780528
#
# Stress axis : x y z
#
# Youngs Moduli (GPa) = 81.76569 52.88831 27.48195
#
# Poissons Ratio (x) = 0.14347 0.18593
# Poissons Ratio (y) = 0.22180 0.42272
# Poissons Ratio (z) = 0.55320 0.81352
#
# Static dielectric constant tensor:
#      x y z
#    x 1.662660 0.000000 0.000000 
#    y 0.000000 1.683650 0.000000 
#    z 0.000000 0.000000 1.675560 
# 
# From -- ./inp_files/19891.got.cif
#   From: 2010.05.17/outbox.cif.g08.bks.cpg/sg49_10_cif.got.tgz:19891.got - 2010.06.03 21:02:19.
