data_PCOD9393446
_publ_section_title
;
Structure prediction by ZEFSAII (Michael W. Deem and Ramdas Pophale) SiO2 
 PCOD9393446
Probable space group: P C C M
;
_chemical_formula_sum "Si O2"
_cell_formula_units_Z 64
_cell_length_a 23.014387
_cell_length_b 13.466220
_cell_length_c 8.844677
_cell_angle_alpha 90.000000
_cell_angle_beta 90.000000
_cell_angle_gamma 90.000000
_cell_volume 2741.113980
_symmetry_space_group_name_H-M "P C C M"
_symmetry_group_IT_number 49
_symmetry_cell_setting 'orthorhombic'
loop_
_space_group_symop_operation_xyz
x,y,z
-x,-y,z
x,-y,1/2-z
-x,y,1/2-z
-x,-y,-z
x,y,-z
-x,y,1/2+z
x,-y,1/2+z
loop_
_atom_site_type_symbol
_atom_site_label
_atom_site_fract_x
_atom_site_fract_y
_atom_site_fract_z
Si Si1 0.085744 0.602071 0.176308
Si Si2 0.059283 0.816060 0.318576
Si Si3 0.185511 0.133936 0.829174
Si Si4 0.560403 0.326569 0.682742
Si Si5 0.202600 0.628251 0.331610
Si Si6 0.300083 0.870346 0.166586
Si Si7 0.319199 0.632996 0.828688
Si Si8 0.584498 0.100561 0.325214
O O1 0.063900 0.500000 0.250000
O O2 0.065118 0.702639 0.258323
O O3 0.155164 0.600751 0.206603
O O4 0.071951 0.606912 0.000000
O O5 0.056979 0.813634 0.500000
O O6 0.118802 0.873085 0.276143
O O7 0.000000 0.858053 0.250000
O O8 0.197128 0.252460 0.841771
O O9 0.235166 0.101843 0.713784
O O10 0.191582 0.093556 0.000000
O O11 0.500000 0.365733 0.750000
O O12 0.561704 0.331838 0.500000
O O13 0.617608 0.376968 0.753311
O O14 0.564306 0.209134 0.730417
O O15 0.188012 0.590186 0.500000
O O16 0.266989 0.600735 0.280279
O O17 0.306531 0.751257 0.158364
O O18 0.346377 0.899167 0.293342
O O19 0.315972 0.908963 0.000000
O O20 0.317572 0.592704 0.000000
O O21 0.570841 0.096488 0.500000
O O22 0.562338 0.000000 0.250000
#
# Coordination Sequence:
#
# PCOD9393446 Si02
#       8
#     8   8   8   8   8   8   8   8
#     4  11  21  33  47  64  88 119 154 189 224 263
#     4  10  20  33  47  65  89 119 153 188 223 262
#     4   8  15  27  43  62  85 110 138 175 220 263
#     4  10  20  32  45  62  86 118 152 188 224 262
#     4   9  16  28  45  65  87 111 141 179 223 267
#     4   9  16  26  43  64  84 107 139 177 219 263
#     4   9  16  27  44  65  86 110 141 179 222 267
#     4  10  20  32  45  61  85 116 150 185 222 261
#
# _framework density 23.348172999999999
#
# number of rings (size 3 to 8) (size 9 to 14) (size 15 to 20)
#    0.000    2.500    0.000    4.125    0.000    8.500 
#    0.000    2.500    0.000    0.000    0.000    0.000 
#    0.000    1.000    0.000   10.250    0.000    6.625 
#
# Total GULP energy -357592.040531 kJ/mol
# GULP energy per Si atom -5587.375633 kJ/mol
# Density = 2.329503 g / cm^3
# Si number density = 23.348173 Si / 1000 Ang^3
#
#
#
# Elastic Constant Matrix: (Units=GPa)
#
#
# Indices 1 2 3 4 5 6 
#
# 1 176.2358 -14.9941 28.9503 0.0000 0.0000 0.0000
# 2 -14.9941 57.1693 5.5990 0.0000 0.0000 0.0000
# 3 28.9503 5.5990 75.0227 0.0000 0.0000 0.0000
# 4 0.0000 0.0000 0.0000 19.3345 0.0000 0.0000
# 5 0.0000 0.0000 0.0000 0.0000 24.6296 0.0000
# 6 0.0000 0.0000 0.0000 0.0000 0.0000 -14.3585
#
#
#
# Elastic Compliance Matrix: (Units=1/GPa)
#
#
# Indices 1 2 3 4 5 6 
#
# 1 0.006255 0.001891 -0.002555 0.000000 0.000000 0.000000
# 2 0.001891 0.018192 -0.002087 0.000000 0.000000 0.000000
# 3 -0.002555 -0.002087 0.014471 0.000000 0.000000 0.000000
# 4 0.000000 0.000000 0.000000 0.051721 0.000000 0.000000
# 5 0.000000 0.000000 0.000000 0.000000 0.040602 0.000000
# 6 0.000000 0.000000 0.000000 0.000000 0.000000 -0.069645
#
#
# Mechanical properties :
#
#
# Convention : Reuss Voigt Hill
#
# Bulk Modulus (GPa) = 29.92653 38.61536 34.27094
# Shear Modulus (GPa) = 63.90895 25.17929 44.54412
#
# Velocity S-wave (km/s) = 5.23751 3.28750 4.37260
# Velocity P-wave (km/s) = 7.02999 5.56642 6.34058
#
# Compressibility (1/GPa) = 0.03341517
#
# Stress axis : x y z
#
# Youngs Moduli (GPa) = 159.87876 54.96865 69.10419
#
# Poissons Ratio (x) = -0.10393 0.17654
# Poissons Ratio (y) = -0.30228 0.14424
# Poissons Ratio (z) = 0.40845 0.11473
#
# Static dielectric constant tensor:
#      x y z
#    x 1.886380 0.000000 0.000000 
#    y 0.000000 1.961820 0.000000 
#    z 0.000000 0.000000 1.806700 
# 
# From -- ./inp_files/5263.got.cif
#   From: 2010.05.17/outbox.cif.g08.bks.cpg/sg49_3_cif.got.tgz:5263.got - 2010.06.03 21:02:19.
