data_PCOD9393755
_publ_section_title
;
Structure prediction by ZEFSAII (Michael W. Deem and Ramdas Pophale) SiO2 
 PCOD9393755
Probable space group: P C C M
;
_chemical_formula_sum "Si O2"
_cell_formula_units_Z 64
_cell_length_a 12.045128
_cell_length_b 15.347661
_cell_length_c 18.898314
_cell_angle_alpha 90.000000
_cell_angle_beta 90.000000
_cell_angle_gamma 90.000000
_cell_volume 3493.628148
_symmetry_space_group_name_H-M "P C C M"
_symmetry_group_IT_number 49
_symmetry_cell_setting 'orthorhombic'
loop_
_space_group_symop_operation_xyz
x,y,z
-x,-y,z
x,-y,1/2-z
-x,y,1/2-z
-x,-y,-z
x,y,-z
-x,y,1/2+z
x,-y,1/2+z
loop_
_atom_site_type_symbol
_atom_site_label
_atom_site_fract_x
_atom_site_fract_y
_atom_site_fract_z
Si Si1 0.787270 0.646766 0.148418
Si Si2 0.990029 0.603522 0.577085
Si Si3 0.486738 0.215428 0.415316
Si Si4 0.565555 0.412503 0.415252
Si Si5 0.277435 0.840950 0.176416
Si Si6 0.702895 0.844694 0.161661
Si Si7 0.128274 0.997386 0.664004
Si Si8 0.114321 0.316901 0.712692
O O1 0.887511 0.639072 0.093674
O O2 0.683328 0.591484 0.123345
O O3 0.752004 0.747572 0.154186
O O4 0.830828 0.623878 0.226599
O O5 0.950107 0.633022 0.500000
O O6 0.000000 0.500000 0.577006
O O7 0.914975 0.632568 0.641916
O O8 0.479709 0.205651 0.500000
O O9 0.507115 0.319068 0.400025
O O10 0.376582 0.185086 0.375135
O O11 0.591245 0.160422 0.384724
O O12 0.500000 0.500000 0.395203
O O13 0.582910 0.415067 0.500000
O O14 0.323335 0.863150 0.255389
O O15 0.194369 0.761195 0.191476
O O16 0.202455 0.918730 0.145837
O O17 0.799368 0.913287 0.141969
O O18 0.122508 0.000000 0.750000
O O19 0.000000 0.000000 0.638816
O O20 0.000000 0.283713 0.750000
#
# Coordination Sequence:
#
# PCOD9393755 Si02
#       8
#     8   8   8   8   8   8   8   8
#     4   9  18  33  56  80 108 143 180 224 282 333
#     4  10  21  35  52  75 105 145 190 225 264 329
#     4  10  21  37  57  81 113 152 189 227 281 336
#     4   9  18  34  57  83 110 144 189 233 273 328
#     4  10  20  34  58  85 115 142 181 234 283 329
#     4   9  19  37  59  82 108 147 188 231 275 337
#     4   9  19  32  59  89 111 140 188 237 278 330
#     4   9  20  34  55  80 111 145 178 224 287 333
#
# _framework density 18.319064000000001
#
# number of rings (size 3 to 8) (size 9 to 14) (size 15 to 20)
#    0.000    2.625    0.000    0.750    7.000    4.750 
#    0.000    6.875    0.000    9.750    0.000    0.000 
#    0.000    0.500    0.000    0.000    0.000    0.000 
#
# Total GULP energy -356734.738770 kJ/mol
# GULP energy per Si atom -5573.980293 kJ/mol
# Density = 1.827737 g / cm^3
# Si number density = 18.319064 Si / 1000 Ang^3
#
#
#
# Elastic Constant Matrix: (Units=GPa)
#
#
# Indices 1 2 3 4 5 6 
#
# 1 117.4994 53.6412 48.6005 0.0000 0.0000 0.0000
# 2 53.6412 62.3400 33.8895 0.0000 0.0000 0.0000
# 3 48.6005 33.8895 80.0352 0.0000 0.0000 0.0000
# 4 0.0000 0.0000 0.0000 21.5425 0.0000 0.0000
# 5 0.0000 0.0000 0.0000 0.0000 21.8268 0.0000
# 6 0.0000 0.0000 0.0000 0.0000 0.0000 26.3012
#
#
#
# Elastic Compliance Matrix: (Units=1/GPa)
#
#
# Indices 1 2 3 4 5 6 
#
# 1 0.015335 -0.010565 -0.004839 0.000000 0.000000 0.000000
# 2 -0.010565 0.028116 -0.005490 0.000000 0.000000 0.000000
# 3 -0.004839 -0.005490 0.017757 0.000000 0.000000 0.000000
# 4 0.000000 0.000000 0.000000 0.046420 0.000000 0.000000
# 5 0.000000 0.000000 0.000000 0.000000 0.045815 0.000000
# 6 0.000000 0.000000 0.000000 0.000000 0.000000 0.038021
#
#
# Mechanical properties :
#
#
# Convention : Reuss Voigt Hill
#
# Bulk Modulus (GPa) = 51.48836 59.12634 55.30735
# Shear Modulus (GPa) = 20.85717 22.18365 21.52041
#
# Velocity S-wave (km/s) = 3.37790 3.48366 3.43119
# Velocity P-wave (km/s) = 6.58643 6.96614 6.77894
#
# Compressibility (1/GPa) = 0.01942187
#
# Stress axis : x y z
#
# Youngs Moduli (GPa) = 65.20946 35.56658 56.31502
#
# Poissons Ratio (x) = 0.37576 0.27248
# Poissons Ratio (y) = 0.68894 0.30916
# Poissons Ratio (z) = 0.31552 0.19526
#
# Static dielectric constant tensor:
#      x y z
#    x 1.640310 0.000000 0.000000 
#    y 0.000000 1.627470 0.000000 
#    z 0.000000 0.000000 1.639750 
# 
# From -- ./inp_files/17318.got.cif
#   From: 2010.05.17/outbox.cif.g08.bks.cpg/sg49_9_cif.got.tgz:17318.got - 2010.06.03 21:02:19.
