data_PCOD9393309
_publ_section_title
;
Structure prediction by ZEFSAII (Michael W. Deem and Ramdas Pophale) SiO2 
 PCOD9393309
Probable space group: P C C M
;
_chemical_formula_sum "Si O2"
_cell_formula_units_Z 64
_cell_length_a 8.998006
_cell_length_b 21.197177
_cell_length_c 15.904033
_cell_angle_alpha 90.000000
_cell_angle_beta 90.000000
_cell_angle_gamma 90.000000
_cell_volume 3033.413204
_symmetry_space_group_name_H-M "P C C M"
_symmetry_group_IT_number 49
_symmetry_cell_setting 'orthorhombic'
loop_
_space_group_symop_operation_xyz
x,y,z
-x,-y,z
x,-y,1/2-z
-x,y,1/2-z
-x,-y,-z
x,y,-z
-x,y,1/2+z
x,-y,1/2+z
loop_
_atom_site_type_symbol
_atom_site_label
_atom_site_fract_x
_atom_site_fract_y
_atom_site_fract_z
Si Si1 0.653009 0.604798 0.296301
Si Si2 0.888070 0.810111 0.896910
Si Si3 0.556900 0.165425 0.340360
Si Si4 0.928521 0.933315 0.397276
Si Si5 0.841934 0.329216 0.650469
Si Si6 0.603150 0.052778 0.095756
Si Si7 0.085197 0.565941 0.097250
Si Si8 0.521818 0.299743 0.593296
O O1 0.500000 0.581329 0.250000
O O2 0.758668 0.646840 0.235160
O O3 0.770739 0.560105 0.342693
O O4 0.584227 0.648296 0.368516
O O5 0.730076 0.833174 0.861273
O O6 0.912581 0.740924 0.855911
O O7 0.999124 0.866572 0.873524
O O8 0.882989 0.803489 0.000000
O O9 0.500000 0.143187 0.250000
O O10 0.481355 0.118438 0.405184
O O11 0.509169 0.237651 0.350789
O O12 0.933157 0.932143 0.500000
O O13 0.761650 0.936413 0.364193
O O14 0.000000 0.000000 0.371770
O O15 0.693315 0.322955 0.593152
O O16 0.968083 0.379619 0.625380
O O17 0.500000 0.000000 0.136460
O O18 0.633431 0.030576 0.000000
O O19 0.000000 0.500000 0.100709
O O20 0.128316 0.578300 0.000000
O O21 0.477978 0.282230 0.500000
#
# Coordination Sequence:
#
# PCOD9393309 Si02
#       8
#     8   8   8   8   8   8   8   8
#     4  10  22  40  63  93 129 166 206 257 315 370
#     4  10  19  35  59  85 117 157 201 249 303 362
#     4  11  21  34  53  80 114 151 194 244 303 363
#     4   9  18  33  55  83 111 143 190 245 298 358
#     4  10  20  37  60  89 126 167 210 256 313 371
#     4  10  20  35  55  77 103 141 191 245 303 368
#     4  11  24  43  67  95 129 169 214 261 309 368
#     4  10  19  36  61  88 121 160 206 256 306 365
#
# _framework density 21.098344999999998
#
# number of rings (size 3 to 8) (size 9 to 14) (size 15 to 20)
#    0.000    1.875    0.000    6.375    0.000    4.250 
#    0.000   10.000    0.000    7.500    0.000    0.000 
#    0.000    0.000    0.000    0.000    0.000    1.125 
#
# Total GULP energy -356838.042460 kJ/mol
# GULP energy per Si atom -5575.594413 kJ/mol
# Density = 2.105032 g / cm^3
# Si number density = 21.098345 Si / 1000 Ang^3
#
#
#
# Elastic Constant Matrix: (Units=GPa)
#
#
# Indices 1 2 3 4 5 6 
#
# 1 98.8349 76.9258 29.1323 0.0000 0.0000 0.0000
# 2 76.9258 96.3724 15.9121 0.0000 0.0000 0.0000
# 3 29.1323 15.9121 75.7833 0.0000 0.0000 0.0000
# 4 0.0000 0.0000 0.0000 -2.0391 0.0000 0.0000
# 5 0.0000 0.0000 0.0000 0.0000 23.1398 0.0000
# 6 0.0000 0.0000 0.0000 0.0000 0.0000 34.7581
#
#
#
# Elastic Compliance Matrix: (Units=1/GPa)
#
#
# Indices 1 2 3 4 5 6 
#
# 1 0.029637 -0.022558 -0.006657 0.000000 0.000000 0.000000
# 2 -0.022558 0.027919 0.002810 0.000000 0.000000 0.000000
# 3 -0.006657 0.002810 0.015165 0.000000 0.000000 0.000000
# 4 0.000000 0.000000 0.000000 -0.490401 0.000000 0.000000
# 5 0.000000 0.000000 0.000000 0.000000 0.043216 0.000000
# 6 0.000000 0.000000 0.000000 0.000000 0.000000 0.028770
#
#
# Mechanical properties :
#
#
# Convention : Reuss Voigt Hill
#
# Bulk Modulus (GPa) = 50.22454 57.21454 53.71954
# Shear Modulus (GPa) = -17.46735 21.10644 1.81954
#
# Velocity S-wave (km/s) = -2.88045 3.16632 0.92967
# Velocity P-wave (km/s) = 3.57687 6.36744 5.16422
#
# Compressibility (1/GPa) = 0.01991059
#
# Stress axis : x y z
#
# Youngs Moduli (GPa) = 33.74125 35.81853 65.94347
#
# Poissons Ratio (x) = 0.80799 0.43896
# Poissons Ratio (y) = 0.76113 -0.18527
# Poissons Ratio (z) = 0.22460 -0.10064
#
# Static dielectric constant tensor:
#      x y z
#    x 1.752960 0.000000 0.000000 
#    y 0.000000 1.730920 0.000000 
#    z 0.000000 0.000000 1.807020 
# 
# From -- ./inp_files/16562.got.cif
#   From: 2010.05.17/outbox.cif.g08.bks.cpg/sg49_9_cif.got.tgz:16562.got - 2010.06.03 21:02:19.
