data_PCOD9393921
_publ_section_title
;
Structure prediction by ZEFSAII (Michael W. Deem and Ramdas Pophale) SiO2 
 PCOD9393921
Probable space group: P C C M
;
_chemical_formula_sum "Si O2"
_cell_formula_units_Z 64
_cell_length_a 14.328492
_cell_length_b 12.432554
_cell_length_c 17.885760
_cell_angle_alpha 90.000000
_cell_angle_beta 90.000000
_cell_angle_gamma 90.000000
_cell_volume 3186.164824
_symmetry_space_group_name_H-M "P C C M"
_symmetry_group_IT_number 49
_symmetry_cell_setting 'orthorhombic'
loop_
_space_group_symop_operation_xyz
x,y,z
-x,-y,z
x,-y,1/2-z
-x,y,1/2-z
-x,-y,-z
x,y,-z
-x,y,1/2+z
x,-y,1/2+z
loop_
_atom_site_type_symbol
_atom_site_label
_atom_site_fract_x
_atom_site_fract_y
_atom_site_fract_z
Si Si1 0.253647 0.846279 0.910725
Si Si2 0.231958 0.453619 0.085965
Si Si3 0.904474 0.790335 0.792449
Si Si4 0.032121 0.339716 0.915911
Si Si5 0.467671 0.120290 0.590247
Si Si6 0.650227 0.759989 0.910625
Si Si7 0.751247 0.051038 0.320805
Si Si8 0.843049 0.645791 0.669085
O O1 0.363208 0.847684 0.887426
O O2 0.196918 0.750357 0.873161
O O3 0.219920 0.960280 0.879288
O O4 0.247237 0.839444 0.000000
O O5 0.125493 0.410486 0.082193
O O6 0.302813 0.355936 0.104838
O O7 0.225072 0.548969 0.146265
O O8 0.254211 0.490670 0.000000
O O9 0.929714 0.768854 0.878239
O O10 0.837896 0.889635 0.783317
O O11 0.857557 0.683901 0.754542
O O12 0.000000 0.807625 0.750000
O O13 0.946773 0.377040 0.863831
O O14 0.996584 0.329065 0.000000
O O15 0.465101 0.111337 0.500000
O O16 0.542102 0.214182 0.607404
O O17 0.500000 0.000000 0.616615
O O18 0.701020 0.853955 0.865319
O O19 0.662596 0.776566 0.000000
O O20 0.697004 0.000000 0.250000
#
# Coordination Sequence:
#
# PCOD9393921 Si02
#       8
#     8   8   8   8   8   8   8   8
#     4  11  22  37  61  88 120 161 199 247 304 365
#     4  10  20  35  61  89 118 155 198 251 297 351
#     4  10  23  40  57  82 122 164 198 247 308 367
#     4  10  20  37  61  87 113 152 209 257 294 350
#     4   9  17  33  59  90 120 151 194 248 300 348
#     4  10  20  38  63  91 119 154 203 253 301 355
#     4  12  22  38  57  83 119 154 201 247 299 359
#     4  11  22  39  57  86 126 159 197 245 307 365
#
# _framework density 20.086846000000001
#
# number of rings (size 3 to 8) (size 9 to 14) (size 15 to 20)
#    0.000    1.625    3.750    1.875    0.000    2.250 
#    0.000    3.750    0.000    5.250    0.000    0.000 
#    0.000    0.000    0.000    0.000    0.000    0.000 
#
# Total GULP energy -356883.059663 kJ/mol
# GULP energy per Si atom -5576.297807 kJ/mol
# Density = 2.004113 g / cm^3
# Si number density = 20.086846 Si / 1000 Ang^3
#
#
#
# Elastic Constant Matrix: (Units=GPa)
#
#
# Indices 1 2 3 4 5 6 
#
# 1 61.8511 31.2243 9.7691 0.0000 0.0000 0.0000
# 2 31.2243 80.9252 21.6351 0.0000 0.0000 0.0000
# 3 9.7691 21.6351 48.3411 0.0000 0.0000 0.0000
# 4 0.0000 0.0000 0.0000 25.3305 0.0000 0.0000
# 5 0.0000 0.0000 0.0000 0.0000 8.8824 0.0000
# 6 0.0000 0.0000 0.0000 0.0000 0.0000 10.8824
#
#
#
# Elastic Compliance Matrix: (Units=1/GPa)
#
#
# Indices 1 2 3 4 5 6 
#
# 1 0.020098 -0.007575 -0.000671 0.000000 0.000000 0.000000
# 2 -0.007575 0.016892 -0.006029 0.000000 0.000000 0.000000
# 3 -0.000671 -0.006029 0.023520 0.000000 0.000000 0.000000
# 4 0.000000 0.000000 0.000000 0.039478 0.000000 0.000000
# 5 0.000000 0.000000 0.000000 0.000000 0.112582 0.000000
# 6 0.000000 0.000000 0.000000 0.000000 0.000000 0.091892
#
#
# Mechanical properties :
#
#
# Convention : Reuss Voigt Hill
#
# Bulk Modulus (GPa) = 31.29004 35.15271 33.22137
# Shear Modulus (GPa) = 14.54903 17.58499 16.06701
#
# Velocity S-wave (km/s) = 2.69421 2.96201 2.83128
# Velocity P-wave (km/s) = 5.02887 5.40706 5.22139
#
# Compressibility (1/GPa) = 0.03195905
#
# Stress axis : x y z
#
# Youngs Moduli (GPa) = 49.75594 59.20035 42.51644
#
# Poissons Ratio (x) = 0.44846 0.02854
# Poissons Ratio (y) = 0.37691 0.25633
# Poissons Ratio (z) = 0.03340 0.35692
#
# Static dielectric constant tensor:
#      x y z
#    x 1.740750 0.000000 0.000000 
#    y 0.000000 1.742420 0.000000 
#    z 0.000000 0.000000 1.751410 
# 
# From -- ./inp_files/17984.got.cif
#   From: 2010.05.17/outbox.cif.g08.bks.cpg/sg49_9_cif.got.tgz:17984.got - 2010.06.03 21:02:19.
