data_PCOD9393618
_publ_section_title
;
Structure prediction by ZEFSAII (Michael W. Deem and Ramdas Pophale) SiO2 
 PCOD9393618
Probable space group: P C C M
;
_chemical_formula_sum "Si O2"
_cell_formula_units_Z 48
_cell_length_a 9.597544
_cell_length_b 31.833465
_cell_length_c 8.403409
_cell_angle_alpha 90.000000
_cell_angle_beta 90.000000
_cell_angle_gamma 90.000000
_cell_volume 2567.435409
_symmetry_space_group_name_H-M "P C C M"
_symmetry_group_IT_number 49
_symmetry_cell_setting 'orthorhombic'
loop_
_space_group_symop_operation_xyz
x,y,z
-x,-y,z
x,-y,1/2-z
-x,y,1/2-z
-x,-y,-z
x,y,-z
-x,y,1/2+z
x,-y,1/2+z
loop_
_atom_site_type_symbol
_atom_site_label
_atom_site_fract_x
_atom_site_fract_y
_atom_site_fract_z
Si Si1 0.341751 0.544879 0.309198
Si Si2 0.343686 0.953363 0.690821
Si Si3 0.658163 0.795474 0.807560
Si Si4 0.841913 0.124726 0.307708
Si Si5 0.843244 0.622672 0.807797
Si Si6 0.157463 0.282792 0.192316
O O1 0.285077 0.500000 0.250000
O O2 0.500000 0.548232 0.250000
O O3 0.341706 0.544408 0.500000
O O4 0.254913 0.585034 0.251670
O O5 0.500000 0.943573 0.750000
O O6 0.346394 0.953763 0.500000
O O7 0.235473 0.917905 0.745272
O O8 0.307429 0.000000 0.750000
O O9 0.500000 0.797960 0.750000
O O10 0.749794 0.835438 0.754938
O O11 0.736140 0.753018 0.753202
O O12 0.656952 0.795478 0.000000
O O13 0.843112 0.124839 0.500000
O O14 0.000000 0.127353 0.250000
O O15 0.802583 0.669908 0.755759
O O16 0.000000 0.615547 0.750000
O O17 0.841587 0.622400 0.000000
O O18 0.000000 0.274377 0.250000
O O19 0.155483 0.282210 0.000000
#
# Coordination Sequence:
#
# PCOD9393618 Si02
#       6
#     8   8   8   8   8   8
#     4  10  20  34  51  72  99 131 168 208 251 298
#     4  10  20  35  55  79 106 137 174 213 256 304
#     4  10  21  36  54  78 106 135 170 210 252 301
#     4  10  22  37  54  78 106 137 173 213 256 303
#     4   9  19  34  52  75 102 132 166 206 250 298
#     4   9  18  34  54  76 103 133 167 206 249 299
#
# _framework density 18.695699999999999
#
# number of rings (size 3 to 8) (size 9 to 14) (size 15 to 20)
#    0.000    2.333    0.000    3.000    0.000    5.333 
#    0.000    3.333    0.000    0.000    0.000    0.000 
#    0.000    0.000    0.000    0.000    0.000    0.000 
#
# Total GULP energy -267907.243687 kJ/mol
# GULP energy per Si atom -5581.400910 kJ/mol
# Density = 1.865315 g / cm^3
# Si number density = 18.695700 Si / 1000 Ang^3
#
#
#
# Elastic Constant Matrix: (Units=GPa)
#
#
# Indices 1 2 3 4 5 6 
#
# 1 143.6904 135.1856 16.6188 0.0000 0.0000 0.0000
# 2 135.1856 190.4907 27.4802 0.0000 0.0000 0.0000
# 3 16.6188 27.4802 17.6240 0.0000 0.0000 0.0000
# 4 0.0000 0.0000 0.0000 20.3083 0.0000 0.0000
# 5 0.0000 0.0000 0.0000 0.0000 32.0165 0.0000
# 6 0.0000 0.0000 0.0000 0.0000 0.0000 44.1114
#
#
#
# Elastic Compliance Matrix: (Units=1/GPa)
#
#
# Indices 1 2 3 4 5 6 
#
# 1 0.021211 -0.015699 0.004477 0.000000 0.000000 0.000000
# 2 -0.015699 0.018392 -0.013875 0.000000 0.000000 0.000000
# 3 0.004477 -0.013875 0.074153 0.000000 0.000000 0.000000
# 4 0.000000 0.000000 0.000000 0.049241 0.000000 0.000000
# 5 0.000000 0.000000 0.000000 0.000000 0.031234 0.000000
# 6 0.000000 0.000000 0.000000 0.000000 0.000000 0.022670
#
#
# Mechanical properties :
#
#
# Convention : Reuss Voigt Hill
#
# Bulk Modulus (GPa) = 15.73220 78.93047 47.33133
# Shear Modulus (GPa) = 17.34410 30.78859 24.06635
#
# Velocity S-wave (km/s) = 3.04913 4.06251 3.59174
# Velocity P-wave (km/s) = 4.56392 8.01970 6.52476
#
# Compressibility (1/GPa) = 0.06356391
#
# Stress axis : x y z
#
# Youngs Moduli (GPa) = 47.14473 54.37094 13.48558
#
# Poissons Ratio (x) = 0.85356 -0.06038
# Poissons Ratio (y) = 0.74012 0.18711
# Poissons Ratio (z) = -0.21107 0.75438
#
# Static dielectric constant tensor:
#      x y z
#    x 1.597700 0.000000 0.000000 
#    y 0.000000 1.668660 0.000000 
#    z 0.000000 0.000000 1.649970 
# 
# From -- ./inp_files/2028.got.cif
#   From: 2010.05.17/outbox.cif.g08.bks.cpg/sg49_2_cif.got.tgz:2028.got - 2010.06.03 21:02:19.
