data_PCOD9393953
_publ_section_title
;
Structure prediction by ZEFSAII (Michael W. Deem and Ramdas Pophale) SiO2 
 PCOD9393953
Probable space group: P C C M
;
_chemical_formula_sum "Si O2"
_cell_formula_units_Z 48
_cell_length_a 31.993322
_cell_length_b 9.700020
_cell_length_c 8.631822
_cell_angle_alpha 90.000000
_cell_angle_beta 90.000000
_cell_angle_gamma 90.000000
_cell_volume 2678.763932
_symmetry_space_group_name_H-M "P C C M"
_symmetry_group_IT_number 49
_symmetry_cell_setting 'orthorhombic'
loop_
_space_group_symop_operation_xyz
x,y,z
-x,-y,z
x,-y,1/2-z
-x,y,1/2-z
-x,-y,-z
x,y,-z
-x,y,1/2+z
x,-y,1/2+z
loop_
_atom_site_type_symbol
_atom_site_label
_atom_site_fract_x
_atom_site_fract_y
_atom_site_fract_z
Si Si1 0.955731 0.845416 0.815072
Si Si2 0.542450 0.656279 0.685223
Si Si3 0.212213 0.347372 0.686543
Si Si4 0.365211 0.655412 0.813102
Si Si5 0.288069 0.845625 0.187537
Si Si6 0.116710 0.653369 0.813730
O O1 0.917203 0.754920 0.757375
O O2 0.000000 0.790985 0.750000
O O3 0.951127 0.000000 0.750000
O O4 0.957444 0.849229 0.000000
O O5 0.543001 0.500000 0.750000
O O6 0.500000 0.723169 0.750000
O O7 0.539463 0.652160 0.500000
O O8 0.588404 0.710700 0.729635
O O9 0.221504 0.500000 0.750000
O O10 0.213722 0.354771 0.500000
O O11 0.246519 0.236917 0.737988
O O12 0.164603 0.309984 0.730385
O O13 0.359937 0.500000 0.750000
O O14 0.328272 0.756166 0.761929
O O15 0.363929 0.646434 0.000000
O O16 0.289095 0.000000 0.250000
O O17 0.288222 0.850130 0.000000
O O18 0.109234 0.500000 0.750000
O O19 0.113665 0.654238 0.000000
#
# Coordination Sequence:
#
# PCOD9393953 Si02
#       6
#     8   8   8   8   8   8
#     4  11  22  38  58  81 109 144 181 220 262 308
#     4   9  15  24  40  65  94 123 154 197 244 291
#     4   9  19  35  56  79 105 134 169 210 254 303
#     4   9  18  31  49  72  99 128 164 205 249 297
#     4  10  21  36  51  73 102 133 168 209 251 298
#     4  10  20  36  56  82 111 140 174 215 260 309
#
# _framework density 17.918713
#
# number of rings (size 3 to 8) (size 9 to 14) (size 15 to 20)
#    0.000    2.333    0.000    4.000    0.000    3.667 
#    0.000    3.333    0.000    0.500    0.000    3.500 
#    0.000    0.000    0.000    0.000    0.000    0.000 
#
# Total GULP energy -267718.933043 kJ/mol
# GULP energy per Si atom -5577.477772 kJ/mol
# Density = 1.787793 g / cm^3
# Si number density = 17.918713 Si / 1000 Ang^3
#
#
#
# Elastic Constant Matrix: (Units=GPa)
#
#
# Indices 1 2 3 4 5 6 
#
# 1 190.1398 107.0819 51.5102 0.0000 0.0000 0.0000
# 2 107.0819 94.1139 29.4943 0.0000 0.0000 0.0000
# 3 51.5102 29.4943 59.3874 0.0000 0.0000 0.0000
# 4 0.0000 0.0000 0.0000 29.5379 0.0000 0.0000
# 5 0.0000 0.0000 0.0000 0.0000 -39.4916 0.0000
# 6 0.0000 0.0000 0.0000 0.0000 0.0000 4.4000
#
#
#
# Elastic Compliance Matrix: (Units=1/GPa)
#
#
# Indices 1 2 3 4 5 6 
#
# 1 0.016161 -0.016575 -0.005786 0.000000 0.000000 0.000000
# 2 -0.016575 0.029583 -0.000316 0.000000 0.000000 0.000000
# 3 -0.005786 -0.000316 0.022014 0.000000 0.000000 0.000000
# 4 0.000000 0.000000 0.000000 0.033855 0.000000 0.000000
# 5 0.000000 0.000000 0.000000 0.000000 -0.025322 0.000000
# 6 0.000000 0.000000 0.000000 0.000000 0.000000 0.227272
#
#
# Mechanical properties :
#
#
# Convention : Reuss Voigt Hill
#
# Bulk Modulus (GPa) = 44.63267 79.97931 62.30599
# Shear Modulus (GPa) = 14.02976 9.25957 11.64467
#
# Velocity S-wave (km/s) = 2.80119 2.27569 2.55200
# Velocity P-wave (km/s) = 5.95187 7.18585 6.59777
#
# Compressibility (1/GPa) = 0.02240511
#
# Stress axis : x y z
#
# Youngs Moduli (GPa) = 61.87611 33.80286 45.42601
#
# Poissons Ratio (x) = 0.56028 0.26283
# Poissons Ratio (y) = 1.02560 0.01435
# Poissons Ratio (z) = 0.35800 0.01068
#
# Static dielectric constant tensor:
#      x y z
#    x 1.657030 0.000000 0.000000 
#    y 0.000000 1.592590 0.000000 
#    z 0.000000 0.000000 1.652430 
# 
# From -- ./inp_files/6886.got.cif
#   From: 2010.05.17/outbox.cif.g08.bks.cpg/sg49_4_cif.got.tgz:6886.got - 2010.06.03 21:02:19.
