data_PCOD9393806
_publ_section_title
;
Structure prediction by ZEFSAII (Michael W. Deem and Ramdas Pophale) SiO2 
 PCOD9393806
Probable space group: P C C M
;
_chemical_formula_sum "Si O2"
_cell_formula_units_Z 64
_cell_length_a 9.210842
_cell_length_b 16.175854
_cell_length_c 23.844603
_cell_angle_alpha 90.000000
_cell_angle_beta 90.000000
_cell_angle_gamma 90.000000
_cell_volume 3552.684548
_symmetry_space_group_name_H-M "P C C M"
_symmetry_group_IT_number 49
_symmetry_cell_setting 'orthorhombic'
loop_
_space_group_symop_operation_xyz
x,y,z
-x,-y,z
x,-y,1/2-z
-x,y,1/2-z
-x,-y,-z
x,y,-z
-x,y,1/2+z
x,-y,1/2+z
loop_
_atom_site_type_symbol
_atom_site_label
_atom_site_fract_x
_atom_site_fract_y
_atom_site_fract_z
Si Si1 0.708279 0.834894 0.067300
Si Si2 0.820920 0.325877 0.067134
Si Si3 0.800401 0.832523 0.640846
Si Si4 0.328817 0.099887 0.246231
Si Si5 0.835933 0.660133 0.932468
Si Si6 0.334032 0.498310 0.568082
Si Si7 0.416898 0.913736 0.065468
Si Si8 0.904212 0.915692 0.147898
O O1 0.764412 0.745776 0.087093
O O2 0.541000 0.848687 0.083543
O O3 0.812020 0.906933 0.090889
O O4 0.712737 0.838625 0.000000
O O5 0.770393 0.251625 0.107127
O O6 0.739387 0.410807 0.080690
O O7 0.992238 0.339559 0.076974
O O8 0.800443 0.306891 0.000000
O O9 0.740271 0.849395 0.702538
O O10 0.722598 0.902832 0.603362
O O11 0.971302 0.847049 0.643980
O O12 0.500000 0.122340 0.250000
O O13 0.218006 0.108317 0.193800
O O14 0.328076 0.000000 0.250000
O O15 0.756878 0.577499 0.911331
O O16 0.817778 0.660325 0.000000
O O17 0.500000 0.500000 0.587523
O O18 0.335577 0.503358 0.500000
O O19 0.500000 0.000000 0.072327
O O20 0.381408 0.903059 0.000000
O O21 0.000000 0.000000 0.157935
#
# Coordination Sequence:
#
# PCOD9393806 Si02
#       8
#     8   8   8   8   8   8   8   8
#     4  10  21  36  56  83 121 160 197 234 286 355
#     4  10  20  35  54  85 124 156 187 231 293 357
#     4  12  23  35  60  85 114 148 194 248 300 344
#     4  11  25  43  63  80 107 149 198 252 301 344
#     4   9  17  32  51  77 114 156 190 227 278 338
#     4   9  18  31  53  82 115 156 194 230 278 345
#     4  10  22  37  52  78 117 162 199 234 285 350
#     4  12  23  39  60  86 116 149 199 252 296 341
#
# _framework density 18.014544999999998
#
# number of rings (size 3 to 8) (size 9 to 14) (size 15 to 20)
#    0.000    1.625    2.500    2.625    3.500    2.250 
#    0.000    0.000    0.000    0.000    0.000    0.875 
#    0.000    0.000    0.000    0.000    0.000    0.000 
#
# Total GULP energy -356661.067863 kJ/mol
# GULP energy per Si atom -5572.829185 kJ/mol
# Density = 1.797354 g / cm^3
# Si number density = 18.014545 Si / 1000 Ang^3
#
#
#
# Elastic Constant Matrix: (Units=GPa)
#
#
# Indices 1 2 3 4 5 6 
#
# 1 98.8986 28.2936 29.1899 0.0000 0.0000 0.0000
# 2 28.2936 84.1431 22.6457 0.0000 0.0000 0.0000
# 3 29.1899 22.6457 37.8352 0.0000 0.0000 0.0000
# 4 0.0000 0.0000 0.0000 11.8404 0.0000 0.0000
# 5 0.0000 0.0000 0.0000 0.0000 0.3196 0.0000
# 6 0.0000 0.0000 0.0000 0.0000 0.0000 31.0396
#
#
#
# Elastic Compliance Matrix: (Units=1/GPa)
#
#
# Indices 1 2 3 4 5 6 
#
# 1 0.013383 -0.002052 -0.009097 0.000000 0.000000 0.000000
# 2 -0.002052 0.014481 -0.007084 0.000000 0.000000 0.000000
# 3 -0.009097 -0.007084 0.037689 0.000000 0.000000 0.000000
# 4 0.000000 0.000000 0.000000 0.084456 0.000000 0.000000
# 5 0.000000 0.000000 0.000000 0.000000 3.128560 0.000000
# 6 0.000000 0.000000 0.000000 0.000000 0.000000 0.032217
#
#
# Mechanical properties :
#
#
# Convention : Reuss Voigt Hill
#
# Bulk Modulus (GPa) = 34.37995 42.34836 38.36416
# Shear Modulus (GPa) = 1.48945 18.02312 9.75629
#
# Velocity S-wave (km/s) = 0.91027 3.16646 2.32971
# Velocity P-wave (km/s) = 4.49786 6.07680 5.34595
#
# Compressibility (1/GPa) = 0.02908672
#
# Stress axis : x y z
#
# Youngs Moduli (GPa) = 74.71933 69.05541 26.53280
#
# Poissons Ratio (x) = 0.14169 0.24137
# Poissons Ratio (y) = 0.15332 0.18797
# Poissons Ratio (z) = 0.67974 0.48922
#
# Static dielectric constant tensor:
#      x y z
#    x 1.644130 0.000000 0.000000 
#    y 0.000000 1.640990 0.000000 
#    z 0.000000 0.000000 1.629620 
# 
# From -- ./inp_files/22542.got.cif
#   From: 2010.05.17/outbox.cif.g08.bks.cpg/sg49_12_cif.got.tgz:22542.got - 2010.06.03 21:02:19.
