data_PCOD9393510
_publ_section_title
;
Structure prediction by ZEFSAII (Michael W. Deem and Ramdas Pophale) SiO2 
 PCOD9393510
Probable space group: P C C M
;
_chemical_formula_sum "Si O2"
_cell_formula_units_Z 56
_cell_length_a 20.278419
_cell_length_b 15.702680
_cell_length_c 8.930371
_cell_angle_alpha 90.000000
_cell_angle_beta 90.000000
_cell_angle_gamma 90.000000
_cell_volume 2843.658069
_symmetry_space_group_name_H-M "P C C M"
_symmetry_group_IT_number 49
_symmetry_cell_setting 'orthorhombic'
loop_
_space_group_symop_operation_xyz
x,y,z
-x,-y,z
x,-y,1/2-z
-x,y,1/2-z
-x,-y,-z
x,y,-z
-x,y,1/2+z
x,-y,1/2+z
loop_
_atom_site_type_symbol
_atom_site_label
_atom_site_fract_x
_atom_site_fract_y
_atom_site_fract_z
Si Si1 0.168818 0.409784 0.679880
Si Si2 0.929918 0.273124 0.680826
Si Si3 0.749970 0.869710 0.670955
Si Si4 0.432942 0.731611 0.322216
Si Si5 0.117744 0.086347 0.823532
Si Si6 0.401850 0.912987 0.825739
Si Si7 0.300850 0.679079 0.823315
O O1 0.149754 0.500000 0.750000
O O2 0.160814 0.408894 0.500000
O O3 0.125273 0.335420 0.752737
O O4 0.245867 0.390535 0.712872
O O5 0.930283 0.277916 0.500000
O O6 0.914701 0.175274 0.726244
O O7 0.000000 0.297889 0.750000
O O8 0.774569 0.879532 0.500000
O O9 0.804970 0.904386 0.781279
O O10 0.678080 0.911661 0.680338
O O11 0.735394 0.770148 0.699329
O O12 0.500000 0.696913 0.250000
O O13 0.437640 0.733655 0.500000
O O14 0.424189 0.827929 0.259107
O O15 0.367865 0.681125 0.269862
O O16 0.091792 0.000000 0.750000
O O17 0.110180 0.079603 0.000000
O O18 0.424707 0.000000 0.750000
O O19 0.421367 0.907917 0.000000
O O20 0.317639 0.675161 0.000000
#
# Coordination Sequence:
#
# PCOD9393510 Si02
#       7
#     8   8   8   8   8   8   8
#     4  11  23  42  70 101 132 163 200 251 307 371
#     4  11  25  44  65  92 126 167 211 258 311 370
#     4   9  17  32  54  79 111 151 197 247 303 359
#     4  11  22  36  56  81 113 155 201 249 302 365
#     4  11  23  36  56  85 119 160 209 259 306 363
#     4  10  20  33  48  73 108 148 198 252 307 363
#     4   9  19  37  61  88 120 158 197 245 302 359
#
# _framework density 19.692944000000001
#
# number of rings (size 3 to 8) (size 9 to 14) (size 15 to 20)
#    0.000    1.714    1.429    4.286    0.000    7.714 
#    0.000    4.286    0.000    0.429    0.000    3.000 
#    0.000    0.000    0.000    0.000    0.000    0.000 
#
# Total GULP energy -312971.714229 kJ/mol
# GULP energy per Si atom -5588.780611 kJ/mol
# Density = 1.964812 g / cm^3
# Si number density = 19.692944 Si / 1000 Ang^3
#
#
#
# Elastic Constant Matrix: (Units=GPa)
#
#
# Indices 1 2 3 4 5 6 
#
# 1 98.8335 30.4603 52.3643 0.0000 0.0000 0.0000
# 2 30.4603 89.0817 43.3359 0.0000 0.0000 0.0000
# 3 52.3643 43.3359 98.6997 0.0000 0.0000 0.0000
# 4 0.0000 0.0000 0.0000 251.3958 0.0000 0.0000
# 5 0.0000 0.0000 0.0000 0.0000 22.6610 0.0000
# 6 0.0000 0.0000 0.0000 0.0000 0.0000 -7.2073
#
#
#
# Elastic Compliance Matrix: (Units=1/GPa)
#
#
# Indices 1 2 3 4 5 6 
#
# 1 0.014234 -0.001518 -0.006885 0.000000 0.000000 0.000000
# 2 -0.001518 0.014436 -0.005533 0.000000 0.000000 0.000000
# 3 -0.006885 -0.005533 0.016214 0.000000 0.000000 0.000000
# 4 0.000000 0.000000 0.000000 0.003978 0.000000 0.000000
# 5 0.000000 0.000000 0.000000 0.000000 0.044129 0.000000
# 6 0.000000 0.000000 0.000000 0.000000 0.000000 -0.138748
#
#
# Mechanical properties :
#
#
# Convention : Reuss Voigt Hill
#
# Bulk Modulus (GPa) = 58.78257 59.88175 59.33216
# Shear Modulus (GPa) = -409.35437 64.06686 -172.64375
#
# Velocity S-wave (km/s) = -14.43329 5.70995 -9.37327
# Velocity P-wave (km/s) = 15.74311 8.59913 9.32471
#
# Compressibility (1/GPa) = 0.01701185
#
# Stress axis : x y z
#
# Youngs Moduli (GPa) = 70.25576 69.26924 61.67419
#
# Poissons Ratio (x) = 0.10512 0.42464
# Poissons Ratio (y) = 0.10661 0.34127
# Poissons Ratio (z) = 0.48373 0.38330
#
# Static dielectric constant tensor:
#      x y z
#    x 1.695330 0.000000 0.000000 
#    y 0.000000 1.695150 0.000000 
#    z 0.000000 0.000000 1.659260 
# 
# From -- ./inp_files/5770.got.cif
#   From: 2010.05.17/outbox.cif.g08.bks.cpg/sg49_3_cif.got.tgz:5770.got - 2010.06.03 21:02:19.
