data_PCOD9393424
_publ_section_title
;
Structure prediction by ZEFSAII (Michael W. Deem and Ramdas Pophale) SiO2 
 PCOD9393424
Probable space group: P C C M
;
_chemical_formula_sum "Si O2"
_cell_formula_units_Z 34
_cell_length_a 14.412519
_cell_length_b 5.409647
_cell_length_c 26.029903
_cell_angle_alpha 90.000000
_cell_angle_beta 90.000000
_cell_angle_gamma 90.000000
_cell_volume 2029.464081
_symmetry_space_group_name_H-M "P C C M"
_symmetry_group_IT_number 49
_symmetry_cell_setting 'orthorhombic'
loop_
_space_group_symop_operation_xyz
x,y,z
-x,-y,z
x,-y,1/2-z
-x,y,1/2-z
-x,-y,-z
x,y,-z
-x,y,1/2+z
x,-y,1/2+z
loop_
_atom_site_type_symbol
_atom_site_label
_atom_site_fract_x
_atom_site_fract_y
_atom_site_fract_z
Si Si1 0.705582 0.008404 0.189042
Si Si2 0.391743 0.493951 0.812711
Si Si3 0.905731 0.843678 0.832506
Si Si4 0.061677 0.252109 0.055469
Si Si5 0.000000 0.500000 0.750000
O O1 0.658446 0.756254 0.169098
O O2 0.815709 0.000078 0.181498
O O3 0.688028 0.000000 0.250000
O O4 0.660187 0.259394 0.168785
O O5 0.500000 0.500000 0.826574
O O6 0.387440 0.500000 0.750000
O O7 0.887537 0.739913 0.889715
O O8 0.931591 0.650504 0.787889
O O9 0.000000 0.000000 0.835299
O O10 0.000000 0.500000 0.055413
O O11 0.112632 0.249018 0.000000
O O12 0.000000 0.000000 0.055763
#
# Coordination Sequence:
#
# PCOD9393424 Si02
#       5
#     8   8   8   8   2
#     4  10  20  30  47  67  96 131 162 203 242 295
#     4   9  18  32  48  66  90 124 167 208 246 290
#     4  11  23  33  47  72 106 140 177 202 245 301
#     4   9  18  34  52  68  90 129 176 220 254 280
#     4  12  22  32  46  66 110 156 170 202 234 308
#
# _framework density 16.753193
#
# number of rings (size 3 to 8) (size 9 to 14) (size 15 to 20)
#    0.000    2.118    1.176    2.471    8.235    2.824 
#    0.000    0.000    0.000    0.000    0.000    0.000 
#    0.000    5.647    0.000    0.000    0.000    0.000 
#
# Total GULP energy -189288.899138 kJ/mol
# GULP energy per Si atom -5567.320563 kJ/mol
# Density = 1.671506 g / cm^3
# Si number density = 16.753193 Si / 1000 Ang^3
#
#
#
# Elastic Constant Matrix: (Units=GPa)
#
#
# Indices 1 2 3 4 5 6 
#
# 1 107.6410 66.9055 -1.9726 0.0000 0.0000 0.0000
# 2 66.9055 129.3212 24.0180 0.0000 0.0000 0.0000
# 3 -1.9726 24.0180 88.7219 0.0000 0.0000 0.0000
# 4 0.0000 0.0000 0.0000 14.6794 0.0000 0.0000
# 5 0.0000 0.0000 0.0000 0.0000 -11.5032 0.0000
# 6 0.0000 0.0000 0.0000 0.0000 0.0000 29.5615
#
#
#
# Elastic Compliance Matrix: (Units=1/GPa)
#
#
# Indices 1 2 3 4 5 6 
#
# 1 0.014171 -0.007781 0.002422 0.000000 0.000000 0.000000
# 2 -0.007781 0.012415 -0.003534 0.000000 0.000000 0.000000
# 3 0.002422 -0.003534 0.012282 0.000000 0.000000 0.000000
# 4 0.000000 0.000000 0.000000 0.068123 0.000000 0.000000
# 5 0.000000 0.000000 0.000000 0.000000 -0.086932 0.000000
# 6 0.000000 0.000000 0.000000 0.000000 0.000000 0.033828
#
#
# Mechanical properties :
#
#
# Convention : Reuss Voigt Hill
#
# Bulk Modulus (GPa) = 47.43753 55.95401 51.69577
# Shear Modulus (GPa) = 63.53277 22.32975 42.93126
#
# Velocity S-wave (km/s) = 6.16483 3.65480 5.06768
# Velocity P-wave (km/s) = 8.89103 7.16112 8.07255
#
# Compressibility (1/GPa) = 0.02108035
#
# Stress axis : x y z
#
# Youngs Moduli (GPa) = 70.56646 80.54970 81.42232
#
# Poissons Ratio (x) = 0.62678 -0.19717
# Poissons Ratio (y) = 0.54910 0.28773
# Poissons Ratio (z) = -0.17088 0.28465
#
# Static dielectric constant tensor:
#      x y z
#    x 1.500240 0.000000 0.000000 
#    y 0.000000 1.622320 0.000000 
#    z 0.000000 0.000000 1.602700 
# 
# From -- ./inp_files/21620.got.cif
#   From: 2010.05.17/outbox.cif.g08.bks.cpg/sg49_11_cif.got.tgz:21620.got - 2010.06.03 21:02:19.
