data_PCOD9393215
_publ_section_title
;
Structure prediction by ZEFSAII (Michael W. Deem and Ramdas Pophale) SiO2 
 PCOD9393215
Probable space group: P C C M
;
_chemical_formula_sum "Si O2"
_cell_formula_units_Z 48
_cell_length_a 15.544251
_cell_length_b 8.484098
_cell_length_c 14.647710
_cell_angle_alpha 90.000000
_cell_angle_beta 90.000000
_cell_angle_gamma 90.000000
_cell_volume 1931.724597
_symmetry_space_group_name_H-M "P C C M"
_symmetry_group_IT_number 49
_symmetry_cell_setting 'orthorhombic'
loop_
_space_group_symop_operation_xyz
x,y,z
-x,-y,z
x,-y,1/2-z
-x,y,1/2-z
-x,-y,-z
x,y,-z
-x,y,1/2+z
x,-y,1/2+z
loop_
_atom_site_type_symbol
_atom_site_label
_atom_site_fract_x
_atom_site_fract_y
_atom_site_fract_z
Si Si1 0.811245 0.874326 0.668579
Si Si2 0.040966 0.329322 0.609783
Si Si3 0.128496 0.822551 0.601568
Si Si4 0.299302 0.337497 0.111474
Si Si5 0.348893 0.690043 0.889410
Si Si6 0.472501 0.825803 0.611204
O O1 0.872892 0.723105 0.661187
O O2 0.714374 0.820313 0.651634
O O3 0.821421 0.000000 0.750000
O O4 0.846007 0.996227 0.592997
O O5 0.059037 0.325020 0.500000
O O6 0.000000 0.500000 0.630183
O O7 0.966202 0.206662 0.638722
O O8 0.121224 0.751242 0.500000
O O9 0.208577 0.729163 0.645393
O O10 0.316069 0.517407 0.136054
O O11 0.379915 0.232903 0.143537
O O12 0.298792 0.328473 0.000000
O O13 0.448229 0.713272 0.863761
O O14 0.343685 0.704414 0.000000
O O15 0.468014 0.827106 0.500000
O O16 0.500000 0.000000 0.640091
#
# Coordination Sequence:
#
# PCOD9393215 Si02
#       6
#     8   8   8   8   8   8
#     4  12  25  39  56  85 122 162 204 252 312 378
#     4  10  21  40  66  92 117 152 204 262 318 380
#     4  10  20  36  60  86 113 149 193 247 310 378
#     4   9  17  31  55  90 123 151 195 253 310 367
#     4  10  19  34  57  83 117 161 206 254 306 366
#     4   9  16  27  50  87 123 152 191 249 308 355
#
# _framework density 24.848261999999998
#
# number of rings (size 3 to 8) (size 9 to 14) (size 15 to 20)
#    0.000    2.000    0.000    4.500    0.000   10.000 
#    0.000    4.167    0.000    4.500    0.000    4.667 
#    0.000    0.000    0.000    0.000    0.000    0.667 
#
# Total GULP energy -268484.630602 kJ/mol
# GULP energy per Si atom -5593.429804 kJ/mol
# Density = 2.479171 g / cm^3
# Si number density = 24.848262 Si / 1000 Ang^3
#
#
#
# Elastic Constant Matrix: (Units=GPa)
#
#
# Indices 1 2 3 4 5 6 
#
# 1 123.5560 17.3260 17.5705 0.0000 0.0000 0.0000
# 2 17.3260 98.7508 5.8670 0.0000 0.0000 0.0000
# 3 17.5705 5.8670 89.5365 0.0000 0.0000 0.0000
# 4 0.0000 0.0000 0.0000 13.0987 0.0000 0.0000
# 5 0.0000 0.0000 0.0000 0.0000 -62.8651 0.0000
# 6 0.0000 0.0000 0.0000 0.0000 0.0000 56.3358
#
#
#
# Elastic Compliance Matrix: (Units=1/GPa)
#
#
# Indices 1 2 3 4 5 6 
#
# 1 0.008514 -0.001400 -0.001579 0.000000 0.000000 0.000000
# 2 -0.001400 0.010396 -0.000406 0.000000 0.000000 0.000000
# 3 -0.001579 -0.000406 0.011505 0.000000 0.000000 0.000000
# 4 0.000000 0.000000 0.000000 0.076343 0.000000 0.000000
# 5 0.000000 0.000000 0.000000 0.000000 -0.015907 0.000000
# 6 0.000000 0.000000 0.000000 0.000000 0.000000 0.017751
#
#
# Mechanical properties :
#
#
# Convention : Reuss Voigt Hill
#
# Bulk Modulus (GPa) = 42.29309 43.70782 43.00046
# Shear Modulus (GPa) = 40.56608 19.38587 29.97597
#
# Velocity S-wave (km/s) = 4.04487 2.79618 3.47704
# Velocity P-wave (km/s) = 6.23475 5.29650 5.78468
#
# Compressibility (1/GPa) = 0.02364452
#
# Stress axis : x y z
#
# Youngs Moduli (GPa) = 117.44836 96.18816 86.91767
#
# Poissons Ratio (x) = 0.13467 0.13725
# Poissons Ratio (y) = 0.16443 0.03533
# Poissons Ratio (z) = 0.18546 0.03910
#
# Static dielectric constant tensor:
#      x y z
#    x 1.914820 0.000000 0.000000 
#    y 0.000000 1.931840 0.000000 
#    z 0.000000 0.000000 2.147730 
# 
# From -- ./inp_files/17743.got.cif
#   From: 2010.05.17/outbox.cif.g08.bks.cpg/sg49_9_cif.got.tgz:17743.got - 2010.06.03 21:02:19.
