data_PCOD9393773
_publ_section_title
;
Structure prediction by ZEFSAII (Michael W. Deem and Ramdas Pophale) SiO2 
 PCOD9393773
Probable space group: P C C M
;
_chemical_formula_sum "Si O2"
_cell_formula_units_Z 40
_cell_length_a 9.707873
_cell_length_b 26.864984
_cell_length_c 8.584969
_cell_angle_alpha 90.000000
_cell_angle_beta 90.000000
_cell_angle_gamma 90.000000
_cell_volume 2238.975822
_symmetry_space_group_name_H-M "P C C M"
_symmetry_group_IT_number 49
_symmetry_cell_setting 'orthorhombic'
loop_
_space_group_symop_operation_xyz
x,y,z
-x,-y,z
x,-y,1/2-z
-x,y,1/2-z
-x,-y,-z
x,y,-z
-x,y,1/2+z
x,-y,1/2+z
loop_
_atom_site_type_symbol
_atom_site_label
_atom_site_fract_x
_atom_site_fract_y
_atom_site_fract_z
Si Si1 0.343653 0.141959 0.314113
Si Si2 0.344730 0.355243 0.812249
Si Si3 0.343417 0.754242 0.312927
Si Si4 0.845201 0.553356 0.812557
Si Si5 0.154464 0.054042 0.813631
O O1 0.500000 0.138503 0.250000
O O2 0.347244 0.140041 0.500000
O O3 0.283498 0.195495 0.259868
O O4 0.253932 0.097214 0.246449
O O5 0.500000 0.360072 0.750000
O O6 0.286679 0.300343 0.769433
O O7 0.250226 0.400927 0.760547
O O8 0.351419 0.356265 0.000000
O O9 0.500000 0.752752 0.250000
O O10 0.343997 0.759026 0.500000
O O11 0.794635 0.500000 0.750000
O O12 0.000000 0.560038 0.750000
O O13 0.848479 0.551884 0.000000
O O14 0.000000 0.062468 0.750000
O O15 0.199271 0.000000 0.750000
O O16 0.151660 0.052946 0.000000
#
# Coordination Sequence:
#
# PCOD9393773 Si02
#       5
#     8   8   8   8   8
#     4  11  21  35  55  82 110 141 178 219 262 310
#     4   9  19  33  52  76 103 132 169 211 256 305
#     4   9  16  30  50  74 103 136 169 210 258 308
#     4  10  20  35  52  73  99 133 170 209 254 306
#     4  11  22  39  59  81 108 142 178 217 263 315
#
# _framework density 17.865310999999998
#
# number of rings (size 3 to 8) (size 9 to 14) (size 15 to 20)
#    0.000    2.000    0.000    7.200    0.000    3.200 
#    0.000    5.000    0.000    2.400    0.000    0.000 
#    0.000    0.000    0.000    0.000    0.000    0.000 
#
# Total GULP energy -223155.149567 kJ/mol
# GULP energy per Si atom -5578.878739 kJ/mol
# Density = 1.782465 g / cm^3
# Si number density = 17.865311 Si / 1000 Ang^3
#
#
#
# Elastic Constant Matrix: (Units=GPa)
#
#
# Indices 1 2 3 4 5 6 
#
# 1 50.1122 84.1687 29.6178 0.0000 0.0000 0.0000
# 2 84.1687 221.2444 69.3687 0.0000 0.0000 0.0000
# 3 29.6178 69.3687 121.2109 0.0000 0.0000 0.0000
# 4 0.0000 0.0000 0.0000 32.6398 0.0000 0.0000
# 5 0.0000 0.0000 0.0000 0.0000 17.6424 0.0000
# 6 0.0000 0.0000 0.0000 0.0000 0.0000 -95.8380
#
#
#
# Elastic Compliance Matrix: (Units=1/GPa)
#
#
# Indices 1 2 3 4 5 6 
#
# 1 0.055596 -0.020585 -0.001804 0.000000 0.000000 0.000000
# 2 -0.020585 0.013130 -0.002484 0.000000 0.000000 0.000000
# 3 -0.001804 -0.002484 0.010113 0.000000 0.000000 0.000000
# 4 0.000000 0.000000 0.000000 0.030637 0.000000 0.000000
# 5 0.000000 0.000000 0.000000 0.000000 0.056682 0.000000
# 6 0.000000 0.000000 0.000000 0.000000 0.000000 -0.010434
#
#
# Mechanical properties :
#
#
# Convention : Reuss Voigt Hill
#
# Bulk Modulus (GPa) = 34.37386 84.31974 59.34680
# Shear Modulus (GPa) = 23.23771 4.84966 14.04369
#
# Velocity S-wave (km/s) = 3.61046 1.64938 2.80677
# Velocity P-wave (km/s) = 6.05499 7.13633 6.61778
#
# Compressibility (1/GPa) = 0.02909188
#
# Stress axis : x y z
#
# Youngs Moduli (GPa) = 17.98694 76.16157 98.88531
#
# Poissons Ratio (x) = 1.56777 0.17840
# Poissons Ratio (y) = 0.37026 0.24567
# Poissons Ratio (z) = 0.03245 0.18921
#
# Static dielectric constant tensor:
#      x y z
#    x 1.526780 0.000000 0.000000 
#    y 0.000000 1.650460 0.000000 
#    z 0.000000 0.000000 1.598850 
# 
# From -- ./inp_files/1916.got.cif
#   From: 2010.05.17/outbox.cif.g08.bks.cpg/sg49_1_cif.got.tgz:1916.got - 2010.06.03 21:02:19.
