data_PCOD9393244
_publ_section_title
;
Structure prediction by ZEFSAII (Michael W. Deem and Ramdas Pophale) SiO2 
 PCOD9393244
Probable space group: P C C M
;
_chemical_formula_sum "Si O2"
_cell_formula_units_Z 64
_cell_length_a 9.189188
_cell_length_b 14.825469
_cell_length_c 25.582130
_cell_angle_alpha 90.000000
_cell_angle_beta 90.000000
_cell_angle_gamma 90.000000
_cell_volume 3485.156457
_symmetry_space_group_name_H-M "P C C M"
_symmetry_group_IT_number 49
_symmetry_cell_setting 'orthorhombic'
loop_
_space_group_symop_operation_xyz
x,y,z
-x,-y,z
x,-y,1/2-z
-x,y,1/2-z
-x,-y,-z
x,y,-z
-x,y,1/2+z
x,-y,1/2+z
loop_
_atom_site_type_symbol
_atom_site_label
_atom_site_fract_x
_atom_site_fract_y
_atom_site_fract_z
Si Si1 0.684590 0.232226 0.436950
Si Si2 0.146474 0.869770 0.720807
Si Si3 0.596833 0.912262 0.148130
Si Si4 0.087979 0.291037 0.142215
Si Si5 0.522160 0.398113 0.061150
Si Si6 0.389409 0.227534 0.291181
Si Si7 0.764175 0.360919 0.128955
Si Si8 0.829240 0.472455 0.306964
O O1 0.684178 0.220871 0.500000
O O2 0.638926 0.142952 0.404332
O O3 0.836942 0.262231 0.411655
O O4 0.581269 0.316506 0.420868
O O5 0.258147 0.929032 0.684430
O O6 0.088639 0.793613 0.680920
O O7 0.254914 0.821472 0.762119
O O8 0.000000 0.904066 0.750000
O O9 0.491645 0.846313 0.181103
O O10 0.500000 0.000000 0.137463
O O11 0.173803 0.369766 0.173918
O O12 0.928089 0.326805 0.130137
O O13 0.500000 0.500000 0.082029
O O14 0.684370 0.365372 0.073955
O O15 0.494847 0.403720 0.000000
O O16 0.500000 0.272995 0.250000
O O17 0.326204 0.297349 0.332314
O O18 0.760266 0.461607 0.151277
O O19 0.770770 0.500000 0.250000
O O20 0.000000 0.500000 0.305403
#
# Coordination Sequence:
#
# PCOD9393244 Si02
#       8
#     8   8   8   8   8   8   8   8
#     4  10  21  39  61  84 113 151 197 248 305 356
#     4  10  19  34  60  84 116 156 187 232 290 352
#     4  10  22  40  60  85 118 152 196 245 295 359
#     4  10  20  33  56  84 116 150 197 242 292 347
#     4  10  21  37  56  79 111 149 193 244 294 349
#     4  10  20  34  55  80 115 151 189 227 282 351
#     4  11  19  34  55  78 113 154 194 238 288 340
#     4   9  18  29  47  77 113 155 192 231 274 341
#
# _framework density 18.363593999999999
#
# number of rings (size 3 to 8) (size 9 to 14) (size 15 to 20)
#    0.000    2.000    2.500    1.500    1.750    3.000 
#    2.250    1.250    0.000    4.500    0.000    0.875 
#    0.000    0.000    0.000    0.000    0.000    0.500 
#
# Total GULP energy -356543.238681 kJ/mol
# GULP energy per Si atom -5570.988104 kJ/mol
# Density = 1.832180 g / cm^3
# Si number density = 18.363594 Si / 1000 Ang^3
#
#
#
# Elastic Constant Matrix: (Units=GPa)
#
#
# Indices 1 2 3 4 5 6 
#
# 1 106.5132 39.5832 39.8117 0.0000 0.0000 0.0000
# 2 39.5832 86.7020 23.6544 0.0000 0.0000 0.0000
# 3 39.8117 23.6544 52.1975 0.0000 0.0000 0.0000
# 4 0.0000 0.0000 0.0000 4.6241 0.0000 0.0000
# 5 0.0000 0.0000 0.0000 0.0000 26.6003 0.0000
# 6 0.0000 0.0000 0.0000 0.0000 0.0000 21.7600
#
#
#
# Elastic Compliance Matrix: (Units=1/GPa)
#
#
# Indices 1 2 3 4 5 6 
#
# 1 0.014277 -0.004048 -0.009055 0.000000 0.000000 0.000000
# 2 -0.004048 0.014308 -0.003397 0.000000 0.000000 0.000000
# 3 -0.009055 -0.003397 0.027604 0.000000 0.000000 0.000000
# 4 0.000000 0.000000 0.000000 0.216257 0.000000 0.000000
# 5 0.000000 0.000000 0.000000 0.000000 0.037593 0.000000
# 6 0.000000 0.000000 0.000000 0.000000 0.000000 0.045956
#
#
# Mechanical properties :
#
#
# Convention : Reuss Voigt Hill
#
# Bulk Modulus (GPa) = 43.12200 50.16791 46.64496
# Shear Modulus (GPa) = 12.60316 20.08780 16.34548
#
# Velocity S-wave (km/s) = 2.62260 3.31099 2.98670
# Velocity P-wave (km/s) = 5.71874 6.48039 6.11144
#
# Compressibility (1/GPa) = 0.02319002
#
# Stress axis : x y z
#
# Youngs Moduli (GPa) = 70.04106 69.88862 36.22677
#
# Poissons Ratio (x) = 0.28289 0.32804
# Poissons Ratio (y) = 0.28351 0.12306
# Poissons Ratio (z) = 0.63424 0.23741
#
# Static dielectric constant tensor:
#      x y z
#    x 1.644640 0.000000 0.000000 
#    y 0.000000 1.648100 0.000000 
#    z 0.000000 0.000000 1.635360 
# 
# From -- ./inp_files/22567.got.cif
#   From: 2010.05.17/outbox.cif.g08.bks.cpg/sg49_12_cif.got.tgz:22567.got - 2010.06.03 21:02:19.
