data_PCOD9393377
_publ_section_title
;
Structure prediction by ZEFSAII (Michael W. Deem and Ramdas Pophale) SiO2 
 PCOD9393377
Probable space group: P C C M
;
_chemical_formula_sum "Si O2"
_cell_formula_units_Z 48
_cell_length_a 12.770613
_cell_length_b 7.272362
_cell_length_c 20.321148
_cell_angle_alpha 90.000000
_cell_angle_beta 90.000000
_cell_angle_gamma 90.000000
_cell_volume 1887.276238
_symmetry_space_group_name_H-M "P C C M"
_symmetry_group_IT_number 49
_symmetry_cell_setting 'orthorhombic'
loop_
_space_group_symop_operation_xyz
x,y,z
-x,-y,z
x,-y,1/2-z
-x,y,1/2-z
-x,-y,-z
x,y,-z
-x,y,1/2+z
x,-y,1/2+z
loop_
_atom_site_type_symbol
_atom_site_label
_atom_site_fract_x
_atom_site_fract_y
_atom_site_fract_z
Si Si1 0.641679 0.095751 0.573620
Si Si2 0.398561 0.621705 0.675633
Si Si3 0.192992 0.290208 0.250076
Si Si4 0.308537 0.661826 0.928259
Si Si5 0.868991 0.175428 0.607870
Si Si6 0.095392 0.237919 0.607246
O O1 0.599080 0.118729 0.500000
O O2 0.577072 0.200035 0.630139
O O3 0.754459 0.200082 0.577291
O O4 0.662259 0.877611 0.584857
O O5 0.500000 0.500000 0.689952
O O6 0.318882 0.694538 0.732964
O O7 0.339536 0.475006 0.629122
O O8 0.156588 0.500000 0.250000
O O9 0.149255 0.186068 0.186685
O O10 0.143457 0.224331 0.318290
O O11 0.182883 0.648512 0.929725
O O12 0.353085 0.613499 0.000000
O O13 0.974707 0.291601 0.598998
O O14 0.895403 0.971482 0.584003
#
# Coordination Sequence:
#
# PCOD9393377 Si02
#       6
#     8   8   8   8   8   8
#     4   9  20  39  62  91 124 159 200 248 301 359
#     4  11  24  42  62  86 116 156 207 259 312 363
#     4  11  21  37  56  83 115 154 195 249 300 353
#     4  10  21  39  62  89 124 159 198 250 302 357
#     4   9  20  34  60  87 122 161 198 239 286 360
#     4  10  19  37  57  89 122 160 200 235 293 359
#
# _framework density 25.433477
#
# number of rings (size 3 to 8) (size 9 to 14) (size 15 to 20)
#    0.000    2.000    1.667    1.500    0.000    5.667 
#    0.000    5.000    0.000    3.000    0.000    0.000 
#    0.000    0.000    0.000    0.000    0.000    0.000 
#
# Total GULP energy -267750.241186 kJ/mol
# GULP energy per Si atom -5578.130025 kJ/mol
# Density = 2.537559 g / cm^3
# Si number density = 25.433477 Si / 1000 Ang^3
#
#
#
# Elastic Constant Matrix: (Units=GPa)
#
#
# Indices 1 2 3 4 5 6 
#
# 1 150.7749 21.2604 11.8820 0.0000 0.0000 0.0000
# 2 21.2604 89.5205 10.1870 0.0000 0.0000 0.0000
# 3 11.8820 10.1870 108.3479 0.0000 0.0000 0.0000
# 4 0.0000 0.0000 0.0000 7.5217 0.0000 0.0000
# 5 0.0000 0.0000 0.0000 0.0000 18.9719 0.0000
# 6 0.0000 0.0000 0.0000 0.0000 0.0000 39.9331
#
#
#
# Elastic Compliance Matrix: (Units=1/GPa)
#
#
# Indices 1 2 3 4 5 6 
#
# 1 0.006902 -0.001570 -0.000609 0.000000 0.000000 0.000000
# 2 -0.001570 0.011648 -0.000923 0.000000 0.000000 0.000000
# 3 -0.000609 -0.000923 0.009383 0.000000 0.000000 0.000000
# 4 0.000000 0.000000 0.000000 0.132948 0.000000 0.000000
# 5 0.000000 0.000000 0.000000 0.000000 0.052710 0.000000
# 6 0.000000 0.000000 0.000000 0.000000 0.000000 0.025042
#
#
# Mechanical properties :
#
#
# Convention : Reuss Voigt Hill
#
# Bulk Modulus (GPa) = 46.02119 48.36690 47.19405
# Shear Modulus (GPa) = 19.83493 33.63960 26.73726
#
# Velocity S-wave (km/s) = 2.79565 3.64077 3.24584
# Velocity P-wave (km/s) = 5.34368 6.06069 5.71344
#
# Compressibility (1/GPa) = 0.02172912
#
# Stress axis : x y z
#
# Youngs Moduli (GPa) = 144.89034 85.84811 106.57423
#
# Poissons Ratio (x) = 0.13476 0.06493
# Poissons Ratio (y) = 0.22745 0.09837
# Poissons Ratio (z) = 0.08828 0.07924
#
# Static dielectric constant tensor:
#      x y z
#    x 2.176350 0.000000 0.000000 
#    y 0.000000 2.010520 0.000000 
#    z 0.000000 0.000000 2.100790 
# 
# From -- ./inp_files/24761.got.cif
#   From: 2010.05.17/outbox.cif.g08.bks.cpg/sg49_13_cif.got.tgz:24761.got - 2010.06.03 21:02:19.
