data_PCOD9393193
_publ_section_title
;
Structure prediction by ZEFSAII (Michael W. Deem and Ramdas Pophale) SiO2 
 PCOD9393193
Probable space group: P C C M
;
_chemical_formula_sum "Si O2"
_cell_formula_units_Z 64
_cell_length_a 23.255696
_cell_length_b 5.640759
_cell_length_c 27.444329
_cell_angle_alpha 90.000000
_cell_angle_beta 90.000000
_cell_angle_gamma 90.000000
_cell_volume 3600.140945
_symmetry_space_group_name_H-M "P C C M"
_symmetry_group_IT_number 49
_symmetry_cell_setting 'orthorhombic'
loop_
_space_group_symop_operation_xyz
x,y,z
-x,-y,z
x,-y,1/2-z
-x,y,1/2-z
-x,-y,-z
x,y,-z
-x,y,1/2+z
x,-y,1/2+z
loop_
_atom_site_type_symbol
_atom_site_label
_atom_site_fract_x
_atom_site_fract_y
_atom_site_fract_z
Si Si1 0.244347 0.009630 0.553808
Si Si2 0.167566 0.748610 0.868531
Si Si3 0.916088 0.252214 0.723718
Si Si4 0.432471 0.535297 0.059005
Si Si5 0.142140 0.365221 0.946428
Si Si6 0.787885 0.252968 0.240712
Si Si7 0.620174 0.040055 0.442058
Si Si8 0.062536 0.105483 0.881316
O O1 0.240386 0.128147 0.500000
O O2 0.219210 0.156270 0.598122
O O3 0.310902 0.957093 0.562191
O O4 0.200438 0.789177 0.551593
O O5 0.148611 0.521716 0.898581
O O6 0.189390 0.728878 0.814165
O O7 0.112051 0.915818 0.868509
O O8 0.932445 0.500000 0.750000
O O9 0.845978 0.248709 0.726021
O O10 0.938547 0.258819 0.668512
O O11 0.933002 0.000000 0.750000
O O12 0.500000 0.500000 0.068719
O O13 0.406937 0.789986 0.076476
O O14 0.402689 0.292460 0.077443
O O15 0.424865 0.539812 0.000000
O O16 0.086176 0.215005 0.931614
O O17 0.135002 0.477953 0.000000
O O18 0.755752 0.500000 0.250000
O O19 0.758425 0.000000 0.250000
O O20 0.606403 0.041790 0.500000
O O21 0.000000 0.000000 0.888215
#
# Coordination Sequence:
#
# PCOD9393193 Si02
#       8
#     8   8   8   8   8   8   8   8
#     4   9  20  34  52  76 101 136 184 237 276 306
#     4  11  21  37  57  76 102 134 175 227 276 335
#     4  10  19  37  58  82 107 131 160 202 257 335
#     4   9  16  26  42  66 100 140 178 219 264 306
#     4  10  22  39  58  76 101 139 185 234 280 326
#     4  10  19  34  56  79 105 132 164 206 258 338
#     4   9  17  28  44  68  99 134 180 229 264 303
#     4  11  24  40  56  80 107 137 171 226 278 345
#
# _framework density 17.777083000000001
#
# number of rings (size 3 to 8) (size 9 to 14) (size 15 to 20)
#    0.000    2.125    2.500    2.250    3.500    3.000 
#    0.000    1.875    0.000    0.000    0.000    0.000 
#    0.000    0.000    0.000    0.000    0.000    9.375 
#
# Total GULP energy -356316.195770 kJ/mol
# GULP energy per Si atom -5567.440559 kJ/mol
# Density = 1.773662 g / cm^3
# Si number density = 17.777083 Si / 1000 Ang^3
#
#
#
# Elastic Constant Matrix: (Units=GPa)
#
#
# Indices 1 2 3 4 5 6 
#
# 1 55.4258 38.2917 24.5749 0.0000 0.0000 0.0000
# 2 38.2917 111.4371 26.7765 0.0000 0.0000 0.0000
# 3 24.5749 26.7765 58.8580 0.0000 0.0000 0.0000
# 4 0.0000 0.0000 0.0000 12.9654 0.0000 0.0000
# 5 0.0000 0.0000 0.0000 0.0000 4.6442 0.0000
# 6 0.0000 0.0000 0.0000 0.0000 0.0000 -8.0072
#
#
#
# Elastic Compliance Matrix: (Units=1/GPa)
#
#
# Indices 1 2 3 4 5 6 
#
# 1 0.026483 -0.007234 -0.007767 0.000000 0.000000 0.000000
# 2 -0.007234 0.012051 -0.002462 0.000000 0.000000 0.000000
# 3 -0.007767 -0.002462 0.021353 0.000000 0.000000 0.000000
# 4 0.000000 0.000000 0.000000 0.077128 0.000000 0.000000
# 5 0.000000 0.000000 0.000000 0.000000 0.215325 0.000000
# 6 0.000000 0.000000 0.000000 0.000000 0.000000 -0.124888
#
#
# Mechanical properties :
#
#
# Convention : Reuss Voigt Hill
#
# Bulk Modulus (GPa) = 40.06075 45.00079 42.53077
# Shear Modulus (GPa) = 18.47077 10.99232 14.73155
#
# Velocity S-wave (km/s) = 3.22688 2.48935 2.88181
# Velocity P-wave (km/s) = 6.03885 5.79925 5.92026
#
# Compressibility (1/GPa) = 0.02496209
#
# Stress axis : x y z
#
# Youngs Moduli (GPa) = 37.75939 82.98085 46.83210
#
# Poissons Ratio (x) = 0.60028 0.36373
# Poissons Ratio (y) = 0.27315 0.11530
# Poissons Ratio (z) = 0.29326 0.20430
#
# Static dielectric constant tensor:
#      x y z
#    x 1.563410 0.000000 0.000000 
#    y 0.000000 1.760280 0.000000 
#    z 0.000000 0.000000 1.750080 
# 
# From -- ./inp_files/25234.got.cif
#   From: 2010.05.17/outbox.cif.g08.bks.cpg/sg49_13_cif.got.tgz:25234.got - 2010.06.03 21:02:19.
