data_PCOD9393600
_publ_section_title
;
Structure prediction by ZEFSAII (Michael W. Deem and Ramdas Pophale) SiO2 
 PCOD9393600
Probable space group: P C C M
;
_chemical_formula_sum "Si O2"
_cell_formula_units_Z 64
_cell_length_a 9.468608
_cell_length_b 15.390386
_cell_length_c 23.538023
_cell_angle_alpha 90.000000
_cell_angle_beta 90.000000
_cell_angle_gamma 90.000000
_cell_volume 3430.090924
_symmetry_space_group_name_H-M "P C C M"
_symmetry_group_IT_number 49
_symmetry_cell_setting 'orthorhombic'
loop_
_space_group_symop_operation_xyz
x,y,z
-x,-y,z
x,-y,1/2-z
-x,y,1/2-z
-x,-y,-z
x,y,-z
-x,y,1/2+z
x,-y,1/2+z
loop_
_atom_site_type_symbol
_atom_site_label
_atom_site_fract_x
_atom_site_fract_y
_atom_site_fract_z
Si Si1 0.336750 0.666850 0.859360
Si Si2 0.328685 0.500526 0.065307
Si Si3 0.170255 0.728282 0.751003
Si Si4 0.150890 0.007083 0.565860
Si Si5 0.660916 0.098141 0.730757
Si Si6 0.342113 0.858383 0.401429
Si Si7 0.328655 0.667384 0.361192
Si Si8 0.655129 0.160332 0.066229
O O1 0.292430 0.585715 0.898327
O O2 0.238552 0.678959 0.804711
O O3 0.504597 0.658022 0.844351
O O4 0.327597 0.753856 0.896841
O O5 0.500000 0.500000 0.062309
O O6 0.287652 0.415012 0.100766
O O7 0.277181 0.501514 0.000000
O O8 0.233891 0.826644 0.752294
O O9 0.234043 0.683540 0.694266
O O10 0.000000 0.728447 0.750000
O O11 0.131079 0.032156 0.500000
O O12 0.226265 0.914840 0.567416
O O13 0.247542 0.083308 0.589776
O O14 0.000000 0.000000 0.594881
O O15 0.500000 0.117945 0.750000
O O16 0.658584 0.106358 0.662860
O O17 0.695222 0.000000 0.750000
O O18 0.316840 0.755539 0.398069
O O19 0.494727 0.871909 0.428418
O O20 0.683317 0.179096 0.000000
#
# Coordination Sequence:
#
# PCOD9393600 Si02
#       8
#     8   8   8   8   8   8   8   8
#     4  10  20  36  63  84 119 152 187 243 295 355
#     4   9  18  35  63  97 121 143 187 247 302 351
#     4  11  23  39  57  82 117 157 202 241 282 343
#     4  10  22  36  50  74 109 147 187 230 277 333
#     4  10  22  37  57  84 112 149 192 243 298 350
#     4  10  20  34  55  81 109 147 187 232 282 348
#     4   9  20  38  58  89 116 148 191 236 297 346
#     4  10  20  33  56  84 112 146 190 235 285 349
#
# _framework density 18.658397999999998
#
# number of rings (size 3 to 8) (size 9 to 14) (size 15 to 20)
#    0.000    2.125    0.000    3.750    5.250    7.250 
#    0.000    3.125    0.000    2.250    0.000    0.000 
#    0.000    0.000    0.000    0.000    0.000    0.000 
#
# Total GULP energy -357103.772492 kJ/mol
# GULP energy per Si atom -5579.746445 kJ/mol
# Density = 1.861593 g / cm^3
# Si number density = 18.658398 Si / 1000 Ang^3
#
#
#
# Elastic Constant Matrix: (Units=GPa)
#
#
# Indices 1 2 3 4 5 6 
#
# 1 114.1895 71.1107 49.5950 0.0000 0.0000 0.0000
# 2 71.1107 131.0708 51.3821 0.0000 0.0000 0.0000
# 3 49.5950 51.3821 85.8924 0.0000 0.0000 0.0000
# 4 0.0000 0.0000 0.0000 23.0927 0.0000 0.0000
# 5 0.0000 0.0000 0.0000 0.0000 15.4900 0.0000
# 6 0.0000 0.0000 0.0000 0.0000 0.0000 -1.9857
#
#
#
# Elastic Compliance Matrix: (Units=1/GPa)
#
#
# Indices 1 2 3 4 5 6 
#
# 1 0.014612 -0.006036 -0.004827 0.000000 0.000000 0.000000
# 2 -0.006036 0.012460 -0.003969 0.000000 0.000000 0.000000
# 3 -0.004827 -0.003969 0.016804 0.000000 0.000000 0.000000
# 4 0.000000 0.000000 0.000000 0.043304 0.000000 0.000000
# 5 0.000000 0.000000 0.000000 0.000000 0.064558 0.000000
# 6 0.000000 0.000000 0.000000 0.000000 0.000000 -0.503600
#
#
# Mechanical properties :
#
#
# Convention : Reuss Voigt Hill
#
# Bulk Modulus (GPa) = 70.35406 75.03647 72.69526
# Shear Modulus (GPa) = -15.74983 17.92373 1.08695
#
# Velocity S-wave (km/s) = -2.90852 3.10276 0.76408
# Velocity P-wave (km/s) = 5.14868 7.28968 6.31064
#
# Compressibility (1/GPa) = 0.01421382
#
# Stress axis : x y z
#
# Youngs Moduli (GPa) = 68.43535 80.25841 59.51117
#
# Poissons Ratio (x) = 0.48440 0.28724
# Poissons Ratio (y) = 0.41305 0.23618
# Poissons Ratio (z) = 0.33032 0.31852
#
# Static dielectric constant tensor:
#      x y z
#    x 1.654350 0.000000 0.000000 
#    y 0.000000 1.641390 0.000000 
#    z 0.000000 0.000000 1.635590 
# 
# From -- ./inp_files/22566.got.cif
#   From: 2010.05.17/outbox.cif.g08.bks.cpg/sg49_12_cif.got.tgz:22566.got - 2010.06.03 21:02:19.
