data_PCOD9393219
_publ_section_title
;
Structure prediction by ZEFSAII (Michael W. Deem and Ramdas Pophale) SiO2 
 PCOD9393219
Probable space group: P C C M
;
_chemical_formula_sum "Si O2"
_cell_formula_units_Z 56
_cell_length_a 20.768441
_cell_length_b 9.037936
_cell_length_c 14.946876
_cell_angle_alpha 90.000000
_cell_angle_beta 90.000000
_cell_angle_gamma 90.000000
_cell_volume 2805.586030
_symmetry_space_group_name_H-M "P C C M"
_symmetry_group_IT_number 49
_symmetry_cell_setting 'orthorhombic'
loop_
_space_group_symop_operation_xyz
x,y,z
-x,-y,z
x,-y,1/2-z
-x,y,1/2-z
-x,-y,-z
x,y,-z
-x,y,1/2+z
x,-y,1/2+z
loop_
_atom_site_type_symbol
_atom_site_label
_atom_site_fract_x
_atom_site_fract_y
_atom_site_fract_z
Si Si1 0.342187 0.609473 0.664608
Si Si2 0.203815 0.329191 0.226061
Si Si3 0.847993 0.815597 0.392742
Si Si4 0.576306 0.836389 0.742111
Si Si5 0.103791 0.152265 0.107205
Si Si6 0.560389 0.596507 0.597862
Si Si7 0.018804 0.664121 0.891873
O O1 0.344946 0.500000 0.750000
O O2 0.269822 0.667962 0.668382
O O3 0.390314 0.743515 0.680723
O O4 0.377114 0.508340 0.592705
O O5 0.190336 0.500000 0.250000
O O6 0.205175 0.235791 0.319787
O O7 0.150460 0.256163 0.163733
O O8 0.832002 0.801999 0.500000
O O9 0.908646 0.709748 0.370557
O O10 0.874772 0.982306 0.377458
O O11 0.500000 0.844921 0.750000
O O12 0.582759 0.739100 0.652937
O O13 0.603568 0.000000 0.750000
O O14 0.031967 0.207047 0.133467
O O15 0.109799 0.176331 0.000000
O O16 0.500000 0.500000 0.638130
O O17 0.537844 0.642115 0.500000
O O18 0.000000 0.500000 0.858986
O O19 0.016448 0.658524 0.000000
#
# Coordination Sequence:
#
# PCOD9393219 Si02
#       7
#     8   8   8   8   8   8   8
#     4   9  20  37  58  81 110 152 194 234 287 356
#     4  11  23  38  57  85 114 153 202 244 299 363
#     4  10  21  38  59  83 115 155 201 253 307 368
#     4  10  19  34  57  85 115 154 190 232 297 357
#     4  10  21  37  58  83 117 158 199 249 310 373
#     4  10  19  35  61  90 117 151 198 247 291 348
#     4   9  17  32  56  85 114 149 197 257 316 360
#
# _framework density 19.960177999999999
#
# number of rings (size 3 to 8) (size 9 to 14) (size 15 to 20)
#    0.000    2.143    1.429    1.714    0.000    5.714 
#    0.000   10.714    0.000    0.000    0.000    0.000 
#    0.000    0.000    0.000    0.000    0.000    0.000 
#
# Total GULP energy -311817.858745 kJ/mol
# GULP energy per Si atom -5568.176049 kJ/mol
# Density = 1.991475 g / cm^3
# Si number density = 19.960178 Si / 1000 Ang^3
#
#
#
# Elastic Constant Matrix: (Units=GPa)
#
#
# Indices 1 2 3 4 5 6 
#
# 1 65.6883 11.3639 10.6137 0.0000 0.0000 0.0000
# 2 11.3639 108.6714 25.6866 0.0000 0.0000 0.0000
# 3 10.6137 25.6866 59.6177 0.0000 0.0000 0.0000
# 4 0.0000 0.0000 0.0000 20.5071 0.0000 0.0000
# 5 0.0000 0.0000 0.0000 0.0000 12.9705 0.0000
# 6 0.0000 0.0000 0.0000 0.0000 0.0000 12.4236
#
#
#
# Elastic Compliance Matrix: (Units=1/GPa)
#
#
# Indices 1 2 3 4 5 6 
#
# 1 0.015791 -0.001099 -0.002338 0.000000 0.000000 0.000000
# 2 -0.001099 0.010322 -0.004252 0.000000 0.000000 0.000000
# 3 -0.002338 -0.004252 0.019022 0.000000 0.000000 0.000000
# 4 0.000000 0.000000 0.000000 0.048764 0.000000 0.000000
# 5 0.000000 0.000000 0.000000 0.000000 0.077098 0.000000
# 6 0.000000 0.000000 0.000000 0.000000 0.000000 0.080492
#
#
# Mechanical properties :
#
#
# Convention : Reuss Voigt Hill
#
# Bulk Modulus (GPa) = 33.60417 36.58952 35.09685
# Shear Modulus (GPa) = 18.06461 21.60111 19.83286
#
# Velocity S-wave (km/s) = 3.01164 3.29327 3.15560
# Velocity P-wave (km/s) = 5.38196 5.72991 5.55866
#
# Compressibility (1/GPa) = 0.02975821
#
# Stress axis : x y z
#
# Youngs Moduli (GPa) = 63.32623 96.88134 52.57178
#
# Poissons Ratio (x) = 0.10644 0.12291
# Poissons Ratio (y) = 0.06958 0.22352
# Poissons Ratio (z) = 0.14805 0.41191
#
# Static dielectric constant tensor:
#      x y z
#    x 1.752500 0.000000 0.000000 
#    y 0.000000 1.721330 0.000000 
#    z 0.000000 0.000000 1.737970 
# 
# From -- ./inp_files/12016.got.cif
#   From: 2010.05.17/outbox.cif.g08.bks.cpg/sg49_7_cif.got.tgz:12016.got - 2010.06.03 21:02:19.
