data_PCOD9393315
_publ_section_title
;
Structure prediction by ZEFSAII (Michael W. Deem and Ramdas Pophale) SiO2 
 PCOD9393315
Probable space group: P C C M
;
_chemical_formula_sum "Si O2"
_cell_formula_units_Z 40
_cell_length_a 15.758703
_cell_length_b 14.772604
_cell_length_c 8.816329
_cell_angle_alpha 90.000000
_cell_angle_beta 90.000000
_cell_angle_gamma 90.000000
_cell_volume 2052.415638
_symmetry_space_group_name_H-M "P C C M"
_symmetry_group_IT_number 49
_symmetry_cell_setting 'orthorhombic'
loop_
_space_group_symop_operation_xyz
x,y,z
-x,-y,z
x,-y,1/2-z
-x,y,1/2-z
-x,-y,-z
x,y,-z
-x,y,1/2+z
x,-y,1/2+z
loop_
_atom_site_type_symbol
_atom_site_label
_atom_site_fract_x
_atom_site_fract_y
_atom_site_fract_z
Si Si1 0.147637 0.904713 0.681352
Si Si2 0.252806 0.599987 0.817789
Si Si3 0.589465 0.290379 0.317248
Si Si4 0.651291 0.905868 0.181074
Si Si5 0.087055 0.281736 0.318995
O O1 0.138475 0.905121 0.500000
O O2 0.248417 0.896784 0.718687
O O3 0.102473 0.818058 0.751632
O O4 0.117769 0.000000 0.750000
O O5 0.246820 0.500000 0.750000
O O6 0.333447 0.650873 0.746957
O O7 0.168166 0.656872 0.780195
O O8 0.261041 0.596553 0.000000
O O9 0.500000 0.321273 0.250000
O O10 0.589102 0.294296 0.500000
O O11 0.605377 0.185774 0.269122
O O12 0.619627 0.000000 0.250000
O O13 0.644795 0.911951 0.000000
O O14 0.080411 0.276119 0.500000
O O15 0.000000 0.318876 0.250000
#
# Coordination Sequence:
#
# PCOD9393315 Si02
#       5
#     8   8   8   8   8
#     4  10  19  35  59  89 125 166 209 253 304 361
#     4  11  25  45  69  94 122 159 202 255 314 372
#     4  11  23  41  64  94 128 165 208 255 308 365
#     4   9  19  34  57  87 123 166 206 250 300 356
#     4  11  24  41  64  94 126 163 206 253 307 367
#
# _framework density 19.489229000000002
#
# number of rings (size 3 to 8) (size 9 to 14) (size 15 to 20)
#    0.000    1.600    2.000    2.400    0.000    6.400 
#    0.000    8.000    0.000    0.000    0.000    0.000 
#    0.000    0.000    0.000    0.000    0.000    0.000 
#
# Total GULP energy -223654.455397 kJ/mol
# GULP energy per Si atom -5591.361385 kJ/mol
# Density = 1.944487 g / cm^3
# Si number density = 19.489229 Si / 1000 Ang^3
#
#
#
# Elastic Constant Matrix: (Units=GPa)
#
#
# Indices 1 2 3 4 5 6 
#
# 1 153.3970 79.4964 68.3000 0.0000 0.0000 0.0000
# 2 79.4964 142.5582 54.4101 0.0000 0.0000 0.0000
# 3 68.3000 54.4101 63.1950 0.0000 0.0000 0.0000
# 4 0.0000 0.0000 0.0000 31.4887 0.0000 0.0000
# 5 0.0000 0.0000 0.0000 0.0000 21.6004 0.0000
# 6 0.0000 0.0000 0.0000 0.0000 0.0000 -6.4461
#
#
#
# Elastic Compliance Matrix: (Units=1/GPa)
#
#
# Indices 1 2 3 4 5 6 
#
# 1 0.013314 -0.002878 -0.011912 0.000000 0.000000 0.000000
# 2 -0.002878 0.011070 -0.006421 0.000000 0.000000 0.000000
# 3 -0.011912 -0.006421 0.034226 0.000000 0.000000 0.000000
# 4 0.000000 0.000000 0.000000 0.031757 0.000000 0.000000
# 5 0.000000 0.000000 0.000000 0.000000 0.046295 0.000000
# 6 0.000000 0.000000 0.000000 0.000000 0.000000 -0.155134
#
#
# Mechanical properties :
#
#
# Convention : Reuss Voigt Hill
#
# Bulk Modulus (GPa) = 61.76843 84.84035 73.30439
# Shear Modulus (GPa) = 170.37080 19.79152 95.08116
#
# Velocity S-wave (km/s) = 9.35990 3.19016 6.99231
# Velocity P-wave (km/s) = 12.18904 7.56280 10.14319
#
# Compressibility (1/GPa) = 0.01618950
#
# Stress axis : x y z
#
# Youngs Moduli (GPa) = 75.10662 90.33205 29.21749
#
# Poissons Ratio (x) = 0.26000 0.34803
# Poissons Ratio (y) = 0.21618 0.18759
# Poissons Ratio (z) = 0.89465 0.57998
#
# Static dielectric constant tensor:
#      x y z
#    x 1.696430 0.000000 0.000000 
#    y 0.000000 1.655360 0.000000 
#    z 0.000000 0.000000 1.648380 
# 
# From -- ./inp_files/2675.got.cif
#   From: 2010.05.17/outbox.cif.g08.bks.cpg/sg49_2_cif.got.tgz:2675.got - 2010.06.03 21:02:19.
