data_PCOD9393630
_publ_section_title
;
Structure prediction by ZEFSAII (Michael W. Deem and Ramdas Pophale) SiO2 
 PCOD9393630
Probable space group: P C C M
;
_chemical_formula_sum "Si O2"
_cell_formula_units_Z 64
_cell_length_a 16.818502
_cell_length_b 12.492587
_cell_length_c 16.945533
_cell_angle_alpha 90.000000
_cell_angle_beta 90.000000
_cell_angle_gamma 90.000000
_cell_volume 3560.368314
_symmetry_space_group_name_H-M "P C C M"
_symmetry_group_IT_number 49
_symmetry_cell_setting 'orthorhombic'
loop_
_space_group_symop_operation_xyz
x,y,z
-x,-y,z
x,-y,1/2-z
-x,y,1/2-z
-x,-y,-z
x,y,-z
-x,y,1/2+z
x,-y,1/2+z
loop_
_atom_site_type_symbol
_atom_site_label
_atom_site_fract_x
_atom_site_fract_y
_atom_site_fract_z
Si Si1 0.296752 0.386147 0.288193
Si Si2 0.503546 0.874451 0.655390
Si Si3 0.334537 0.910533 0.090693
Si Si4 0.086926 0.022831 0.656129
Si Si5 0.199503 0.198060 0.672407
Si Si6 0.358342 0.279853 0.867539
Si Si7 0.242960 0.894665 0.345012
Si Si8 0.589245 0.489308 0.910945
O O1 0.276258 0.500000 0.250000
O O2 0.217877 0.320916 0.311049
O O3 0.344858 0.316544 0.223450
O O4 0.355069 0.413864 0.359610
O O5 0.500000 0.870031 0.750000
O O6 0.590519 0.846680 0.624018
O O7 0.434193 0.797966 0.623992
O O8 0.500000 0.000000 0.631392
O O9 0.258700 0.835843 0.103094
O O10 0.311197 0.015723 0.141892
O O11 0.346242 0.941017 0.000000
O O12 0.115431 0.146009 0.650977
O O13 0.082320 0.000000 0.750000
O O14 0.160203 0.948141 0.626180
O O15 0.000000 0.000000 0.621948
O O16 0.227766 0.136802 0.753429
O O17 0.279352 0.210559 0.886449
O O18 0.373531 0.391367 0.910698
O O19 0.500000 0.500000 0.876644
O O20 0.581782 0.448983 0.000000
#
# Coordination Sequence:
#
# PCOD9393630 Si02
#       8
#     8   8   8   8   8   8   8   8
#     4   9  19  35  53  70  89 127 184 223 253 296
#     4  11  22  32  49  68  96 133 174 207 248 305
#     4  11  22  32  45  71 102 133 168 210 255 300
#     4   8  14  26  51  84 111 133 159 197 248 313
#     4   9  18  32  54  73 100 137 172 209 255 307
#     4  10  20  34  52  69  90 133 174 210 251 301
#     4   9  17  34  52  71 103 135 171 200 241 311
#     4  10  23  37  49  67  95 126 167 226 276 302
#
# _framework density 17.975667000000001
#
# number of rings (size 3 to 8) (size 9 to 14) (size 15 to 20)
#    0.000    2.375    1.250    2.625    5.250    3.500 
#    0.000    0.000    0.000    6.000    0.000   27.125 
#    0.000    1.000    0.000    0.000    0.000    0.750 
#
# Total GULP energy -356459.842310 kJ/mol
# GULP energy per Si atom -5569.685036 kJ/mol
# Density = 1.793475 g / cm^3
# Si number density = 17.975667 Si / 1000 Ang^3
#
#
#
# Elastic Constant Matrix: (Units=GPa)
#
#
# Indices 1 2 3 4 5 6 
#
# 1 121.7528 46.8893 15.7453 0.0000 0.0000 0.0000
# 2 46.8893 91.9664 8.5224 0.0000 0.0000 0.0000
# 3 15.7453 8.5224 34.1922 0.0000 0.0000 0.0000
# 4 0.0000 0.0000 0.0000 4.4887 0.0000 0.0000
# 5 0.0000 0.0000 0.0000 0.0000 0.1043 0.0000
# 6 0.0000 0.0000 0.0000 0.0000 0.0000 21.3801
#
#
#
# Elastic Compliance Matrix: (Units=1/GPa)
#
#
# Indices 1 2 3 4 5 6 
#
# 1 0.010643 -0.005090 -0.003633 0.000000 0.000000 0.000000
# 2 -0.005090 0.013565 -0.001037 0.000000 0.000000 0.000000
# 3 -0.003633 -0.001037 0.031178 0.000000 0.000000 0.000000
# 4 0.000000 0.000000 0.000000 0.222784 0.000000 0.000000
# 5 0.000000 0.000000 0.000000 0.000000 9.592166 0.000000
# 6 0.000000 0.000000 0.000000 0.000000 0.000000 0.046772
#
#
# Mechanical properties :
#
#
# Convention : Reuss Voigt Hill
#
# Bulk Modulus (GPa) = 27.88108 43.35839 35.61973
# Shear Modulus (GPa) = 0.50258 16.97823 8.74041
#
# Velocity S-wave (km/s) = 0.52934 3.07663 2.20747
# Velocity P-wave (km/s) = 3.98970 6.06579 5.13379
#
# Compressibility (1/GPa) = 0.03586662
#
# Stress axis : x y z
#
# Youngs Moduli (GPa) = 93.95524 73.72048 32.07422
#
# Poissons Ratio (x) = 0.37523 0.11651
# Poissons Ratio (y) = 0.47823 0.03326
# Poissons Ratio (z) = 0.34130 0.07646
#
# Static dielectric constant tensor:
#      x y z
#    x 1.648270 0.000000 0.000000 
#    y 0.000000 1.661520 0.000000 
#    z 0.000000 0.000000 1.630380 
# 
# From -- ./inp_files/18233.got.cif
#   From: 2010.05.17/outbox.cif.g08.bks.cpg/sg49_10_cif.got.tgz:18233.got - 2010.06.03 21:02:19.
