data_PCOD9393671
_publ_section_title
;
Structure prediction by ZEFSAII (Michael W. Deem and Ramdas Pophale) SiO2 
 PCOD9393671
Probable space group: P C C M
;
_chemical_formula_sum "Si O2"
_cell_formula_units_Z 48
_cell_length_a 32.563786
_cell_length_b 9.282903
_cell_length_c 8.713158
_cell_angle_alpha 90.000000
_cell_angle_beta 90.000000
_cell_angle_gamma 90.000000
_cell_volume 2633.869746
_symmetry_space_group_name_H-M "P C C M"
_symmetry_group_IT_number 49
_symmetry_cell_setting 'orthorhombic'
loop_
_space_group_symop_operation_xyz
x,y,z
-x,-y,z
x,-y,1/2-z
-x,y,1/2-z
-x,-y,-z
x,y,-z
-x,y,1/2+z
x,-y,1/2+z
loop_
_atom_site_type_symbol
_atom_site_label
_atom_site_fract_x
_atom_site_fract_y
_atom_site_fract_z
Si Si1 0.041465 0.337185 0.816337
Si Si2 0.367635 0.162174 0.315729
Si Si3 0.708185 0.660111 0.815718
Si Si4 0.458672 0.162443 0.316800
Si Si5 0.868106 0.661479 0.185132
Si Si6 0.211147 0.840139 0.685264
O O1 0.042354 0.500000 0.750000
O O2 0.086538 0.277982 0.774196
O O3 0.000000 0.267391 0.750000
O O4 0.038100 0.343078 0.000000
O O5 0.364157 0.155589 0.500000
O O6 0.331849 0.258772 0.246813
O O7 0.413448 0.221532 0.278085
O O8 0.364284 0.000000 0.250000
O O9 0.710246 0.500000 0.750000
O O10 0.748873 0.748559 0.769181
O O11 0.706688 0.655311 0.000000
O O12 0.500000 0.232967 0.250000
O O13 0.462371 0.155321 0.500000
O O14 0.457776 0.000000 0.250000
O O15 0.864009 0.500000 0.250000
O O16 0.830398 0.759814 0.236990
O O17 0.866726 0.651499 0.000000
O O18 0.210488 0.846642 0.500000
O O19 0.213540 0.000000 0.750000
#
# Coordination Sequence:
#
# PCOD9393671 Si02
#       6
#     8   8   8   8   8   8
#     4   9  15  24  41  66  97 129 162 202 245 290
#     4  10  20  34  53  79 110 142 177 216 259 306
#     4  11  23  38  57  79 104 135 171 213 260 311
#     4   9  16  26  44  71 103 137 172 212 254 297
#     4   9  18  32  50  74 103 133 167 208 252 298
#     4  10  22  38  55  77 103 132 168 209 254 304
#
# _framework density 18.224136000000001
#
# number of rings (size 3 to 8) (size 9 to 14) (size 15 to 20)
#    0.000    2.333    0.000    4.000    0.000    6.000 
#    0.000    0.000    0.000    1.000    0.000    7.000 
#    0.000    0.000    0.000    0.000    0.000    0.000 
#
# Total GULP energy -267624.139631 kJ/mol
# GULP energy per Si atom -5575.502909 kJ/mol
# Density = 1.818266 g / cm^3
# Si number density = 18.224136 Si / 1000 Ang^3
#
#
#
# Elastic Constant Matrix: (Units=GPa)
#
#
# Indices 1 2 3 4 5 6 
#
# 1 235.9397 85.9449 61.5677 0.0000 0.0000 0.0000
# 2 85.9449 87.1664 26.0742 0.0000 0.0000 0.0000
# 3 61.5677 26.0742 47.7542 0.0000 0.0000 0.0000
# 4 0.0000 0.0000 0.0000 24.3529 0.0000 0.0000
# 5 0.0000 0.0000 0.0000 0.0000 25.2639 0.0000
# 6 0.0000 0.0000 0.0000 0.0000 0.0000 24.2430
#
#
#
# Elastic Compliance Matrix: (Units=1/GPa)
#
#
# Indices 1 2 3 4 5 6 
#
# 1 0.008402 -0.006029 -0.007541 0.000000 0.000000 0.000000
# 2 -0.006029 0.018038 -0.002076 0.000000 0.000000 0.000000
# 3 -0.007541 -0.002076 0.031796 0.000000 0.000000 0.000000
# 4 0.000000 0.000000 0.000000 0.041063 0.000000 0.000000
# 5 0.000000 0.000000 0.000000 0.000000 0.039582 0.000000
# 6 0.000000 0.000000 0.000000 0.000000 0.000000 0.041249
#
#
# Mechanical properties :
#
#
# Convention : Reuss Voigt Hill
#
# Bulk Modulus (GPa) = 37.11305 79.78154 58.44729
# Shear Modulus (GPa) = 22.68571 27.92354 25.30462
#
# Velocity S-wave (km/s) = 3.53202 3.91862 3.73033
# Velocity P-wave (km/s) = 6.08626 8.02166 7.12003
#
# Compressibility (1/GPa) = 0.02694470
#
# Stress axis : x y z
#
# Youngs Moduli (GPa) = 119.01633 55.43985 31.45020
#
# Poissons Ratio (x) = 0.33423 0.23716
# Poissons Ratio (y) = 0.71752 0.06529
# Poissons Ratio (z) = 0.89749 0.11510
#
# Static dielectric constant tensor:
#      x y z
#    x 1.691340 0.000000 0.000000 
#    y 0.000000 1.582710 0.000000 
#    z 0.000000 0.000000 1.614430 
# 
# From -- ./inp_files/6855.got.cif
#   From: 2010.05.17/outbox.cif.g08.bks.cpg/sg49_4_cif.got.tgz:6855.got - 2010.06.03 21:02:19.
