data_PCOD9393178
_publ_section_title
;
Structure prediction by ZEFSAII (Michael W. Deem and Ramdas Pophale) SiO2 
 PCOD9393178
Probable space group: P C C M
;
_chemical_formula_sum "Si O2"
_cell_formula_units_Z 64
_cell_length_a 11.859295
_cell_length_b 18.223149
_cell_length_c 15.696163
_cell_angle_alpha 90.000000
_cell_angle_beta 90.000000
_cell_angle_gamma 90.000000
_cell_volume 3392.155859
_symmetry_space_group_name_H-M "P C C M"
_symmetry_group_IT_number 49
_symmetry_cell_setting 'orthorhombic'
loop_
_space_group_symop_operation_xyz
x,y,z
-x,-y,z
x,-y,1/2-z
-x,y,1/2-z
-x,-y,-z
x,y,-z
-x,y,1/2+z
x,-y,1/2+z
loop_
_atom_site_type_symbol
_atom_site_label
_atom_site_fract_x
_atom_site_fract_y
_atom_site_fract_z
Si Si1 0.634909 0.912978 0.744565
Si Si2 0.340303 0.794336 0.899781
Si Si3 0.838076 0.676229 0.348014
Si Si4 0.442496 0.297466 0.902984
Si Si5 0.929807 0.277696 0.403048
Si Si6 0.749163 0.382359 0.668970
Si Si7 0.129770 0.486658 0.598324
Si Si8 0.740477 0.166654 0.595838
O O1 0.500000 0.901954 0.750000
O O2 0.669593 0.865490 0.661046
O O3 0.698589 0.882022 0.827061
O O4 0.654877 0.000000 0.750000
O O5 0.233924 0.740923 0.889754
O O6 0.445665 0.742982 0.870142
O O7 0.358453 0.813199 0.000000
O O8 0.783241 0.653541 0.258419
O O9 0.843896 0.599355 0.397538
O O10 0.965885 0.704585 0.343404
O O11 0.379596 0.362036 0.852524
O O12 0.348710 0.233508 0.905932
O O13 0.465698 0.322030 0.000000
O O14 0.972418 0.276763 0.500000
O O15 0.835277 0.340592 0.394950
O O16 0.862113 0.202763 0.386749
O O17 0.784854 0.466245 0.655702
O O18 0.137901 0.510490 0.500000
O O19 0.000000 0.500000 0.626989
O O20 0.740142 0.134084 0.500000
#
# Coordination Sequence:
#
# PCOD9393178 Si02
#       8
#     8   8   8   8   8   8   8   8
#     4  11  23  38  61  93 126 153 190 248 305 365
#     4  11  23  40  62  88 125 165 200 247 307 371
#     4  12  24  35  57  89 122 154 204 257 311 361
#     4   9  18  35  58  82 109 153 203 238 287 362
#     4  10  19  34  55  82 111 149 198 245 291 353
#     4  11  21  33  56  82 112 156 201 253 306 357
#     4  11  22  37  55  78 118 160 201 258 314 360
#     4   9  18  35  60  84 115 154 198 241 287 356
#
# _framework density 18.867056999999999
#
# number of rings (size 3 to 8) (size 9 to 14) (size 15 to 20)
#    0.000    1.500    2.500    5.250    0.000    1.000 
#    0.000    1.875    0.000    5.250    0.000    2.625 
#    0.000    0.000    0.000    0.000    0.000    0.000 
#
# Total GULP energy -356980.043583 kJ/mol
# GULP energy per Si atom -5577.813181 kJ/mol
# Density = 1.882412 g / cm^3
# Si number density = 18.867057 Si / 1000 Ang^3
#
#
#
# Elastic Constant Matrix: (Units=GPa)
#
#
# Indices 1 2 3 4 5 6 
#
# 1 66.7875 39.7574 25.5035 0.0000 0.0000 0.0000
# 2 39.7574 105.2428 55.3232 0.0000 0.0000 0.0000
# 3 25.5035 55.3232 101.0899 0.0000 0.0000 0.0000
# 4 0.0000 0.0000 0.0000 7.3417 0.0000 0.0000
# 5 0.0000 0.0000 0.0000 0.0000 -112.5762 0.0000
# 6 0.0000 0.0000 0.0000 0.0000 0.0000 22.4505
#
#
#
# Elastic Compliance Matrix: (Units=1/GPa)
#
#
# Indices 1 2 3 4 5 6 
#
# 1 0.019427 -0.006686 -0.001242 0.000000 0.000000 0.000000
# 2 -0.006686 0.015640 -0.006873 0.000000 0.000000 0.000000
# 3 -0.001242 -0.006873 0.013967 0.000000 0.000000 0.000000
# 4 0.000000 0.000000 0.000000 0.136207 0.000000 0.000000
# 5 0.000000 0.000000 0.000000 0.000000 -0.008883 0.000000
# 6 0.000000 0.000000 0.000000 0.000000 0.000000 0.044542
#
#
# Mechanical properties :
#
#
# Convention : Reuss Voigt Hill
#
# Bulk Modulus (GPa) = 51.45979 57.14316 54.30148
# Shear Modulus (GPa) = 19.45670 -6.38773 6.53449
#
# Velocity S-wave (km/s) = 3.21480 -1.84201 1.86305
# Velocity P-wave (km/s) = 6.41202 5.08223 5.78546
#
# Compressibility (1/GPa) = 0.01943265
#
# Stress axis : x y z
#
# Youngs Moduli (GPa) = 51.47397 63.93702 71.59856
#
# Poissons Ratio (x) = 0.42749 0.08894
# Poissons Ratio (y) = 0.34416 0.49207
# Poissons Ratio (z) = 0.06394 0.43942
#
# Static dielectric constant tensor:
#      x y z
#    x 1.655000 0.000000 0.000000 
#    y 0.000000 1.665160 0.000000 
#    z 0.000000 0.000000 1.710920 
# 
# From -- ./inp_files/13092.got.cif
#   From: 2010.05.17/outbox.cif.g08.bks.cpg/sg49_7_cif.got.tgz:13092.got - 2010.06.03 21:02:19.
