data_PCOD9393493
_publ_section_title
;
Structure prediction by ZEFSAII (Michael W. Deem and Ramdas Pophale) SiO2 
 PCOD9393493
Probable space group: P C C M
;
_chemical_formula_sum "Si O2"
_cell_formula_units_Z 56
_cell_length_a 11.952872
_cell_length_b 9.678224
_cell_length_c 21.399523
_cell_angle_alpha 90.000000
_cell_angle_beta 90.000000
_cell_angle_gamma 90.000000
_cell_volume 2475.551874
_symmetry_space_group_name_H-M "P C C M"
_symmetry_group_IT_number 49
_symmetry_cell_setting 'orthorhombic'
loop_
_space_group_symop_operation_xyz
x,y,z
-x,-y,z
x,-y,1/2-z
-x,y,1/2-z
-x,-y,-z
x,y,-z
-x,y,1/2+z
x,-y,1/2+z
loop_
_atom_site_type_symbol
_atom_site_label
_atom_site_fract_x
_atom_site_fract_y
_atom_site_fract_z
Si Si1 0.071634 0.309953 0.569656
Si Si2 0.706593 0.503028 0.568576
Si Si3 0.875817 0.665316 0.750557
Si Si4 0.383671 0.924201 0.812616
Si Si5 0.840852 0.263009 0.615620
Si Si6 0.212382 0.963824 0.927016
Si Si7 0.346448 0.381527 0.303975
O O1 0.022187 0.320119 0.500000
O O2 0.175953 0.412839 0.571429
O O3 0.964527 0.331779 0.612712
O O4 0.122485 0.158446 0.578302
O O5 0.656979 0.526745 0.500000
O O6 0.747831 0.347252 0.578189
O O7 0.636701 0.550473 0.628390
O O8 0.889208 0.500000 0.750000
O O9 0.813482 0.722442 0.811571
O O10 0.782656 0.677102 0.697469
O O11 0.000000 0.728323 0.750000
O O12 0.409267 0.762962 0.799015
O O13 0.500000 0.000000 0.825231
O O14 0.335492 0.000000 0.750000
O O15 0.306430 0.939119 0.874102
O O16 0.843757 0.109795 0.589489
O O17 0.251236 0.962723 0.000000
O O18 0.360272 0.500000 0.250000
#
# Coordination Sequence:
#
# PCOD9393493 Si02
#       7
#     8   8   8   8   8   8   8
#     4  10  21  36  56  89 134 181 220 262 318 386
#     4  11  21  35  60  94 132 177 224 269 321 385
#     4  10  20  32  55  90 134 178 220 266 320 383
#     4  11  26  48  73  97 126 166 219 276 338 415
#     4  12  21  35  59  93 136 180 230 270 317 387
#     4  11  24  43  67  96 134 176 222 279 337 396
#     4  11  21  42  67  96 133 171 215 277 334 391
#
# _framework density 22.621217000000001
#
# number of rings (size 3 to 8) (size 9 to 14) (size 15 to 20)
#    0.000    1.143    4.286    3.857    2.000    2.571 
#    0.000    1.429    0.000    0.000    0.000    2.000 
#    0.000    0.000    0.000    0.000    0.000    0.000 
#
# Total GULP energy -312667.851626 kJ/mol
# GULP energy per Si atom -5583.354493 kJ/mol
# Density = 2.256973 g / cm^3
# Si number density = 22.621217 Si / 1000 Ang^3
#
#
#
# Elastic Constant Matrix: (Units=GPa)
#
#
# Indices 1 2 3 4 5 6 
#
# 1 57.7942 11.7868 21.5382 0.0000 0.0000 0.0000
# 2 11.7868 126.2455 25.4943 0.0000 0.0000 0.0000
# 3 21.5382 25.4943 193.3438 0.0000 0.0000 0.0000
# 4 0.0000 0.0000 0.0000 26.5526 0.0000 0.0000
# 5 0.0000 0.0000 0.0000 0.0000 15.3064 0.0000
# 6 0.0000 0.0000 0.0000 0.0000 0.0000 10.2013
#
#
#
# Elastic Compliance Matrix: (Units=1/GPa)
#
#
# Indices 1 2 3 4 5 6 
#
# 1 0.018267 -0.001330 -0.001860 0.000000 0.000000 0.000000
# 2 -0.001330 0.008235 -0.000938 0.000000 0.000000 0.000000
# 3 -0.001860 -0.000938 0.005503 0.000000 0.000000 0.000000
# 4 0.000000 0.000000 0.000000 0.037661 0.000000 0.000000
# 5 0.000000 0.000000 0.000000 0.000000 0.065332 0.000000
# 6 0.000000 0.000000 0.000000 0.000000 0.000000 0.098026
#
#
# Mechanical properties :
#
#
# Convention : Reuss Voigt Hill
#
# Bulk Modulus (GPa) = 42.10493 55.00247 48.55370
# Shear Modulus (GPa) = 20.06459 31.64968 25.85713
#
# Velocity S-wave (km/s) = 2.98145 3.74453 3.38457
# Velocity P-wave (km/s) = 5.52318 6.56222 6.06499
#
# Compressibility (1/GPa) = 0.02375019
#
# Stress axis : x y z
#
# Youngs Moduli (GPa) = 54.74350 121.43878 181.72159
#
# Poissons Ratio (x) = 0.16151 0.33792
# Poissons Ratio (y) = 0.07281 0.17039
# Poissons Ratio (z) = 0.10180 0.11387
#
# Static dielectric constant tensor:
#      x y z
#    x 1.867970 0.000000 0.000000 
#    y 0.000000 1.824030 0.000000 
#    z 0.000000 0.000000 1.903720 
# 
# From -- ./inp_files/20852.got.cif
#   From: 2010.05.17/outbox.cif.g08.bks.cpg/sg49_11_cif.got.tgz:20852.got - 2010.06.03 21:02:19.
