data_PCOD9393192
_publ_section_title
;
Structure prediction by ZEFSAII (Michael W. Deem and Ramdas Pophale) SiO2 
 PCOD9393192
Probable space group: P C C M
;
_chemical_formula_sum "Si O2"
_cell_formula_units_Z 64
_cell_length_a 20.498775
_cell_length_b 9.230221
_cell_length_c 13.789571
_cell_angle_alpha 90.000000
_cell_angle_beta 90.000000
_cell_angle_gamma 90.000000
_cell_volume 2609.100231
_symmetry_space_group_name_H-M "P C C M"
_symmetry_group_IT_number 49
_symmetry_cell_setting 'orthorhombic'
loop_
_space_group_symop_operation_xyz
x,y,z
-x,-y,z
x,-y,1/2-z
-x,y,1/2-z
-x,-y,-z
x,y,-z
-x,y,1/2+z
x,-y,1/2+z
loop_
_atom_site_type_symbol
_atom_site_label
_atom_site_fract_x
_atom_site_fract_y
_atom_site_fract_z
Si Si1 0.691853 0.240714 0.613686
Si Si2 0.436670 0.587953 0.347272
Si Si3 0.335444 0.912507 0.118893
Si Si4 0.789195 0.726937 0.618331
Si Si5 0.053348 0.780437 0.618004
Si Si6 0.475766 0.162427 0.386784
Si Si7 0.082830 0.888150 0.117967
Si Si8 0.178116 0.399003 0.881061
O O1 0.703221 0.214601 0.500000
O O2 0.635108 0.364603 0.616164
O O3 0.761131 0.299206 0.651440
O O4 0.672210 0.080154 0.651169
O O5 0.500000 0.500000 0.393152
O O6 0.425102 0.500000 0.250000
O O7 0.470423 0.741777 0.337410
O O8 0.277285 0.805797 0.146727
O O9 0.402516 0.837606 0.150299
O O10 0.338973 0.916908 0.000000
O O11 0.788360 0.725617 0.500000
O O12 0.848880 0.826450 0.650452
O O13 0.804647 0.562921 0.647718
O O14 0.053320 0.772327 0.500000
O O15 0.107670 0.664614 0.649815
O O16 0.977057 0.783091 0.647192
O O17 0.074243 0.944231 0.645423
O O18 0.475464 0.206609 0.500000
O O19 0.500000 0.000000 0.382760
O O20 0.082181 0.889133 0.000000
O O21 0.177354 0.397576 0.000000
#
# Coordination Sequence:
#
# PCOD9393192 Si02
#       8
#     8   8   8   8   8   8   8   8
#     4  10  19  34  56  79 104 139 181 231 282 332
#     4  11  25  41  55  79 114 148 178 219 282 360
#     4   9  17  29  50  78 104 130 172 234 288 324
#     4   9  16  24  35  62  97 129 168 219 275 328
#     4   8  13  22  34  52  81 129 181 219 258 313
#     4  10  19  36  63  90 109 137 188 244 289 337
#     4   8  13  21  34  49  80 132 183 217 250 314
#     4   9  17  25  38  65  99 130 170 223 278 327
#
# _framework density 24.529529
#
# number of rings (size 3 to 8) (size 9 to 14) (size 15 to 20)
#    0.000    2.750    1.250    1.875    1.750    4.500 
#    0.000    3.750    0.000    0.000    0.000    0.000 
#    0.000    0.000    0.000    3.375    0.000    9.500 
#
# Total GULP energy -357545.717181 kJ/mol
# GULP energy per Si atom -5586.651831 kJ/mol
# Density = 2.447370 g / cm^3
# Si number density = 24.529529 Si / 1000 Ang^3
#
#
#
# Elastic Constant Matrix: (Units=GPa)
#
#
# Indices 1 2 3 4 5 6 
#
# 1 201.4251 58.9309 5.2568 0.0000 0.0000 0.0000
# 2 58.9309 104.1678 9.3505 0.0000 0.0000 0.0000
# 3 5.2568 9.3505 60.0093 0.0000 0.0000 0.0000
# 4 0.0000 0.0000 0.0000 22.0339 0.0000 0.0000
# 5 0.0000 0.0000 0.0000 0.0000 23.0904 0.0000
# 6 0.0000 0.0000 0.0000 0.0000 0.0000 36.6520
#
#
#
# Elastic Compliance Matrix: (Units=1/GPa)
#
#
# Indices 1 2 3 4 5 6 
#
# 1 0.005949 -0.003366 0.000003 0.000000 0.000000 0.000000
# 2 -0.003366 0.011640 -0.001519 0.000000 0.000000 0.000000
# 3 0.000003 -0.001519 0.016900 0.000000 0.000000 0.000000
# 4 0.000000 0.000000 0.000000 0.045385 0.000000 0.000000
# 5 0.000000 0.000000 0.000000 0.000000 0.043308 0.000000
# 6 0.000000 0.000000 0.000000 0.000000 0.000000 0.027284
#
#
# Mechanical properties :
#
#
# Convention : Reuss Voigt Hill
#
# Bulk Modulus (GPa) = 40.44153 56.96429 48.70291
# Shear Modulus (GPa) = 29.67849 35.82620 32.75234
#
# Velocity S-wave (km/s) = 3.48215 3.82584 3.65803
# Velocity P-wave (km/s) = 5.71750 6.54135 6.14325
#
# Compressibility (1/GPa) = 0.02472706
#
# Stress axis : x y z
#
# Youngs Moduli (GPa) = 168.08613 85.90700 59.16996
#
# Poissons Ratio (x) = 0.28916 -0.00020
# Poissons Ratio (y) = 0.56578 0.08987
# Poissons Ratio (z) = -0.00056 0.13049
#
# Static dielectric constant tensor:
#      x y z
#    x 1.907480 0.000000 0.000000 
#    y 0.000000 1.893230 0.000000 
#    z 0.000000 0.000000 2.244180 
# 
# From -- ./inp_files/18307.got.cif
#   From: 2010.05.17/outbox.cif.g08.bks.cpg/sg49_10_cif.got.tgz:18307.got - 2010.06.03 21:02:19.
