data_PCOD9393723
_publ_section_title
;
Structure prediction by ZEFSAII (Michael W. Deem and Ramdas Pophale) SiO2 
 PCOD9393723
Probable space group: P C C M
;
_chemical_formula_sum "Si O2"
_cell_formula_units_Z 48
_cell_length_a 8.608877
_cell_length_b 20.238243
_cell_length_c 14.393017
_cell_angle_alpha 90.000000
_cell_angle_beta 90.000000
_cell_angle_gamma 90.000000
_cell_volume 2507.674406
_symmetry_space_group_name_H-M "P C C M"
_symmetry_group_IT_number 49
_symmetry_cell_setting 'orthorhombic'
loop_
_space_group_symop_operation_xyz
x,y,z
-x,-y,z
x,-y,1/2-z
-x,y,1/2-z
-x,-y,-z
x,y,-z
-x,y,1/2+z
x,-y,1/2+z
loop_
_atom_site_type_symbol
_atom_site_label
_atom_site_fract_x
_atom_site_fract_y
_atom_site_fract_z
Si Si1 0.739594 0.537817 0.000000
Si Si2 0.598610 0.391565 0.000000
Si Si3 0.812947 0.081955 0.607231
Si Si4 0.186948 0.180178 0.738957
Si Si5 0.810181 0.063880 0.107510
Si Si6 0.657273 0.316964 0.196052
Si Si7 0.170145 0.434835 0.794881
O O1 0.701307 0.459201 0.000000
O O2 0.577697 0.579436 0.000000
O O3 0.828935 0.556377 0.094499
O O4 0.630851 0.348439 0.093311
O O5 0.770965 0.088976 0.500000
O O6 0.762628 0.146318 0.663826
O O7 0.001285 0.072731 0.612345
O O8 0.760718 0.009124 0.640533
O O9 0.245445 0.124907 0.666989
O O10 0.243314 0.250377 0.702643
O O11 0.000000 0.183492 0.750000
O O12 0.766861 0.068904 0.000000
O O13 0.500000 0.300963 0.250000
O O14 0.738356 0.372087 0.259562
O O15 0.247496 0.500000 0.750000
O O16 0.000000 0.430593 0.750000
#
# Coordination Sequence:
#
# PCOD9393723 Si02
#       7
#     4   4   8   8   8   8   8
#     4  11  22  44  73  98 119 167 207 257 315 365
#     4  11  24  41  72  93 120 166 217 249 299 375
#     4   8  14  28  49  80 115 150 197 247 307 366
#     4  10  20  34  55  84 122 157 196 251 318 360
#     4   8  14  26  51  81 111 149 196 252 303 366
#     4  12  25  43  61  89 124 167 210 251 297 376
#     4  11  24  42  68  98 132 153 199 260 315 368
#
# _framework density 19.141241000000001
#
# number of rings (size 3 to 8) (size 9 to 14) (size 15 to 20)
#    0.000    2.000    3.333    2.000    1.167    4.333 
#    3.000    0.000    0.000    2.000    0.000    2.333 
#    0.000    0.000    0.000    0.000    0.000    0.000 
#
# Total GULP energy -267467.372234 kJ/mol
# GULP energy per Si atom -5572.236922 kJ/mol
# Density = 1.909767 g / cm^3
# Si number density = 19.141241 Si / 1000 Ang^3
#
#
#
# Elastic Constant Matrix: (Units=GPa)
#
#
# Indices 1 2 3 4 5 6 
#
# 1 29.3148 12.4176 24.8955 0.0000 0.0000 0.0000
# 2 12.4176 132.2172 62.6420 0.0000 0.0000 0.0000
# 3 24.8955 62.6420 165.8690 0.0000 0.0000 0.0000
# 4 0.0000 0.0000 0.0000 21.3795 0.0000 0.0000
# 5 0.0000 0.0000 0.0000 0.0000 17.7816 0.0000
# 6 0.0000 0.0000 0.0000 0.0000 0.0000 294.0372
#
#
#
# Elastic Compliance Matrix: (Units=1/GPa)
#
#
# Indices 1 2 3 4 5 6 
#
# 1 0.039224 -0.001090 -0.005476 0.000000 0.000000 0.000000
# 2 -0.001090 0.009242 -0.003327 0.000000 0.000000 0.000000
# 3 -0.005476 -0.003327 0.008107 0.000000 0.000000 0.000000
# 4 0.000000 0.000000 0.000000 0.046774 0.000000 0.000000
# 5 0.000000 0.000000 0.000000 0.000000 0.056238 0.000000
# 6 0.000000 0.000000 0.000000 0.000000 0.000000 0.003401
#
#
# Mechanical properties :
#
#
# Convention : Reuss Voigt Hill
#
# Bulk Modulus (GPa) = 27.18200 58.59013 42.88606
# Shear Modulus (GPa) = 25.63673 81.80273 53.71973
#
# Velocity S-wave (km/s) = 3.66368 6.54440 5.30338
# Velocity P-wave (km/s) = 5.66818 9.36917 7.74305
#
# Compressibility (1/GPa) = 0.03678906
#
# Stress axis : x y z
#
# Youngs Moduli (GPa) = 25.49447 108.20435 123.34899
#
# Poissons Ratio (x) = 0.11789 0.67543
# Poissons Ratio (y) = 0.02778 0.41035
# Poissons Ratio (z) = 0.13960 0.35996
#
# Static dielectric constant tensor:
#      x y z
#    x -8.437340 0.000000 0.000000 
#    y 0.000000 1.683340 0.000000 
#    z 0.000000 0.000000 1.674980 
# 
# From -- ./inp_files/11888.got.cif
#   From: 2010.05.17/outbox.cif.g08.bks.cpg/sg49_6_cif.got.tgz:11888.got - 2010.06.03 21:02:19.
