data_PCOD9393004
_publ_section_title
;
Structure prediction by ZEFSAII (Michael W. Deem and Ramdas Pophale) SiO2 
 PCOD9393004
Probable space group: P C C M
;
_chemical_formula_sum "Si O2"
_cell_formula_units_Z 56
_cell_length_a 20.942996
_cell_length_b 15.509153
_cell_length_c 8.722554
_cell_angle_alpha 90.000000
_cell_angle_beta 90.000000
_cell_angle_gamma 90.000000
_cell_volume 2833.156447
_symmetry_space_group_name_H-M "P C C M"
_symmetry_group_IT_number 49
_symmetry_cell_setting 'orthorhombic'
loop_
_space_group_symop_operation_xyz
x,y,z
-x,-y,z
x,-y,1/2-z
-x,y,1/2-z
-x,-y,-z
x,y,-z
-x,y,1/2+z
x,-y,1/2+z
loop_
_atom_site_type_symbol
_atom_site_label
_atom_site_fract_x
_atom_site_fract_y
_atom_site_fract_z
Si Si1 0.185075 0.221394 0.683496
Si Si2 0.190613 0.591493 0.318222
Si Si3 0.711043 0.908324 0.185871
Si Si4 0.565937 0.887664 0.170776
Si Si5 0.669581 0.584002 0.320605
Si Si6 0.931717 0.094341 0.817364
Si Si7 0.564831 0.318063 0.327323
O O1 0.194297 0.227442 0.500000
O O2 0.169904 0.316917 0.747365
O O3 0.246700 0.172222 0.754681
O O4 0.124863 0.160161 0.717950
O O5 0.165418 0.500000 0.250000
O O6 0.181625 0.591143 0.500000
O O7 0.265581 0.591852 0.274503
O O8 0.636586 0.903573 0.238809
O O9 0.736680 0.000000 0.250000
O O10 0.712382 0.907421 0.000000
O O11 0.500000 0.913303 0.250000
O O12 0.560976 0.784486 0.159850
O O13 0.566968 0.925630 0.000000
O O14 0.635747 0.500000 0.250000
O O15 0.683360 0.575539 0.500000
O O16 0.623460 0.661650 0.282810
O O17 0.000000 0.122192 0.750000
O O18 0.917461 0.000000 0.750000
O O19 0.937361 0.086995 0.000000
O O20 0.500000 0.350813 0.250000
O O21 0.574452 0.352550 0.500000
#
# Coordination Sequence:
#
# PCOD9393004 Si02
#       7
#     8   8   8   8   8   8   8
#     4  11  23  39  61  91 123 159 200 246 297 353
#     4  11  22  38  60  86 116 152 192 239 290 346
#     4  11  23  38  56  83 116 153 195 244 299 357
#     4   9  20  36  54  73  98 135 182 232 286 344
#     4  11  21  34  51  72  99 133 173 223 282 346
#     4  10  21  37  61  92 129 168 208 247 290 346
#     4  10  19  33  50  70  94 125 169 223 283 348
#
# _framework density 19.765938999999999
#
# number of rings (size 3 to 8) (size 9 to 14) (size 15 to 20)
#    0.000    1.571    0.000    6.857    0.000    6.857 
#    0.000    2.857    0.000    0.429    0.000    3.000 
#    0.000    0.000    0.000    0.000    0.000    0.000 
#
# Total GULP energy -312543.590602 kJ/mol
# GULP energy per Si atom -5581.135546 kJ/mol
# Density = 1.972095 g / cm^3
# Si number density = 19.765939 Si / 1000 Ang^3
#
#
#
# Elastic Constant Matrix: (Units=GPa)
#
#
# Indices 1 2 3 4 5 6 
#
# 1 92.0239 54.4522 41.4397 0.0000 0.0000 0.0000
# 2 54.4522 108.6291 50.1805 0.0000 0.0000 0.0000
# 3 41.4397 50.1805 92.6517 0.0000 0.0000 0.0000
# 4 0.0000 0.0000 0.0000 39.1327 0.0000 0.0000
# 5 0.0000 0.0000 0.0000 0.0000 14.1413 0.0000
# 6 0.0000 0.0000 0.0000 0.0000 0.0000 20.2933
#
#
#
# Elastic Compliance Matrix: (Units=1/GPa)
#
#
# Indices 1 2 3 4 5 6 
#
# 1 0.016417 -0.006452 -0.003849 0.000000 0.000000 0.000000
# 2 -0.006452 0.014813 -0.005137 0.000000 0.000000 0.000000
# 3 -0.003849 -0.005137 0.015297 0.000000 0.000000 0.000000
# 4 0.000000 0.000000 0.000000 0.025554 0.000000 0.000000
# 5 0.000000 0.000000 0.000000 0.000000 0.070715 0.000000
# 6 0.000000 0.000000 0.000000 0.000000 0.000000 0.049277
#
#
# Mechanical properties :
#
#
# Convention : Reuss Voigt Hill
#
# Bulk Modulus (GPa) = 63.88910 65.04994 64.46952
# Shear Modulus (GPa) = 21.91396 24.52894 23.22145
#
# Velocity S-wave (km/s) = 3.33329 3.52656 3.43129
# Velocity P-wave (km/s) = 6.87076 7.04015 6.95597
#
# Compressibility (1/GPa) = 0.01565212
#
# Stress axis : x y z
#
# Youngs Moduli (GPa) = 60.91098 67.50995 65.37368
#
# Poissons Ratio (x) = 0.43555 0.25160
# Poissons Ratio (y) = 0.39298 0.33582
# Poissons Ratio (z) = 0.23443 0.34680
#
# Static dielectric constant tensor:
#      x y z
#    x 1.683330 0.000000 0.000000 
#    y 0.000000 1.774660 0.000000 
#    z 0.000000 0.000000 1.705220 
# 
# From -- ./inp_files/5809.got.cif
#   From: 2010.05.17/outbox.cif.g08.bks.cpg/sg49_3_cif.got.tgz:5809.got - 2010.06.03 21:02:19.
