data_PCOD9393820
_publ_section_title
;
Structure prediction by ZEFSAII (Michael W. Deem and Ramdas Pophale) SiO2 
 PCOD9393820
Probable space group: P C C M
;
_chemical_formula_sum "Si O2"
_cell_formula_units_Z 34
_cell_length_a 9.593905
_cell_length_b 21.420026
_cell_length_c 9.481556
_cell_angle_alpha 90.000000
_cell_angle_beta 90.000000
_cell_angle_gamma 90.000000
_cell_volume 1948.475825
_symmetry_space_group_name_H-M "P C C M"
_symmetry_group_IT_number 49
_symmetry_cell_setting 'orthorhombic'
loop_
_space_group_symop_operation_xyz
x,y,z
-x,-y,z
x,-y,1/2-z
-x,y,1/2-z
-x,-y,-z
x,y,-z
-x,y,1/2+z
x,-y,1/2+z
loop_
_atom_site_type_symbol
_atom_site_label
_atom_site_fract_x
_atom_site_fract_y
_atom_site_fract_z
Si Si1 0.856020 0.823853 0.833313
Si Si2 0.873322 0.622948 0.159454
Si Si3 0.000000 0.500000 0.750000
Si Si4 0.639946 0.934546 0.829511
Si Si5 0.356813 0.712096 0.668442
O O1 0.766141 0.886590 0.809397
O O2 0.753176 0.766642 0.796870
O O3 0.000000 0.823102 0.750000
O O4 0.885625 0.819428 0.000000
O O5 0.724008 0.647858 0.206329
O O6 0.000000 0.650358 0.250000
O O7 0.901240 0.548644 0.167929
O O8 0.890562 0.644214 0.000000
O O9 0.500000 0.910531 0.750000
O O10 0.668848 0.000000 0.750000
O O11 0.617793 0.941919 0.000000
O O12 0.500000 0.719249 0.750000
O O13 0.382938 0.713878 0.500000
#
# Coordination Sequence:
#
# PCOD9393820 Si02
#       5
#     8   8   2   8   8
#     4  10  22  37  55  79 108 138 179 222 268 316
#     4   9  18  32  54  79 105 135 175 213 255 309
#     4   8  18  32  56  80 110 136 174 212 262 304
#     4  10  20  35  55  80 107 142 179 220 264 319
#     4  10  21  37  54  79 108 139 176 220 264 316
#
# _framework density 17.449536999999999
#
# number of rings (size 3 to 8) (size 9 to 14) (size 15 to 20)
#    0.706    1.647    0.000    3.176    0.000    4.235 
#    0.000    2.941    0.000    2.824    0.000    0.000 
#    0.000    0.000    0.000    0.000    0.000    0.000 
#
# Total GULP energy -189276.184476 kJ/mol
# GULP energy per Si atom -5566.946602 kJ/mol
# Density = 1.740982 g / cm^3
# Si number density = 17.449537 Si / 1000 Ang^3
#
#
#
# Elastic Constant Matrix: (Units=GPa)
#
#
# Indices 1 2 3 4 5 6 
#
# 1 178.2924 76.1895 84.4170 0.0000 0.0000 0.0000
# 2 76.1895 83.1375 41.6801 0.0000 0.0000 0.0000
# 3 84.4170 41.6801 86.6496 0.0000 0.0000 0.0000
# 4 0.0000 0.0000 0.0000 38.8586 0.0000 0.0000
# 5 0.0000 0.0000 0.0000 0.0000 39.7071 0.0000
# 6 0.0000 0.0000 0.0000 0.0000 0.0000 30.9168
#
#
#
# Elastic Compliance Matrix: (Units=1/GPa)
#
#
# Indices 1 2 3 4 5 6 
#
# 1 0.013161 -0.007423 -0.009251 0.000000 0.000000 0.000000
# 2 -0.007423 0.020038 -0.002407 0.000000 0.000000 0.000000
# 3 -0.009251 -0.002407 0.021711 0.000000 0.000000 0.000000
# 4 0.000000 0.000000 0.000000 0.025734 0.000000 0.000000
# 5 0.000000 0.000000 0.000000 0.000000 0.025184 0.000000
# 6 0.000000 0.000000 0.000000 0.000000 0.000000 0.032345
#
#
# Mechanical properties :
#
#
# Convention : Reuss Voigt Hill
#
# Bulk Modulus (GPa) = 59.70903 83.62809 71.66856
# Shear Modulus (GPa) = 27.48481 31.61602 29.55041
#
# Velocity S-wave (km/s) = 3.97306 4.26121 4.11965
# Velocity P-wave (km/s) = 7.43904 8.49943 7.98685
#
# Compressibility (1/GPa) = 0.01674789
#
# Stress axis : x y z
#
# Youngs Moduli (GPa) = 75.98075 49.90615 46.05889
#
# Poissons Ratio (x) = 0.37046 0.42611
# Poissons Ratio (y) = 0.56402 0.11084
# Poissons Ratio (z) = 0.70293 0.12010
#
# Static dielectric constant tensor:
#      x y z
#    x 1.566430 0.000000 0.000000 
#    y 0.000000 1.637720 0.000000 
#    z 0.000000 0.000000 1.594070 
# 
# From -- ./inp_files/1873.got.cif
#   From: 2010.05.17/outbox.cif.g08.bks.cpg/sg49_1_cif.got.tgz:1873.got - 2010.06.03 21:02:19.
