data_PCOD9393152
_publ_section_title
;
Structure prediction by ZEFSAII (Michael W. Deem and Ramdas Pophale) SiO2 
 PCOD9393152
Probable space group: P C C M
;
_chemical_formula_sum "Si O2"
_cell_formula_units_Z 64
_cell_length_a 12.067959
_cell_length_b 15.254777
_cell_length_c 14.516524
_cell_angle_alpha 90.000000
_cell_angle_beta 90.000000
_cell_angle_gamma 90.000000
_cell_volume 2672.405309
_symmetry_space_group_name_H-M "P C C M"
_symmetry_group_IT_number 49
_symmetry_cell_setting 'orthorhombic'
loop_
_space_group_symop_operation_xyz
x,y,z
-x,-y,z
x,-y,1/2-z
-x,y,1/2-z
-x,-y,-z
x,y,-z
-x,y,1/2+z
x,-y,1/2+z
loop_
_atom_site_type_symbol
_atom_site_label
_atom_site_fract_x
_atom_site_fract_y
_atom_site_fract_z
Si Si1 0.822008 0.320768 0.893383
Si Si2 0.872523 0.990203 0.887779
Si Si3 0.775111 0.803745 0.112395
Si Si4 0.067231 0.645032 0.388276
Si Si5 0.536815 0.591679 0.895282
Si Si6 0.243789 0.510423 0.644607
Si Si7 0.522431 0.785261 0.112809
Si Si8 0.294059 0.855557 0.887007
O O1 0.755332 0.411887 0.892855
O O2 0.759436 0.236568 0.854878
O O3 0.943184 0.339634 0.852499
O O4 0.840731 0.297373 0.000000
O O5 0.785325 0.064923 0.857667
O O6 0.831105 0.894563 0.860571
O O7 0.872941 0.993978 0.000000
O O8 0.000000 0.000000 0.858466
O O9 0.849711 0.721968 0.143012
O O10 0.647346 0.805020 0.142423
O O11 0.773954 0.800018 0.000000
O O12 0.062833 0.646770 0.500000
O O13 0.123236 0.552992 0.364217
O O14 0.500000 0.500000 0.852070
O O15 0.669571 0.579130 0.898073
O O16 0.500992 0.684724 0.856654
O O17 0.493874 0.591272 0.000000
O O18 0.272717 0.500000 0.750000
O O19 0.423342 0.849767 0.140906
O O20 0.523356 0.784101 0.000000
O O21 0.295515 0.857663 0.000000
#
# Coordination Sequence:
#
# PCOD9393152 Si02
#       8
#     8   8   8   8   8   8   8   8
#     4  10  20  34  53  74 100 140 185 226 267 321
#     4   9  16  26  42  69 106 141 172 213 267 321
#     4   9  16  27  46  71 100 136 175 217 268 320
#     4  10  19  34  54  74 101 139 186 228 265 323
#     4  10  19  34  56  76 101 141 186 226 263 314
#     4  12  24  35  50  76 109 140 175 223 279 332
#     4   9  16  27  45  69  99 133 171 216 262 315
#     4   9  17  29  46  73 104 134 174 218 268 321
#
# _framework density 23.948464000000001
#
# number of rings (size 3 to 8) (size 9 to 14) (size 15 to 20)
#    0.000    2.250    1.250    3.000    0.000    7.750 
#    0.000    2.500    0.000    0.000    0.000    0.875 
#    0.000    3.000    1.500    0.000    0.250    0.000 
#
# Total GULP energy -357754.702734 kJ/mol
# GULP energy per Si atom -5589.917230 kJ/mol
# Density = 2.389396 g / cm^3
# Si number density = 23.948464 Si / 1000 Ang^3
#
#
#
# Elastic Constant Matrix: (Units=GPa)
#
#
# Indices 1 2 3 4 5 6 
#
# 1 130.5638 47.3319 1.8871 0.0000 0.0000 0.0000
# 2 47.3319 127.0439 -10.8345 0.0000 0.0000 0.0000
# 3 1.8871 -10.8345 73.2295 0.0000 0.0000 0.0000
# 4 0.0000 0.0000 0.0000 -23.8944 0.0000 0.0000
# 5 0.0000 0.0000 0.0000 0.0000 3.6703 0.0000
# 6 0.0000 0.0000 0.0000 0.0000 0.0000 32.5258
#
#
#
# Elastic Compliance Matrix: (Units=1/GPa)
#
#
# Indices 1 2 3 4 5 6 
#
# 1 0.008893 -0.003375 -0.000729 0.000000 0.000000 0.000000
# 2 -0.003375 0.009253 0.001456 0.000000 0.000000 0.000000
# 3 -0.000729 0.001456 0.013890 0.000000 0.000000 0.000000
# 4 0.000000 0.000000 0.000000 -0.041851 0.000000 0.000000
# 5 0.000000 0.000000 0.000000 0.000000 0.272460 0.000000
# 6 0.000000 0.000000 0.000000 0.000000 0.000000 0.030745
#
#
# Mechanical properties :
#
#
# Convention : Reuss Voigt Hill
#
# Bulk Modulus (GPa) = 37.39696 45.28957 41.34327
# Shear Modulus (GPa) = 16.25489 21.95719 19.10604
#
# Velocity S-wave (km/s) = 2.60810 3.03124 2.82760
# Velocity P-wave (km/s) = 4.97183 5.58601 5.28785
#
# Compressibility (1/GPa) = 0.02674014
#
# Stress axis : x y z
#
# Youngs Moduli (GPa) = 112.44443 108.07271 71.99484
#
# Poissons Ratio (x) = 0.36479 0.05245
# Poissons Ratio (y) = 0.37955 -0.10482
# Poissons Ratio (z) = 0.08192 -0.15735
#
# Static dielectric constant tensor:
#      x y z
#    x 1.957840 0.000000 0.000000 
#    y 0.000000 1.864460 0.000000 
#    z 0.000000 0.000000 1.918140 
# 
# From -- ./inp_files/17348.got.cif
#   From: 2010.05.17/outbox.cif.g08.bks.cpg/sg49_9_cif.got.tgz:17348.got - 2010.06.03 21:02:19.
