data_PCOD9393576
_publ_section_title
;
Structure prediction by ZEFSAII (Michael W. Deem and Ramdas Pophale) SiO2 
 PCOD9393576
Probable space group: P C C M
;
_chemical_formula_sum "Si O2"
_cell_formula_units_Z 58
_cell_length_a 26.488034
_cell_length_b 13.080566
_cell_length_c 9.074128
_cell_angle_alpha 90.000000
_cell_angle_beta 90.000000
_cell_angle_gamma 90.000000
_cell_volume 3143.990049
_symmetry_space_group_name_H-M "P C C M"
_symmetry_group_IT_number 49
_symmetry_cell_setting 'orthorhombic'
loop_
_space_group_symop_operation_xyz
x,y,z
-x,-y,z
x,-y,1/2-z
-x,y,1/2-z
-x,-y,-z
x,y,-z
-x,y,1/2+z
x,-y,1/2+z
loop_
_atom_site_type_symbol
_atom_site_label
_atom_site_fract_x
_atom_site_fract_y
_atom_site_fract_z
Si Si1 0.104536 0.101907 0.174181
Si Si2 0.419299 0.819465 0.173120
Si Si3 0.849813 0.405532 0.170668
Si Si4 0.946774 0.682279 0.175541
Si Si5 0.500000 0.000000 0.250000
Si Si6 0.201384 0.811889 0.828275
Si Si7 0.444507 0.603447 0.678619
Si Si8 0.307416 0.892538 0.176333
O O1 0.070115 0.200544 0.207025
O O2 0.160765 0.124896 0.234814
O O3 0.084771 0.000000 0.250000
O O4 0.106612 0.088675 0.000000
O O5 0.459675 0.914085 0.186913
O O6 0.427198 0.716787 0.269552
O O7 0.363568 0.857716 0.216844
O O8 0.419962 0.789872 0.000000
O O9 0.823931 0.500000 0.250000
O O10 0.901990 0.383665 0.254833
O O11 0.816422 0.304515 0.181717
O O12 0.859769 0.426867 0.000000
O O13 0.000000 0.659855 0.250000
O O14 0.949181 0.668451 0.000000
O O15 0.259489 0.823052 0.783131
O O16 0.196629 0.843985 0.000000
O O17 0.419419 0.500000 0.750000
O O18 0.500000 0.601856 0.750000
O O19 0.444917 0.596103 0.500000
O O20 0.296980 0.000000 0.250000
O O21 0.307826 0.902176 0.000000
#
# Coordination Sequence:
#
# PCOD9393576 Si02
#       8
#     8   8   8   8   2   8   8   8
#     4  10  20  33  52  77 106 141 182 225 272 326
#     4  11  23  38  58  87 123 159 199 245 293 350
#     4  10  20  36  58  82 107 140 181 228 279 336
#     4  10  21  36  53  77 109 144 182 227 273 326
#     4  12  22  36  62  86 122 164 202 242 296 348
#     4   9  19  36  57  79 107 142 181 227 279 333
#     4  11  22  38  61  85 112 147 191 237 284 337
#     4  10  21  37  56  83 117 152 188 232 283 337
#
# _framework density 18.447894999999999
#
# number of rings (size 3 to 8) (size 9 to 14) (size 15 to 20)
#    0.000    1.793    1.379    3.517    0.000    5.517 
#    0.000    3.448    0.000    1.655    0.000    0.000 
#    0.000    0.000    0.000    0.000    0.000    0.000 
#
# Total GULP energy -323199.634548 kJ/mol
# GULP energy per Si atom -5572.407492 kJ/mol
# Density = 1.840591 g / cm^3
# Si number density = 18.447895 Si / 1000 Ang^3
#
#
#
# Elastic Constant Matrix: (Units=GPa)
#
#
# Indices 1 2 3 4 5 6 
#
# 1 94.6676 13.9334 20.8192 0.0000 0.0000 0.0000
# 2 13.9334 93.0113 47.1837 0.0000 0.0000 0.0000
# 3 20.8192 47.1837 66.4095 0.0000 0.0000 0.0000
# 4 0.0000 0.0000 0.0000 14.5041 0.0000 0.0000
# 5 0.0000 0.0000 0.0000 0.0000 19.4776 0.0000
# 6 0.0000 0.0000 0.0000 0.0000 0.0000 -11.6110
#
#
#
# Elastic Compliance Matrix: (Units=1/GPa)
#
#
# Indices 1 2 3 4 5 6 
#
# 1 0.011347 0.000164 -0.003674 0.000000 0.000000 0.000000
# 2 0.000164 0.016813 -0.011997 0.000000 0.000000 0.000000
# 3 -0.003674 -0.011997 0.024733 0.000000 0.000000 0.000000
# 4 0.000000 0.000000 0.000000 0.068946 0.000000 0.000000
# 5 0.000000 0.000000 0.000000 0.000000 0.051341 0.000000
# 6 0.000000 0.000000 0.000000 0.000000 0.000000 -0.086125
#
#
# Mechanical properties :
#
#
# Convention : Reuss Voigt Hill
#
# Bulk Modulus (GPa) = 45.70382 46.44011 46.07196
# Shear Modulus (GPa) = 39.88468 15.95094 27.91781
#
# Velocity S-wave (km/s) = 4.65479 2.94368 3.89438
# Velocity P-wave (km/s) = 7.32924 6.06482 6.72680
#
# Compressibility (1/GPa) = 0.02188001
#
# Stress axis : x y z
#
# Youngs Moduli (GPa) = 88.12841 59.47915 40.43128
#
# Poissons Ratio (x) = -0.00974 0.14853
# Poissons Ratio (y) = -0.01443 0.48504
# Poissons Ratio (z) = 0.32375 0.71355
#
# Static dielectric constant tensor:
#      x y z
#    x 1.627560 0.000000 0.000000 
#    y 0.000000 1.692000 0.000000 
#    z 0.000000 0.000000 1.627860 
# 
# From -- ./inp_files/3014.got.cif
#   From: 2010.05.17/outbox.cif.g08.bks.cpg/sg49_2_cif.got.tgz:3014.got - 2010.06.03 21:02:19.
