data_PCOD9393075
_publ_section_title
;
Structure prediction by ZEFSAII (Michael W. Deem and Ramdas Pophale) SiO2 
 PCOD9393075
Probable space group: P C C M
;
_chemical_formula_sum "Si O2"
_cell_formula_units_Z 40
_cell_length_a 9.763775
_cell_length_b 27.079135
_cell_length_c 8.520903
_cell_angle_alpha 90.000000
_cell_angle_beta 90.000000
_cell_angle_gamma 90.000000
_cell_volume 2252.880581
_symmetry_space_group_name_H-M "P C C M"
_symmetry_group_IT_number 49
_symmetry_cell_setting 'orthorhombic'
loop_
_space_group_symop_operation_xyz
x,y,z
-x,-y,z
x,-y,1/2-z
-x,y,1/2-z
-x,-y,-z
x,y,-z
-x,y,1/2+z
x,-y,1/2+z
loop_
_atom_site_type_symbol
_atom_site_label
_atom_site_fract_x
_atom_site_fract_y
_atom_site_fract_z
Si Si1 0.344003 0.640626 0.688958
Si Si2 0.344308 0.748765 0.310957
Si Si3 0.655449 0.856495 0.810132
Si Si4 0.154308 0.946655 0.688675
Si Si5 0.153819 0.446429 0.313052
O O1 0.500000 0.636555 0.750000
O O2 0.345289 0.638153 0.500000
O O3 0.287942 0.695197 0.737903
O O4 0.252353 0.596887 0.755482
O O5 0.500000 0.748922 0.250000
O O6 0.344961 0.748667 0.500000
O O7 0.287764 0.802258 0.260557
O O8 0.500000 0.861347 0.750000
O O9 0.749137 0.901886 0.757717
O O10 0.651805 0.857289 0.000000
O O11 0.151719 0.947764 0.500000
O O12 0.000000 0.939537 0.750000
O O13 0.202613 0.000000 0.750000
O O14 0.199627 0.500000 0.250000
O O15 0.150249 0.447975 0.500000
O O16 0.000000 0.438264 0.250000
#
# Coordination Sequence:
#
# PCOD9393075 Si02
#       5
#     8   8   8   8   8
#     4  10  19  33  54  80 107 136 170 210 252 298
#     4   8  15  29  49  72 101 132 163 200 245 293
#     4   9  18  32  51  75 100 129 164 204 246 293
#     4  10  20  34  51  70  96 129 166 204 248 297
#     4  11  22  38  57  77 103 136 172 210 255 305
#
# _framework density 17.755047000000001
#
# number of rings (size 3 to 8) (size 9 to 14) (size 15 to 20)
#    0.000    2.400    0.000    4.200    0.000    3.200 
#    0.000    5.000    0.000    2.400    0.000    0.000 
#    0.000    0.000    0.000    0.000    0.000    0.000 
#
# Total GULP energy -222919.366349 kJ/mol
# GULP energy per Si atom -5572.984159 kJ/mol
# Density = 1.771464 g / cm^3
# Si number density = 17.755047 Si / 1000 Ang^3
#
#
#
# Elastic Constant Matrix: (Units=GPa)
#
#
# Indices 1 2 3 4 5 6 
#
# 1 52.8934 90.2022 22.1964 0.0000 0.0000 0.0000
# 2 90.2022 234.7599 50.8523 0.0000 0.0000 0.0000
# 3 22.1964 50.8523 67.0127 0.0000 0.0000 0.0000
# 4 0.0000 0.0000 0.0000 25.4198 0.0000 0.0000
# 5 0.0000 0.0000 0.0000 0.0000 24.0903 0.0000
# 6 0.0000 0.0000 0.0000 0.0000 0.0000 -59.0667
#
#
#
# Elastic Compliance Matrix: (Units=1/GPa)
#
#
# Indices 1 2 3 4 5 6 
#
# 1 0.055222 -0.020650 -0.002621 0.000000 0.000000 0.000000
# 2 -0.020650 0.012820 -0.002888 0.000000 0.000000 0.000000
# 3 -0.002621 -0.002888 0.017982 0.000000 0.000000 0.000000
# 4 0.000000 0.000000 0.000000 0.039339 0.000000 0.000000
# 5 0.000000 0.000000 0.000000 0.000000 0.041510 0.000000
# 6 0.000000 0.000000 0.000000 0.000000 0.000000 -0.016930
#
#
# Mechanical properties :
#
#
# Convention : Reuss Voigt Hill
#
# Bulk Modulus (GPa) = 29.66862 75.68533 52.67697
# Shear Modulus (GPa) = 23.41944 10.84969 17.13456
#
# Velocity S-wave (km/s) = 3.63579 2.47468 3.10990
# Velocity P-wave (km/s) = 5.86272 7.13340 6.52905
#
# Compressibility (1/GPa) = 0.03370564
#
# Stress axis : x y z
#
# Youngs Moduli (GPa) = 18.10871 78.00398 55.61013
#
# Poissons Ratio (x) = 1.61081 0.14573
# Poissons Ratio (y) = 0.37395 0.16062
# Poissons Ratio (z) = 0.04746 0.22530
#
# Static dielectric constant tensor:
#      x y z
#    x 1.556500 0.000000 0.000000 
#    y 0.000000 1.657150 0.000000 
#    z 0.000000 0.000000 1.604270 
# 
# From -- ./inp_files/1702.got.cif
#   From: 2010.05.17/outbox.cif.g08.bks.cpg/sg49_1_cif.got.tgz:1702.got - 2010.06.03 21:02:19.
