data_PCOD9393370
_publ_section_title
;
Structure prediction by ZEFSAII (Michael W. Deem and Ramdas Pophale) SiO2 
 PCOD9393370
Probable space group: P C C M
;
_chemical_formula_sum "Si O2"
_cell_formula_units_Z 56
_cell_length_a 9.535630
_cell_length_b 17.476176
_cell_length_c 15.251508
_cell_angle_alpha 90.000000
_cell_angle_beta 90.000000
_cell_angle_gamma 90.000000
_cell_volume 2541.608112
_symmetry_space_group_name_H-M "P C C M"
_symmetry_group_IT_number 49
_symmetry_cell_setting 'orthorhombic'
loop_
_space_group_symop_operation_xyz
x,y,z
-x,-y,z
x,-y,1/2-z
-x,y,1/2-z
-x,-y,-z
x,y,-z
-x,y,1/2+z
x,-y,1/2+z
loop_
_atom_site_type_symbol
_atom_site_label
_atom_site_fract_x
_atom_site_fract_y
_atom_site_fract_z
Si Si1 0.603107 0.560796 0.402732
Si Si2 0.843910 0.469300 0.653702
Si Si3 0.806702 0.853815 0.601513
Si Si4 0.877960 0.855905 0.894496
Si Si5 0.338989 0.009008 0.145745
Si Si6 0.739148 0.301972 0.606063
Si Si7 0.417413 0.729017 0.893051
O O1 0.500000 0.500000 0.357199
O O2 0.540009 0.575783 0.500000
O O3 0.745091 0.515733 0.410043
O O4 0.632416 0.644283 0.365623
O O5 0.805902 0.500000 0.750000
O O6 0.803727 0.380233 0.644334
O O7 0.000000 0.500000 0.638168
O O8 0.826666 0.829462 0.500000
O O9 0.690961 0.794018 0.639697
O O10 0.962886 0.863978 0.640443
O O11 0.740976 0.937414 0.605010
O O12 0.754496 0.915182 0.869479
O O13 0.834062 0.770152 0.871623
O O14 0.884344 0.863367 0.000000
O O15 0.500000 0.000000 0.113688
O O16 0.344039 0.000000 0.250000
O O17 0.737336 0.311251 0.500000
O O18 0.581316 0.276288 0.633319
O O19 0.418122 0.737452 0.000000
#
# Coordination Sequence:
#
# PCOD9393370 Si02
#       7
#     8   8   8   8   8   8   8
#     4  10  19  36  62  88 114 151 201 254 304 362
#     4  11  25  41  55  83 124 164 208 253 310 372
#     4  10  21  38  63  95 125 155 199 256 310 369
#     4  10  22  39  64  96 125 157 204 257 312 369
#     4  11  24  42  62  89 125 167 212 246 297 367
#     4  10  20  39  64  89 118 158 207 259 313 370
#     4   9  18  34  58  89 118 147 193 249 305 360
#
# _framework density 22.033294999999999
#
# number of rings (size 3 to 8) (size 9 to 14) (size 15 to 20)
#    0.000    1.857    1.429    2.143    2.000    6.000 
#    2.571    0.000    0.000    0.000    0.000    0.000 
#    0.000    0.000    0.000    0.000    0.000    0.000 
#
# Total GULP energy -312152.990934 kJ/mol
# GULP energy per Si atom -5574.160552 kJ/mol
# Density = 2.198315 g / cm^3
# Si number density = 22.033295 Si / 1000 Ang^3
#
#
#
# Elastic Constant Matrix: (Units=GPa)
#
#
# Indices 1 2 3 4 5 6 
#
# 1 180.8663 92.7769 39.5849 0.0000 0.0000 0.0000
# 2 92.7769 155.7429 11.0931 0.0000 0.0000 0.0000
# 3 39.5849 11.0931 27.3727 0.0000 0.0000 0.0000
# 4 0.0000 0.0000 0.0000 9.5025 0.0000 0.0000
# 5 0.0000 0.0000 0.0000 0.0000 111.4677 0.0000
# 6 0.0000 0.0000 0.0000 0.0000 0.0000 19.1397
#
#
#
# Elastic Compliance Matrix: (Units=1/GPa)
#
#
# Indices 1 2 3 4 5 6 
#
# 1 0.011808 -0.005991 -0.014648 0.000000 0.000000 0.000000
# 2 -0.005991 0.009651 0.004752 0.000000 0.000000 0.000000
# 3 -0.014648 0.004752 0.055790 0.000000 0.000000 0.000000
# 4 0.000000 0.000000 0.000000 0.105235 0.000000 0.000000
# 5 0.000000 0.000000 0.000000 0.000000 0.008971 0.000000
# 6 0.000000 0.000000 0.000000 0.000000 0.000000 0.052247
#
#
# Mechanical properties :
#
#
# Convention : Reuss Voigt Hill
#
# Bulk Modulus (GPa) = 21.98966 72.32129 47.15548
# Shear Modulus (GPa) = 17.20374 42.72378 29.96376
#
# Velocity S-wave (km/s) = 2.79732 4.40825 3.69172
# Velocity P-wave (km/s) = 4.52053 7.66845 6.29445
#
# Compressibility (1/GPa) = 0.04547592
#
# Stress axis : x y z
#
# Youngs Moduli (GPa) = 84.68973 103.61608 17.92431
#
# Poissons Ratio (x) = 0.62073 0.26256
# Poissons Ratio (y) = 0.50735 -0.08518
# Poissons Ratio (z) = 1.24054 -0.49240
#
# Static dielectric constant tensor:
#      x y z
#    x -9.311720 0.000000 0.000000 
#    y 0.000000 1.836170 0.000000 
#    z 0.000000 0.000000 1.943030 
# 
# From -- ./inp_files/19900.got.cif
#   From: 2010.05.17/outbox.cif.g08.bks.cpg/sg49_10_cif.got.tgz:19900.got - 2010.06.03 21:02:19.
