data_PCOD9393563
_publ_section_title
;
Structure prediction by ZEFSAII (Michael W. Deem and Ramdas Pophale) SiO2 
 PCOD9393563
Probable space group: P C C M
;
_chemical_formula_sum "Si O2"
_cell_formula_units_Z 48
_cell_length_a 19.233790
_cell_length_b 16.254071
_cell_length_c 8.724537
_cell_angle_alpha 90.000000
_cell_angle_beta 90.000000
_cell_angle_gamma 90.000000
_cell_volume 2727.529216
_symmetry_space_group_name_H-M "P C C M"
_symmetry_group_IT_number 49
_symmetry_cell_setting 'orthorhombic'
loop_
_space_group_symop_operation_xyz
x,y,z
-x,-y,z
x,-y,1/2-z
-x,y,1/2-z
-x,-y,-z
x,y,-z
-x,y,1/2+z
x,-y,1/2+z
loop_
_atom_site_type_symbol
_atom_site_label
_atom_site_fract_x
_atom_site_fract_y
_atom_site_fract_z
Si Si1 0.922558 0.413353 0.682732
Si Si2 0.422892 0.412496 0.184057
Si Si3 0.169322 0.083026 0.316641
Si Si4 0.678001 0.263371 0.315377
Si Si5 0.833113 0.266021 0.816808
Si Si6 0.326032 0.917526 0.682567
O O1 0.895379 0.500000 0.750000
O O2 0.925916 0.418810 0.500000
O O3 0.875988 0.337115 0.734829
O O4 0.000000 0.402705 0.750000
O O5 0.398028 0.500000 0.250000
O O6 0.500000 0.398794 0.250000
O O7 0.372213 0.337978 0.226962
O O8 0.426602 0.417473 0.000000
O O9 0.173278 0.076170 0.500000
O O10 0.140038 0.173433 0.278287
O O11 0.247442 0.084685 0.248342
O O12 0.135384 0.000000 0.250000
O O13 0.688976 0.265508 0.500000
O O14 0.752711 0.270679 0.235045
O O15 0.645790 0.173294 0.279142
O O16 0.837505 0.275817 0.000000
O O17 0.323063 0.925939 0.500000
O O18 0.360060 0.000000 0.750000
#
# Coordination Sequence:
#
# PCOD9393563 Si02
#       6
#     8   8   8   8   8   8
#     4  11  22  38  58  77 101 133 169 207 249 299
#     4  10  20  35  53  72  95 126 164 202 245 297
#     4   9  16  26  43  68  99 132 165 201 241 289
#     4   9  19  33  49  72 102 133 164 203 250 295
#     4  10  20  33  51  78 107 134 168 208 250 295
#     4   9  15  25  42  65  94 126 160 197 240 289
#
# _framework density 17.598344999999998
#
# number of rings (size 3 to 8) (size 9 to 14) (size 15 to 20)
#    0.000    2.333    0.000    5.500    0.000    4.667 
#    0.000    1.667    0.000    1.000    0.000    7.000 
#    0.000    0.000    0.000    0.000    0.000    0.000 
#
# Total GULP energy -267524.924379 kJ/mol
# GULP energy per Si atom -5573.435925 kJ/mol
# Density = 1.755829 g / cm^3
# Si number density = 17.598345 Si / 1000 Ang^3
#
#
#
# Elastic Constant Matrix: (Units=GPa)
#
#
# Indices 1 2 3 4 5 6 
#
# 1 30.7956 61.3341 25.9411 0.0000 0.0000 0.0000
# 2 61.3341 215.1282 77.9822 0.0000 0.0000 0.0000
# 3 25.9411 77.9822 88.5745 0.0000 0.0000 0.0000
# 4 0.0000 0.0000 0.0000 33.7094 0.0000 0.0000
# 5 0.0000 0.0000 0.0000 0.0000 14.7966 0.0000
# 6 0.0000 0.0000 0.0000 0.0000 0.0000 -18.0102
#
#
#
# Elastic Compliance Matrix: (Units=1/GPa)
#
#
# Indices 1 2 3 4 5 6 
#
# 1 0.076447 -0.020092 -0.004700 0.000000 0.000000 0.000000
# 2 -0.020092 0.012108 -0.004775 0.000000 0.000000 0.000000
# 3 -0.004700 -0.004775 0.016871 0.000000 0.000000 0.000000
# 4 0.000000 0.000000 0.000000 0.029665 0.000000 0.000000
# 5 0.000000 0.000000 0.000000 0.000000 0.067583 0.000000
# 6 0.000000 0.000000 0.000000 0.000000 0.000000 -0.055524
#
#
# Mechanical properties :
#
#
# Convention : Reuss Voigt Hill
#
# Bulk Modulus (GPa) = 21.60253 73.89032 47.74643
# Shear Modulus (GPa) = 22.55143 17.38189 19.96666
#
# Velocity S-wave (km/s) = 3.58362 3.14618 3.37200
# Velocity P-wave (km/s) = 5.42449 7.43479 6.50774
#
# Compressibility (1/GPa) = 0.04629086
#
# Stress axis : x y z
#
# Youngs Moduli (GPa) = 13.08092 82.59222 59.27357
#
# Poissons Ratio (x) = 1.65941 0.27861
# Poissons Ratio (y) = 0.26282 0.28306
# Poissons Ratio (z) = 0.06149 0.39442
#
# Static dielectric constant tensor:
#      x y z
#    x 1.557760 0.000000 0.000000 
#    y 0.000000 1.661640 0.000000 
#    z 0.000000 0.000000 1.591140 
# 
# From -- ./inp_files/6359.got.cif
#   From: 2010.05.17/outbox.cif.g08.bks.cpg/sg49_4_cif.got.tgz:6359.got - 2010.06.03 21:02:19.
