data_PCOD9393758
_publ_section_title
;
Structure prediction by ZEFSAII (Michael W. Deem and Ramdas Pophale) SiO2 
 PCOD9393758
Probable space group: P C C M
;
_chemical_formula_sum "Si O2"
_cell_formula_units_Z 58
_cell_length_a 12.072972
_cell_length_b 18.731936
_cell_length_c 14.212408
_cell_angle_alpha 90.000000
_cell_angle_beta 90.000000
_cell_angle_gamma 90.000000
_cell_volume 3214.138042
_symmetry_space_group_name_H-M "P C C M"
_symmetry_group_IT_number 49
_symmetry_cell_setting 'orthorhombic'
loop_
_space_group_symop_operation_xyz
x,y,z
-x,-y,z
x,-y,1/2-z
-x,y,1/2-z
-x,-y,-z
x,y,-z
-x,y,1/2+z
x,-y,1/2+z
loop_
_atom_site_type_symbol
_atom_site_label
_atom_site_fract_x
_atom_site_fract_y
_atom_site_fract_z
Si Si1 0.653238 0.057343 0.828705
Si Si2 0.011911 0.790789 0.110107
Si Si3 0.867059 0.415330 0.745118
Si Si4 0.500000 0.000000 0.000000
Si Si5 0.776266 0.688201 0.392327
Si Si6 0.206511 0.709133 0.614078
Si Si7 0.629707 0.779840 0.742201
Si Si8 0.907398 0.942724 0.386115
O O1 0.573504 0.042396 0.917291
O O2 0.646484 0.137042 0.785058
O O3 0.782061 0.043683 0.855275
O O4 0.624517 0.000000 0.750000
O O5 0.901303 0.754486 0.147646
O O6 0.113415 0.736539 0.113683
O O7 0.052033 0.865754 0.149490
O O8 0.986573 0.803902 0.000000
O O9 0.850276 0.500000 0.750000
O O10 0.806813 0.381909 0.835187
O O11 0.816010 0.369702 0.657876
O O12 0.000000 0.402661 0.750000
O O13 0.749906 0.674463 0.500000
O O14 0.681632 0.732742 0.341060
O O15 0.213942 0.707191 0.500000
O O16 0.307671 0.750644 0.664256
O O17 0.500000 0.767474 0.750000
O O18 0.904321 0.941319 0.500000
O O19 0.000000 0.000000 0.358651
#
# Coordination Sequence:
#
# PCOD9393758 Si02
#       8
#     8   8   8   2   8   8   8   8
#     4  12  26  46  62  92 120 165 215 267 327 382
#     4   9  17  34  59  88 116 160 206 249 312 375
#     4  10  20  34  58  97 140 174 204 246 307 389
#     4  12  26  48  70  74 124 172 210 266 332 384
#     4  10  20  37  64  89 122 163 209 259 314 376
#     4  10  22  41  63  93 132 171 205 262 325 380
#     4  11  25  43  63  91 120 158 222 271 314 376
#     4  10  21  39  62  88 122 163 208 258 321 384
#
# _framework density 18.045273999999999
#
# number of rings (size 3 to 8) (size 9 to 14) (size 15 to 20)
#    0.000    1.655    3.448    1.034    2.897    1.379 
#    3.724    1.379    0.000    6.621    0.000    7.724 
#    0.000    0.000    0.000    0.000    0.000    0.000 
#
# Total GULP energy -323092.283180 kJ/mol
# GULP energy per Si atom -5570.556607 kJ/mol
# Density = 1.800420 g / cm^3
# Si number density = 18.045274 Si / 1000 Ang^3
#
#
#
# Elastic Constant Matrix: (Units=GPa)
#
#
# Indices 1 2 3 4 5 6 
#
# 1 124.5726 51.8296 43.4191 0.0000 0.0000 0.0000
# 2 51.8296 139.9495 65.2042 0.0000 0.0000 0.0000
# 3 43.4191 65.2042 150.5244 0.0000 0.0000 0.0000
# 4 0.0000 0.0000 0.0000 11.9453 0.0000 0.0000
# 5 0.0000 0.0000 0.0000 0.0000 27.8125 0.0000
# 6 0.0000 0.0000 0.0000 0.0000 0.0000 40.8472
#
#
#
# Elastic Compliance Matrix: (Units=1/GPa)
#
#
# Indices 1 2 3 4 5 6 
#
# 1 0.009776 -0.002890 -0.001568 0.000000 0.000000 0.000000
# 2 -0.002890 0.009807 -0.003414 0.000000 0.000000 0.000000
# 3 -0.001568 -0.003414 0.008575 0.000000 0.000000 0.000000
# 4 0.000000 0.000000 0.000000 0.083715 0.000000 0.000000
# 5 0.000000 0.000000 0.000000 0.000000 0.035955 0.000000
# 6 0.000000 0.000000 0.000000 0.000000 0.000000 0.024482
#
#
# Mechanical properties :
#
#
# Convention : Reuss Voigt Hill
#
# Bulk Modulus (GPa) = 80.56250 81.77247 81.16749
# Shear Modulus (GPa) = 26.01569 33.09390 29.55479
#
# Velocity S-wave (km/s) = 3.80108 4.28710 4.05138
# Velocity P-wave (km/s) = 8.00036 8.36177 8.18306
#
# Compressibility (1/GPa) = 0.01241272
#
# Stress axis : x y z
#
# Youngs Moduli (GPa) = 102.28673 101.97276 116.62074
#
# Poissons Ratio (x) = 0.29471 0.18288
# Poissons Ratio (y) = 0.29561 0.39818
# Poissons Ratio (z) = 0.16040 0.34817
#
# Static dielectric constant tensor:
#      x y z
#    x 1.613430 0.000000 0.000000 
#    y 0.000000 1.610530 0.000000 
#    z 0.000000 0.000000 1.690390 
# 
# From -- ./inp_files/13032.got.cif
#   From: 2010.05.17/outbox.cif.g08.bks.cpg/sg49_7_cif.got.tgz:13032.got - 2010.06.03 21:02:19.
