data_PCOD9393535
_publ_section_title
;
Structure prediction by ZEFSAII (Michael W. Deem and Ramdas Pophale) SiO2 
 PCOD9393535
Probable space group: P C C M
;
_chemical_formula_sum "Si O2"
_cell_formula_units_Z 58
_cell_length_a 15.090075
_cell_length_b 26.091164
_cell_length_c 8.464975
_cell_angle_alpha 90.000000
_cell_angle_beta 90.000000
_cell_angle_gamma 90.000000
_cell_volume 3332.809824
_symmetry_space_group_name_H-M "P C C M"
_symmetry_group_IT_number 49
_symmetry_cell_setting 'orthorhombic'
loop_
_space_group_symop_operation_xyz
x,y,z
-x,-y,z
x,-y,1/2-z
-x,y,1/2-z
-x,-y,-z
x,y,-z
-x,y,1/2+z
x,-y,1/2+z
loop_
_atom_site_type_symbol
_atom_site_label
_atom_site_fract_x
_atom_site_fract_y
_atom_site_fract_z
Si Si1 0.655636 0.555915 0.313642
Si Si2 0.097181 0.302546 0.689803
Si Si3 0.000000 0.500000 0.750000
Si Si4 0.595003 0.661131 0.814639
Si Si5 0.601176 0.947231 0.811276
Si Si6 0.864101 0.421140 0.189337
Si Si7 0.600539 0.834072 0.188492
Si Si8 0.275885 0.255880 0.687193
O O1 0.632252 0.500000 0.250000
O O2 0.636184 0.560311 0.500000
O O3 0.607455 0.601266 0.221137
O O4 0.761378 0.564711 0.292331
O O5 0.097500 0.300402 0.500000
O O6 0.119270 0.361862 0.729863
O O7 0.176351 0.265951 0.748071
O O8 0.000000 0.289443 0.750000
O O9 0.925877 0.457276 0.702706
O O10 0.500000 0.678246 0.750000
O O11 0.670522 0.692179 0.723788
O O12 0.601590 0.671505 0.000000
O O13 0.500000 0.947406 0.750000
O O14 0.633986 0.890910 0.760744
O O15 0.643868 0.000000 0.750000
O O16 0.600713 0.949536 0.000000
O O17 0.886690 0.429365 0.000000
O O18 0.500000 0.825847 0.250000
O O19 0.667866 0.790291 0.240967
O O20 0.594779 0.833933 0.000000
O O21 0.272331 0.248245 0.500000
#
# Coordination Sequence:
#
# PCOD9393535 Si02
#       8
#     8   8   2   8   8   8   8   8
#     4  11  22  40  58  78 104 130 163 205 252 307
#     4  10  21  38  56  77 103 134 168 209 259 313
#     4  12  18  32  52  82 102 132 158 196 260 312
#     4  12  25  41  60  81 102 134 171 213 263 314
#     4   9  16  26  43  68 103 144 186 226 266 309
#     4  10  20  33  50  74 104 129 156 195 245 306
#     4  10  20  33  50  77 110 147 189 231 269 313
#     4  11  22  38  57  78 107 142 177 221 266 312
#
# _framework density 17.402733000000001
#
# number of rings (size 3 to 8) (size 9 to 14) (size 15 to 20)
#    0.000    1.517    2.759    3.931    0.000    3.034 
#    0.000    1.379    0.000    0.000    0.000    0.000 
#    0.000    0.552    0.000    6.069    0.000    4.414 
#
# Total GULP energy -323506.262947 kJ/mol
# GULP energy per Si atom -5577.694189 kJ/mol
# Density = 1.736312 g / cm^3
# Si number density = 17.402733 Si / 1000 Ang^3
#
#
#
# Elastic Constant Matrix: (Units=GPa)
#
#
# Indices 1 2 3 4 5 6 
#
# 1 75.7979 39.4428 9.4029 0.0000 0.0000 0.0000
# 2 39.4428 123.3326 15.2236 0.0000 0.0000 0.0000
# 3 9.4029 15.2236 28.8030 0.0000 0.0000 0.0000
# 4 0.0000 0.0000 0.0000 31.0136 0.0000 0.0000
# 5 0.0000 0.0000 0.0000 0.0000 15.3714 0.0000
# 6 0.0000 0.0000 0.0000 0.0000 0.0000 3.1735
#
#
#
# Elastic Compliance Matrix: (Units=1/GPa)
#
#
# Indices 1 2 3 4 5 6 
#
# 1 0.016020 -0.004790 -0.002698 0.000000 0.000000 0.000000
# 2 -0.004790 0.010106 -0.003778 0.000000 0.000000 0.000000
# 3 -0.002698 -0.003778 0.037596 0.000000 0.000000 0.000000
# 4 0.000000 0.000000 0.000000 0.032244 0.000000 0.000000
# 5 0.000000 0.000000 0.000000 0.000000 0.065056 0.000000
# 6 0.000000 0.000000 0.000000 0.000000 0.000000 0.315110
#
#
# Mechanical properties :
#
#
# Convention : Reuss Voigt Hill
#
# Bulk Modulus (GPa) = 24.27746 39.56356 31.92051
# Shear Modulus (GPa) = 9.75809 20.83600 15.29704
#
# Velocity S-wave (km/s) = 2.37052 3.46393 2.96801
# Velocity P-wave (km/s) = 4.63392 6.22751 5.48886
#
# Compressibility (1/GPa) = 0.04119047
#
# Stress axis : x y z
#
# Youngs Moduli (GPa) = 62.42015 98.94624 26.59851
#
# Poissons Ratio (x) = 0.47400 0.07176
# Poissons Ratio (y) = 0.29902 0.10048
# Poissons Ratio (z) = 0.16841 0.37380
#
# Static dielectric constant tensor:
#      x y z
#    x 1.573540 0.000000 0.000000 
#    y 0.000000 1.617630 0.000000 
#    z 0.000000 0.000000 1.615150 
# 
# From -- ./inp_files/4263.got.cif
#   From: 2010.05.17/outbox.cif.g08.bks.cpg/sg49_3_cif.got.tgz:4263.got - 2010.06.03 21:02:19.
