data_PCOD9393507
_publ_section_title
;
Structure prediction by ZEFSAII (Michael W. Deem and Ramdas Pophale) SiO2 
 PCOD9393507
Probable space group: P C C M
;
_chemical_formula_sum "Si O2"
_cell_formula_units_Z 40
_cell_length_a 13.305889
_cell_length_b 19.796841
_cell_length_c 9.486841
_cell_angle_alpha 90.000000
_cell_angle_beta 90.000000
_cell_angle_gamma 90.000000
_cell_volume 2498.972132
_symmetry_space_group_name_H-M "P C C M"
_symmetry_group_IT_number 49
_symmetry_cell_setting 'orthorhombic'
loop_
_space_group_symop_operation_xyz
x,y,z
-x,-y,z
x,-y,1/2-z
-x,y,1/2-z
-x,-y,-z
x,y,-z
-x,y,1/2+z
x,-y,1/2+z
loop_
_atom_site_type_symbol
_atom_site_label
_atom_site_fract_x
_atom_site_fract_y
_atom_site_fract_z
Si Si1 0.408611 0.419169 0.500000
Si Si2 0.102814 0.566947 0.833895
Si Si3 0.607702 0.784219 0.669577
Si Si4 0.607242 0.937482 0.668740
Si Si5 0.710431 0.651677 0.266854
Si Si6 0.647901 0.568138 0.000000
O O1 0.376558 0.376957 0.366681
O O2 0.526994 0.428199 0.500000
O O3 0.340962 0.487303 0.500000
O O4 0.141587 0.500000 0.750000
O O5 0.182030 0.627900 0.823976
O O6 0.000000 0.583246 0.750000
O O7 0.086041 0.552497 0.000000
O O8 0.500000 0.777149 0.750000
O O9 0.594546 0.772844 0.500000
O O10 0.646798 0.861227 0.685049
O O11 0.686119 0.730746 0.734550
O O12 0.500000 0.933127 0.750000
O O13 0.597190 0.950550 0.500000
O O14 0.659699 0.000000 0.750000
O O15 0.693828 0.608413 0.128329
#
# Coordination Sequence:
#
# PCOD9393507 Si02
#       6
#     4   8   8   8   8   4
#     4  11  20  38  49  69  98 134 169 204 243 295
#     4  11  23  39  59  76  96 123 165 218 265 312
#     4  10  20  33  48  70 100 136 168 201 247 297
#     4   9  16  27  44  65  93 127 167 202 235 281
#     4  12  23  35  52  73 100 130 168 211 257 299
#     4  11  24  32  51  71  98 134 171 204 241 295
#
# _framework density 16.006581000000001
#
# number of rings (size 3 to 8) (size 9 to 14) (size 15 to 20)
#    0.000    1.400    2.000    6.000    4.200    2.400 
#    0.000    0.000    0.000    0.000    0.000    0.000 
#    0.000    0.800    0.000    6.400    0.000    0.000 
#
# Total GULP energy -222764.260927 kJ/mol
# GULP energy per Si atom -5569.106523 kJ/mol
# Density = 1.597015 g / cm^3
# Si number density = 16.006581 Si / 1000 Ang^3
#
#
#
# Elastic Constant Matrix: (Units=GPa)
#
#
# Indices 1 2 3 4 5 6 
#
# 1 48.9727 28.6487 8.7646 0.0000 0.0000 0.0000
# 2 28.6487 136.3770 28.1541 0.0000 0.0000 0.0000
# 3 8.7646 28.1541 93.6444 0.0000 0.0000 0.0000
# 4 0.0000 0.0000 0.0000 57.7244 0.0000 0.0000
# 5 0.0000 0.0000 0.0000 0.0000 13.6753 0.0000
# 6 0.0000 0.0000 0.0000 0.0000 0.0000 16.5127
#
#
#
# Elastic Compliance Matrix: (Units=1/GPa)
#
#
# Indices 1 2 3 4 5 6 
#
# 1 0.023331 -0.004745 -0.000757 0.000000 0.000000 0.000000
# 2 -0.004745 0.008783 -0.002196 0.000000 0.000000 0.000000
# 3 -0.000757 -0.002196 0.011410 0.000000 0.000000 0.000000
# 4 0.000000 0.000000 0.000000 0.017324 0.000000 0.000000
# 5 0.000000 0.000000 0.000000 0.000000 0.073124 0.000000
# 6 0.000000 0.000000 0.000000 0.000000 0.000000 0.060559
#
#
# Mechanical properties :
#
#
# Convention : Reuss Voigt Hill
#
# Bulk Modulus (GPa) = 35.55336 45.56986 40.56161
# Shear Modulus (GPa) = 22.79949 31.81093 27.30521
#
# Velocity S-wave (km/s) = 3.77819 4.46282 4.13470
# Velocity P-wave (km/s) = 6.42596 7.42206 6.94190
#
# Compressibility (1/GPa) = 0.02812674
#
# Stress axis : x y z
#
# Youngs Moduli (GPa) = 42.86198 113.85906 87.64300
#
# Poissons Ratio (x) = 0.54023 0.06636
# Poissons Ratio (y) = 0.20337 0.19250
# Poissons Ratio (z) = 0.03245 0.25009
#
# Static dielectric constant tensor:
#      x y z
#    x 1.523350 0.000000 0.000000 
#    y 0.000000 1.595910 0.000000 
#    z 0.000000 0.000000 1.532350 
# 
# From -- ./inp_files/3827.got.cif
#   From: 2010.05.17/outbox.cif.g08.bks.cpg/sg49_2_cif.got.tgz:3827.got - 2010.06.03 21:02:19.
