data_PCOD9393290
_publ_section_title
;
Structure prediction by ZEFSAII (Michael W. Deem and Ramdas Pophale) SiO2 
 PCOD9393290
Probable space group: P C C M
;
_chemical_formula_sum "Si O2"
_cell_formula_units_Z 48
_cell_length_a 20.833180
_cell_length_b 14.752917
_cell_length_c 8.643373
_cell_angle_alpha 90.000000
_cell_angle_beta 90.000000
_cell_angle_gamma 90.000000
_cell_volume 2656.542207
_symmetry_space_group_name_H-M "P C C M"
_symmetry_group_IT_number 49
_symmetry_cell_setting 'orthorhombic'
loop_
_space_group_symop_operation_xyz
x,y,z
-x,-y,z
x,-y,1/2-z
-x,y,1/2-z
-x,-y,-z
x,y,-z
-x,y,1/2+z
x,-y,1/2+z
loop_
_atom_site_type_symbol
_atom_site_label
_atom_site_fract_x
_atom_site_fract_y
_atom_site_fract_z
Si Si1 0.928715 0.098757 0.185131
Si Si2 0.567426 0.790378 0.313659
Si Si3 0.814933 0.783008 0.184618
Si Si4 0.695758 0.898441 0.686511
Si Si5 0.385232 0.403637 0.314409
Si Si6 0.233713 0.597349 0.814453
O O1 0.878376 0.172537 0.243478
O O2 0.000000 0.116299 0.250000
O O3 0.908729 0.000000 0.250000
O O4 0.930344 0.095189 0.000000
O O5 0.500000 0.824639 0.250000
O O6 0.565281 0.789106 0.500000
O O7 0.628653 0.850611 0.268966
O O8 0.579136 0.686737 0.258916
O O9 0.754301 0.840513 0.245970
O O10 0.804034 0.680497 0.240551
O O11 0.817667 0.787590 0.000000
O O12 0.700433 0.898307 0.500000
O O13 0.698239 0.000000 0.750000
O O14 0.408172 0.500000 0.250000
O O15 0.389540 0.406834 0.500000
O O16 0.309639 0.393060 0.274467
O O17 0.212801 0.500000 0.750000
O O18 0.228538 0.600145 0.000000
#
# Coordination Sequence:
#
# PCOD9393290 Si02
#       6
#     8   8   8   8   8   8
#     4  11  22  39  61  89 125 162 198 240 286 340
#     4  10  22  39  56  76 108 145 185 234 289 347
#     4  12  23  37  60  90 119 155 196 236 287 341
#     4  11  23  41  59  81 111 144 188 242 292 345
#     4   9  18  34  54  78 108 142 179 227 283 340
#     4  10  19  35  57  85 118 151 190 237 289 341
#
# _framework density 18.068601000000001
#
# number of rings (size 3 to 8) (size 9 to 14) (size 15 to 20)
#    0.000    1.500    1.667    5.000    0.000    3.333 
#    0.000    3.333    0.000    0.500    0.000    3.500 
#    0.000    0.000    0.000    0.000    0.000    0.000 
#
# Total GULP energy -268288.707293 kJ/mol
# GULP energy per Si atom -5589.348069 kJ/mol
# Density = 1.802748 g / cm^3
# Si number density = 18.068601 Si / 1000 Ang^3
#
#
#
# Elastic Constant Matrix: (Units=GPa)
#
#
# Indices 1 2 3 4 5 6 
#
# 1 79.9212 60.9537 40.7697 0.0000 0.0000 0.0000
# 2 60.9537 136.3628 47.7062 0.0000 0.0000 0.0000
# 3 40.7697 47.7062 98.2952 0.0000 0.0000 0.0000
# 4 0.0000 0.0000 0.0000 25.8834 0.0000 0.0000
# 5 0.0000 0.0000 0.0000 0.0000 27.2812 0.0000
# 6 0.0000 0.0000 0.0000 0.0000 0.0000 -6.9456
#
#
#
# Elastic Compliance Matrix: (Units=1/GPa)
#
#
# Indices 1 2 3 4 5 6 
#
# 1 0.020815 -0.007569 -0.004960 0.000000 0.000000 0.000000
# 2 -0.007569 0.011586 -0.002483 0.000000 0.000000 0.000000
# 3 -0.004960 -0.002483 0.013436 0.000000 0.000000 0.000000
# 4 0.000000 0.000000 0.000000 0.038635 0.000000 0.000000
# 5 0.000000 0.000000 0.000000 0.000000 0.036655 0.000000
# 6 0.000000 0.000000 0.000000 0.000000 0.000000 -0.143976
#
#
# Mechanical properties :
#
#
# Convention : Reuss Voigt Hill
#
# Bulk Modulus (GPa) = 63.24406 68.15982 65.70194
# Shear Modulus (GPa) = 401.72753 20.25379 210.99066
#
# Velocity S-wave (km/s) = 14.92707 3.35167 10.81783
# Velocity P-wave (km/s) = 18.22547 7.26519 13.87355
#
# Compressibility (1/GPa) = 0.01581176
#
# Stress axis : x y z
#
# Youngs Moduli (GPa) = 48.04170 86.31416 74.42704
#
# Poissons Ratio (x) = 0.65332 0.36915
# Poissons Ratio (y) = 0.36363 0.18484
# Poissons Ratio (z) = 0.23828 0.21436
#
# Static dielectric constant tensor:
#      x y z
#    x 1.601650 0.000000 0.000000 
#    y 0.000000 1.609750 0.000000 
#    z 0.000000 0.000000 1.605330 
# 
# From -- ./inp_files/4875.got.cif
#   From: 2010.05.17/outbox.cif.g08.bks.cpg/sg49_3_cif.got.tgz:4875.got - 2010.06.03 21:02:19.
