data_PCOD9393017
_publ_section_title
;
Structure prediction by ZEFSAII (Michael W. Deem and Ramdas Pophale) SiO2 
 PCOD9393017
Probable space group: P C C M
;
_chemical_formula_sum "Si O2"
_cell_formula_units_Z 48
_cell_length_a 18.262276
_cell_length_b 13.627416
_cell_length_c 8.461807
_cell_angle_alpha 90.000000
_cell_angle_beta 90.000000
_cell_angle_gamma 90.000000
_cell_volume 2105.869872
_symmetry_space_group_name_H-M "P C C M"
_symmetry_group_IT_number 49
_symmetry_cell_setting 'orthorhombic'
loop_
_space_group_symop_operation_xyz
x,y,z
-x,-y,z
x,-y,1/2-z
-x,y,1/2-z
-x,-y,-z
x,y,-z
-x,y,1/2+z
x,-y,1/2+z
loop_
_atom_site_type_symbol
_atom_site_label
_atom_site_fract_x
_atom_site_fract_y
_atom_site_fract_z
Si Si1 0.730260 0.134223 0.678331
Si Si2 0.385512 0.397406 0.682753
Si Si3 0.232639 0.634806 0.322248
Si Si4 0.577542 0.815644 0.188375
Si Si5 0.922452 0.681163 0.311564
Si Si6 0.887806 0.898131 0.191790
O O1 0.726701 0.092676 0.500000
O O2 0.748118 0.249820 0.664023
O O3 0.650021 0.129309 0.753581
O O4 0.804150 0.098620 0.758045
O O5 0.414091 0.500000 0.750000
O O6 0.403349 0.388225 0.500000
O O7 0.297437 0.400380 0.709026
O O8 0.413943 0.299622 0.768600
O O9 0.238733 0.593355 0.500000
O O10 0.149991 0.629180 0.259072
O O11 0.500000 0.851985 0.250000
O O12 0.580282 0.823410 0.000000
O O13 0.919629 0.677476 0.500000
O O14 0.918771 0.795485 0.255499
O O15 0.000000 0.640889 0.250000
O O16 0.921748 0.000000 0.250000
O O17 0.887911 0.893396 0.000000
#
# Coordination Sequence:
#
# PCOD9393017 Si02
#       6
#     8   8   8   8   8   8
#     4   7  14  29  49  68  93 126 162 201 245 292
#     4  11  21  34  52  76 103 135 170 207 250 300
#     4   9  17  33  53  74  99 130 167 209 248 292
#     4  10  19  33  51  74 101 132 167 209 256 305
#     4  11  21  34  52  76 103 135 170 207 250 300
#     4  10  19  33  51  74 101 132 167 209 256 305
#
# _framework density 22.793433
#
# number of rings (size 3 to 8) (size 9 to 14) (size 15 to 20)
#    0.000    2.333    0.000    6.500    0.000    0.667 
#    0.000    5.833    0.000    1.000    0.000    7.000 
#    0.000    0.000    0.000    0.000    0.000    0.000 
#
# Total GULP energy -267890.840565 kJ/mol
# GULP energy per Si atom -5581.059178 kJ/mol
# Density = 2.274155 g / cm^3
# Si number density = 22.793433 Si / 1000 Ang^3
#
#
#
# Elastic Constant Matrix: (Units=GPa)
#
#
# Indices 1 2 3 4 5 6 
#
# 1 183.5631 -12.1235 14.2549 0.0000 0.0000 0.0000
# 2 -12.1235 34.2674 -8.6995 0.0000 0.0000 0.0000
# 3 14.2549 -8.6995 89.6264 0.0000 0.0000 0.0000
# 4 0.0000 0.0000 0.0000 8.8860 0.0000 0.0000
# 5 0.0000 0.0000 0.0000 0.0000 31.8516 0.0000
# 6 0.0000 0.0000 0.0000 0.0000 0.0000 -12.5317
#
#
#
# Elastic Compliance Matrix: (Units=1/GPa)
#
#
# Indices 1 2 3 4 5 6 
#
# 1 0.005623 0.001807 -0.000719 0.000000 0.000000 0.000000
# 2 0.001807 0.030500 0.002673 0.000000 0.000000 0.000000
# 3 -0.000719 0.002673 0.011531 0.000000 0.000000 0.000000
# 4 0.000000 0.000000 0.000000 0.112537 0.000000 0.000000
# 5 0.000000 0.000000 0.000000 0.000000 0.031396 0.000000
# 6 0.000000 0.000000 0.000000 0.000000 0.000000 -0.079798
#
#
# Mechanical properties :
#
#
# Convention : Reuss Voigt Hill
#
# Bulk Modulus (GPa) = 18.12375 32.70229 25.41302
# Shear Modulus (GPa) = 40.76331 26.57617 33.66974
#
# Velocity S-wave (km/s) = 4.23351 3.41832 3.84756
# Velocity P-wave (km/s) = 5.64494 5.47341 5.55984
#
# Compressibility (1/GPa) = 0.05517622
#
# Stress axis : x y z
#
# Youngs Moduli (GPa) = 177.84485 32.78673 86.72100
#
# Poissons Ratio (x) = -0.05924 0.06235
# Poissons Ratio (y) = -0.32133 -0.23181
# Poissons Ratio (z) = 0.12786 -0.08764
#
# Static dielectric constant tensor:
#      x y z
#    x 1.910120 0.000000 0.000000 
#    y 0.000000 1.897320 0.000000 
#    z 0.000000 0.000000 1.800830 
# 
# From -- ./inp_files/4977.got.cif
#   From: 2010.05.17/outbox.cif.g08.bks.cpg/sg49_3_cif.got.tgz:4977.got - 2010.06.03 21:02:19.
