data_PCOD9393262
_publ_section_title
;
Structure prediction by ZEFSAII (Michael W. Deem and Ramdas Pophale) SiO2 
 PCOD9393262
Probable space group: P C C M
;
_chemical_formula_sum "Si O2"
_cell_formula_units_Z 58
_cell_length_a 14.860329
_cell_length_b 27.779273
_cell_length_c 8.642799
_cell_angle_alpha 90.000000
_cell_angle_beta 90.000000
_cell_angle_gamma 90.000000
_cell_volume 3567.826389
_symmetry_space_group_name_H-M "P C C M"
_symmetry_group_IT_number 49
_symmetry_cell_setting 'orthorhombic'
loop_
_space_group_symop_operation_xyz
x,y,z
-x,-y,z
x,-y,1/2-z
-x,y,1/2-z
-x,-y,-z
x,y,-z
-x,y,1/2+z
x,-y,1/2+z
loop_
_atom_site_type_symbol
_atom_site_label
_atom_site_fract_x
_atom_site_fract_y
_atom_site_fract_z
Si Si1 0.101322 0.770211 0.813671
Si Si2 0.098921 0.946790 0.185424
Si Si3 0.784641 0.324999 0.186548
Si Si4 0.089613 0.597612 0.315669
Si Si5 0.596792 0.828595 0.685972
Si Si6 0.000000 0.500000 0.250000
Si Si7 0.595247 0.715605 0.685800
Si Si8 0.784749 0.139657 0.314989
O O1 0.152315 0.720563 0.772325
O O2 0.158698 0.814529 0.746688
O O3 0.000000 0.770864 0.750000
O O4 0.099998 0.774079 0.000000
O O5 0.169283 0.907772 0.245426
O O6 0.000000 0.933570 0.250000
O O7 0.119265 0.000000 0.250000
O O8 0.096065 0.947782 0.000000
O O9 0.825317 0.373064 0.258791
O O10 0.683316 0.313059 0.237737
O O11 0.785800 0.329070 0.000000
O O12 0.084592 0.595466 0.500000
O O13 0.076457 0.543237 0.254159
O O14 0.000000 0.623849 0.250000
O O15 0.500000 0.844935 0.750000
O O16 0.598601 0.832099 0.500000
O O17 0.605867 0.771893 0.729187
O O18 0.682365 0.855052 0.757471
O O19 0.500000 0.698224 0.750000
O O20 0.592548 0.713947 0.500000
O O21 0.788319 0.138612 0.500000
#
# Coordination Sequence:
#
# PCOD9393262 Si02
#       8
#     8   8   8   8   8   2   8   8
#     4  11  22  36  49  71 107 145 180 218 263 320
#     4  11  22  39  60  83 110 141 180 228 274 327
#     4  10  20  34  51  74 107 142 177 217 266 316
#     4  10  20  33  52  75 103 137 177 219 262 311
#     4  10  19  35  55  79 107 141 181 225 270 320
#     4   8  22  36  54  76 104 140 182 228 268 308
#     4   9  18  33  51  74 104 140 178 221 264 314
#     4  12  23  36  55  80 107 144 185 224 270 324
#
# _framework density 16.256397
#
# number of rings (size 3 to 8) (size 9 to 14) (size 15 to 20)
#    0.414    1.241    1.379    5.172    0.000    3.310 
#    0.000    0.000    0.000    0.414    0.000    3.379 
#    0.000    3.310    0.000    0.000    0.000    0.000 
#
# Total GULP energy -323134.272032 kJ/mol
# GULP energy per Si atom -5571.280552 kJ/mol
# Density = 1.621940 g / cm^3
# Si number density = 16.256397 Si / 1000 Ang^3
#
#
#
# Elastic Constant Matrix: (Units=GPa)
#
#
# Indices 1 2 3 4 5 6 
#
# 1 168.6934 88.9860 66.8601 0.0000 0.0000 0.0000
# 2 88.9860 97.1048 52.0722 0.0000 0.0000 0.0000
# 3 66.8601 52.0722 117.5934 0.0000 0.0000 0.0000
# 4 0.0000 0.0000 0.0000 -8.9993 0.0000 0.0000
# 5 0.0000 0.0000 0.0000 0.0000 29.7251 0.0000
# 6 0.0000 0.0000 0.0000 0.0000 0.0000 20.6237
#
#
#
# Elastic Compliance Matrix: (Units=1/GPa)
#
#
# Indices 1 2 3 4 5 6 
#
# 1 0.012039 -0.009655 -0.002570 0.000000 0.000000 0.000000
# 2 -0.009655 0.021247 -0.003919 0.000000 0.000000 0.000000
# 3 -0.002570 -0.003919 0.011701 0.000000 0.000000 0.000000
# 4 0.000000 0.000000 0.000000 -0.111120 0.000000 0.000000
# 5 0.000000 0.000000 0.000000 0.000000 0.033642 0.000000
# 6 0.000000 0.000000 0.000000 0.000000 0.000000 0.048488
#
#
# Mechanical properties :
#
#
# Convention : Reuss Voigt Hill
#
# Bulk Modulus (GPa) = 78.74371 88.80315 83.77343
# Shear Modulus (GPa) = 95.20541 19.96812 57.58676
#
# Velocity S-wave (km/s) = 7.66107 3.50855 5.95827
# Velocity P-wave (km/s) = 11.26054 8.43554 9.94882
#
# Compressibility (1/GPa) = 0.01269943
#
# Stress axis : x y z
#
# Youngs Moduli (GPa) = 83.06127 47.06494 85.46550
#
# Poissons Ratio (x) = 0.45439 0.21965
# Poissons Ratio (y) = 0.80192 0.33497
# Poissons Ratio (z) = 0.21347 0.18446
#
# Static dielectric constant tensor:
#      x y z
#    x 1.556510 0.000000 0.000000 
#    y 0.000000 1.524630 0.000000 
#    z 0.000000 0.000000 1.556470 
# 
# From -- ./inp_files/4448.got.cif
#   From: 2010.05.17/outbox.cif.g08.bks.cpg/sg49_3_cif.got.tgz:4448.got - 2010.06.03 21:02:19.
