data_PCOD9393088
_publ_section_title
;
Structure prediction by ZEFSAII (Michael W. Deem and Ramdas Pophale) SiO2 
 PCOD9393088
Probable space group: P C C M
;
_chemical_formula_sum "Si O2"
_cell_formula_units_Z 64
_cell_length_a 9.353721
_cell_length_b 10.438737
_cell_length_c 33.303632
_cell_angle_alpha 90.000000
_cell_angle_beta 90.000000
_cell_angle_gamma 90.000000
_cell_volume 3251.801047
_symmetry_space_group_name_H-M "P C C M"
_symmetry_group_IT_number 49
_symmetry_cell_setting 'orthorhombic'
loop_
_space_group_symop_operation_xyz
x,y,z
-x,-y,z
x,-y,1/2-z
-x,y,1/2-z
-x,-y,-z
x,y,-z
-x,y,1/2+z
x,-y,1/2+z
loop_
_atom_site_type_symbol
_atom_site_label
_atom_site_fract_x
_atom_site_fract_y
_atom_site_fract_z
Si Si1 0.841318 0.803570 0.330562
Si Si2 0.558103 0.353748 0.454985
Si Si3 0.334850 0.977958 0.626067
Si Si4 0.178519 0.241482 0.170523
Si Si5 0.812950 0.391156 0.599854
Si Si6 0.123917 0.320936 0.412329
Si Si7 0.328522 0.844908 0.249032
Si Si8 0.679087 0.131084 0.954205
O O1 0.774216 0.930734 0.349915
O O2 0.818442 0.706185 0.367370
O O3 0.751480 0.787717 0.289951
O O4 0.013094 0.803037 0.324247
O O5 0.500000 0.500000 0.452112
O O6 0.618587 0.341445 0.500000
O O7 0.672933 0.339725 0.420758
O O8 0.443518 0.240067 0.450044
O O9 0.332541 0.021251 0.579469
O O10 0.500000 0.000000 0.639761
O O11 0.269558 0.843198 0.638836
O O12 0.183904 0.379815 0.148424
O O13 0.257969 0.220950 0.212284
O O14 0.833252 0.532559 0.581330
O O15 0.953834 0.312676 0.588139
O O16 0.183956 0.216885 0.442782
O O17 0.500000 0.826881 0.250000
O O18 0.302705 0.000000 0.250000
O O19 0.679236 0.084097 0.000000
#
# Coordination Sequence:
#
# PCOD9393088 Si02
#       8
#     8   8   8   8   8   8   8   8
#     4  10  21  37  59  83 111 146 187 231 275 327
#     4  10  19  33  54  82 111 143 189 236 277 328
#     4  11  21  35  55  80 111 147 184 229 280 332
#     4  11  22  36  59  85 112 146 186 228 277 337
#     4  10  20  37  57  85 113 146 187 230 279 331
#     4   9  20  37  59  83 112 146 188 231 278 330
#     4  11  22  37  57  85 113 144 186 228 273 329
#     4  10  21  37  56  80 111 148 188 231 280 333
#
# _framework density 19.681401999999999
#
# number of rings (size 3 to 8) (size 9 to 14) (size 15 to 20)
#    0.000    1.750    2.500    2.250    0.000    2.250 
#    0.000    2.500    0.000   13.500    0.000    0.000 
#    0.000    0.000    0.000    0.000    0.000    0.000 
#
# Total GULP energy -356660.652763 kJ/mol
# GULP energy per Si atom -5572.822699 kJ/mol
# Density = 1.963661 g / cm^3
# Si number density = 19.681402 Si / 1000 Ang^3
#
#
#
# Elastic Constant Matrix: (Units=GPa)
#
#
# Indices 1 2 3 4 5 6 
#
# 1 76.8584 -10.5009 32.4750 0.0000 0.0000 0.0000
# 2 -10.5009 9.5895 -0.4298 0.0000 0.0000 0.0000
# 3 32.4750 -0.4298 111.2039 0.0000 0.0000 0.0000
# 4 0.0000 0.0000 0.0000 19.3848 0.0000 0.0000
# 5 0.0000 0.0000 0.0000 0.0000 46.8946 0.0000
# 6 0.0000 0.0000 0.0000 0.0000 0.0000 16.8693
#
#
#
# Elastic Compliance Matrix: (Units=1/GPa)
#
#
# Indices 1 2 3 4 5 6 
#
# 1 0.017810 0.019273 -0.005127 0.000000 0.000000 0.000000
# 2 0.019273 0.125155 -0.005145 0.000000 0.000000 0.000000
# 3 -0.005127 -0.005145 0.010470 0.000000 0.000000 0.000000
# 4 0.000000 0.000000 0.000000 0.051587 0.000000 0.000000
# 5 0.000000 0.000000 0.000000 0.000000 0.021324 0.000000
# 6 0.000000 0.000000 0.000000 0.000000 0.000000 0.059279
#
#
# Mechanical properties :
#
#
# Convention : Reuss Voigt Hill
#
# Bulk Modulus (GPa) = 5.83300 26.74893 16.29096
# Shear Modulus (GPa) = 15.39562 28.37024 21.88293
#
# Velocity S-wave (km/s) = 2.79989 3.80079 3.33807
# Velocity P-wave (km/s) = 3.66370 5.73427 4.81168
#
# Compressibility (1/GPa) = 0.17143851
#
# Stress axis : x y z
#
# Youngs Moduli (GPa) = 56.14712 7.99012 95.51325
#
# Poissons Ratio (x) = -0.15400 0.48967
# Poissons Ratio (y) = -1.08214 0.49138
# Poissons Ratio (z) = 0.28785 0.04111
#
# Static dielectric constant tensor:
#      x y z
#    x 1.695510 0.000000 0.000000 
#    y 0.000000 1.796680 0.000000 
#    z 0.000000 0.000000 1.705960 
# 
# From -- ./inp_files/26444.got.cif
#   From: 2010.05.17/outbox.cif.g08.bks.cpg/sg49_14_cif.got.tgz:26444.got - 2010.06.03 21:02:19.
