data_PCOD9393524
_publ_section_title
;
Structure prediction by ZEFSAII (Michael W. Deem and Ramdas Pophale) SiO2 
 PCOD9393524
Probable space group: P C C M
;
_chemical_formula_sum "Si O2"
_cell_formula_units_Z 56
_cell_length_a 17.145352
_cell_length_b 9.760613
_cell_length_c 14.553238
_cell_angle_alpha 90.000000
_cell_angle_beta 90.000000
_cell_angle_gamma 90.000000
_cell_volume 2435.471945
_symmetry_space_group_name_H-M "P C C M"
_symmetry_group_IT_number 49
_symmetry_cell_setting 'orthorhombic'
loop_
_space_group_symop_operation_xyz
x,y,z
-x,-y,z
x,-y,1/2-z
-x,y,1/2-z
-x,-y,-z
x,y,-z
-x,y,1/2+z
x,-y,1/2+z
loop_
_atom_site_type_symbol
_atom_site_label
_atom_site_fract_x
_atom_site_fract_y
_atom_site_fract_z
Si Si1 0.749636 0.091010 0.112837
Si Si2 0.680351 0.655038 0.109121
Si Si3 0.920793 0.428462 0.387926
Si Si4 0.169404 0.173016 0.112174
Si Si5 0.232815 0.400069 0.388433
Si Si6 0.506119 0.344920 0.358662
Si Si7 0.423869 0.927073 0.894319
O O1 0.764245 0.245385 0.144444
O O2 0.662369 0.050056 0.143942
O O3 0.816172 0.983288 0.140342
O O4 0.747617 0.091519 0.000000
O O5 0.750453 0.750926 0.140467
O O6 0.696966 0.499841 0.142480
O O7 0.593856 0.706307 0.124685
O O8 0.689953 0.649410 0.000000
O O9 0.923420 0.425010 0.500000
O O10 0.900421 0.273276 0.357247
O O11 0.846935 0.522986 0.363291
O O12 0.000000 0.500000 0.356686
O O13 0.165891 0.172120 0.000000
O O14 0.234979 0.393258 0.500000
O O15 0.500000 0.500000 0.395873
O O16 0.500000 0.352053 0.250000
O O17 0.443924 0.235100 0.393879
O O18 0.500000 0.000000 0.852489
O O19 0.419781 0.975420 0.000000
#
# Coordination Sequence:
#
# PCOD9393524 Si02
#       7
#     8   8   8   8   8   8   8
#     4   9  15  24  38  58  81 102 138 192 232 260
#     4   9  16  29  47  62  79 112 159 199 231 276
#     4   8  13  22  35  53  81 115 146 173 209 264
#     4   8  14  24  40  60  80 106 143 186 225 263
#     4   8  14  23  38  59  80 108 147 188 226 263
#     4  11  23  34  44  64  94 124 154 195 247 293
#     4  10  20  33  50  69  87 115 159 206 246 284
#
# _framework density 22.993490000000001
#
# number of rings (size 3 to 8) (size 9 to 14) (size 15 to 20)
#    0.000    3.000    0.000    3.857    0.000    4.857 
#    0.000    0.714    0.000    4.286    0.000    0.000 
#    0.000    0.000    0.000   92.571    0.000  117.143 
#
# Total GULP energy -312651.920140 kJ/mol
# GULP energy per Si atom -5583.070002 kJ/mol
# Density = 2.294116 g / cm^3
# Si number density = 22.993490 Si / 1000 Ang^3
#
#
#
# Elastic Constant Matrix: (Units=GPa)
#
#
# Indices 1 2 3 4 5 6 
#
# 1 66.4799 6.6226 -0.2960 0.0000 0.0000 0.0000
# 2 6.6226 98.9824 6.1712 0.0000 0.0000 0.0000
# 3 -0.2960 6.1712 78.4612 0.0000 0.0000 0.0000
# 4 0.0000 0.0000 0.0000 -15.9456 0.0000 0.0000
# 5 0.0000 0.0000 0.0000 0.0000 -253.2413 0.0000
# 6 0.0000 0.0000 0.0000 0.0000 0.0000 38.4033
#
#
#
# Elastic Compliance Matrix: (Units=1/GPa)
#
#
# Indices 1 2 3 4 5 6 
#
# 1 0.015145 -0.001022 0.000138 0.000000 0.000000 0.000000
# 2 -0.001022 0.010222 -0.000808 0.000000 0.000000 0.000000
# 3 0.000138 -0.000808 0.012809 0.000000 0.000000 0.000000
# 4 0.000000 0.000000 0.000000 -0.062713 0.000000 0.000000
# 5 0.000000 0.000000 0.000000 0.000000 -0.003949 0.000000
# 6 0.000000 0.000000 0.000000 0.000000 0.000000 0.026039
#
#
# Mechanical properties :
#
#
# Convention : Reuss Voigt Hill
#
# Bulk Modulus (GPa) = 28.74306 29.87989 29.31147
# Shear Modulus (GPa) = 398.91274 -30.72834 184.09220
#
# Velocity S-wave (km/s) = 13.18583 -3.65964 8.95749
# Velocity P-wave (km/s) = 15.63167 2.19866 10.94338
#
# Compressibility (1/GPa) = 0.03479101
#
# Stress axis : x y z
#
# Youngs Moduli (GPa) = 66.03032 97.83269 78.06881
#
# Poissons Ratio (x) = 0.09997 -0.01073
# Poissons Ratio (y) = 0.06747 0.06306
# Poissons Ratio (z) = -0.00908 0.07903
#
# Static dielectric constant tensor:
#      x y z
#    x 1.867990 0.000000 0.000000 
#    y 0.000000 1.909080 0.000000 
#    z 0.000000 0.000000 1.858510 
# 
# From -- ./inp_files/21006.got.cif
#   From: 2010.05.17/outbox.cif.g08.bks.cpg/sg49_11_cif.got.tgz:21006.got - 2010.06.03 21:02:19.
