data_PCOD9393808
_publ_section_title
;
Structure prediction by ZEFSAII (Michael W. Deem and Ramdas Pophale) SiO2 
 PCOD9393808
Probable space group: P C C M
;
_chemical_formula_sum "Si O2"
_cell_formula_units_Z 42
_cell_length_a 26.575975
_cell_length_b 9.952771
_cell_length_c 8.821717
_cell_angle_alpha 90.000000
_cell_angle_beta 90.000000
_cell_angle_gamma 90.000000
_cell_volume 2333.384667
_symmetry_space_group_name_H-M "P C C M"
_symmetry_group_IT_number 49
_symmetry_cell_setting 'orthorhombic'
loop_
_space_group_symop_operation_xyz
x,y,z
-x,-y,z
x,-y,1/2-z
-x,y,1/2-z
-x,-y,-z
x,y,-z
-x,y,1/2+z
x,-y,1/2+z
loop_
_atom_site_type_symbol
_atom_site_label
_atom_site_fract_x
_atom_site_fract_y
_atom_site_fract_z
Si Si1 0.000000 0.500000 0.250000
Si Si2 0.950543 0.762240 0.168890
Si Si3 0.849761 0.149697 0.180096
Si Si4 0.445106 0.647068 0.182461
Si Si5 0.251126 0.149897 0.180623
Si Si6 0.363965 0.849452 0.317847
O O1 0.034962 0.395410 0.161617
O O2 0.900640 0.779781 0.266020
O O3 0.000000 0.823777 0.250000
O O4 0.943374 0.816709 0.000000
O O5 0.798329 0.214365 0.245231
O O6 0.852666 0.000000 0.250000
O O7 0.846880 0.142364 0.000000
O O8 0.432668 0.500000 0.250000
O O9 0.500000 0.682107 0.250000
O O10 0.404615 0.754258 0.239990
O O11 0.447200 0.641592 0.000000
O O12 0.307049 0.204781 0.210799
O O13 0.252819 0.000000 0.250000
O O14 0.244127 0.142153 0.000000
O O15 0.371042 0.854959 0.500000
O O16 0.367503 0.000000 0.250000
#
# Coordination Sequence:
#
# PCOD9393808 Si02
#       6
#     2   8   8   8   8   8
#     4   8  22  36  60  72  98 128 170 210 256 312
#     4  10  20  35  55  76 100 130 167 209 256 308
#     4  11  21  33  52  78 108 138 172 211 258 312
#     4  11  22  38  59  82 112 150 190 232 280 336
#     4   9  17  31  52  77 108 141 174 214 261 314
#     4  10  20  35  57  86 116 148 187 232 280 330
#
# _framework density 17.999604000000001
#
# number of rings (size 3 to 8) (size 9 to 14) (size 15 to 20)
#    0.571    1.333    0.000    7.143    0.000    3.048 
#    0.000    3.810    2.095    0.000    0.000    0.000 
#    0.000    0.000    0.000    0.000    0.000    0.000 
#
# Total GULP energy -234034.916009 kJ/mol
# GULP energy per Si atom -5572.259905 kJ/mol
# Density = 1.795864 g / cm^3
# Si number density = 17.999604 Si / 1000 Ang^3
#
#
#
# Elastic Constant Matrix: (Units=GPa)
#
#
# Indices 1 2 3 4 5 6 
#
# 1 175.7300 64.4926 89.3206 0.0000 0.0000 0.0000
# 2 64.4926 45.8834 34.8816 0.0000 0.0000 0.0000
# 3 89.3206 34.8816 169.2399 0.0000 0.0000 0.0000
# 4 0.0000 0.0000 0.0000 21.7815 0.0000 0.0000
# 5 0.0000 0.0000 0.0000 0.0000 32.1056 0.0000
# 6 0.0000 0.0000 0.0000 0.0000 0.0000 167.5949
#
#
#
# Elastic Compliance Matrix: (Units=1/GPa)
#
#
# Indices 1 2 3 4 5 6 
#
# 1 0.013567 -0.016158 -0.003830 0.000000 0.000000 0.000000
# 2 -0.016158 0.045087 -0.000765 0.000000 0.000000 0.000000
# 3 -0.003830 -0.000765 0.008088 0.000000 0.000000 0.000000
# 4 0.000000 0.000000 0.000000 0.045910 0.000000 0.000000
# 5 0.000000 0.000000 0.000000 0.000000 0.031147 0.000000
# 6 0.000000 0.000000 0.000000 0.000000 0.000000 0.005967
#
#
# Mechanical properties :
#
#
# Convention : Reuss Voigt Hill
#
# Bulk Modulus (GPa) = 39.62584 85.36032 62.49308
# Shear Modulus (GPa) = 25.03931 57.77365 41.40648
#
# Velocity S-wave (km/s) = 3.73380 5.67158 4.80146
# Velocity P-wave (km/s) = 6.37581 9.50871 8.09526
#
# Compressibility (1/GPa) = 0.02523606
#
# Stress axis : x y z
#
# Youngs Moduli (GPa) = 73.70605 22.17910 123.64106
#
# Poissons Ratio (x) = 0.35837 0.47357
# Poissons Ratio (y) = 1.19096 0.09458
# Poissons Ratio (z) = 0.28231 0.01697
#
# Static dielectric constant tensor:
#      x y z
#    x 1.653080 0.000000 0.000000 
#    y 0.000000 1.599350 0.000000 
#    z 0.000000 0.000000 1.635840 
# 
# From -- ./inp_files/6301.got.cif
#   From: 2010.05.17/outbox.cif.g08.bks.cpg/sg49_4_cif.got.tgz:6301.got - 2010.06.03 21:02:19.
