data_PCOD9393498
_publ_section_title
;
Structure prediction by ZEFSAII (Michael W. Deem and Ramdas Pophale) SiO2 
 PCOD9393498
Probable space group: P C C M
;
_chemical_formula_sum "Si O2"
_cell_formula_units_Z 48
_cell_length_a 18.202632
_cell_length_b 18.276218
_cell_length_c 8.689942
_cell_angle_alpha 90.000000
_cell_angle_beta 90.000000
_cell_angle_gamma 90.000000
_cell_volume 2890.928806
_symmetry_space_group_name_H-M "P C C M"
_symmetry_group_IT_number 49
_symmetry_cell_setting 'orthorhombic'
loop_
_space_group_symop_operation_xyz
x,y,z
-x,-y,z
x,-y,1/2-z
-x,y,1/2-z
-x,-y,-z
x,y,-z
-x,y,1/2+z
x,-y,1/2+z
loop_
_atom_site_type_symbol
_atom_site_label
_atom_site_fract_x
_atom_site_fract_y
_atom_site_fract_z
Si Si1 0.073222 0.818192 0.824934
Si Si2 0.194242 0.690539 0.823437
Si Si3 0.078864 0.581753 0.683361
Si Si4 0.582554 0.921872 0.815398
Si Si5 0.180566 0.079790 0.181055
Si Si6 0.301924 0.812504 0.184447
O O1 0.134373 0.755547 0.827001
O O2 0.102751 0.883635 0.719897
O O3 0.000000 0.788127 0.750000
O O4 0.062000 0.842796 0.000000
O O5 0.150893 0.628286 0.730753
O O6 0.268500 0.732759 0.767497
O O7 0.206468 0.665949 0.000000
O O8 0.087029 0.500000 0.750000
O O9 0.072428 0.580056 0.500000
O O10 0.000000 0.609652 0.750000
O O11 0.500000 0.917034 0.750000
O O12 0.627007 0.850121 0.760337
O O13 0.613226 0.000000 0.750000
O O14 0.582523 0.926112 0.000000
O O15 0.239495 0.129510 0.268772
O O16 0.183737 0.000000 0.250000
O O17 0.195597 0.080545 0.000000
O O18 0.310329 0.810249 0.000000
#
# Coordination Sequence:
#
# PCOD9393498 Si02
#       6
#     8   8   8   8   8   8
#     4  10  20  33  47  64  85 113 149 192 238 284
#     4   9  19  34  51  70  95 124 157 195 238 287
#     4  11  21  33  51  73 101 132 167 205 247 295
#     4  11  21  34  52  75 103 134 169 207 249 297
#     4  11  21  33  47  63  84 113 151 194 238 284
#     4  10  20  35  52  71  96 126 159 197 240 289
#
# _framework density 16.603659
#
# number of rings (size 3 to 8) (size 9 to 14) (size 15 to 20)
#    0.000    1.667    0.000    8.500    0.000    5.667 
#    0.000    1.667    0.000    0.000    0.000    0.000 
#    0.000    0.667    0.000    7.000    0.000    3.000 
#
# Total GULP energy -267588.024974 kJ/mol
# GULP energy per Si atom -5574.750520 kJ/mol
# Density = 1.656587 g / cm^3
# Si number density = 16.603659 Si / 1000 Ang^3
#
#
#
# Elastic Constant Matrix: (Units=GPa)
#
#
# Indices 1 2 3 4 5 6 
#
# 1 66.4326 31.6418 29.1225 0.0000 0.0000 0.0000
# 2 31.6418 77.1346 34.5037 0.0000 0.0000 0.0000
# 3 29.1225 34.5037 96.5266 0.0000 0.0000 0.0000
# 4 0.0000 0.0000 0.0000 26.9488 0.0000 0.0000
# 5 0.0000 0.0000 0.0000 0.0000 10.4893 0.0000
# 6 0.0000 0.0000 0.0000 0.0000 0.0000 31.2041
#
#
#
# Elastic Compliance Matrix: (Units=1/GPa)
#
#
# Indices 1 2 3 4 5 6 
#
# 1 0.019728 -0.006464 -0.003641 0.000000 0.000000 0.000000
# 2 -0.006464 0.017550 -0.004323 0.000000 0.000000 0.000000
# 3 -0.003641 -0.004323 0.013004 0.000000 0.000000 0.000000
# 4 0.000000 0.000000 0.000000 0.037107 0.000000 0.000000
# 5 0.000000 0.000000 0.000000 0.000000 0.095335 0.000000
# 6 0.000000 0.000000 0.000000 0.000000 0.000000 0.032047
#
#
# Mechanical properties :
#
#
# Convention : Reuss Voigt Hill
#
# Bulk Modulus (GPa) = 46.67504 47.84775 47.26140
# Shear Modulus (GPa) = 19.93867 23.38351 21.66109
#
# Velocity S-wave (km/s) = 3.46910 3.75685 3.61584
# Velocity P-wave (km/s) = 6.64970 6.90643 6.77928
#
# Compressibility (1/GPa) = 0.02142473
#
# Stress axis : x y z
#
# Youngs Moduli (GPa) = 50.68965 56.98112 76.90078
#
# Poissons Ratio (x) = 0.36831 0.28003
# Poissons Ratio (y) = 0.32765 0.33244
# Poissons Ratio (z) = 0.18459 0.24633
#
# Static dielectric constant tensor:
#      x y z
#    x 1.619100 0.000000 0.000000 
#    y 0.000000 1.568020 0.000000 
#    z 0.000000 0.000000 1.582830 
# 
# From -- ./inp_files/4968.got.cif
#   From: 2010.05.17/outbox.cif.g08.bks.cpg/sg49_3_cif.got.tgz:4968.got - 2010.06.03 21:02:19.
