data_PCOD9393634
_publ_section_title
;
Structure prediction by ZEFSAII (Michael W. Deem and Ramdas Pophale) SiO2 
 PCOD9393634
Probable space group: P C C M
;
_chemical_formula_sum "Si O2"
_cell_formula_units_Z 48
_cell_length_a 9.568356
_cell_length_b 31.593881
_cell_length_c 8.617486
_cell_angle_alpha 90.000000
_cell_angle_beta 90.000000
_cell_angle_gamma 90.000000
_cell_volume 2605.078951
_symmetry_space_group_name_H-M "P C C M"
_symmetry_group_IT_number 49
_symmetry_cell_setting 'orthorhombic'
loop_
_space_group_symop_operation_xyz
x,y,z
-x,-y,z
x,-y,1/2-z
-x,y,1/2-z
-x,-y,-z
x,y,-z
-x,y,1/2+z
x,-y,1/2+z
loop_
_atom_site_type_symbol
_atom_site_label
_atom_site_fract_x
_atom_site_fract_y
_atom_site_fract_z
Si Si1 0.845020 0.623058 0.812805
Si Si2 0.156877 0.874291 0.813603
Si Si3 0.346310 0.953480 0.185975
Si Si4 0.656967 0.455521 0.313414
Si Si5 0.155765 0.281457 0.812772
Si Si6 0.343116 0.797503 0.313385
O O1 0.744116 0.585375 0.761996
O O2 0.803605 0.670768 0.764013
O O3 0.000000 0.615632 0.750000
O O4 0.848159 0.622617 0.000000
O O5 0.233388 0.918200 0.769611
O O6 0.250192 0.836225 0.747862
O O7 0.000000 0.872249 0.750000
O O8 0.153863 0.871553 0.000000
O O9 0.500000 0.941946 0.250000
O O10 0.311679 0.000000 0.250000
O O11 0.354522 0.955467 0.000000
O O12 0.715678 0.500000 0.250000
O O13 0.500000 0.451945 0.250000
O O14 0.654000 0.457185 0.500000
O O15 0.265482 0.245837 0.763566
O O16 0.000000 0.272633 0.750000
O O17 0.148778 0.280665 0.000000
O O18 0.500000 0.799813 0.250000
O O19 0.346861 0.798814 0.500000
#
# Coordination Sequence:
#
# PCOD9393634 Si02
#       6
#     8   8   8   8   8   8
#     4   9  19  35  54  77 105 137 174 216 263 316
#     4  11  24  40  59  84 114 149 187 228 276 327
#     4  10  21  37  59  85 113 147 185 227 274 324
#     4  10  20  34  52  74 102 136 174 216 262 313
#     4   9  19  36  56  79 107 139 176 218 265 318
#     4  11  23  38  58  83 112 145 183 227 272 323
#
# _framework density 18.425545
#
# number of rings (size 3 to 8) (size 9 to 14) (size 15 to 20)
#    0.000    2.000    0.000    4.000    0.000    9.333 
#    0.000    3.333    0.000    0.000    0.000    0.000 
#    0.000    0.000    0.000    0.000    0.000    0.000 
#
# Total GULP energy -268054.859737 kJ/mol
# GULP energy per Si atom -5584.476245 kJ/mol
# Density = 1.838361 g / cm^3
# Si number density = 18.425545 Si / 1000 Ang^3
#
#
#
# Elastic Constant Matrix: (Units=GPa)
#
#
# Indices 1 2 3 4 5 6 
#
# 1 149.4200 129.2296 38.5547 0.0000 0.0000 0.0000
# 2 129.2296 168.8137 47.5651 0.0000 0.0000 0.0000
# 3 38.5547 47.5651 40.4853 0.0000 0.0000 0.0000
# 4 0.0000 0.0000 0.0000 26.4126 0.0000 0.0000
# 5 0.0000 0.0000 0.0000 0.0000 32.7032 0.0000
# 6 0.0000 0.0000 0.0000 0.0000 0.0000 42.3359
#
#
#
# Elastic Compliance Matrix: (Units=1/GPa)
#
#
# Indices 1 2 3 4 5 6 
#
# 1 0.019872 -0.014769 -0.001572 0.000000 0.000000 0.000000
# 2 -0.014769 0.019832 -0.009235 0.000000 0.000000 0.000000
# 3 -0.001572 -0.009235 0.037048 0.000000 0.000000 0.000000
# 4 0.000000 0.000000 0.000000 0.037861 0.000000 0.000000
# 5 0.000000 0.000000 0.000000 0.000000 0.030578 0.000000
# 6 0.000000 0.000000 0.000000 0.000000 0.000000 0.023621
#
#
# Mechanical properties :
#
#
# Convention : Reuss Voigt Hill
#
# Bulk Modulus (GPa) = 39.06509 87.71310 63.38910
# Shear Modulus (GPa) = 21.88229 29.84832 25.86531
#
# Velocity S-wave (km/s) = 3.44991 4.02922 3.75076
# Velocity P-wave (km/s) = 6.09235 8.32788 7.29624
#
# Compressibility (1/GPa) = 0.02559830
#
# Stress axis : x y z
#
# Youngs Moduli (GPa) = 50.32316 50.42449 26.99236
#
# Poissons Ratio (x) = 0.74472 0.04244
# Poissons Ratio (y) = 0.74322 0.24927
# Poissons Ratio (z) = 0.07912 0.46567
#
# Static dielectric constant tensor:
#      x y z
#    x 1.590110 0.000000 0.000000 
#    y 0.000000 1.648550 0.000000 
#    z 0.000000 0.000000 1.624890 
# 
# From -- ./inp_files/2033.got.cif
#   From: 2010.05.17/outbox.cif.g08.bks.cpg/sg49_2_cif.got.tgz:2033.got - 2010.06.03 21:02:19.
