data_PCOD9393542
_publ_section_title
;
Structure prediction by ZEFSAII (Michael W. Deem and Ramdas Pophale) SiO2 
 PCOD9393542
Probable space group: P C C M
;
_chemical_formula_sum "Si O2"
_cell_formula_units_Z 48
_cell_length_a 9.805773
_cell_length_b 31.471181
_cell_length_c 8.665500
_cell_angle_alpha 90.000000
_cell_angle_beta 90.000000
_cell_angle_gamma 90.000000
_cell_volume 2674.166861
_symmetry_space_group_name_H-M "P C C M"
_symmetry_group_IT_number 49
_symmetry_cell_setting 'orthorhombic'
loop_
_space_group_symop_operation_xyz
x,y,z
-x,-y,z
x,-y,1/2-z
-x,y,1/2-z
-x,-y,-z
x,y,-z
-x,y,1/2+z
x,-y,1/2+z
loop_
_atom_site_type_symbol
_atom_site_label
_atom_site_fract_x
_atom_site_fract_y
_atom_site_fract_z
Si Si1 0.650222 0.708425 0.814898
Si Si2 0.153218 0.636808 0.815020
Si Si3 0.154313 0.456969 0.684372
Si Si4 0.647287 0.047520 0.814822
Si Si5 0.152650 0.881759 0.313915
Si Si6 0.350327 0.805540 0.314423
O O1 0.500000 0.699226 0.750000
O O2 0.755741 0.674372 0.751014
O O3 0.683693 0.757102 0.767615
O O4 0.648153 0.706663 0.000000
O O5 0.210709 0.589646 0.774151
O O6 0.000000 0.639879 0.750000
O O7 0.147848 0.639371 0.000000
O O8 0.220444 0.500000 0.750000
O O9 0.148577 0.460332 0.500000
O O10 0.000000 0.456184 0.750000
O O11 0.500000 0.062113 0.750000
O O12 0.764214 0.078510 0.753996
O O13 0.668357 0.000000 0.750000
O O14 0.643218 0.046697 0.000000
O O15 0.150570 0.884323 0.500000
O O16 0.237324 0.839629 0.267208
O O17 0.000000 0.880578 0.250000
O O18 0.500000 0.816197 0.250000
O O19 0.358806 0.806401 0.500000
#
# Coordination Sequence:
#
# PCOD9393542 Si02
#       6
#     8   8   8   8   8   8
#     4  10  20  36  56  79 106 140 178 219 265 318
#     4  10  20  33  50  76 106 138 174 217 265 316
#     4   9  16  26  43  67  97 130 168 210 257 308
#     4  11  22  39  62  88 115 148 188 229 270 318
#     4  11  23  39  57  83 116 149 183 224 273 323
#     4   9  20  37  58  81 106 138 180 222 265 317
#
# _framework density 17.949515999999999
#
# number of rings (size 3 to 8) (size 9 to 14) (size 15 to 20)
#    0.000    2.000    0.000    5.000    0.000    6.333 
#    0.000    3.333    0.000    0.500    0.000    3.500 
#    0.000    0.000    0.000    0.000    0.000    0.000 
#
# Total GULP energy -267898.300077 kJ/mol
# GULP energy per Si atom -5581.214585 kJ/mol
# Density = 1.790866 g / cm^3
# Si number density = 17.949516 Si / 1000 Ang^3
#
#
#
# Elastic Constant Matrix: (Units=GPa)
#
#
# Indices 1 2 3 4 5 6 
#
# 1 122.5661 106.3464 47.6776 0.0000 0.0000 0.0000
# 2 106.3464 145.1593 56.5035 0.0000 0.0000 0.0000
# 3 47.6776 56.5035 86.2755 0.0000 0.0000 0.0000
# 4 0.0000 0.0000 0.0000 25.6331 0.0000 0.0000
# 5 0.0000 0.0000 0.0000 0.0000 31.0137 0.0000
# 6 0.0000 0.0000 0.0000 0.0000 0.0000 36.2352
#
#
#
# Elastic Compliance Matrix: (Units=1/GPa)
#
#
# Indices 1 2 3 4 5 6 
#
# 1 0.022706 -0.015771 -0.002219 0.000000 0.000000 0.000000
# 2 -0.015771 0.020200 -0.004514 0.000000 0.000000 0.000000
# 3 -0.002219 -0.004514 0.015773 0.000000 0.000000 0.000000
# 4 0.000000 0.000000 0.000000 0.039012 0.000000 0.000000
# 5 0.000000 0.000000 0.000000 0.000000 0.032244 0.000000
# 6 0.000000 0.000000 0.000000 0.000000 0.000000 0.027597
#
#
# Mechanical properties :
#
#
# Convention : Reuss Voigt Hill
#
# Bulk Modulus (GPa) = 73.14602 86.11731 79.63167
# Shear Modulus (GPa) = 24.14302 28.14132 26.14217
#
# Velocity S-wave (km/s) = 3.67147 3.96385 3.82046
# Velocity P-wave (km/s) = 7.66892 8.30850 7.99511
#
# Compressibility (1/GPa) = 0.01367128
#
# Stress axis : x y z
#
# Youngs Moduli (GPa) = 44.04089 49.50395 63.39764
#
# Poissons Ratio (x) = 0.78074 0.14068
# Poissons Ratio (y) = 0.69458 0.28619
# Poissons Ratio (z) = 0.09773 0.22347
#
# Static dielectric constant tensor:
#      x y z
#    x 1.568930 0.000000 0.000000 
#    y 0.000000 1.647660 0.000000 
#    z 0.000000 0.000000 1.601880 
# 
# From -- ./inp_files/2098.got.cif
#   From: 2010.05.17/outbox.cif.g08.bks.cpg/sg49_2_cif.got.tgz:2098.got - 2010.06.03 21:02:19.
