data_PCOD9393389
_publ_section_title
;
Structure prediction by ZEFSAII (Michael W. Deem and Ramdas Pophale) SiO2 
 PCOD9393389
Probable space group: P C C M
;
_chemical_formula_sum "Si O2"
_cell_formula_units_Z 56
_cell_length_a 15.529604
_cell_length_b 20.569926
_cell_length_c 8.778522
_cell_angle_alpha 90.000000
_cell_angle_beta 90.000000
_cell_angle_gamma 90.000000
_cell_volume 2804.235692
_symmetry_space_group_name_H-M "P C C M"
_symmetry_group_IT_number 49
_symmetry_cell_setting 'orthorhombic'
loop_
_space_group_symop_operation_xyz
x,y,z
-x,-y,z
x,-y,1/2-z
-x,y,1/2-z
-x,-y,-z
x,y,-z
-x,y,1/2+z
x,-y,1/2+z
loop_
_atom_site_type_symbol
_atom_site_label
_atom_site_fract_x
_atom_site_fract_y
_atom_site_fract_z
Si Si1 0.870069 0.263841 0.677531
Si Si2 0.408365 0.827796 0.818551
Si Si3 0.331418 0.297441 0.177700
Si Si4 0.719760 0.432255 0.183542
Si Si5 0.723800 0.068828 0.316513
Si Si6 0.912100 0.602214 0.320957
Si Si7 0.910775 0.883844 0.182714
O O1 0.894686 0.274748 0.500000
O O2 0.766574 0.269912 0.684942
O O3 0.906407 0.321330 0.780323
O O4 0.899027 0.192253 0.725225
O O5 0.500000 0.847967 0.750000
O O6 0.389126 0.754076 0.766542
O O7 0.334710 0.873694 0.748727
O O8 0.408521 0.832564 0.000000
O O9 0.327749 0.368859 0.251102
O O10 0.355898 0.300641 0.000000
O O11 0.686308 0.500000 0.250000
O O12 0.820458 0.425556 0.234765
O O13 0.717310 0.431742 0.000000
O O14 0.719555 0.069562 0.500000
O O15 0.823284 0.080558 0.269377
O O16 0.694605 0.000000 0.250000
O O17 0.915859 0.592625 0.500000
O O18 0.000000 0.576149 0.250000
O O19 0.000000 0.909013 0.250000
O O20 0.915115 0.886544 0.000000
#
# Coordination Sequence:
#
# PCOD9393389 Si02
#       7
#     8   8   8   8   8   8   8
#     4   9  17  32  53  78 110 152 196 249 309 362
#     4  12  25  43  70 102 131 164 204 252 309 376
#     4  10  19  37  63  90 123 159 199 253 309 364
#     4  10  21  36  54  81 114 157 207 253 308 373
#     4  11  24  45  66  92 129 169 212 261 316 372
#     4  10  20  31  45  70 105 146 197 255 309 366
#     4  10  21  36  56  84 121 163 211 261 309 365
#
# _framework density 19.969792000000002
#
# number of rings (size 3 to 8) (size 9 to 14) (size 15 to 20)
#    0.000    1.714    1.429    3.429    0.000    6.000 
#    0.000    4.286    0.000    0.429    0.000    3.000 
#    0.000    0.000    0.000    0.000    0.000    0.000 
#
# Total GULP energy -312990.177736 kJ/mol
# GULP energy per Si atom -5589.110317 kJ/mol
# Density = 1.992434 g / cm^3
# Si number density = 19.969792 Si / 1000 Ang^3
#
#
#
# Elastic Constant Matrix: (Units=GPa)
#
#
# Indices 1 2 3 4 5 6 
#
# 1 77.1441 31.0245 33.8580 0.0000 0.0000 0.0000
# 2 31.0245 114.0441 36.6030 0.0000 0.0000 0.0000
# 3 33.8580 36.6030 79.0543 0.0000 0.0000 0.0000
# 4 0.0000 0.0000 0.0000 12.1496 0.0000 0.0000
# 5 0.0000 0.0000 0.0000 0.0000 -9.2923 0.0000
# 6 0.0000 0.0000 0.0000 0.0000 0.0000 -7.6383
#
#
#
# Elastic Compliance Matrix: (Units=1/GPa)
#
#
# Indices 1 2 3 4 5 6 
#
# 1 0.016607 -0.002625 -0.005897 0.000000 0.000000 0.000000
# 2 -0.002625 0.010714 -0.003836 0.000000 0.000000 0.000000
# 3 -0.005897 -0.003836 0.016951 0.000000 0.000000 0.000000
# 4 0.000000 0.000000 0.000000 0.082307 0.000000 0.000000
# 5 0.000000 0.000000 0.000000 0.000000 -0.107616 0.000000
# 6 0.000000 0.000000 0.000000 0.000000 0.000000 -0.130920
#
#
# Mechanical properties :
#
#
# Convention : Reuss Voigt Hill
#
# Bulk Modulus (GPa) = 51.13738 52.57928 51.85833
# Shear Modulus (GPa) = -61.94121 10.29428 -25.82346
#
# Velocity S-wave (km/s) = -5.57537 2.27291 -3.59991
# Velocity P-wave (km/s) = 3.97284 5.76842 2.95730
#
# Compressibility (1/GPa) = 0.01955517
#
# Stress axis : x y z
#
# Youngs Moduli (GPa) = 60.21713 93.33622 58.99192
#
# Poissons Ratio (x) = 0.24500 0.34788
# Poissons Ratio (y) = 0.15807 0.22632
# Poissons Ratio (z) = 0.35510 0.35808
#
# Static dielectric constant tensor:
#      x y z
#    x 1.717850 0.000000 0.000000 
#    y 0.000000 1.696670 0.000000 
#    z 0.000000 0.000000 1.668870 
# 
# From -- ./inp_files/4007.got.cif
#   From: 2010.05.17/outbox.cif.g08.bks.cpg/sg49_3_cif.got.tgz:4007.got - 2010.06.03 21:02:19.
