data_PCOD9393042
_publ_section_title
;
Structure prediction by ZEFSAII (Michael W. Deem and Ramdas Pophale) SiO2 
 PCOD9393042
Probable space group: P C C M
;
_chemical_formula_sum "Si O2"
_cell_formula_units_Z 64
_cell_length_a 9.871287
_cell_length_b 19.375890
_cell_length_c 14.625894
_cell_angle_alpha 90.000000
_cell_angle_beta 90.000000
_cell_angle_gamma 90.000000
_cell_volume 2797.421193
_symmetry_space_group_name_H-M "P C C M"
_symmetry_group_IT_number 49
_symmetry_cell_setting 'orthorhombic'
loop_
_space_group_symop_operation_xyz
x,y,z
-x,-y,z
x,-y,1/2-z
-x,y,1/2-z
-x,-y,-z
x,y,-z
-x,y,1/2+z
x,-y,1/2+z
loop_
_atom_site_type_symbol
_atom_site_label
_atom_site_fract_x
_atom_site_fract_y
_atom_site_fract_z
Si Si1 0.211462 0.566719 0.632210
Si Si2 0.594256 0.193164 0.387725
Si Si3 0.100669 0.818486 0.605088
Si Si4 0.014225 0.330693 0.359863
Si Si5 0.903283 0.063771 0.111652
Si Si6 0.592052 0.064967 0.111662
Si Si7 0.741797 0.414210 0.153839
Si Si8 0.523656 0.654183 0.896207
O O1 0.073752 0.604498 0.605868
O O2 0.214033 0.572409 0.742197
O O3 0.231969 0.487401 0.605842
O O4 0.335896 0.613485 0.601190
O O5 0.599758 0.195113 0.500000
O O6 0.747855 0.178495 0.354368
O O7 0.486866 0.134697 0.361730
O O8 0.549522 0.269535 0.358262
O O9 0.118591 0.841692 0.500000
O O10 0.046302 0.740511 0.604801
O O11 0.983698 0.867975 0.642650
O O12 0.000000 0.324958 0.250000
O O13 0.167807 0.350890 0.382010
O O14 0.747697 0.060263 0.144081
O O15 0.894511 0.063919 0.000000
O O16 0.000000 0.000000 0.137013
O O17 0.500000 0.000000 0.139347
O O18 0.595797 0.064463 0.000000
O O19 0.587052 0.391520 0.154229
O O20 0.472642 0.661472 0.000000
#
# Coordination Sequence:
#
# PCOD9393042 Si02
#       8
#     8   8   8   8   8   8   8   8
#     4  10  20  40  58  76 103 141 184 225 274 325
#     4   9  18  31  47  70 104 145 176 210 260 314
#     4  10  19  33  53  75 108 145 178 218 268 319
#     4  10  21  37  57  80 106 138 182 228 275 325
#     4   9  17  28  47  77 108 139 177 219 260 308
#     4   9  16  27  45  70 104 141 177 215 257 307
#     4  10  22  36  58  80 103 137 183 233 272 320
#     4  11  22  35  53  80 114 144 177 220 274 329
#
# _framework density 22.878212999999999
#
# number of rings (size 3 to 8) (size 9 to 14) (size 15 to 20)
#    0.000    2.250    1.250    1.875    1.750    7.000 
#    0.000    0.000    0.000    2.625    0.000    0.000 
#    0.000    2.000    0.000    0.000    0.000    0.000 
#
# Total GULP energy -357612.194840 kJ/mol
# GULP energy per Si atom -5587.690544 kJ/mol
# Density = 2.282614 g / cm^3
# Si number density = 22.878213 Si / 1000 Ang^3
#
#
#
# Elastic Constant Matrix: (Units=GPa)
#
#
# Indices 1 2 3 4 5 6 
#
# 1 130.8126 65.9486 6.1207 0.0000 0.0000 0.0000
# 2 65.9486 140.9973 -1.7470 0.0000 0.0000 0.0000
# 3 6.1207 -1.7470 55.9444 0.0000 0.0000 0.0000
# 4 0.0000 0.0000 0.0000 -1.0436 0.0000 0.0000
# 5 0.0000 0.0000 0.0000 0.0000 5.8349 0.0000
# 6 0.0000 0.0000 0.0000 0.0000 0.0000 33.6189
#
#
#
# Elastic Compliance Matrix: (Units=1/GPa)
#
#
# Indices 1 2 3 4 5 6 
#
# 1 0.010090 -0.004735 -0.001252 0.000000 0.000000 0.000000
# 2 -0.004735 0.009317 0.000809 0.000000 0.000000 0.000000
# 3 -0.001252 0.000809 0.018037 0.000000 0.000000 0.000000
# 4 0.000000 0.000000 0.000000 -0.958254 0.000000 0.000000
# 5 0.000000 0.000000 0.000000 0.000000 0.171382 0.000000
# 6 0.000000 0.000000 0.000000 0.000000 0.000000 0.029745
#
#
# Mechanical properties :
#
#
# Convention : Reuss Voigt Hill
#
# Bulk Modulus (GPa) = 36.91570 52.04433 44.48002
# Shear Modulus (GPa) = -7.13983 24.84418 8.85218
#
# Velocity S-wave (km/s) = -1.76849 3.29892 1.96918
# Velocity P-wave (km/s) = 3.46420 6.10806 4.96533
#
# Compressibility (1/GPa) = 0.02708875
#
# Stress axis : x y z
#
# Youngs Moduli (GPa) = 99.10574 107.32995 55.44130
#
# Poissons Ratio (x) = 0.50821 0.06940
# Poissons Ratio (y) = 0.46927 -0.04485
# Poissons Ratio (z) = 0.12406 -0.08683
#
# Static dielectric constant tensor:
#      x y z
#    x 1.795350 0.000000 0.000000 
#    y 0.000000 1.813100 0.000000 
#    z 0.000000 0.000000 1.941330 
# 
# From -- ./inp_files/20025.got.cif
#   From: 2010.05.17/outbox.cif.g08.bks.cpg/sg49_11_cif.got.tgz:20025.got - 2010.06.03 21:02:19.
