data_PCOD9393147
_publ_section_title
;
Structure prediction by ZEFSAII (Michael W. Deem and Ramdas Pophale) SiO2 
 PCOD9393147
Probable space group: P C C M
;
_chemical_formula_sum "Si O2"
_cell_formula_units_Z 64
_cell_length_a 31.752110
_cell_length_b 14.694860
_cell_length_c 8.706842
_cell_angle_alpha 90.000000
_cell_angle_beta 90.000000
_cell_angle_gamma 90.000000
_cell_volume 4062.549885
_symmetry_space_group_name_H-M "P C C M"
_symmetry_group_IT_number 49
_symmetry_cell_setting 'orthorhombic'
loop_
_space_group_symop_operation_xyz
x,y,z
-x,-y,z
x,-y,1/2-z
-x,y,1/2-z
-x,-y,-z
x,y,-z
-x,y,1/2+z
x,-y,1/2+z
loop_
_atom_site_type_symbol
_atom_site_label
_atom_site_fract_x
_atom_site_fract_y
_atom_site_fract_z
Si Si1 0.953860 0.600024 0.316034
Si Si2 0.123258 0.289821 0.185078
Si Si3 0.743603 0.097277 0.315823
Si Si4 0.364021 0.397602 0.184177
Si Si5 0.542438 0.397511 0.316674
Si Si6 0.712951 0.716540 0.683706
Si Si7 0.841838 0.903702 0.184362
Si Si8 0.796789 0.398417 0.184718
O O1 0.942905 0.500000 0.250000
O O2 0.955284 0.595877 0.500000
O O3 0.918816 0.669891 0.258482
O O4 0.000000 0.622669 0.250000
O O5 0.132233 0.185279 0.230753
O O6 0.162791 0.349004 0.243119
O O7 0.121016 0.295098 0.000000
O O8 0.741825 0.096135 0.500000
O O9 0.718404 0.182880 0.251534
O O10 0.792859 0.108880 0.268334
O O11 0.729569 0.000000 0.250000
O O12 0.359998 0.500000 0.250000
O O13 0.411084 0.360846 0.222365
O O14 0.327529 0.335017 0.250939
O O15 0.360663 0.402570 0.000000
O O16 0.543280 0.500000 0.250000
O O17 0.500000 0.353007 0.250000
O O18 0.538679 0.401782 0.500000
O O19 0.710471 0.720937 0.500000
O O20 0.754850 0.658637 0.724129
O O21 0.856740 0.000000 0.250000
O O22 0.842391 0.908701 0.000000
O O23 0.793306 0.500000 0.250000
O O24 0.800998 0.401166 0.000000
#
# Coordination Sequence:
#
# PCOD9393147 Si02
#       8
#     8   8   8   8   8   8   8   8
#     4  11  22  38  58  81 106 136 167 205 247 292
#     4  11  21  36  55  78 104 133 167 204 247 294
#     4  10  19  34  53  74  98 129 165 209 253 296
#     4  10  20  32  46  66  95 132 171 209 251 301
#     4   9  16  26  42  63  87 119 160 206 252 295
#     4  11  22  34  49  70  97 133 171 207 249 298
#     4   9  19  33  53  77 102 131 163 203 248 293
#     4  11  23  35  48  69  98 133 170 207 243 287
#
# _framework density 15.753652000000001
#
# number of rings (size 3 to 8) (size 9 to 14) (size 15 to 20)
#    0.000    1.750    1.250    4.875    0.000    5.500 
#    0.000    0.000    0.000    0.375    0.000    2.625 
#    0.000    0.500    0.000    5.250    0.000    2.875 
#
# Total GULP energy -357236.727256 kJ/mol
# GULP energy per Si atom -5581.823863 kJ/mol
# Density = 1.571780 g / cm^3
# Si number density = 15.753652 Si / 1000 Ang^3
#
#
#
# Elastic Constant Matrix: (Units=GPa)
#
#
# Indices 1 2 3 4 5 6 
#
# 1 113.1429 78.0555 48.7996 0.0000 0.0000 0.0000
# 2 78.0555 130.4030 47.0541 0.0000 0.0000 0.0000
# 3 48.7996 47.0541 72.8307 0.0000 0.0000 0.0000
# 4 0.0000 0.0000 0.0000 26.0262 0.0000 0.0000
# 5 0.0000 0.0000 0.0000 0.0000 26.3780 0.0000
# 6 0.0000 0.0000 0.0000 0.0000 0.0000 4.6791
#
#
#
# Elastic Compliance Matrix: (Units=1/GPa)
#
#
# Indices 1 2 3 4 5 6 
#
# 1 0.017007 -0.007913 -0.006283 0.000000 0.000000 0.000000
# 2 -0.007913 0.013681 -0.003537 0.000000 0.000000 0.000000
# 3 -0.006283 -0.003537 0.020226 0.000000 0.000000 0.000000
# 4 0.000000 0.000000 0.000000 0.038423 0.000000 0.000000
# 5 0.000000 0.000000 0.000000 0.000000 0.037910 0.000000
# 6 0.000000 0.000000 0.000000 0.000000 0.000000 0.213715
#
#
# Mechanical properties :
#
#
# Convention : Reuss Voigt Hill
#
# Bulk Modulus (GPa) = 64.73440 73.79943 69.26691
# Shear Modulus (GPa) = 13.10344 20.91449 17.00897
#
# Velocity S-wave (km/s) = 2.88717 3.64757 3.28942
# Velocity P-wave (km/s) = 7.23155 8.04284 7.64796
#
# Compressibility (1/GPa) = 0.01544774
#
# Stress axis : x y z
#
# Youngs Moduli (GPa) = 58.79784 73.09242 49.44164
#
# Poissons Ratio (x) = 0.57837 0.31066
# Poissons Ratio (y) = 0.46526 0.17488
# Poissons Ratio (z) = 0.36945 0.25854
#
# Static dielectric constant tensor:
#      x y z
#    x 1.534250 0.000000 0.000000 
#    y 0.000000 1.501040 0.000000 
#    z 0.000000 0.000000 1.527300 
# 
# From -- ./inp_files/7051.got.cif
#   From: 2010.05.17/outbox.cif.g08.bks.cpg/sg49_4_cif.got.tgz:7051.got - 2010.06.03 21:02:19.
