data_PCOD9393637
_publ_section_title
;
Structure prediction by ZEFSAII (Michael W. Deem and Ramdas Pophale) SiO2 
 PCOD9393637
Probable space group: P C C M
;
_chemical_formula_sum "Si O2"
_cell_formula_units_Z 64
_cell_length_a 27.945982
_cell_length_b 15.099782
_cell_length_c 8.689919
_cell_angle_alpha 90.000000
_cell_angle_beta 90.000000
_cell_angle_gamma 90.000000
_cell_volume 3666.956690
_symmetry_space_group_name_H-M "P C C M"
_symmetry_group_IT_number 49
_symmetry_cell_setting 'orthorhombic'
loop_
_space_group_symop_operation_xyz
x,y,z
-x,-y,z
x,-y,1/2-z
-x,y,1/2-z
-x,-y,-z
x,y,-z
-x,y,1/2+z
x,-y,1/2+z
loop_
_atom_site_type_symbol
_atom_site_label
_atom_site_fract_x
_atom_site_fract_y
_atom_site_fract_z
Si Si1 0.136857 0.730081 0.314299
Si Si2 0.720359 0.096064 0.684250
Si Si3 0.052806 0.404554 0.184397
Si Si4 0.330266 0.404119 0.815317
Si Si5 0.219126 0.595301 0.685002
Si Si6 0.447504 0.903858 0.815716
Si Si7 0.173281 0.905295 0.183208
Si Si8 0.360309 0.776685 0.184423
O O1 0.138489 0.740926 0.500000
O O2 0.090517 0.671659 0.275311
O O3 0.183273 0.672473 0.266295
O O4 0.139865 0.824949 0.235242
O O5 0.721074 0.093616 0.500000
O O6 0.773944 0.112137 0.745965
O O7 0.684195 0.170420 0.742806
O O8 0.705333 0.000000 0.750000
O O9 0.068438 0.500000 0.250000
O O10 0.000000 0.386764 0.250000
O O11 0.050406 0.411183 0.000000
O O12 0.344249 0.500000 0.750000
O O13 0.274326 0.389387 0.769811
O O14 0.359764 0.322826 0.747188
O O15 0.332867 0.404596 0.000000
O O16 0.204162 0.500000 0.750000
O O17 0.217445 0.590904 0.500000
O O18 0.500000 0.883316 0.750000
O O19 0.408178 0.830785 0.774502
O O20 0.433257 0.000000 0.750000
O O21 0.450301 0.910251 0.000000
O O22 0.157489 0.000000 0.250000
O O23 0.177242 0.910649 0.000000
O O24 0.355534 0.776528 0.000000
#
# Coordination Sequence:
#
# PCOD9393637 Si02
#       8
#     8   8   8   8   8   8   8   8
#     4  10  20  34  52  76 104 136 174 215 258 309
#     4  11  21  34  52  76 108 143 177 215 258 308
#     4  10  20  34  54  78 108 140 172 213 260 311
#     4  10  20  34  52  74 103 141 177 216 260 306
#     4   9  18  31  48  72 103 135 169 207 250 299
#     4  10  21  36  56  80 108 137 168 209 258 313
#     4  11  22  36  54  75 103 139 175 216 259 305
#     4  11  22  35  53  79 106 137 178 219 260 311
#
# _framework density 17.453164999999998
#
# number of rings (size 3 to 8) (size 9 to 14) (size 15 to 20)
#    0.000    1.750    0.000    6.750    0.000    6.000 
#    0.000    0.000    0.000    0.750    0.000    5.250 
#    0.000    0.000    0.000    0.000    0.000    0.000 
#
# Total GULP energy -357603.451277 kJ/mol
# GULP energy per Si atom -5587.553926 kJ/mol
# Density = 1.741344 g / cm^3
# Si number density = 17.453165 Si / 1000 Ang^3
#
#
#
# Elastic Constant Matrix: (Units=GPa)
#
#
# Indices 1 2 3 4 5 6 
#
# 1 70.4934 83.7915 43.8844 0.0000 0.0000 0.0000
# 2 83.7915 168.2114 64.6737 0.0000 0.0000 0.0000
# 3 43.8844 64.6737 84.7358 0.0000 0.0000 0.0000
# 4 0.0000 0.0000 0.0000 33.4307 0.0000 0.0000
# 5 0.0000 0.0000 0.0000 0.0000 20.1821 0.0000
# 6 0.0000 0.0000 0.0000 0.0000 0.0000 27.5570
#
#
#
# Elastic Compliance Matrix: (Units=1/GPa)
#
#
# Indices 1 2 3 4 5 6 
#
# 1 0.037764 -0.015982 -0.007360 0.000000 0.000000 0.000000
# 2 -0.015982 0.015177 -0.003307 0.000000 0.000000 0.000000
# 3 -0.007360 -0.003307 0.018137 0.000000 0.000000 0.000000
# 4 0.000000 0.000000 0.000000 0.029913 0.000000 0.000000
# 5 0.000000 0.000000 0.000000 0.000000 0.049549 0.000000
# 6 0.000000 0.000000 0.000000 0.000000 0.000000 0.036288
#
#
# Mechanical properties :
#
#
# Convention : Reuss Voigt Hill
#
# Bulk Modulus (GPa) = 56.23966 78.68220 67.46093
# Shear Modulus (GPa) = 20.32075 24.97337 22.64706
#
# Velocity S-wave (km/s) = 3.41589 3.78680 3.60612
# Velocity P-wave (km/s) = 6.91743 8.01870 7.48834
#
# Compressibility (1/GPa) = 0.01778105
#
# Stress axis : x y z
#
# Youngs Moduli (GPa) = 26.48002 65.88711 55.13510
#
# Poissons Ratio (x) = 1.05300 0.40580
# Poissons Ratio (y) = 0.42320 0.18234
# Poissons Ratio (z) = 0.19489 0.21790
#
# Static dielectric constant tensor:
#      x y z
#    x 1.583350 0.000000 0.000000 
#    y 0.000000 1.588700 0.000000 
#    z 0.000000 0.000000 1.584490 
# 
# From -- ./inp_files/6523.got.cif
#   From: 2010.05.17/outbox.cif.g08.bks.cpg/sg49_4_cif.got.tgz:6523.got - 2010.06.03 21:02:19.
