data_PCOD9393043
_publ_section_title
;
Structure prediction by ZEFSAII (Michael W. Deem and Ramdas Pophale) SiO2 
 PCOD9393043
Probable space group: P C C M
;
_chemical_formula_sum "Si O2"
_cell_formula_units_Z 64
_cell_length_a 21.454892
_cell_length_b 17.859120
_cell_length_c 8.418246
_cell_angle_alpha 90.000000
_cell_angle_beta 90.000000
_cell_angle_gamma 90.000000
_cell_volume 3225.581360
_symmetry_space_group_name_H-M "P C C M"
_symmetry_group_IT_number 49
_symmetry_cell_setting 'orthorhombic'
loop_
_space_group_symop_operation_xyz
x,y,z
-x,-y,z
x,-y,1/2-z
-x,y,1/2-z
-x,-y,-z
x,y,-z
-x,y,1/2+z
x,-y,1/2+z
loop_
_atom_site_type_symbol
_atom_site_label
_atom_site_fract_x
_atom_site_fract_y
_atom_site_fract_z
Si Si1 0.199106 0.791048 0.190144
Si Si2 0.934296 0.251971 0.690490
Si Si3 0.295471 0.919952 0.190676
Si Si4 0.434165 0.707291 0.690376
Si Si5 0.345717 0.424636 0.809187
Si Si6 0.087406 0.580020 0.317418
Si Si7 0.432059 0.120906 0.809265
Si Si8 0.784497 0.381867 0.185782
O O1 0.128257 0.791088 0.255722
O O2 0.249257 0.852885 0.246848
O O3 0.222060 0.706497 0.224336
O O4 0.195017 0.798886 0.000000
O O5 0.933641 0.254945 0.500000
O O6 0.931428 0.338755 0.754296
O O7 0.000000 0.219883 0.750000
O O8 0.366983 0.913338 0.250465
O O9 0.271000 0.000000 0.250000
O O10 0.296947 0.918053 0.000000
O O11 0.500000 0.678145 0.750000
O O12 0.434236 0.710331 0.500000
O O13 0.381400 0.650291 0.740304
O O14 0.427596 0.792444 0.747551
O O15 0.378774 0.500000 0.750000
O O16 0.279961 0.420707 0.721992
O O17 0.338863 0.425347 0.000000
O O18 0.067146 0.500000 0.250000
O O19 0.068829 0.580962 0.500000
O O20 0.161782 0.584244 0.294895
O O21 0.500000 0.092444 0.750000
O O22 0.432985 0.117196 0.000000
O O23 0.802200 0.389336 0.000000
#
# Coordination Sequence:
#
# PCOD9393043 Si02
#       8
#     8   8   8   8   8   8   8   8
#     4   9  20  38  60  84 112 145 184 227 274 328
#     4  10  21  36  57  83 112 147 190 235 282 332
#     4  11  23  39  60  89 121 152 183 221 269 325
#     4   9  20  36  54  73  96 129 171 218 268 320
#     4  11  22  34  47  68  97 131 172 221 274 326
#     4  10  20  33  49  73 106 145 183 225 274 325
#     4  10  20  37  60  86 115 149 187 228 272 325
#     4  10  19  33  53  75  99 133 175 221 268 319
#
# _framework density 19.841386
#
# number of rings (size 3 to 8) (size 9 to 14) (size 15 to 20)
#    0.000    2.000    0.000    3.375    0.000    5.250 
#    0.000    3.750    0.000    0.375    0.000    2.625 
#    0.000    0.000    0.000    0.000    0.000    0.000 
#
# Total GULP energy -357127.636836 kJ/mol
# GULP energy per Si atom -5580.119326 kJ/mol
# Density = 1.979623 g / cm^3
# Si number density = 19.841386 Si / 1000 Ang^3
#
#
#
# Elastic Constant Matrix: (Units=GPa)
#
#
# Indices 1 2 3 4 5 6 
#
# 1 112.9602 51.5249 16.3183 0.0000 0.0000 0.0000
# 2 51.5249 92.2156 21.8670 0.0000 0.0000 0.0000
# 3 16.3183 21.8670 32.7387 0.0000 0.0000 0.0000
# 4 0.0000 0.0000 0.0000 25.0349 0.0000 0.0000
# 5 0.0000 0.0000 0.0000 0.0000 19.9925 0.0000
# 6 0.0000 0.0000 0.0000 0.0000 0.0000 -19.4026
#
#
#
# Elastic Compliance Matrix: (Units=1/GPa)
#
#
# Indices 1 2 3 4 5 6 
#
# 1 0.011967 -0.006264 -0.001781 0.000000 0.000000 0.000000
# 2 -0.006264 0.016164 -0.007674 0.000000 0.000000 0.000000
# 3 -0.001781 -0.007674 0.036558 0.000000 0.000000 0.000000
# 4 0.000000 0.000000 0.000000 0.039944 0.000000 0.000000
# 5 0.000000 0.000000 0.000000 0.000000 0.050019 0.000000
# 6 0.000000 0.000000 0.000000 0.000000 0.000000 -0.051539
#
#
# Mechanical properties :
#
#
# Convention : Reuss Voigt Hill
#
# Bulk Modulus (GPa) = 30.07412 46.37053 38.22232
# Shear Modulus (GPa) = 34.33233 15.00524 24.66879
#
# Velocity S-wave (km/s) = 4.16425 2.75300 3.52987
# Velocity P-wave (km/s) = 6.18962 5.79022 5.99325
#
# Compressibility (1/GPa) = 0.03325119
#
# Stress axis : x y z
#
# Youngs Moduli (GPa) = 83.56084 61.86568 27.35362
#
# Poissons Ratio (x) = 0.38755 0.04871
# Poissons Ratio (y) = 0.52346 0.20991
# Poissons Ratio (z) = 0.14881 0.47476
#
# Static dielectric constant tensor:
#      x y z
#    x 1.707200 0.000000 0.000000 
#    y 0.000000 1.733640 0.000000 
#    z 0.000000 0.000000 1.687760 
# 
# From -- ./inp_files/5247.got.cif
#   From: 2010.05.17/outbox.cif.g08.bks.cpg/sg49_3_cif.got.tgz:5247.got - 2010.06.03 21:02:19.
