data_PCOD9393359
_publ_section_title
;
Structure prediction by ZEFSAII (Michael W. Deem and Ramdas Pophale) SiO2 
 PCOD9393359
Probable space group: P C C M
;
_chemical_formula_sum "Si O2"
_cell_formula_units_Z 64
_cell_length_a 12.874071
_cell_length_b 14.845401
_cell_length_c 15.771306
_cell_angle_alpha 90.000000
_cell_angle_beta 90.000000
_cell_angle_gamma 90.000000
_cell_volume 3014.223776
_symmetry_space_group_name_H-M "P C C M"
_symmetry_group_IT_number 49
_symmetry_cell_setting 'orthorhombic'
loop_
_space_group_symop_operation_xyz
x,y,z
-x,-y,z
x,-y,1/2-z
-x,y,1/2-z
-x,-y,-z
x,y,-z
-x,y,1/2+z
x,-y,1/2+z
loop_
_atom_site_type_symbol
_atom_site_label
_atom_site_fract_x
_atom_site_fract_y
_atom_site_fract_z
Si Si1 0.812789 0.776731 0.100123
Si Si2 0.665654 0.495592 0.153508
Si Si3 0.377351 0.709454 0.898267
Si Si4 0.973936 0.291245 0.846832
Si Si5 0.887470 0.529712 0.400589
Si Si6 0.115726 0.970878 0.396695
Si Si7 0.194073 0.841250 0.102887
Si Si8 0.396357 0.312860 0.100028
O O1 0.844404 0.874515 0.136137
O O2 0.708630 0.731533 0.136835
O O3 0.914484 0.714563 0.108830
O O4 0.795139 0.788468 0.000000
O O5 0.631920 0.500000 0.250000
O O6 0.649334 0.395179 0.119077
O O7 0.789538 0.510935 0.146255
O O8 0.610687 0.578967 0.108275
O O9 0.291607 0.781024 0.867742
O O10 0.494436 0.722074 0.864211
O O11 0.379501 0.719565 0.000000
O O12 0.896649 0.363435 0.888459
O O13 0.911081 0.199194 0.857696
O O14 0.000000 0.311742 0.750000
O O15 0.877592 0.507418 0.500000
O O16 0.000000 0.500000 0.368694
O O17 0.109391 0.963300 0.500000
O O18 0.193858 0.052826 0.377304
O O19 0.000000 0.000000 0.368580
O O20 0.185089 0.833032 0.000000
O O21 0.397635 0.293414 0.000000
#
# Coordination Sequence:
#
# PCOD9393359 Si02
#       8
#     8   8   8   8   8   8   8   8
#     4  10  20  37  59  83 116 154 194 237 292 352
#     4  12  25  37  58  85 115 149 195 248 294 341
#     4  10  21  39  61  83 112 153 200 244 287 348
#     4  12  24  34  55  84 119 151 189 239 292 342
#     4  11  24  39  57  80 114 159 196 232 289 353
#     4   9  16  30  57  88 113 148 194 239 284 345
#     4  10  19  36  60  84 113 151 197 239 290 350
#     4  10  22  39  59  83 113 153 199 243 290 348
#
# _framework density 21.232665000000001
#
# number of rings (size 3 to 8) (size 9 to 14) (size 15 to 20)
#    0.000    1.500    2.500    3.375    3.500    4.000 
#    0.000    1.875    0.000    3.750    0.000    0.000 
#    0.000    4.000    0.000    0.000    0.000    0.000 
#
# Total GULP energy -357475.098262 kJ/mol
# GULP energy per Si atom -5585.548410 kJ/mol
# Density = 2.118434 g / cm^3
# Si number density = 21.232665 Si / 1000 Ang^3
#
#
#
# Elastic Constant Matrix: (Units=GPa)
#
#
# Indices 1 2 3 4 5 6 
#
# 1 145.5986 43.2659 9.9475 0.0000 0.0000 0.0000
# 2 43.2659 90.3856 -0.7563 0.0000 0.0000 0.0000
# 3 9.9475 -0.7563 27.4861 0.0000 0.0000 0.0000
# 4 0.0000 0.0000 0.0000 -15.5240 0.0000 0.0000
# 5 0.0000 0.0000 0.0000 0.0000 -9.4423 0.0000
# 6 0.0000 0.0000 0.0000 0.0000 0.0000 -33.1922
#
#
#
# Elastic Compliance Matrix: (Units=1/GPa)
#
#
# Indices 1 2 3 4 5 6 
#
# 1 0.008263 -0.003981 -0.003100 0.000000 0.000000 0.000000
# 2 -0.003981 0.012985 0.001798 0.000000 0.000000 0.000000
# 3 -0.003100 0.001798 0.037553 0.000000 0.000000 0.000000
# 4 0.000000 0.000000 0.000000 -0.064416 0.000000 0.000000
# 5 0.000000 0.000000 0.000000 0.000000 -0.105906 0.000000
# 6 0.000000 0.000000 0.000000 0.000000 0.000000 -0.030128
#
#
# Mechanical properties :
#
#
# Convention : Reuss Voigt Hill
#
# Bulk Modulus (GPa) = 20.73199 40.93161 30.83180
# Shear Modulus (GPa) = -43.47644 2.43586 -20.52029
#
# Velocity S-wave (km/s) = -4.52997 1.07225 -3.11215
# Velocity P-wave (km/s) = 4.19231 4.56645 1.28003
#
# Compressibility (1/GPa) = 0.04823463
#
# Stress axis : x y z
#
# Youngs Moduli (GPa) = 121.02025 77.01471 26.62873
#
# Poissons Ratio (x) = 0.30662 0.08255
# Poissons Ratio (y) = 0.48182 -0.04788
# Poissons Ratio (z) = 0.37517 -0.13848
#
# Static dielectric constant tensor:
#      x y z
#    x 1.815940 0.000000 0.000000 
#    y 0.000000 1.825520 0.000000 
#    z 0.000000 0.000000 1.766350 
# 
# From -- ./inp_files/17270.got.cif
#   From: 2010.05.17/outbox.cif.g08.bks.cpg/sg49_9_cif.got.tgz:17270.got - 2010.06.03 21:02:19.
