data_PCOD9393926
_publ_section_title
;
Structure prediction by ZEFSAII (Michael W. Deem and Ramdas Pophale) SiO2 
 PCOD9393926
Probable space group: P C C M
;
_chemical_formula_sum "Si O2"
_cell_formula_units_Z 26
_cell_length_a 5.378690
_cell_length_b 14.390838
_cell_length_c 14.740475
_cell_angle_alpha 90.000000
_cell_angle_beta 90.000000
_cell_angle_gamma 90.000000
_cell_volume 1140.969611
_symmetry_space_group_name_H-M "P C C M"
_symmetry_group_IT_number 49
_symmetry_cell_setting 'orthorhombic'
loop_
_space_group_symop_operation_xyz
x,y,z
-x,-y,z
x,-y,1/2-z
-x,y,1/2-z
-x,-y,-z
x,y,-z
-x,y,1/2+z
x,-y,1/2+z
loop_
_atom_site_type_symbol
_atom_site_label
_atom_site_fract_x
_atom_site_fract_y
_atom_site_fract_z
Si Si1 0.005777 0.607219 0.139367
Si Si2 0.320775 0.088309 0.402519
Si Si3 0.000000 0.000000 0.750000
Si Si4 0.506329 0.712289 0.140330
O O1 0.260945 0.656161 0.110607
O O2 0.000000 0.500000 0.110741
O O3 0.000000 0.607393 0.250000
O O4 0.760904 0.663522 0.110536
O O5 0.185429 0.093722 0.500000
O O6 0.476230 0.182041 0.390552
O O7 0.500000 0.000000 0.404691
O O8 0.150043 0.068224 0.316432
O O9 0.500000 0.711974 0.250000
#
# Coordination Sequence:
#
# PCOD9393926 Si02
#       4
#     8   8   2   8
#     4   9  18  33  58  93 130 171 226 282 336 399
#     4  11  26  44  66  99 138 179 227 285 347 417
#     4  12  24  44  72  96 134 184 232 288 342 418
#     4  10  20  35  62  93 129 179 221 281 341 402
#
# _framework density 22.787635000000002
#
# number of rings (size 3 to 8) (size 9 to 14) (size 15 to 20)
#    0.000    1.846    0.000    3.692   10.769    3.692 
#    0.000    0.000    0.000    5.538    0.000    0.000 
#    0.000    0.000    0.000    0.000    0.000    0.000 
#
# Total GULP energy -145501.843250 kJ/mol
# GULP energy per Si atom -5596.224740 kJ/mol
# Density = 2.273577 g / cm^3
# Si number density = 22.787635 Si / 1000 Ang^3
#
#
#
# Elastic Constant Matrix: (Units=GPa)
#
#
# Indices 1 2 3 4 5 6 
#
# 1 171.0577 113.5755 47.1244 0.0000 0.0000 0.0000
# 2 113.5755 237.5495 29.4162 0.0000 0.0000 0.0000
# 3 47.1244 29.4162 142.8871 0.0000 0.0000 0.0000
# 4 0.0000 0.0000 0.0000 -291.4330 0.0000 0.0000
# 5 0.0000 0.0000 0.0000 0.0000 0.8364 0.0000
# 6 0.0000 0.0000 0.0000 0.0000 0.0000 41.2501
#
#
#
# Elastic Compliance Matrix: (Units=1/GPa)
#
#
# Indices 1 2 3 4 5 6 
#
# 1 0.009182 -0.004120 -0.002180 0.000000 0.000000 0.000000
# 2 -0.004120 0.006169 0.000089 0.000000 0.000000 0.000000
# 3 -0.002180 0.000089 0.007699 0.000000 0.000000 0.000000
# 4 0.000000 0.000000 0.000000 -0.003431 0.000000 0.000000
# 5 0.000000 0.000000 0.000000 0.000000 1.195547 0.000000
# 6 0.000000 0.000000 0.000000 0.000000 0.000000 0.024242
#
#
# Mechanical properties :
#
#
# Convention : Reuss Voigt Hill
#
# Bulk Modulus (GPa) = 94.09726 103.52515 98.81121
# Shear Modulus (GPa) = 3.98288 -25.77742 -10.89727
#
# Velocity S-wave (km/s) = 1.32349 -3.36698 -2.18917
# Velocity P-wave (km/s) = 6.61198 5.51485 6.08818
#
# Compressibility (1/GPa) = 0.01062730
#
# Stress axis : x y z
#
# Youngs Moduli (GPa) = 108.90658 162.11298 129.88325
#
# Poissons Ratio (x) = 0.66793 0.28316
# Poissons Ratio (y) = 0.44871 -0.01155
# Poissons Ratio (z) = 0.23742 -0.01441
#
# Static dielectric constant tensor:
#      x y z
#    x 1.822990 0.000000 0.000000 
#    y 0.000000 1.781510 0.000000 
#    z 0.000000 0.000000 1.817020 
# 
# From -- ./inp_files/15032.got.cif
#   From: 2010.05.17/outbox.cif.g08.bks.cpg/sg49_8_cif.got.tgz:15032.got - 2010.06.03 21:02:19.
