data_PCOD9393887
_publ_section_title
;
Structure prediction by ZEFSAII (Michael W. Deem and Ramdas Pophale) SiO2 
 PCOD9393887
Probable space group: P C C M
;
_chemical_formula_sum "Si O2"
_cell_formula_units_Z 64
_cell_length_a 16.321397
_cell_length_b 9.569711
_cell_length_c 21.384697
_cell_angle_alpha 90.000000
_cell_angle_beta 90.000000
_cell_angle_gamma 90.000000
_cell_volume 3340.098330
_symmetry_space_group_name_H-M "P C C M"
_symmetry_group_IT_number 49
_symmetry_cell_setting 'orthorhombic'
loop_
_space_group_symop_operation_xyz
x,y,z
-x,-y,z
x,-y,1/2-z
-x,y,1/2-z
-x,-y,-z
x,y,-z
-x,y,1/2+z
x,-y,1/2+z
loop_
_atom_site_type_symbol
_atom_site_label
_atom_site_fract_x
_atom_site_fract_y
_atom_site_fract_z
Si Si1 0.334223 0.658218 0.739304
Si Si2 0.933149 0.218975 0.575598
Si Si3 0.785533 0.315068 0.150744
Si Si4 0.965192 0.656660 0.685045
Si Si5 0.586184 0.920037 0.193800
Si Si6 0.673018 0.866407 0.933718
Si Si7 0.163222 0.948285 0.069619
Si Si8 0.232735 0.620002 0.385483
O O1 0.362210 0.500000 0.750000
O O2 0.290188 0.707431 0.802770
O O3 0.406126 0.760080 0.716555
O O4 0.263583 0.653491 0.685345
O O5 0.945883 0.234207 0.500000
O O6 0.855637 0.316177 0.596464
O O7 0.005961 0.264006 0.622040
O O8 0.907051 0.058355 0.588268
O O9 0.867576 0.352015 0.189168
O O10 0.810541 0.178352 0.112916
O O11 0.768009 0.452881 0.109188
O O12 0.000000 0.500000 0.679939
O O13 0.000000 0.718532 0.750000
O O14 0.625026 0.919617 0.125978
O O15 0.500000 0.000000 0.189200
O O16 0.633124 0.000000 0.250000
O O17 0.700767 0.705625 0.925506
O O18 0.757269 0.952470 0.934499
O O19 0.629993 0.886403 0.000000
O O20 0.143006 0.895611 0.000000
#
# Coordination Sequence:
#
# PCOD9393887 Si02
#       8
#     8   8   8   8   8   8   8   8
#     4   9  19  34  57  82 113 146 190 237 292 338
#     4  10  20  37  53  74 109 151 194 242 300 351
#     4  11  20  33  55  80 105 149 198 244 296 341
#     4  11  23  37  54  76 110 146 194 255 304 351
#     4  10  20  35  57  87 118 147 184 229 277 349
#     4   9  18  35  56  80 114 152 186 229 283 337
#     4   9  20  35  53  76 109 146 189 243 290 338
#     4   9  17  32  53  80 106 142 194 241 280 337
#
# _framework density 19.161113
#
# number of rings (size 3 to 8) (size 9 to 14) (size 15 to 20)
#    0.000    2.250    1.250    2.625    3.500    2.500 
#    0.000    7.500    0.000    0.000    0.000    0.000 
#    0.000   20.000    0.000    0.000    0.000    0.000 
#
# Total GULP energy -356603.616831 kJ/mol
# GULP energy per Si atom -5571.931513 kJ/mol
# Density = 1.911750 g / cm^3
# Si number density = 19.161113 Si / 1000 Ang^3
#
#
#
# Elastic Constant Matrix: (Units=GPa)
#
#
# Indices 1 2 3 4 5 6 
#
# 1 68.4862 28.8476 27.5228 0.0000 0.0000 0.0000
# 2 28.8476 104.6105 52.0504 0.0000 0.0000 0.0000
# 3 27.5228 52.0504 114.0609 0.0000 0.0000 0.0000
# 4 0.0000 0.0000 0.0000 19.7444 0.0000 0.0000
# 5 0.0000 0.0000 0.0000 0.0000 -11.5160 0.0000
# 6 0.0000 0.0000 0.0000 0.0000 0.0000 18.5420
#
#
#
# Elastic Compliance Matrix: (Units=1/GPa)
#
#
# Indices 1 2 3 4 5 6 
#
# 1 0.017075 -0.003440 -0.002551 0.000000 0.000000 0.000000
# 2 -0.003440 0.013060 -0.005130 0.000000 0.000000 0.000000
# 3 -0.002551 -0.005130 0.011724 0.000000 0.000000 0.000000
# 4 0.000000 0.000000 0.000000 0.050647 0.000000 0.000000
# 5 0.000000 0.000000 0.000000 0.000000 -0.086836 0.000000
# 6 0.000000 0.000000 0.000000 0.000000 0.000000 0.053932
#
#
# Mechanical properties :
#
#
# Convention : Reuss Voigt Hill
#
# Bulk Modulus (GPa) = 50.97120 55.99993 53.48556
# Shear Modulus (GPa) = 56.57250 17.26987 36.92119
#
# Velocity S-wave (km/s) = 5.43955 3.00542 4.39439
# Velocity P-wave (km/s) = 8.13085 6.42905 7.32951
#
# Compressibility (1/GPa) = 0.01961892
#
# Stress axis : x y z
#
# Youngs Moduli (GPa) = 58.56399 76.56819 85.29730
#
# Poissons Ratio (x) = 0.26337 0.21756
# Poissons Ratio (y) = 0.20144 0.43757
# Poissons Ratio (z) = 0.14938 0.39279
#
# Static dielectric constant tensor:
#      x y z
#    x 1.671820 0.000000 0.000000 
#    y 0.000000 1.687530 0.000000 
#    z 0.000000 0.000000 1.709780 
# 
# From -- ./inp_files/21054.got.cif
#   From: 2010.05.17/outbox.cif.g08.bks.cpg/sg49_11_cif.got.tgz:21054.got - 2010.06.03 21:02:19.
