data_PCOD9393784
_publ_section_title
;
Structure prediction by ZEFSAII (Michael W. Deem and Ramdas Pophale) SiO2 
 PCOD9393784
Probable space group: P C C M
;
_chemical_formula_sum "Si O2"
_cell_formula_units_Z 48
_cell_length_a 9.581761
_cell_length_b 31.566019
_cell_length_c 8.614087
_cell_angle_alpha 90.000000
_cell_angle_beta 90.000000
_cell_angle_gamma 90.000000
_cell_volume 2605.399955
_symmetry_space_group_name_H-M "P C C M"
_symmetry_group_IT_number 49
_symmetry_cell_setting 'orthorhombic'
loop_
_space_group_symop_operation_xyz
x,y,z
-x,-y,z
x,-y,1/2-z
-x,y,1/2-z
-x,-y,-z
x,y,-z
-x,y,1/2+z
x,-y,1/2+z
loop_
_atom_site_type_symbol
_atom_site_label
_atom_site_fract_x
_atom_site_fract_y
_atom_site_fract_z
Si Si1 0.656763 0.455487 0.686673
Si Si2 0.845713 0.377231 0.313084
Si Si3 0.656622 0.794363 0.686461
Si Si4 0.843661 0.125291 0.812787
Si Si5 0.156244 0.719099 0.686697
Si Si6 0.654372 0.953467 0.686677
O O1 0.715547 0.500000 0.750000
O O2 0.500000 0.451983 0.750000
O O3 0.653925 0.457107 0.500000
O O4 0.743520 0.414530 0.738406
O O5 0.849526 0.377923 0.500000
O O6 0.805778 0.329247 0.267129
O O7 0.000000 0.385118 0.250000
O O8 0.500000 0.797163 0.750000
O O9 0.651952 0.793797 0.500000
O O10 0.749127 0.834838 0.736486
O O11 0.735296 0.752648 0.746580
O O12 0.765034 0.082162 0.765121
O O13 0.000000 0.128062 0.750000
O O14 0.849597 0.125703 0.000000
O O15 0.153632 0.721803 0.500000
O O16 0.000000 0.727586 0.750000
O O17 0.500000 0.942825 0.750000
O O18 0.647996 0.954895 0.500000
O O19 0.690629 0.000000 0.750000
#
# Coordination Sequence:
#
# PCOD9393784 Si02
#       6
#     8   8   8   8   8   8
#     4  10  20  35  53  76 104 138 177 219 265 316
#     4   9  20  36  55  79 108 140 177 217 264 317
#     4  11  23  39  58  83 111 144 183 226 273 324
#     4  10  23  39  57  81 111 145 183 223 271 323
#     4  10  20  37  58  82 111 144 180 222 269 323
#     4  10  20  36  57  83 111 144 182 223 269 320
#
# _framework density 18.423276000000001
#
# number of rings (size 3 to 8) (size 9 to 14) (size 15 to 20)
#    0.000    2.000    0.000    4.000    0.000    7.333 
#    0.000    5.000    0.000    0.000    0.000    0.000 
#    0.000    0.000    0.000    0.000    0.000    0.000 
#
# Total GULP energy -268070.469526 kJ/mol
# GULP energy per Si atom -5584.801448 kJ/mol
# Density = 1.838134 g / cm^3
# Si number density = 18.423276 Si / 1000 Ang^3
#
#
#
# Elastic Constant Matrix: (Units=GPa)
#
#
# Indices 1 2 3 4 5 6 
#
# 1 150.0726 130.9488 38.5187 0.0000 0.0000 0.0000
# 2 130.9488 169.6650 43.9712 0.0000 0.0000 0.0000
# 3 38.5187 43.9712 46.5228 0.0000 0.0000 0.0000
# 4 0.0000 0.0000 0.0000 28.5921 0.0000 0.0000
# 5 0.0000 0.0000 0.0000 0.0000 32.6174 0.0000
# 6 0.0000 0.0000 0.0000 0.0000 0.0000 43.0269
#
#
#
# Elastic Compliance Matrix: (Units=1/GPa)
#
#
# Indices 1 2 3 4 5 6 
#
# 1 0.020658 -0.015246 -0.002694 0.000000 0.000000 0.000000
# 2 -0.015246 0.019057 -0.005390 0.000000 0.000000 0.000000
# 3 -0.002694 -0.005390 0.028820 0.000000 0.000000 0.000000
# 4 0.000000 0.000000 0.000000 0.034975 0.000000 0.000000
# 5 0.000000 0.000000 0.000000 0.000000 0.030658 0.000000
# 6 0.000000 0.000000 0.000000 0.000000 0.000000 0.023241
#
#
# Mechanical properties :
#
#
# Convention : Reuss Voigt Hill
#
# Bulk Modulus (GPa) = 45.71234 88.12642 66.91938
# Shear Modulus (GPa) = 23.65630 31.03538 27.34584
#
# Velocity S-wave (km/s) = 3.58724 4.10881 3.85685
# Velocity P-wave (km/s) = 6.48258 8.39332 7.49906
#
# Compressibility (1/GPa) = 0.02187593
#
# Stress axis : x y z
#
# Youngs Moduli (GPa) = 48.40783 52.47294 34.69867
#
# Poissons Ratio (x) = 0.79998 0.09349
# Poissons Ratio (y) = 0.73801 0.18701
# Poissons Ratio (z) = 0.13042 0.28281
#
# Static dielectric constant tensor:
#      x y z
#    x 1.589730 0.000000 0.000000 
#    y 0.000000 1.645200 0.000000 
#    z 0.000000 0.000000 1.625320 
# 
# From -- ./inp_files/2032.got.cif
#   From: 2010.05.17/outbox.cif.g08.bks.cpg/sg49_2_cif.got.tgz:2032.got - 2010.06.03 21:02:19.
