data_PCOD9393534
_publ_section_title
;
Structure prediction by ZEFSAII (Michael W. Deem and Ramdas Pophale) SiO2 
 PCOD9393534
Probable space group: P C C M
;
_chemical_formula_sum "Si O2"
_cell_formula_units_Z 42
_cell_length_a 5.324282
_cell_length_b 18.119029
_cell_length_c 26.590312
_cell_angle_alpha 90.000000
_cell_angle_beta 90.000000
_cell_angle_gamma 90.000000
_cell_volume 2565.189202
_symmetry_space_group_name_H-M "P C C M"
_symmetry_group_IT_number 49
_symmetry_cell_setting 'orthorhombic'
loop_
_space_group_symop_operation_xyz
x,y,z
-x,-y,z
x,-y,1/2-z
-x,y,1/2-z
-x,-y,-z
x,y,-z
-x,y,1/2+z
x,-y,1/2+z
loop_
_atom_site_type_symbol
_atom_site_label
_atom_site_fract_x
_atom_site_fract_y
_atom_site_fract_z
Si Si1 0.500083 0.734412 0.154168
Si Si2 0.489669 0.167677 0.557889
Si Si3 0.002641 0.186127 0.807986
Si Si4 0.013942 0.912210 0.595486
Si Si5 0.000000 0.500000 0.250000
Si Si6 0.607334 0.578509 0.306372
O O1 0.505858 0.764955 0.097332
O O2 0.757899 0.761248 0.180477
O O3 0.456057 0.647457 0.159772
O O4 0.258510 0.772459 0.180155
O O5 0.487886 0.190705 0.500000
O O6 0.733888 0.117287 0.568765
O O7 0.234581 0.123125 0.570488
O O8 0.023004 0.119020 0.847480
O O9 0.000000 0.163340 0.750000
O O10 0.000000 0.000000 0.593976
O O11 0.887106 0.558062 0.290416
O O12 0.500000 0.500000 0.324571
O O13 0.500000 0.592037 0.250000
#
# Coordination Sequence:
#
# PCOD9393534 Si02
#       6
#     8   8   8   8   2   8
#     4  10  21  33  51  74 101 136 171 207 245 297
#     4  10  21  37  54  75  99 129 171 215 258 295
#     4  10  20  33  50  74 103 137 169 199 244 301
#     4  10  21  35  53  78 102 128 167 209 256 307
#     4   8  18  28  44  74 102 132 168 196 250 296
#     4   9  18  29  46  73 103 134 164 200 243 295
#
# _framework density 16.373059999999999
#
# number of rings (size 3 to 8) (size 9 to 14) (size 15 to 20)
#    0.000    2.476    0.000    2.857    6.667    2.667 
#    0.000    0.000    0.000    7.429    0.000    0.667 
#    0.000    0.000    0.000    0.000    0.000    0.000 
#
# Total GULP energy -233836.755279 kJ/mol
# GULP energy per Si atom -5567.541792 kJ/mol
# Density = 1.633579 g / cm^3
# Si number density = 16.373060 Si / 1000 Ang^3
#
#
#
# Elastic Constant Matrix: (Units=GPa)
#
#
# Indices 1 2 3 4 5 6 
#
# 1 95.3688 21.0700 28.2529 0.0000 0.0000 0.0000
# 2 21.0700 110.8776 38.7569 0.0000 0.0000 0.0000
# 3 28.2529 38.7569 116.9350 0.0000 0.0000 0.0000
# 4 0.0000 0.0000 0.0000 3.0848 0.0000 0.0000
# 5 0.0000 0.0000 0.0000 0.0000 10.1829 0.0000
# 6 0.0000 0.0000 0.0000 0.0000 0.0000 23.7946
#
#
#
# Elastic Compliance Matrix: (Units=1/GPa)
#
#
# Indices 1 2 3 4 5 6 
#
# 1 0.011475 -0.001370 -0.002318 0.000000 0.000000 0.000000
# 2 -0.001370 0.010364 -0.003104 0.000000 0.000000 0.000000
# 3 -0.002318 -0.003104 0.010141 0.000000 0.000000 0.000000
# 4 0.000000 0.000000 0.000000 0.324172 0.000000 0.000000
# 5 0.000000 0.000000 0.000000 0.000000 0.098204 0.000000
# 6 0.000000 0.000000 0.000000 0.000000 0.000000 0.042026
#
#
# Mechanical properties :
#
#
# Convention : Reuss Voigt Hill
#
# Bulk Modulus (GPa) = 54.36311 55.48231 54.92271
# Shear Modulus (GPa) = 9.68805 23.08591 16.38698
#
# Velocity S-wave (km/s) = 2.43514 3.75906 3.16705
# Velocity P-wave (km/s) = 6.41727 7.26640 6.85500
#
# Compressibility (1/GPa) = 0.01839483
#
# Stress axis : x y z
#
# Youngs Moduli (GPa) = 87.14481 96.48443 98.61230
#
# Poissons Ratio (x) = 0.13221 0.22862
# Poissons Ratio (y) = 0.11941 0.30610
# Poissons Ratio (z) = 0.20203 0.29950
#
# Static dielectric constant tensor:
#      x y z
#    x 1.753460 0.000000 0.000000 
#    y 0.000000 1.523230 0.000000 
#    z 0.000000 0.000000 1.527890 
# 
# From -- ./inp_files/21799.got.cif
#   From: 2010.05.17/outbox.cif.g08.bks.cpg/sg49_11_cif.got.tgz:21799.got - 2010.06.03 21:02:19.
