data_PCOD9393798
_publ_section_title
;
Structure prediction by ZEFSAII (Michael W. Deem and Ramdas Pophale) SiO2 
 PCOD9393798
Probable space group: P C C M
;
_chemical_formula_sum "Si O2"
_cell_formula_units_Z 64
_cell_length_a 25.068407
_cell_length_b 15.442189
_cell_length_c 8.855444
_cell_angle_alpha 90.000000
_cell_angle_beta 90.000000
_cell_angle_gamma 90.000000
_cell_volume 3428.040480
_symmetry_space_group_name_H-M "P C C M"
_symmetry_group_IT_number 49
_symmetry_cell_setting 'orthorhombic'
loop_
_space_group_symop_operation_xyz
x,y,z
-x,-y,z
x,-y,1/2-z
-x,y,1/2-z
-x,-y,-z
x,y,-z
-x,y,1/2+z
x,-y,1/2+z
loop_
_atom_site_type_symbol
_atom_site_label
_atom_site_fract_x
_atom_site_fract_y
_atom_site_fract_z
Si Si1 0.726479 0.589796 0.826552
Si Si2 0.440655 0.779653 0.181696
Si Si3 0.559684 0.413513 0.180337
Si Si4 0.143598 0.587946 0.328406
Si Si5 0.854823 0.767613 0.319322
Si Si6 0.269345 0.227263 0.681316
Si Si7 0.353066 0.095948 0.180918
Si Si8 0.943845 0.904664 0.682203
O O1 0.709130 0.500000 0.750000
O O2 0.791431 0.586817 0.827663
O O3 0.713123 0.676978 0.735802
O O4 0.708181 0.595090 0.000000
O O5 0.500000 0.784275 0.250000
O O6 0.418181 0.682374 0.213858
O O7 0.404336 0.852486 0.256255
O O8 0.442353 0.789274 0.000000
O O9 0.585328 0.500000 0.250000
O O10 0.500000 0.410641 0.250000
O O11 0.556712 0.423145 0.000000
O O12 0.125504 0.500000 0.250000
O O13 0.125662 0.590059 0.500000
O O14 0.127687 0.675352 0.245104
O O15 0.855436 0.762368 0.500000
O O16 0.793100 0.783259 0.276544
O O17 0.895179 0.842731 0.273290
O O18 0.275094 0.221616 0.500000
O O19 0.303636 0.153550 0.761134
O O20 0.350907 0.000000 0.250000
O O21 0.354064 0.091917 0.000000
O O22 0.947239 0.909177 0.500000
O O23 0.000000 0.872664 0.750000
O O24 0.935455 0.000000 0.750000
#
# Coordination Sequence:
#
# PCOD9393798 Si02
#       8
#     8   8   8   8   8   8   8   8
#     4   9  16  28  48  77 110 146 184 223 267 319
#     4  10  21  39  62  89 116 146 185 229 274 324
#     4   9  16  27  49  80 115 148 179 214 257 310
#     4   9  16  26  45  73 106 142 181 222 266 316
#     4   9  19  34  54  80 110 144 183 224 269 322
#     4  10  20  37  58  82 113 147 183 226 273 327
#     4  12  26  44  63  83 109 143 182 229 282 335
#     4  10  20  35  54  78 107 140 178 224 275 326
#
# _framework density 18.669557000000001
#
# number of rings (size 3 to 8) (size 9 to 14) (size 15 to 20)
#    0.000    2.250    0.000    4.125    0.000    6.750 
#    0.000    3.125    0.000    1.875    0.000    2.625 
#    0.000    0.000    0.000    0.000    0.000    0.000 
#
# Total GULP energy -357242.615304 kJ/mol
# GULP energy per Si atom -5581.915864 kJ/mol
# Density = 1.862706 g / cm^3
# Si number density = 18.669557 Si / 1000 Ang^3
#
#
#
# Elastic Constant Matrix: (Units=GPa)
#
#
# Indices 1 2 3 4 5 6 
#
# 1 88.6068 74.8371 45.8592 0.0000 0.0000 0.0000
# 2 74.8371 180.5047 75.7052 0.0000 0.0000 0.0000
# 3 45.8592 75.7052 94.0795 0.0000 0.0000 0.0000
# 4 0.0000 0.0000 0.0000 36.4190 0.0000 0.0000
# 5 0.0000 0.0000 0.0000 0.0000 1774.3877 0.0000
# 6 0.0000 0.0000 0.0000 0.0000 0.0000 282.8067
#
#
#
# Elastic Compliance Matrix: (Units=1/GPa)
#
#
# Indices 1 2 3 4 5 6 
#
# 1 0.018444 -0.005851 -0.004282 0.000000 0.000000 0.000000
# 2 -0.005851 0.010218 -0.005371 0.000000 0.000000 0.000000
# 3 -0.004282 -0.005371 0.017038 0.000000 0.000000 0.000000
# 4 0.000000 0.000000 0.000000 0.027458 0.000000 0.000000
# 5 0.000000 0.000000 0.000000 0.000000 0.000564 0.000000
# 6 0.000000 0.000000 0.000000 0.000000 0.000000 0.003536
#
#
# Mechanical properties :
#
#
# Convention : Reuss Voigt Hill
#
# Bulk Modulus (GPa) = 68.05966 83.99934 76.02950
# Shear Modulus (GPa) = 44.18406 429.84198 237.01302
#
# Velocity S-wave (km/s) = 4.87009 15.19002 11.27950
# Velocity P-wave (km/s) = 8.25577 18.78135 14.50684
#
# Compressibility (1/GPa) = 0.01469299
#
# Stress axis : x y z
#
# Youngs Moduli (GPa) = 54.21918 97.86492 58.69080
#
# Poissons Ratio (x) = 0.57257 0.25134
# Poissons Ratio (y) = 0.31722 0.31520
# Poissons Ratio (z) = 0.23219 0.52559
#
# Static dielectric constant tensor:
#      x y z
#    x 1.662480 0.000000 0.000000 
#    y 0.000000 1.658880 0.000000 
#    z 0.000000 0.000000 1.626650 
# 
# From -- ./inp_files/6511.got.cif
#   From: 2010.05.17/outbox.cif.g08.bks.cpg/sg49_4_cif.got.tgz:6511.got - 2010.06.03 21:02:19.
