data_PCOD9393085
_publ_section_title
;
Structure prediction by ZEFSAII (Michael W. Deem and Ramdas Pophale) SiO2 
 PCOD9393085
Probable space group: P C C M
;
_chemical_formula_sum "Si O2"
_cell_formula_units_Z 58
_cell_length_a 22.055156
_cell_length_b 15.742954
_cell_length_c 9.059149
_cell_angle_alpha 90.000000
_cell_angle_beta 90.000000
_cell_angle_gamma 90.000000
_cell_volume 3145.457077
_symmetry_space_group_name_H-M "P C C M"
_symmetry_group_IT_number 49
_symmetry_cell_setting 'orthorhombic'
loop_
_space_group_symop_operation_xyz
x,y,z
-x,-y,z
x,-y,1/2-z
-x,y,1/2-z
-x,-y,-z
x,y,-z
-x,y,1/2+z
x,-y,1/2+z
loop_
_atom_site_type_symbol
_atom_site_label
_atom_site_fract_x
_atom_site_fract_y
_atom_site_fract_z
Si Si1 0.408589 0.637805 0.163700
Si Si2 0.660687 0.088883 0.826066
Si Si3 0.805291 0.910370 0.674710
Si Si4 0.065890 0.411742 0.678050
Si Si5 0.500000 0.500000 0.250000
Si Si6 0.830954 0.723768 0.678767
Si Si7 0.561495 0.800496 0.173045
Si Si8 0.268941 0.410313 0.324285
O O1 0.454214 0.559473 0.160916
O O2 0.432038 0.701560 0.287603
O O3 0.339992 0.609604 0.197081
O O4 0.408751 0.679287 0.000000
O O5 0.732684 0.101876 0.807539
O O6 0.620372 0.158257 0.746110
O O7 0.645297 0.000000 0.750000
O O8 0.647877 0.087245 0.000000
O O9 0.817774 0.918635 0.500000
O O10 0.833179 0.821348 0.731932
O O11 0.822080 0.000000 0.750000
O O12 0.088915 0.500000 0.750000
O O13 0.061483 0.420974 0.500000
O O14 0.110789 0.334072 0.711745
O O15 0.000000 0.397391 0.750000
O O16 0.826146 0.730126 0.500000
O O17 0.772689 0.668318 0.728302
O O18 0.500000 0.832533 0.250000
O O19 0.559114 0.815593 0.000000
O O20 0.253528 0.500000 0.250000
O O21 0.258818 0.418891 0.500000
#
# Coordination Sequence:
#
# PCOD9393085 Si02
#       8
#     8   8   8   8   2   8   8   8
#     4  11  23  38  56  77 105 139 178 221 271 326
#     4  10  20  37  60  83 109 137 170 212 266 325
#     4   9  18  35  58  82 109 140 177 221 269 324
#     4  10  19  33  54  81 114 154 193 229 268 315
#     4  12  22  36  60  78 100 136 180 216 270 324
#     4   9  18  33  55  80 111 148 183 221 272 325
#     4  12  25  39  56  77 102 132 173 219 270 326
#     4  10  20  35  53  77 107 141 178 220 271 325
#
# _framework density 18.439291000000001
#
# number of rings (size 3 to 8) (size 9 to 14) (size 15 to 20)
#    0.000    1.793    1.379    3.931    0.000    4.138 
#    0.000    4.138    0.000    0.414    0.000    2.897 
#    0.000    0.000    0.000    0.000    0.000    0.000 
#
# Total GULP energy -323667.625287 kJ/mol
# GULP energy per Si atom -5580.476298 kJ/mol
# Density = 1.839732 g / cm^3
# Si number density = 18.439291 Si / 1000 Ang^3
#
#
#
# Elastic Constant Matrix: (Units=GPa)
#
#
# Indices 1 2 3 4 5 6 
#
# 1 70.6938 56.5699 33.9708 0.0000 0.0000 0.0000
# 2 56.5699 143.0498 45.1113 0.0000 0.0000 0.0000
# 3 33.9708 45.1113 77.4179 0.0000 0.0000 0.0000
# 4 0.0000 0.0000 0.0000 27.8108 0.0000 0.0000
# 5 0.0000 0.0000 0.0000 0.0000 14.9076 0.0000
# 6 0.0000 0.0000 0.0000 0.0000 0.0000 25.2852
#
#
#
# Elastic Compliance Matrix: (Units=1/GPa)
#
#
# Indices 1 2 3 4 5 6 
#
# 1 0.022622 -0.007125 -0.005775 0.000000 0.000000 0.000000
# 2 -0.007125 0.010808 -0.003172 0.000000 0.000000 0.000000
# 3 -0.005775 -0.003172 0.017299 0.000000 0.000000 0.000000
# 4 0.000000 0.000000 0.000000 0.035957 0.000000 0.000000
# 5 0.000000 0.000000 0.000000 0.000000 0.067080 0.000000
# 6 0.000000 0.000000 0.000000 0.000000 0.000000 0.039549
#
#
# Mechanical properties :
#
#
# Convention : Reuss Voigt Hill
#
# Bulk Modulus (GPa) = 53.80206 62.49618 58.14912
# Shear Modulus (GPa) = 21.58396 23.96801 22.77598
#
# Velocity S-wave (km/s) = 3.42503 3.60923 3.51834
# Velocity P-wave (km/s) = 6.69943 7.16486 6.93605
#
# Compressibility (1/GPa) = 0.01858665
#
# Stress axis : x y z
#
# Youngs Moduli (GPa) = 44.20495 92.52119 57.80690
#
# Poissons Ratio (x) = 0.65920 0.33382
# Poissons Ratio (y) = 0.31495 0.18334
# Poissons Ratio (z) = 0.25527 0.29344
#
# Static dielectric constant tensor:
#      x y z
#    x 1.632630 0.000000 0.000000 
#    y 0.000000 1.682850 0.000000 
#    z 0.000000 0.000000 1.633410 
# 
# From -- ./inp_files/6449.got.cif
#   From: 2010.05.17/outbox.cif.g08.bks.cpg/sg49_4_cif.got.tgz:6449.got - 2010.06.03 21:02:19.
