data_PCOD9393138
_publ_section_title
;
Structure prediction by ZEFSAII (Michael W. Deem and Ramdas Pophale) SiO2 
 PCOD9393138
Probable space group: P C C M
;
_chemical_formula_sum "Si O2"
_cell_formula_units_Z 56
_cell_length_a 18.670527
_cell_length_b 19.509891
_cell_length_c 8.848468
_cell_angle_alpha 90.000000
_cell_angle_beta 90.000000
_cell_angle_gamma 90.000000
_cell_volume 3223.142482
_symmetry_space_group_name_H-M "P C C M"
_symmetry_group_IT_number 49
_symmetry_cell_setting 'orthorhombic'
loop_
_space_group_symop_operation_xyz
x,y,z
-x,-y,z
x,-y,1/2-z
-x,y,1/2-z
-x,-y,-z
x,y,-z
-x,y,1/2+z
x,-y,1/2+z
loop_
_atom_site_type_symbol
_atom_site_label
_atom_site_fract_x
_atom_site_fract_y
_atom_site_fract_z
Si Si1 0.221057 0.574811 0.818334
Si Si2 0.812357 0.072105 0.681210
Si Si3 0.423156 0.209459 0.680598
Si Si4 0.074711 0.348581 0.679650
Si Si5 0.146109 0.219480 0.820446
Si Si6 0.703155 0.703031 0.820647
Si Si7 0.642505 0.927123 0.181409
O O1 0.231628 0.500000 0.750000
O O2 0.141620 0.603079 0.777600
O O3 0.275613 0.629918 0.748548
O O4 0.226807 0.573973 0.000000
O O5 0.817830 0.068729 0.500000
O O6 0.853206 0.140709 0.732241
O O7 0.727554 0.080653 0.716239
O O8 0.836461 0.000000 0.750000
O O9 0.500000 0.227106 0.750000
O O10 0.426094 0.207773 0.500000
O O11 0.363358 0.262525 0.737773
O O12 0.399566 0.135372 0.744639
O O13 0.069162 0.347987 0.500000
O O14 0.094442 0.272406 0.737368
O O15 0.000000 0.371366 0.750000
O O16 0.226739 0.248758 0.799907
O O17 0.130958 0.221456 0.000000
O O18 0.689949 0.698319 0.000000
O O19 0.619683 0.000000 0.250000
O O20 0.634252 0.926176 0.000000
#
# Coordination Sequence:
#
# PCOD9393138 Si02
#       7
#     8   8   8   8   8   8   8
#     4  10  21  37  58  87 115 145 181 215 258 312
#     4   9  17  29  47  73 102 134 173 220 271 320
#     4  12  24  37  54  77 106 144 185 229 276 327
#     4  10  21  35  53  80 112 145 181 216 258 313
#     4   9  17  32  53  75 103 139 177 219 267 316
#     4  10  19  36  58  80 108 140 177 224 269 317
#     4  10  19  34  51  74 105 140 181 225 278 331
#
# _framework density 17.374347
#
# number of rings (size 3 to 8) (size 9 to 14) (size 15 to 20)
#    0.000    2.000    1.429    3.000    0.000    4.000 
#    0.000    2.857    0.000    0.857    0.000    6.000 
#    0.000    0.000    0.000    0.000    0.000    0.000 
#
# Total GULP energy -312671.776906 kJ/mol
# GULP energy per Si atom -5583.424588 kJ/mol
# Density = 1.733480 g / cm^3
# Si number density = 17.374347 Si / 1000 Ang^3
#
#
#
# Elastic Constant Matrix: (Units=GPa)
#
#
# Indices 1 2 3 4 5 6 
#
# 1 59.1373 38.4607 35.1492 0.0000 0.0000 0.0000
# 2 38.4607 134.1597 47.1141 0.0000 0.0000 0.0000
# 3 35.1492 47.1141 72.3038 0.0000 0.0000 0.0000
# 4 0.0000 0.0000 0.0000 32.1284 0.0000 0.0000
# 5 0.0000 0.0000 0.0000 0.0000 25.1081 0.0000
# 6 0.0000 0.0000 0.0000 0.0000 0.0000 10.4730
#
#
#
# Elastic Compliance Matrix: (Units=1/GPa)
#
#
# Indices 1 2 3 4 5 6 
#
# 1 0.025182 -0.003787 -0.009774 0.000000 0.000000 0.000000
# 2 -0.003787 0.010235 -0.004828 0.000000 0.000000 0.000000
# 3 -0.009774 -0.004828 0.021728 0.000000 0.000000 0.000000
# 4 0.000000 0.000000 0.000000 0.031125 0.000000 0.000000
# 5 0.000000 0.000000 0.000000 0.000000 0.039828 0.000000
# 6 0.000000 0.000000 0.000000 0.000000 0.000000 0.095484
#
#
# Mechanical properties :
#
#
# Convention : Reuss Voigt Hill
#
# Bulk Modulus (GPa) = 49.10004 56.33876 52.71940
# Shear Modulus (GPa) = 18.71609 23.20035 20.95822
#
# Velocity S-wave (km/s) = 3.28567 3.65817 3.47691
# Velocity P-wave (km/s) = 6.53572 7.09505 6.82112
#
# Compressibility (1/GPa) = 0.02036658
#
# Stress axis : x y z
#
# Youngs Moduli (GPa) = 39.71088 97.70394 46.02261
#
# Poissons Ratio (x) = 0.36997 0.44984
# Poissons Ratio (y) = 0.15037 0.22222
# Poissons Ratio (z) = 0.38815 0.47176
#
# Static dielectric constant tensor:
#      x y z
#    x 1.580390 0.000000 0.000000 
#    y 0.000000 1.580730 0.000000 
#    z 0.000000 0.000000 1.574530 
# 
# From -- ./inp_files/4022.got.cif
#   From: 2010.05.17/outbox.cif.g08.bks.cpg/sg49_3_cif.got.tgz:4022.got - 2010.06.03 21:02:19.
