data_PCOD9393260
_publ_section_title
;
Structure prediction by ZEFSAII (Michael W. Deem and Ramdas Pophale) SiO2 
 PCOD9393260
Probable space group: P C C M
;
_chemical_formula_sum "Si O2"
_cell_formula_units_Z 48
_cell_length_a 14.796515
_cell_length_b 20.914878
_cell_length_c 8.593815
_cell_angle_alpha 90.000000
_cell_angle_beta 90.000000
_cell_angle_gamma 90.000000
_cell_volume 2659.504777
_symmetry_space_group_name_H-M "P C C M"
_symmetry_group_IT_number 49
_symmetry_cell_setting 'orthorhombic'
loop_
_space_group_symop_operation_xyz
x,y,z
-x,-y,z
x,-y,1/2-z
-x,y,1/2-z
-x,-y,-z
x,y,-z
-x,y,1/2+z
x,-y,1/2+z
loop_
_atom_site_type_symbol
_atom_site_label
_atom_site_fract_x
_atom_site_fract_y
_atom_site_fract_z
Si Si1 0.720438 0.183852 0.812733
Si Si2 0.903728 0.763769 0.814100
Si Si3 0.398829 0.307014 0.312269
Si Si4 0.095899 0.619108 0.186934
Si Si5 0.711242 0.567930 0.312471
Si Si6 0.598906 0.071262 0.686201
O O1 0.820123 0.195025 0.746342
O O2 0.660299 0.245560 0.765773
O O3 0.672281 0.121154 0.747108
O O4 0.723543 0.181567 0.000000
O O5 0.892857 0.691603 0.748281
O O6 0.000000 0.787349 0.750000
O O7 0.905502 0.761280 0.000000
O O8 0.500000 0.302879 0.250000
O O9 0.401255 0.307762 0.500000
O O10 0.349181 0.372080 0.260071
O O11 0.184744 0.580429 0.236245
O O12 0.000000 0.594452 0.250000
O O13 0.092549 0.621067 0.000000
O O14 0.679303 0.500000 0.250000
O O15 0.709680 0.567049 0.500000
O O16 0.500000 0.090774 0.750000
O O17 0.596352 0.070131 0.500000
O O18 0.616260 0.000000 0.750000
#
# Coordination Sequence:
#
# PCOD9393260 Si02
#       6
#     8   8   8   8   8   8
#     4  11  21  38  61  86 119 153 189 240 288 335
#     4  11  21  34  56  86 116 149 189 232 283 341
#     4  10  22  39  57  79 109 142 184 234 285 336
#     4  10  19  35  55  78 109 141 180 228 285 342
#     4  10  22  39  55  75 106 144 183 232 286 343
#     4  11  22  38  59  89 124 162 201 238 286 339
#
# _framework density 18.048473000000001
#
# number of rings (size 3 to 8) (size 9 to 14) (size 15 to 20)
#    0.000    1.500    1.667    6.000    0.000    5.333 
#    0.000    3.333    0.000    0.500    0.000    3.500 
#    0.000    0.000    0.000    0.000    0.000    0.000 
#
# Total GULP energy -268261.275664 kJ/mol
# GULP energy per Si atom -5588.776576 kJ/mol
# Density = 1.800739 g / cm^3
# Si number density = 18.048473 Si / 1000 Ang^3
#
#
#
# Elastic Constant Matrix: (Units=GPa)
#
#
# Indices 1 2 3 4 5 6 
#
# 1 136.1583 61.2764 36.2785 0.0000 0.0000 0.0000
# 2 61.2764 78.4008 26.9253 0.0000 0.0000 0.0000
# 3 36.2785 26.9253 81.4282 0.0000 0.0000 0.0000
# 4 0.0000 0.0000 0.0000 43.3481 0.0000 0.0000
# 5 0.0000 0.0000 0.0000 0.0000 30.8789 0.0000
# 6 0.0000 0.0000 0.0000 0.0000 0.0000 17.4013
#
#
#
# Elastic Compliance Matrix: (Units=1/GPa)
#
#
# Indices 1 2 3 4 5 6 
#
# 1 0.011758 -0.008337 -0.002482 0.000000 0.000000 0.000000
# 2 -0.008337 0.020301 -0.002998 0.000000 0.000000 0.000000
# 3 -0.002482 -0.002998 0.014378 0.000000 0.000000 0.000000
# 4 0.000000 0.000000 0.000000 0.023069 0.000000 0.000000
# 5 0.000000 0.000000 0.000000 0.000000 0.032385 0.000000
# 6 0.000000 0.000000 0.000000 0.000000 0.000000 0.057467
#
#
# Mechanical properties :
#
#
# Convention : Reuss Voigt Hill
#
# Bulk Modulus (GPa) = 53.18537 60.54974 56.86756
# Shear Modulus (GPa) = 25.87207 29.75948 27.81578
#
# Velocity S-wave (km/s) = 3.79024 4.06503 3.93003
# Velocity P-wave (km/s) = 6.97758 7.46015 7.22289
#
# Compressibility (1/GPa) = 0.01880216
#
# Stress axis : x y z
#
# Youngs Moduli (GPa) = 85.05071 49.25881 69.55181
#
# Poissons Ratio (x) = 0.41069 0.17259
# Poissons Ratio (y) = 0.70910 0.20853
# Poissons Ratio (z) = 0.21106 0.14769
#
# Static dielectric constant tensor:
#      x y z
#    x 1.613590 0.000000 0.000000 
#    y 0.000000 1.598810 0.000000 
#    z 0.000000 0.000000 1.607320 
# 
# From -- ./inp_files/3701.got.cif
#   From: 2010.05.17/outbox.cif.g08.bks.cpg/sg49_2_cif.got.tgz:3701.got - 2010.06.03 21:02:19.
