data_PCOD9393642
_publ_section_title
;
Structure prediction by ZEFSAII (Michael W. Deem and Ramdas Pophale) SiO2 
 PCOD9393642
Probable space group: P C C M
;
_chemical_formula_sum "Si O2"
_cell_formula_units_Z 40
_cell_length_a 13.829236
_cell_length_b 18.953842
_cell_length_c 8.781674
_cell_angle_alpha 90.000000
_cell_angle_beta 90.000000
_cell_angle_gamma 90.000000
_cell_volume 2301.827397
_symmetry_space_group_name_H-M "P C C M"
_symmetry_group_IT_number 49
_symmetry_cell_setting 'orthorhombic'
loop_
_space_group_symop_operation_xyz
x,y,z
-x,-y,z
x,-y,1/2-z
-x,y,1/2-z
-x,-y,-z
x,y,-z
-x,y,1/2+z
x,-y,1/2+z
loop_
_atom_site_type_symbol
_atom_site_label
_atom_site_fract_x
_atom_site_fract_y
_atom_site_fract_z
Si Si1 0.602095 0.211048 0.817947
Si Si2 0.107082 0.573612 0.680717
Si Si3 0.895007 0.858495 0.682511
Si Si4 0.798192 0.290974 0.180832
Si Si5 0.703333 0.924665 0.818002
O O1 0.500000 0.233687 0.750000
O O2 0.689434 0.265194 0.785908
O O3 0.634113 0.137045 0.743701
O O4 0.596496 0.202468 0.000000
O O5 0.144629 0.500000 0.750000
O O6 0.099715 0.567420 0.500000
O O7 0.170045 0.640657 0.727964
O O8 0.000000 0.584156 0.750000
O O9 0.893287 0.868095 0.500000
O O10 0.866041 0.776822 0.714370
O O11 0.810594 0.904941 0.757413
O O12 0.000000 0.874052 0.750000
O O13 0.806210 0.305176 0.000000
O O14 0.675119 0.000000 0.750000
O O15 0.702590 0.926087 0.000000
#
# Coordination Sequence:
#
# PCOD9393642 Si02
#       5
#     8   8   8   8   8
#     4  10  21  38  59  82 106 134 171 216 264 315
#     4  11  21  33  52  78 111 146 180 214 254 302
#     4  10  20  34  52  76 105 139 177 216 259 310
#     4   9  19  35  54  77 107 138 172 214 258 306
#     4  11  22  37  55  76 104 136 173 217 265 316
#
# _framework density 17.377499
#
# number of rings (size 3 to 8) (size 9 to 14) (size 15 to 20)
#    0.000    1.800    0.000    7.200    0.000    7.200 
#    0.000    4.000    0.000    0.600    0.000    4.200 
#    0.000    0.000    0.000    0.000    0.000    0.000 
#
# Total GULP energy -223495.021033 kJ/mol
# GULP energy per Si atom -5587.375526 kJ/mol
# Density = 1.733795 g / cm^3
# Si number density = 17.377499 Si / 1000 Ang^3
#
#
#
# Elastic Constant Matrix: (Units=GPa)
#
#
# Indices 1 2 3 4 5 6 
#
# 1 51.5122 6.8101 26.4000 0.0000 0.0000 0.0000
# 2 6.8101 89.5352 57.9844 0.0000 0.0000 0.0000
# 3 26.4000 57.9844 116.1995 0.0000 0.0000 0.0000
# 4 0.0000 0.0000 0.0000 27.8419 0.0000 0.0000
# 5 0.0000 0.0000 0.0000 0.0000 31.2009 0.0000
# 6 0.0000 0.0000 0.0000 0.0000 0.0000 5.1323
#
#
#
# Elastic Compliance Matrix: (Units=1/GPa)
#
#
# Indices 1 2 3 4 5 6 
#
# 1 0.022299 0.002342 -0.006235 0.000000 0.000000 0.000000
# 2 0.002342 0.016747 -0.008889 0.000000 0.000000 0.000000
# 3 -0.006235 -0.008889 0.014458 0.000000 0.000000 0.000000
# 4 0.000000 0.000000 0.000000 0.035917 0.000000 0.000000
# 5 0.000000 0.000000 0.000000 0.000000 0.032050 0.000000
# 6 0.000000 0.000000 0.000000 0.000000 0.000000 0.194843
#
#
# Mechanical properties :
#
#
# Convention : Reuss Voigt Hill
#
# Bulk Modulus (GPa) = 35.79118 48.84843 42.31980
# Shear Modulus (GPa) = 14.23721 23.90518 19.07119
#
# Velocity S-wave (km/s) = 2.86543 3.71299 3.31639
# Velocity P-wave (km/s) = 5.62037 6.82297 6.25066
#
# Compressibility (1/GPa) = 0.02793984
#
# Stress axis : x y z
#
# Youngs Moduli (GPa) = 44.84594 59.71085 69.16553
#
# Poissons Ratio (x) = -0.13982 0.43122
# Poissons Ratio (y) = -0.10501 0.61482
# Poissons Ratio (z) = 0.27960 0.53077
#
# Static dielectric constant tensor:
#      x y z
#    x 1.575510 0.000000 0.000000 
#    y 0.000000 1.579280 0.000000 
#    z 0.000000 0.000000 1.576040 
# 
# From -- ./inp_files/2669.got.cif
#   From: 2010.05.17/outbox.cif.g08.bks.cpg/sg49_2_cif.got.tgz:2669.got - 2010.06.03 21:02:19.
