data_PCOD9393587
_publ_section_title
;
Structure prediction by ZEFSAII (Michael W. Deem and Ramdas Pophale) SiO2 
 PCOD9393587
Probable space group: P C C M
;
_chemical_formula_sum "Si O2"
_cell_formula_units_Z 64
_cell_length_a 27.294691
_cell_length_b 14.489919
_cell_length_c 8.342510
_cell_angle_alpha 90.000000
_cell_angle_beta 90.000000
_cell_angle_gamma 90.000000
_cell_volume 3299.444866
_symmetry_space_group_name_H-M "P C C M"
_symmetry_group_IT_number 49
_symmetry_cell_setting 'orthorhombic'
loop_
_space_group_symop_operation_xyz
x,y,z
-x,-y,z
x,-y,1/2-z
-x,y,1/2-z
-x,-y,-z
x,y,-z
-x,y,1/2+z
x,-y,1/2+z
loop_
_atom_site_type_symbol
_atom_site_label
_atom_site_fract_x
_atom_site_fract_y
_atom_site_fract_z
Si Si1 0.702064 0.394013 0.693158
Si Si2 0.448208 0.790661 0.306725
Si Si3 0.593946 0.395517 0.306515
Si Si4 0.190901 0.604869 0.307994
Si Si5 0.851659 0.784544 0.306871
Si Si6 0.244867 0.106106 0.692234
Si Si7 0.349995 0.105594 0.192189
Si Si8 0.946756 0.894919 0.692055
O O1 0.701935 0.500000 0.750000
O O2 0.702411 0.388297 0.500000
O O3 0.648481 0.361179 0.745418
O O4 0.755025 0.360063 0.750439
O O5 0.500000 0.829611 0.250000
O O6 0.447714 0.791934 0.500000
O O7 0.442682 0.684103 0.251962
O O8 0.399415 0.843974 0.251618
O O9 0.585170 0.500000 0.250000
O O10 0.593673 0.398199 0.500000
O O11 0.183838 0.500000 0.250000
O O12 0.191011 0.604134 0.500000
O O13 0.152483 0.678859 0.245768
O O14 0.851226 0.788471 0.500000
O O15 0.802933 0.838735 0.249407
O O16 0.901049 0.834248 0.250058
O O17 0.245350 0.106521 0.500000
O O18 0.297434 0.144392 0.750839
O O19 0.241338 0.000000 0.750000
O O20 0.351847 0.000000 0.250000
O O21 0.349352 0.108651 0.000000
O O22 0.946823 0.895198 0.500000
O O23 0.000000 0.862096 0.750000
O O24 0.940519 0.000000 0.750000
#
# Coordination Sequence:
#
# PCOD9393587 Si02
#       8
#     8   8   8   8   8   8   8   8
#     4   8  15  28  47  70  97 129 169 211 255 308
#     4  10  23  39  56  76 102 134 172 219 265 320
#     4   9  18  34  53  75 102 133 169 209 259 314
#     4  10  20  33  53  78 110 151 190 232 277 326
#     4  10  22  36  53  82 118 152 189 231 276 326
#     4  10  20  35  55  82 114 146 178 218 268 329
#     4  10  21  38  59  80 105 137 172 218 271 325
#     4  10  20  36  58  84 117 154 192 238 281 329
#
# _framework density 19.397200999999999
#
# number of rings (size 3 to 8) (size 9 to 14) (size 15 to 20)
#    0.000    2.375    0.000    3.000    1.750    4.500 
#    0.000    2.500    0.000    0.375    0.000    2.625 
#    0.000    0.000    0.000    0.000    0.000    0.000 
#
# Total GULP energy -356997.038255 kJ/mol
# GULP energy per Si atom -5578.078723 kJ/mol
# Density = 1.935305 g / cm^3
# Si number density = 19.397201 Si / 1000 Ang^3
#
#
#
# Elastic Constant Matrix: (Units=GPa)
#
#
# Indices 1 2 3 4 5 6 
#
# 1 171.0816 76.0458 25.6650 0.0000 0.0000 0.0000
# 2 76.0458 78.9337 9.0050 0.0000 0.0000 0.0000
# 3 25.6650 9.0050 24.7281 0.0000 0.0000 0.0000
# 4 0.0000 0.0000 0.0000 18.6904 0.0000 0.0000
# 5 0.0000 0.0000 0.0000 0.0000 27.3872 0.0000
# 6 0.0000 0.0000 0.0000 0.0000 0.0000 32.5686
#
#
#
# Elastic Compliance Matrix: (Units=1/GPa)
#
#
# Indices 1 2 3 4 5 6 
#
# 1 0.011677 -0.010295 -0.008370 0.000000 0.000000 0.000000
# 2 -0.010295 0.022294 0.002566 0.000000 0.000000 0.000000
# 3 -0.008370 0.002566 0.048193 0.000000 0.000000 0.000000
# 4 0.000000 0.000000 0.000000 0.053504 0.000000 0.000000
# 5 0.000000 0.000000 0.000000 0.000000 0.036513 0.000000
# 6 0.000000 0.000000 0.000000 0.000000 0.000000 0.030704
#
#
# Mechanical properties :
#
#
# Convention : Reuss Voigt Hill
#
# Bulk Modulus (GPa) = 20.01368 55.13057 37.57212
# Shear Modulus (GPa) = 19.86191 26.66442 23.26316
#
# Velocity S-wave (km/s) = 3.20340 3.71165 3.46686
# Velocity P-wave (km/s) = 4.90129 6.84486 5.95293
#
# Compressibility (1/GPa) = 0.04996583
#
# Stress axis : x y z
#
# Youngs Moduli (GPa) = 85.63957 44.85476 20.75003
#
# Poissons Ratio (x) = 0.46177 0.17368
# Poissons Ratio (y) = 0.88163 -0.05325
# Poissons Ratio (z) = 0.71683 -0.11510
#
# Static dielectric constant tensor:
#      x y z
#    x 1.713000 0.000000 0.000000 
#    y 0.000000 1.669230 0.000000 
#    z 0.000000 0.000000 1.689090 
# 
# From -- ./inp_files/6513.got.cif
#   From: 2010.05.17/outbox.cif.g08.bks.cpg/sg49_4_cif.got.tgz:6513.got - 2010.06.03 21:02:19.
