data_PCOD9393064
_publ_section_title
;
Structure prediction by ZEFSAII (Michael W. Deem and Ramdas Pophale) SiO2 
 PCOD9393064
Probable space group: P C C M
;
_chemical_formula_sum "Si O2"
_cell_formula_units_Z 64
_cell_length_a 15.466157
_cell_length_b 12.395577
_cell_length_c 15.949313
_cell_angle_alpha 90.000000
_cell_angle_beta 90.000000
_cell_angle_gamma 90.000000
_cell_volume 3057.673737
_symmetry_space_group_name_H-M "P C C M"
_symmetry_group_IT_number 49
_symmetry_cell_setting 'orthorhombic'
loop_
_space_group_symop_operation_xyz
x,y,z
-x,-y,z
x,-y,1/2-z
-x,y,1/2-z
-x,-y,-z
x,y,-z
-x,y,1/2+z
x,-y,1/2+z
loop_
_atom_site_type_symbol
_atom_site_label
_atom_site_fract_x
_atom_site_fract_y
_atom_site_fract_z
Si Si1 0.353247 0.124190 0.750000
Si Si2 0.652019 0.735814 0.404775
Si Si3 0.143120 0.737355 0.591710
Si Si4 0.140871 0.125356 0.750000
Si Si5 0.856880 0.737355 0.591710
Si Si6 0.896391 0.500000 0.154118
Si Si7 0.347981 0.264186 0.904775
Si Si8 0.599373 0.500000 0.398436
O O1 0.383504 0.184811 0.665937
O O2 0.246980 0.128562 0.750000
O O3 0.383504 0.184811 0.834063
O O4 0.378558 0.000000 0.750000
O O5 0.615774 0.745559 0.500000
O O6 0.754070 0.756835 0.411260
O O7 0.641160 0.612796 0.373363
O O8 0.106775 0.763101 0.500000
O O9 0.109910 0.809671 0.668112
O O10 0.131175 0.610534 0.610137
O O11 0.245930 0.756835 0.588740
O O12 0.109910 0.190329 0.668112
O O13 0.115918 0.000000 0.750000
O O14 0.893225 0.763101 0.500000
O O15 0.868825 0.610534 0.610137
O O16 0.863663 0.500000 0.250000
O O17 0.000000 0.500000 0.156026
O O18 0.358840 0.387204 0.873363
O O19 0.384226 0.254441 0.000000
O O20 0.500000 0.500000 0.371941
O O21 0.603045 0.500000 0.500000
#
# Coordination Sequence:
#
# PCOD9393064 Si02
#       8
#     8   8   8   8   8   8   8   8
#     4   9  18  31  49  74 100 131 168 205 248 293
#     4   9  18  32  51  76 102 130 165 205 248 295
#     4  10  19  33  54  77 103 134 167 206 252 300
#     4   9  18  33  51  76 106 131 166 211 250 295
#     4  10  19  33  54  77 103 134 167 206 252 300
#     4  11  22  35  53  77 105 135 166 205 253 302
#     4   9  18  32  51  76 102 130 165 205 248 295
#     4   9  17  31  51  74 102 133 165 204 251 301
#
# _framework density 20.930945000000001
#
# number of rings (size 3 to 8) (size 9 to 14) (size 15 to 20)
#    0.000    2.500    1.250    1.125    0.000    4.500 
#    0.000    6.250    0.000    3.000    0.000    5.250 
#    0.000    0.000    0.000    0.000    0.000    0.000 
#
# Total GULP energy -357172.691453 kJ/mol
# GULP energy per Si atom -5580.823304 kJ/mol
# Density = 2.088331 g / cm^3
# Si number density = 20.930945 Si / 1000 Ang^3
#
#
#
# Elastic Constant Matrix: (Units=GPa)
#
#
# Indices 1 2 3 4 5 6 
#
# 1 25.9933 -7.6440 5.1096 0.0000 0.0000 0.0000
# 2 -7.6440 176.4478 115.5692 0.0000 0.0000 0.0000
# 3 5.1096 115.5692 187.4068 0.0000 0.0000 0.0000
# 4 0.0000 0.0000 0.0000 22.9654 0.0000 0.0000
# 5 0.0000 0.0000 0.0000 0.0000 2.5826 0.0000
# 6 0.0000 0.0000 0.0000 0.0000 0.0000 -35.5097
#
#
#
# Elastic Compliance Matrix: (Units=1/GPa)
#
#
# Indices 1 2 3 4 5 6 
#
# 1 0.040411 0.004148 -0.003659 0.000000 0.000000 0.000000
# 2 0.004148 0.009933 -0.006239 0.000000 0.000000 0.000000
# 3 -0.003659 -0.006239 0.009283 0.000000 0.000000 0.000000
# 4 0.000000 0.000000 0.000000 0.043544 0.000000 0.000000
# 5 0.000000 0.000000 0.000000 0.000000 0.387209 0.000000
# 6 0.000000 0.000000 0.000000 0.000000 0.000000 -0.028161
#
#
# Mechanical properties :
#
#
# Convention : Reuss Voigt Hill
#
# Bulk Modulus (GPa) = 20.77900 68.43529 44.60714
# Shear Modulus (GPa) = 10.20905 16.46186 13.33545
#
# Velocity S-wave (km/s) = 2.21090 2.80748 2.52686
# Velocity P-wave (km/s) = 4.05788 6.57845 5.46545
#
# Compressibility (1/GPa) = 0.04812552
#
# Stress axis : x y z
#
# Youngs Moduli (GPa) = 24.74603 100.67177 107.72368
#
# Poissons Ratio (x) = -0.41754 0.39421
# Poissons Ratio (y) = -0.10263 0.67205
# Poissons Ratio (z) = 0.09056 0.62806
#
# Static dielectric constant tensor:
#      x y z
#    x 1.750460 0.000000 0.000000 
#    y 0.000000 1.702020 0.000000 
#    z 0.000000 0.000000 1.782110 
# 
# From -- ./inp_files/14203.got.cif
#   From: 2010.05.17/outbox.cif.g08.bks.cpg/sg49_8_cif.got.tgz:14203.got - 2010.06.03 21:02:19.
