data_PCOD9393336
_publ_section_title
;
Structure prediction by ZEFSAII (Michael W. Deem and Ramdas Pophale) SiO2 
 PCOD9393336
Probable space group: P C C M
;
_chemical_formula_sum "Si O2"
_cell_formula_units_Z 64
_cell_length_a 11.420850
_cell_length_b 8.098283
_cell_length_c 32.120379
_cell_angle_alpha 90.000000
_cell_angle_beta 90.000000
_cell_angle_gamma 90.000000
_cell_volume 2970.790579
_symmetry_space_group_name_H-M "P C C M"
_symmetry_group_IT_number 49
_symmetry_cell_setting 'orthorhombic'
loop_
_space_group_symop_operation_xyz
x,y,z
-x,-y,z
x,-y,1/2-z
-x,y,1/2-z
-x,-y,-z
x,y,-z
-x,y,1/2+z
x,-y,1/2+z
loop_
_atom_site_type_symbol
_atom_site_label
_atom_site_fract_x
_atom_site_fract_y
_atom_site_fract_z
Si Si1 0.023629 0.195830 0.454336
Si Si2 0.371709 0.696777 0.761240
Si Si3 0.743968 0.645491 0.343812
Si Si4 0.714533 0.790655 0.572032
Si Si5 0.622974 0.094118 0.616444
Si Si6 0.771748 0.264026 0.315583
Si Si7 0.000514 0.301541 0.138660
Si Si8 0.528837 0.307649 0.455316
O O1 0.981897 0.258661 0.500000
O O2 0.163095 0.230729 0.450878
O O3 0.975833 0.262421 0.410074
O O4 0.000000 0.000000 0.454016
O O5 0.376756 0.500000 0.750000
O O6 0.500000 0.763986 0.750000
O O7 0.341457 0.722332 0.809483
O O8 0.265491 0.758253 0.732154
O O9 0.698923 0.656943 0.390907
O O10 0.759016 0.457494 0.328596
O O11 0.868592 0.739358 0.347066
O O12 0.597110 0.782474 0.545529
O O13 0.711737 0.965709 0.595340
O O14 0.677415 0.164790 0.657880
O O15 0.600231 0.238819 0.583298
O O16 0.500000 0.000000 0.622785
O O17 0.901809 0.223764 0.331542
O O18 0.000000 0.500000 0.142107
O O19 0.500000 0.500000 0.452241
O O20 0.587522 0.275712 0.500000
#
# Coordination Sequence:
#
# PCOD9393336 Si02
#       8
#     8   8   8   8   8   8   8   8
#     4  10  20  34  54  79 105 143 186 225 272 327
#     4   9  19  32  54  85 111 143 184 228 279 334
#     4   9  19  35  57  83 108 144 187 228 279 335
#     4  10  20  35  55  76 110 142 181 228 275 330
#     4  10  22  34  52  79 107 145 184 221 278 329
#     4  10  19  36  56  78 113 146 183 230 281 332
#     4   9  19  35  56  82 110 144 184 231 282 330
#     4  10  21  36  54  77 105 141 183 224 272 330
#
# _framework density 21.543085999999999
#
# number of rings (size 3 to 8) (size 9 to 14) (size 15 to 20)
#    0.000    2.375    0.000    1.875    3.500    3.500 
#    0.000    3.750    0.000    0.000    0.000    2.625 
#    0.000    0.000    0.000    0.000    0.000    0.000 
#
# Total GULP energy -357051.441579 kJ/mol
# GULP energy per Si atom -5578.928775 kJ/mol
# Density = 2.149405 g / cm^3
# Si number density = 21.543086 Si / 1000 Ang^3
#
#
#
# Elastic Constant Matrix: (Units=GPa)
#
#
# Indices 1 2 3 4 5 6 
#
# 1 65.1810 -1.0804 31.5040 0.0000 0.0000 0.0000
# 2 -1.0804 28.4202 1.1298 0.0000 0.0000 0.0000
# 3 31.5040 1.1298 76.9758 0.0000 0.0000 0.0000
# 4 0.0000 0.0000 0.0000 57.2970 0.0000 0.0000
# 5 0.0000 0.0000 0.0000 0.0000 23.2770 0.0000
# 6 0.0000 0.0000 0.0000 0.0000 0.0000 15.7047
#
#
#
# Elastic Compliance Matrix: (Units=1/GPa)
#
#
# Indices 1 2 3 4 5 6 
#
# 1 0.019156 0.001040 -0.007855 0.000000 0.000000 0.000000
# 2 0.001040 0.035263 -0.000943 0.000000 0.000000 0.000000
# 3 -0.007855 -0.000943 0.016220 0.000000 0.000000 0.000000
# 4 0.000000 0.000000 0.000000 0.017453 0.000000 0.000000
# 5 0.000000 0.000000 0.000000 0.000000 0.042961 0.000000
# 6 0.000000 0.000000 0.000000 0.000000 0.000000 0.063675
#
#
# Mechanical properties :
#
#
# Convention : Reuss Voigt Hill
#
# Bulk Modulus (GPa) = 18.14137 25.96488 22.05313
# Shear Modulus (GPa) = 21.87054 28.52401 25.19727
#
# Velocity S-wave (km/s) = 3.18968 3.64269 3.42368
# Velocity P-wave (km/s) = 4.69091 5.45628 5.08801
#
# Compressibility (1/GPa) = 0.05512263
#
# Stress axis : x y z
#
# Youngs Moduli (GPa) = 52.20357 28.35812 61.65289
#
# Poissons Ratio (x) = -0.02951 0.48429
# Poissons Ratio (y) = -0.05432 0.05816
# Poissons Ratio (z) = 0.41007 0.02675
#
# Static dielectric constant tensor:
#      x y z
#    x 1.812920 0.000000 0.000000 
#    y 0.000000 1.806030 0.000000 
#    z 0.000000 0.000000 1.781660 
# 
# From -- ./inp_files/26673.got.cif
#   From: 2010.05.17/outbox.cif.g08.bks.cpg/sg49_14_cif.got.tgz:26673.got - 2010.06.03 21:02:19.
