data_PCOD9393996
_publ_section_title
;
Structure prediction by ZEFSAII (Michael W. Deem and Ramdas Pophale) SiO2 
 PCOD9393996
Probable space group: P C C M
;
_chemical_formula_sum "Si O2"
_cell_formula_units_Z 48
_cell_length_a 30.278887
_cell_length_b 8.757308
_cell_length_c 9.351318
_cell_angle_alpha 90.000000
_cell_angle_beta 90.000000
_cell_angle_gamma 90.000000
_cell_volume 2479.609876
_symmetry_space_group_name_H-M "P C C M"
_symmetry_group_IT_number 49
_symmetry_cell_setting 'orthorhombic'
loop_
_space_group_symop_operation_xyz
x,y,z
-x,-y,z
x,-y,1/2-z
-x,y,1/2-z
-x,-y,-z
x,y,-z
-x,y,1/2+z
x,-y,1/2+z
loop_
_atom_site_type_symbol
_atom_site_label
_atom_site_fract_x
_atom_site_fract_y
_atom_site_fract_z
Si Si1 0.188655 0.652208 0.336288
Si Si2 0.961809 0.293864 0.500000
Si Si3 0.638216 0.161085 0.169105
Si Si4 0.457725 0.167253 0.672874
Si Si5 0.899508 0.179379 0.729525
Si Si6 0.735581 0.165287 0.827552
Si Si7 0.934410 0.645204 0.500000
O O1 0.177288 0.500000 0.250000
O O2 0.202010 0.620038 0.500000
O O3 0.145269 0.757165 0.338354
O O4 0.227307 0.734324 0.247793
O O5 0.942607 0.206038 0.634325
O O6 0.938768 0.461858 0.500000
O O7 0.014183 0.305717 0.500000
O O8 0.590888 0.238584 0.200402
O O9 0.686135 0.233108 0.197774
O O10 0.638678 0.000000 0.250000
O O11 0.637340 0.128361 0.000000
O O12 0.500000 0.242444 0.750000
O O13 0.464183 0.154135 0.500000
O O14 0.455163 0.000000 0.750000
O O15 0.894047 0.000000 0.750000
O O16 0.909247 0.282331 0.867095
O O17 0.737039 0.000000 0.750000
O O18 0.742266 0.151270 0.000000
#
# Coordination Sequence:
#
# PCOD9393996 Si02
#       7
#     8   4   8   8   8   8   4
#     4  12  26  44  65  88 119 155 199 247 307 374
#     4  11  23  47  63  99 127 171 209 245 298 361
#     4   8  15  26  41  64  96 137 181 230 285 343
#     4   9  14  20  31  52  86 129 178 225 275 335
#     4  12  26  42  66  96 128 161 205 254 303 357
#     4  10  20  36  59  85 116 152 195 245 300 358
#     4  11  25  41  73  91 131 169 207 249 298 357
#
# _framework density 19.357885
#
# number of rings (size 3 to 8) (size 9 to 14) (size 15 to 20)
#    0.000    1.667    0.833    5.000    2.333    4.667 
#    0.000    0.000    0.000    0.000    0.000    0.000 
#    0.000    0.667    0.000    7.667    0.000    4.500 
#
# Total GULP energy -267570.122155 kJ/mol
# GULP energy per Si atom -5574.377545 kJ/mol
# Density = 1.931383 g / cm^3
# Si number density = 19.357885 Si / 1000 Ang^3
#
#
#
# Elastic Constant Matrix: (Units=GPa)
#
#
# Indices 1 2 3 4 5 6 
#
# 1 126.8088 37.6899 39.0654 0.0000 0.0000 0.0000
# 2 37.6899 69.8463 19.4827 0.0000 0.0000 0.0000
# 3 39.0654 19.4827 109.8919 0.0000 0.0000 0.0000
# 4 0.0000 0.0000 0.0000 12.2896 0.0000 0.0000
# 5 0.0000 0.0000 0.0000 0.0000 -194.8723 0.0000
# 6 0.0000 0.0000 0.0000 0.0000 0.0000 -15.6784
#
#
#
# Elastic Compliance Matrix: (Units=1/GPa)
#
#
# Indices 1 2 3 4 5 6 
#
# 1 0.010135 -0.004696 -0.002770 0.000000 0.000000 0.000000
# 2 -0.004696 0.017238 -0.001387 0.000000 0.000000 0.000000
# 3 -0.002770 -0.001387 0.010331 0.000000 0.000000 0.000000
# 4 0.000000 0.000000 0.000000 0.081369 0.000000 0.000000
# 5 0.000000 0.000000 0.000000 0.000000 -0.005132 0.000000
# 6 0.000000 0.000000 0.000000 0.000000 0.000000 -0.063782
#
#
# Mechanical properties :
#
#
# Convention : Reuss Voigt Hill
#
# Bulk Modulus (GPa) = 50.00696 55.44697 52.72696
# Shear Modulus (GPa) = 67.08538 -25.63161 20.72689
#
# Velocity S-wave (km/s) = 5.89326 -3.64275 3.27574
# Velocity P-wave (km/s) = 8.49684 3.31849 6.45015
#
# Compressibility (1/GPa) = 0.01999722
#
# Stress axis : x y z
#
# Youngs Moduli (GPa) = 98.66644 58.01096 96.80058
#
# Poissons Ratio (x) = 0.27244 0.26817
# Poissons Ratio (y) = 0.46337 0.13423
# Poissons Ratio (z) = 0.27334 0.08044
#
# Static dielectric constant tensor:
#      x y z
#    x 1.723790 0.000000 0.000000 
#    y 0.000000 1.641170 0.000000 
#    z 0.000000 0.000000 1.654750 
# 
# From -- ./inp_files/6923.got.cif
#   From: 2010.05.17/outbox.cif.g08.bks.cpg/sg49_4_cif.got.tgz:6923.got - 2010.06.03 21:02:19.
