data_PCOD9393061
_publ_section_title
;
Structure prediction by ZEFSAII (Michael W. Deem and Ramdas Pophale) SiO2 
 PCOD9393061
Probable space group: P C C M
;
_chemical_formula_sum "Si O2"
_cell_formula_units_Z 48
_cell_length_a 16.101408
_cell_length_b 8.916310
_cell_length_c 15.468674
_cell_angle_alpha 90.000000
_cell_angle_beta 90.000000
_cell_angle_gamma 90.000000
_cell_volume 2220.762428
_symmetry_space_group_name_H-M "P C C M"
_symmetry_group_IT_number 49
_symmetry_cell_setting 'orthorhombic'
loop_
_space_group_symop_operation_xyz
x,y,z
-x,-y,z
x,-y,1/2-z
-x,y,1/2-z
-x,-y,-z
x,y,-z
-x,y,1/2+z
x,-y,1/2+z
loop_
_atom_site_type_symbol
_atom_site_label
_atom_site_fract_x
_atom_site_fract_y
_atom_site_fract_z
Si Si1 0.328630 0.854251 0.353847
Si Si2 0.622379 0.825505 0.347516
Si Si3 0.240660 0.605258 0.831758
Si Si4 0.530247 0.341087 0.399766
Si Si5 0.084172 0.440768 0.150083
Si Si6 0.849727 0.157440 0.710827
O O1 0.354565 0.842916 0.253082
O O2 0.374537 0.710374 0.393143
O O3 0.229510 0.860706 0.352103
O O4 0.359462 0.013763 0.389647
O O5 0.681470 0.686382 0.376939
O O6 0.527041 0.783714 0.356379
O O7 0.268712 0.500000 0.750000
O O8 0.172580 0.505507 0.882716
O O9 0.187736 0.742447 0.789586
O O10 0.500000 0.500000 0.362638
O O11 0.507075 0.341158 0.500000
O O12 0.083682 0.500000 0.250000
O O13 0.085621 0.262008 0.160903
O O14 0.000000 0.500000 0.108395
O O15 0.877310 0.000000 0.750000
#
# Coordination Sequence:
#
# PCOD9393061 Si02
#       6
#     8   8   8   8   8   8
#     4  10  19  34  53  76  97 129 178 219 253 308
#     4  10  19  33  54  74  97 129 177 218 254 306
#     4   8  15  25  44  67  96 126 164 203 240 296
#     4  11  26  38  47  70 103 134 172 220 271 317
#     4   8  15  25  39  64 102 138 166 187 244 308
#     4   9  14  27  46  69  98 124 169 213 243 284
#
# _framework density 21.614198999999999
#
# number of rings (size 3 to 8) (size 9 to 14) (size 15 to 20)
#    0.000    3.000    3.333    1.000    7.000    3.333 
#    0.000    6.667    0.000    0.000    0.000    0.000 
#    0.000    2.667    0.000    3.000    0.000    0.833 
#
# Total GULP energy -267318.204826 kJ/mol
# GULP energy per Si atom -5569.129267 kJ/mol
# Density = 2.156500 g / cm^3
# Si number density = 21.614199 Si / 1000 Ang^3
#
#
#
# Elastic Constant Matrix: (Units=GPa)
#
#
# Indices 1 2 3 4 5 6 
#
# 1 91.8117 40.4666 0.9038 0.0000 0.0000 0.0000
# 2 40.4666 155.6415 1.4167 0.0000 0.0000 0.0000
# 3 0.9038 1.4167 23.8605 0.0000 0.0000 0.0000
# 4 0.0000 0.0000 0.0000 -9.8378 0.0000 0.0000
# 5 0.0000 0.0000 0.0000 0.0000 0.4786 0.0000
# 6 0.0000 0.0000 0.0000 0.0000 0.0000 29.0223
#
#
#
# Elastic Compliance Matrix: (Units=1/GPa)
#
#
# Indices 1 2 3 4 5 6 
#
# 1 0.012303 -0.003196 -0.000276 0.000000 0.000000 0.000000
# 2 -0.003196 0.007259 -0.000310 0.000000 0.000000 0.000000
# 3 -0.000276 -0.000310 0.041939 0.000000 0.000000 0.000000
# 4 0.000000 0.000000 0.000000 -0.101649 0.000000 0.000000
# 5 0.000000 0.000000 0.000000 0.000000 2.089331 0.000000
# 6 0.000000 0.000000 0.000000 0.000000 0.000000 0.034456
#
#
# Mechanical properties :
#
#
# Convention : Reuss Voigt Hill
#
# Bulk Modulus (GPa) = 18.54037 39.65421 29.09729
# Shear Modulus (GPa) = 2.37059 19.16773 10.76916
#
# Velocity S-wave (km/s) = 1.04841 2.98117 2.23456
# Velocity P-wave (km/s) = 3.17207 5.49873 4.48877
#
# Compressibility (1/GPa) = 0.05393635
#
# Stress axis : x y z
#
# Youngs Moduli (GPa) = 81.27836 137.76206 23.84409
#
# Poissons Ratio (x) = 0.44034 0.00659
# Poissons Ratio (y) = 0.25979 0.00739
# Poissons Ratio (z) = 0.02245 0.04270
#
# Static dielectric constant tensor:
#      x y z
#    x 1.891690 0.000000 0.000000 
#    y 0.000000 1.877430 0.000000 
#    z 0.000000 0.000000 1.814870 
# 
# From -- ./inp_files/20996.got.cif
#   From: 2010.05.17/outbox.cif.g08.bks.cpg/sg49_11_cif.got.tgz:20996.got - 2010.06.03 21:02:19.
