data_PCOD9393240
_publ_section_title
;
Structure prediction by ZEFSAII (Michael W. Deem and Ramdas Pophale) SiO2 
 PCOD9393240
Probable space group: P C C M
;
_chemical_formula_sum "Si O2"
_cell_formula_units_Z 28
_cell_length_a 5.195122
_cell_length_b 8.006922
_cell_length_c 31.501774
_cell_angle_alpha 90.000000
_cell_angle_beta 90.000000
_cell_angle_gamma 90.000000
_cell_volume 1310.377297
_symmetry_space_group_name_H-M "P C C M"
_symmetry_group_IT_number 49
_symmetry_cell_setting 'orthorhombic'
loop_
_space_group_symop_operation_xyz
x,y,z
-x,-y,z
x,-y,1/2-z
-x,y,1/2-z
-x,-y,-z
x,y,-z
-x,y,1/2+z
x,-y,1/2+z
loop_
_atom_site_type_symbol
_atom_site_label
_atom_site_fract_x
_atom_site_fract_y
_atom_site_fract_z
Si Si1 0.752269 0.309370 0.230873
Si Si2 0.129142 0.321416 0.631829
Si Si3 0.368051 0.182907 0.092265
Si Si4 0.749600 0.882106 0.000000
O O1 0.751400 0.500000 0.250000
O O2 0.500000 0.228874 0.250000
O O3 0.778296 0.313383 0.180592
O O4 0.000000 0.223609 0.250000
O O5 0.389607 0.296870 0.605102
O O6 0.000000 0.500000 0.624228
O O7 0.888715 0.199237 0.620978
O O8 0.269261 0.214985 0.044311
O O9 0.500000 0.000000 0.094935
O O10 0.500000 0.000000 0.000000
O O11 0.000000 0.000000 0.000000
#
# Coordination Sequence:
#
# PCOD9393240 Si02
#       4
#     8   8   8   4
#     4  10  19  34  59  90 118 162 220 253 291 382
#     4  12  23  39  65 103 129 163 221 274 320 375
#     4  11  24  42  66  95 132 171 217 264 324 386
#     4  10  20  42  69  90 121 182 229 242 301 422
#
# _framework density 21.367892999999999
#
# number of rings (size 3 to 8) (size 9 to 14) (size 15 to 20)
#    0.000    1.143    2.857    6.857    4.000    0.000 
#    0.000    4.286    0.000   12.857    0.000    0.000 
#    0.000    0.000    0.000    0.000    0.000    0.000 
#
# Total GULP energy -156237.929059 kJ/mol
# GULP energy per Si atom -5579.926038 kJ/mol
# Density = 2.131926 g / cm^3
# Si number density = 21.367893 Si / 1000 Ang^3
#
#
#
# Elastic Constant Matrix: (Units=GPa)
#
#
# Indices 1 2 3 4 5 6 
#
# 1 234.3031 31.2657 94.7480 0.0000 0.0000 0.0000
# 2 31.2657 44.3262 42.7917 0.0000 0.0000 0.0000
# 3 94.7480 42.7917 179.9550 0.0000 0.0000 0.0000
# 4 0.0000 0.0000 0.0000 30.5776 0.0000 0.0000
# 5 0.0000 0.0000 0.0000 0.0000 48.5284 0.0000
# 6 0.0000 0.0000 0.0000 0.0000 0.0000 1.8229
#
#
#
# Elastic Compliance Matrix: (Units=1/GPa)
#
#
# Indices 1 2 3 4 5 6 
#
# 1 0.005489 -0.001404 -0.002556 0.000000 0.000000 0.000000
# 2 -0.001404 0.029641 -0.006309 0.000000 0.000000 0.000000
# 3 -0.002556 -0.006309 0.008403 0.000000 0.000000 0.000000
# 4 0.000000 0.000000 0.000000 0.032704 0.000000 0.000000
# 5 0.000000 0.000000 0.000000 0.000000 0.020606 0.000000
# 6 0.000000 0.000000 0.000000 0.000000 0.000000 0.548565
#
#
# Mechanical properties :
#
#
# Convention : Reuss Voigt Hill
#
# Bulk Modulus (GPa) = 43.48867 88.46613 65.97740
# Shear Modulus (GPa) = 7.42267 35.50437 21.46352
#
# Velocity S-wave (km/s) = 1.86582 4.08067 3.17278
# Velocity P-wave (km/s) = 5.00382 7.98084 6.66078
#
# Compressibility (1/GPa) = 0.02299449
#
# Stress axis : x y z
#
# Youngs Moduli (GPa) = 182.18284 33.73689 119.00460
#
# Poissons Ratio (x) = 0.04737 0.30419
# Poissons Ratio (y) = 0.25579 0.75082
# Poissons Ratio (z) = 0.46568 0.21285
#
# Static dielectric constant tensor:
#      x y z
#    x 1.805510 0.000000 0.000000 
#    y 0.000000 1.800460 0.000000 
#    z 0.000000 0.000000 1.800380 
# 
# From -- ./inp_files/23636.got.cif
#   From: 2010.05.17/outbox.cif.g08.bks.cpg/sg49_12_cif.got.tgz:23636.got - 2010.06.03 21:02:19.
