data_PCOD9393673
_publ_section_title
;
Structure prediction by ZEFSAII (Michael W. Deem and Ramdas Pophale) SiO2 
 PCOD9393673
Probable space group: P C C M
;
_chemical_formula_sum "Si O2"
_cell_formula_units_Z 64
_cell_length_a 15.334988
_cell_length_b 25.189216
_cell_length_c 8.861075
_cell_angle_alpha 90.000000
_cell_angle_beta 90.000000
_cell_angle_gamma 90.000000
_cell_volume 3422.823487
_symmetry_space_group_name_H-M "P C C M"
_symmetry_group_IT_number 49
_symmetry_cell_setting 'orthorhombic'
loop_
_space_group_symop_operation_xyz
x,y,z
-x,-y,z
x,-y,1/2-z
-x,y,1/2-z
-x,-y,-z
x,y,-z
-x,y,1/2+z
x,-y,1/2+z
loop_
_atom_site_type_symbol
_atom_site_label
_atom_site_fract_x
_atom_site_fract_y
_atom_site_fract_z
Si Si1 0.721791 0.142856 0.819207
Si Si2 0.908844 0.183689 0.819005
Si Si3 0.587049 0.763879 0.678651
Si Si4 0.846614 0.300613 0.177243
Si Si5 0.284007 0.555078 0.181833
Si Si6 0.088798 0.582556 0.175105
Si Si7 0.592805 0.941525 0.819206
Si Si8 0.331916 0.663778 0.678259
O O1 0.822079 0.151678 0.772909
O O2 0.669057 0.197638 0.793464
O O3 0.669681 0.097333 0.732833
O O4 0.718995 0.132655 0.000000
O O5 0.892092 0.245737 0.779906
O O6 0.000000 0.165688 0.750000
O O7 0.914255 0.180983 0.000000
O O8 0.500000 0.788133 0.750000
O O9 0.577073 0.758107 0.500000
O O10 0.602860 0.707067 0.754533
O O11 0.905124 0.353277 0.186842
O O12 0.762988 0.312566 0.278619
O O13 0.818274 0.296131 0.000000
O O14 0.316669 0.500000 0.250000
O O15 0.182360 0.562194 0.233645
O O16 0.334602 0.606433 0.242714
O O17 0.285254 0.555005 0.000000
O O18 0.000000 0.563891 0.250000
O O19 0.085277 0.568313 0.000000
O O20 0.500000 0.923108 0.750000
O O21 0.607699 0.000000 0.750000
O O22 0.586321 0.944127 0.000000
O O23 0.341857 0.658549 0.500000
#
# Coordination Sequence:
#
# PCOD9393673 Si02
#       8
#     8   8   8   8   8   8   8   8
#     4  10  21  38  59  85 123 163 199 243 294 341
#     4  10  20  34  53  79 114 157 200 245 293 342
#     4  11  22  38  59  86 121 155 188 229 284 346
#     4   9  17  33  50  70 103 145 186 230 283 331
#     4  10  21  37  54  73  98 133 177 227 281 339
#     4   9  18  29  45  67  97 131 171 220 276 335
#     4  11  22  38  62  91 124 160 202 245 293 350
#     4  11  21  34  55  81 108 142 183 226 278 340
#
# _framework density 18.698013
#
# number of rings (size 3 to 8) (size 9 to 14) (size 15 to 20)
#    0.000    1.875    1.250    4.875    0.000    5.750 
#    0.000    1.250    0.000    0.750    0.000    5.250 
#    0.000    0.000    0.000    0.000    0.000    0.000 
#
# Total GULP energy -357387.041641 kJ/mol
# GULP energy per Si atom -5584.172526 kJ/mol
# Density = 1.865546 g / cm^3
# Si number density = 18.698013 Si / 1000 Ang^3
#
#
#
# Elastic Constant Matrix: (Units=GPa)
#
#
# Indices 1 2 3 4 5 6 
#
# 1 99.7949 45.5321 46.1191 0.0000 0.0000 0.0000
# 2 45.5321 100.1688 49.2455 0.0000 0.0000 0.0000
# 3 46.1191 49.2455 82.7121 0.0000 0.0000 0.0000
# 4 0.0000 0.0000 0.0000 -13.3262 0.0000 0.0000
# 5 0.0000 0.0000 0.0000 0.0000 27.1686 0.0000
# 6 0.0000 0.0000 0.0000 0.0000 0.0000 4.4342
#
#
#
# Elastic Compliance Matrix: (Units=1/GPa)
#
#
# Indices 1 2 3 4 5 6 
#
# 1 0.014395 -0.003672 -0.005840 0.000000 0.000000 0.000000
# 2 -0.003672 0.015051 -0.006914 0.000000 0.000000 0.000000
# 3 -0.005840 -0.006914 0.019463 0.000000 0.000000 0.000000
# 4 0.000000 0.000000 0.000000 -0.075040 0.000000 0.000000
# 5 0.000000 0.000000 0.000000 0.000000 0.036807 0.000000
# 6 0.000000 0.000000 0.000000 0.000000 0.000000 0.225519
#
#
# Mechanical properties :
#
#
# Convention : Reuss Voigt Hill
#
# Bulk Modulus (GPa) = 62.27782 62.71879 62.49830
# Shear Modulus (GPa) = 18.22157 13.10724 15.66441
#
# Velocity S-wave (km/s) = 3.12512 2.65051 2.89754
# Velocity P-wave (km/s) = 6.81185 6.55612 6.68521
#
# Compressibility (1/GPa) = 0.01605708
#
# Stress axis : x y z
#
# Youngs Moduli (GPa) = 69.46896 66.43928 51.37991
#
# Poissons Ratio (x) = 0.24397 0.30006
# Poissons Ratio (y) = 0.25510 0.35523
# Poissons Ratio (z) = 0.40570 0.45935
#
# Static dielectric constant tensor:
#      x y z
#    x 1.668370 0.000000 0.000000 
#    y 0.000000 1.648920 0.000000 
#    z 0.000000 0.000000 1.630480 
# 
# From -- ./inp_files/4311.got.cif
#   From: 2010.05.17/outbox.cif.g08.bks.cpg/sg49_3_cif.got.tgz:4311.got - 2010.06.03 21:02:19.
