data_PCOD9393112
_publ_section_title
;
Structure prediction by ZEFSAII (Michael W. Deem and Ramdas Pophale) SiO2 
 PCOD9393112
Probable space group: P C C M
;
_chemical_formula_sum "Si O2"
_cell_formula_units_Z 64
_cell_length_a 18.407473
_cell_length_b 17.463936
_cell_length_c 9.758110
_cell_angle_alpha 90.000000
_cell_angle_beta 90.000000
_cell_angle_gamma 90.000000
_cell_volume 3136.909668
_symmetry_space_group_name_H-M "P C C M"
_symmetry_group_IT_number 49
_symmetry_cell_setting 'orthorhombic'
loop_
_space_group_symop_operation_xyz
x,y,z
-x,-y,z
x,-y,1/2-z
-x,y,1/2-z
-x,-y,-z
x,y,-z
-x,y,1/2+z
x,-y,1/2+z
loop_
_atom_site_type_symbol
_atom_site_label
_atom_site_fract_x
_atom_site_fract_y
_atom_site_fract_z
Si Si1 0.062739 0.784319 0.648619
Si Si2 0.933466 0.400922 0.345850
Si Si3 0.803628 0.393108 0.149804
Si Si4 0.376015 0.272548 0.161177
Si Si5 0.722876 0.935995 0.649590
Si Si6 0.434373 0.870415 0.837181
Si Si7 0.779410 0.775910 0.256061
Si Si8 0.633749 0.574258 0.663098
O O1 0.044772 0.814715 0.500000
O O2 0.060589 0.691534 0.645794
O O3 0.146372 0.799811 0.682942
O O4 0.000000 0.810613 0.750000
O O5 0.936542 0.430990 0.500000
O O6 0.857288 0.416573 0.270986
O O7 0.000000 0.423572 0.250000
O O8 0.796894 0.300462 0.157735
O O9 0.722154 0.424568 0.161908
O O10 0.833601 0.413562 0.000000
O O11 0.414707 0.206715 0.251286
O O12 0.289855 0.250694 0.165609
O O13 0.387117 0.350767 0.247631
O O14 0.397879 0.277025 0.000000
O O15 0.736472 0.966405 0.500000
O O16 0.636896 0.922674 0.668659
O O17 0.754367 0.850872 0.663891
O O18 0.751546 0.000000 0.750000
O O19 0.500000 0.904921 0.750000
O O20 0.449830 0.856399 0.000000
O O21 0.609466 0.500000 0.750000
O O22 0.612030 0.575932 0.500000
#
# Coordination Sequence:
#
# PCOD9393112 Si02
#       8
#     8   8   8   8   8   8   8   8
#     4   9  17  27  42  68  98 129 166 212 265 319
#     4   9  16  25  39  61  90 121 157 202 255 313
#     4   9  17  29  47  69  94 125 164 210 261 312
#     4  10  19  33  56  83 109 141 180 222 267 315
#     4  10  22  37  55  80 110 144 181 219 262 312
#     4  10  21  38  59  85 115 146 180 217 258 307
#     4   9  18  32  52  75 102 136 177 222 267 319
#     4  10  20  33  50  74 105 139 174 216 262 310
#
# _framework density 20.402245000000001
#
# number of rings (size 3 to 8) (size 9 to 14) (size 15 to 20)
#    0.000    2.500    0.000    2.250    0.000   13.250 
#    0.000    1.250    0.000    1.125    0.000    7.000 
#    0.000    0.000    0.000    0.000    0.000    0.000 
#
# Total GULP energy -356875.488551 kJ/mol
# GULP energy per Si atom -5576.179509 kJ/mol
# Density = 2.035581 g / cm^3
# Si number density = 20.402245 Si / 1000 Ang^3
#
#
#
# Elastic Constant Matrix: (Units=GPa)
#
#
# Indices 1 2 3 4 5 6 
#
# 1 42.4866 3.2966 25.2733 0.0000 0.0000 0.0000
# 2 3.2966 71.3291 40.3883 0.0000 0.0000 0.0000
# 3 25.2733 40.3883 172.2272 0.0000 0.0000 0.0000
# 4 0.0000 0.0000 0.0000 -13.7650 0.0000 0.0000
# 5 0.0000 0.0000 0.0000 0.0000 7.5211 0.0000
# 6 0.0000 0.0000 0.0000 0.0000 0.0000 -9.8854
#
#
#
# Elastic Compliance Matrix: (Units=1/GPa)
#
#
# Indices 1 2 3 4 5 6 
#
# 1 0.025862 0.001100 -0.004053 0.000000 0.000000 0.000000
# 2 0.001100 0.016213 -0.003963 0.000000 0.000000 0.000000
# 3 -0.004053 -0.003963 0.007330 0.000000 0.000000 0.000000
# 4 0.000000 0.000000 0.000000 -0.072648 0.000000 0.000000
# 5 0.000000 0.000000 0.000000 0.000000 0.132960 0.000000
# 6 0.000000 0.000000 0.000000 0.000000 0.000000 -0.101159
#
#
# Mechanical properties :
#
#
# Convention : Reuss Voigt Hill
#
# Bulk Modulus (GPa) = 28.11179 47.10660 37.60919
# Shear Modulus (GPa) = 145.98768 11.24645 78.61706
#
# Velocity S-wave (km/s) = 8.46818 2.35039 6.21427
# Velocity P-wave (km/s) = 10.46050 5.52312 8.36442
#
# Compressibility (1/GPa) = 0.03557227
#
# Stress axis : x y z
#
# Youngs Moduli (GPa) = 38.66607 61.67944 136.41682
#
# Poissons Ratio (x) = -0.06782 0.55290
# Poissons Ratio (y) = -0.04252 0.54067
# Poissons Ratio (z) = 0.15671 0.24446
#
# Static dielectric constant tensor:
#      x y z
#    x 1.747070 0.000000 0.000000 
#    y 0.000000 1.704320 0.000000 
#    z 0.000000 0.000000 1.723010 
# 
# From -- ./inp_files/5935.got.cif
#   From: 2010.05.17/outbox.cif.g08.bks.cpg/sg49_3_cif.got.tgz:5935.got - 2010.06.03 21:02:19.
