data_PCOD9393877
_publ_section_title
;
Structure prediction by ZEFSAII (Michael W. Deem and Ramdas Pophale) SiO2 
 PCOD9393877
Probable space group: P C C M
;
_chemical_formula_sum "Si O2"
_cell_formula_units_Z 48
_cell_length_a 15.080068
_cell_length_b 19.234419
_cell_length_c 8.448733
_cell_angle_alpha 90.000000
_cell_angle_beta 90.000000
_cell_angle_gamma 90.000000
_cell_volume 2450.608626
_symmetry_space_group_name_H-M "P C C M"
_symmetry_group_IT_number 49
_symmetry_cell_setting 'orthorhombic'
loop_
_space_group_symop_operation_xyz
x,y,z
-x,-y,z
x,-y,1/2-z
-x,y,1/2-z
-x,-y,-z
x,y,-z
-x,y,1/2+z
x,-y,1/2+z
loop_
_atom_site_type_symbol
_atom_site_label
_atom_site_fract_x
_atom_site_fract_y
_atom_site_fract_z
Si Si1 0.097168 0.272552 0.688717
Si Si2 0.164519 0.426470 0.691969
Si Si3 0.365732 0.573967 0.687176
Si Si4 0.401621 0.921977 0.188035
Si Si5 0.407863 0.716342 0.817087
Si Si6 0.263492 0.809782 0.316829
O O1 0.099180 0.271413 0.500000
O O2 0.118242 0.353209 0.735137
O O3 0.170822 0.217643 0.747442
O O4 0.000000 0.254385 0.750000
O O5 0.122846 0.500000 0.750000
O O6 0.174699 0.428792 0.500000
O O7 0.260353 0.423808 0.776092
O O8 0.397025 0.500000 0.750000
O O9 0.381754 0.583494 0.500000
O O10 0.406696 0.634223 0.793588
O O11 0.500000 0.901167 0.250000
O O12 0.320919 0.872023 0.239758
O O13 0.385879 0.000000 0.250000
O O14 0.406475 0.922479 0.000000
O O15 0.500000 0.743722 0.750000
O O16 0.328811 0.744823 0.711116
O O17 0.394914 0.735455 0.000000
O O18 0.251878 0.825757 0.500000
#
# Coordination Sequence:
#
# PCOD9393877 Si02
#       6
#     8   8   8   8   8   8
#     4  11  24  41  62  89 121 160 207 261 315 373
#     4  10  20  35  57  82 113 151 199 255 317 374
#     4  11  21  35  55  78 107 148 194 244 302 360
#     4  11  22  40  66 100 138 173 210 250 294 352
#     4  12  24  39  57  83 115 152 199 247 299 360
#     4  12  24  41  64  91 124 164 203 248 306 362
#
# _framework density 19.586970000000001
#
# number of rings (size 3 to 8) (size 9 to 14) (size 15 to 20)
#    0.000    0.833    1.667    9.000    0.000    2.667 
#    0.000    3.333    0.000    0.500    0.000    3.500 
#    0.000    0.000    0.000    0.000    0.000    0.000 
#
# Total GULP energy -268265.249687 kJ/mol
# GULP energy per Si atom -5588.859368 kJ/mol
# Density = 1.954239 g / cm^3
# Si number density = 19.586970 Si / 1000 Ang^3
#
#
#
# Elastic Constant Matrix: (Units=GPa)
#
#
# Indices 1 2 3 4 5 6 
#
# 1 142.3385 55.8954 35.7323 0.0000 0.0000 0.0000
# 2 55.8954 133.2392 32.8767 0.0000 0.0000 0.0000
# 3 35.7323 32.8767 122.2071 0.0000 0.0000 0.0000
# 4 0.0000 0.0000 0.0000 32.1970 0.0000 0.0000
# 5 0.0000 0.0000 0.0000 0.0000 27.6064 0.0000
# 6 0.0000 0.0000 0.0000 0.0000 0.0000 133.3812
#
#
#
# Elastic Compliance Matrix: (Units=1/GPa)
#
#
# Indices 1 2 3 4 5 6 
#
# 1 0.008721 -0.003245 -0.001677 0.000000 0.000000 0.000000
# 2 -0.003245 0.009246 -0.001539 0.000000 0.000000 0.000000
# 3 -0.001677 -0.001539 0.009087 0.000000 0.000000 0.000000
# 4 0.000000 0.000000 0.000000 0.031059 0.000000 0.000000
# 5 0.000000 0.000000 0.000000 0.000000 0.036224 0.000000
# 6 0.000000 0.000000 0.000000 0.000000 0.000000 0.007497
#
#
# Mechanical properties :
#
#
# Convention : Reuss Voigt Hill
#
# Bulk Modulus (GPa) = 70.75508 71.86594 71.31051
# Shear Modulus (GPa) = 41.85320 56.85561 49.35440
#
# Velocity S-wave (km/s) = 4.62756 5.39354 5.02516
# Velocity P-wave (km/s) = 8.04701 8.69237 8.37591
#
# Compressibility (1/GPa) = 0.01413326
#
# Stress axis : x y z
#
# Youngs Moduli (GPa) = 114.67066 108.15328 110.04590
#
# Poissons Ratio (x) = 0.35092 0.18454
# Poissons Ratio (y) = 0.37206 0.16933
# Poissons Ratio (z) = 0.19230 0.16642
#
# Static dielectric constant tensor:
#      x y z
#    x 3.929580 0.000000 0.000000 
#    y 0.000000 1.728240 0.000000 
#    z 0.000000 0.000000 1.657700 
# 
# From -- ./inp_files/3709.got.cif
#   From: 2010.05.17/outbox.cif.g08.bks.cpg/sg49_2_cif.got.tgz:3709.got - 2010.06.03 21:02:19.
