data_PCOD9393480
_publ_section_title
;
Structure prediction by ZEFSAII (Michael W. Deem and Ramdas Pophale) SiO2 
 PCOD9393480
Probable space group: P C C M
;
_chemical_formula_sum "Si O2"
_cell_formula_units_Z 58
_cell_length_a 14.855577
_cell_length_b 25.706193
_cell_length_c 9.084137
_cell_angle_alpha 90.000000
_cell_angle_beta 90.000000
_cell_angle_gamma 90.000000
_cell_volume 3469.053231
_symmetry_space_group_name_H-M "P C C M"
_symmetry_group_IT_number 49
_symmetry_cell_setting 'orthorhombic'
loop_
_space_group_symop_operation_xyz
x,y,z
-x,-y,z
x,-y,1/2-z
-x,y,1/2-z
-x,-y,-z
x,y,-z
-x,y,1/2+z
x,-y,1/2+z
loop_
_atom_site_type_symbol
_atom_site_label
_atom_site_fract_x
_atom_site_fract_y
_atom_site_fract_z
Si Si1 0.098674 0.050244 0.824572
Si Si2 0.098413 0.167465 0.825085
Si Si3 0.776532 0.748532 0.672535
Si Si4 0.500000 0.500000 0.750000
Si Si5 0.912600 0.346160 0.171592
Si Si6 0.348723 0.420661 0.667101
Si Si7 0.166242 0.446782 0.824901
Si Si8 0.405731 0.302609 0.676756
O O1 0.134302 0.108503 0.798796
O O2 0.000000 0.052441 0.750000
O O3 0.144649 0.000000 0.750000
O O4 0.091329 0.042230 0.000000
O O5 0.168526 0.208768 0.761898
O O6 0.000000 0.173224 0.750000
O O7 0.086587 0.173992 0.000000
O O8 0.774106 0.763564 0.500000
O O9 0.831433 0.694497 0.681090
O O10 0.676008 0.734701 0.723811
O O11 0.431819 0.460762 0.668220
O O12 0.886842 0.398242 0.257537
O O13 0.000000 0.322600 0.250000
O O14 0.930315 0.356796 0.000000
O O15 0.311201 0.418199 0.500000
O O16 0.270347 0.438816 0.776048
O O17 0.381155 0.362926 0.709746
O O18 0.134619 0.500000 0.750000
O O19 0.158693 0.449048 0.000000
O O20 0.500000 0.289555 0.750000
O O21 0.412604 0.299519 0.500000
#
# Coordination Sequence:
#
# PCOD9393480 Si02
#       8
#     8   8   8   2   8   8   8   8
#     4   9  16  26  42  67 101 142 184 224 264 306
#     4  10  20  32  49  76 109 145 187 229 266 309
#     4  10  21  37  56  77 106 141 175 217 263 307
#     4  12  22  32  60  86 108 132 162 200 264 320
#     4  11  23  41  60  81 106 133 170 214 258 310
#     4  11  22  37  54  79 108 131 160 201 250 310
#     4  12  25  40  59  79 101 131 164 203 254 308
#     4  10  21  38  56  78 105 135 168 209 257 312
#
# _framework density 16.719259999999998
#
# number of rings (size 3 to 8) (size 9 to 14) (size 15 to 20)
#    0.000    1.517    2.759    3.517    0.000    5.793 
#    0.000    1.379    0.000    0.000    0.000    0.000 
#    0.000    0.552    0.000    6.069    0.000    4.414 
#
# Total GULP energy -323771.237199 kJ/mol
# GULP energy per Si atom -5582.262710 kJ/mol
# Density = 1.668121 g / cm^3
# Si number density = 16.719260 Si / 1000 Ang^3
#
#
#
# Elastic Constant Matrix: (Units=GPa)
#
#
# Indices 1 2 3 4 5 6 
#
# 1 72.2724 34.4153 31.1922 0.0000 0.0000 0.0000
# 2 34.4153 107.6077 51.6414 0.0000 0.0000 0.0000
# 3 31.1922 51.6414 97.6782 0.0000 0.0000 0.0000
# 4 0.0000 0.0000 0.0000 36.5441 0.0000 0.0000
# 5 0.0000 0.0000 0.0000 0.0000 24.0795 0.0000
# 6 0.0000 0.0000 0.0000 0.0000 0.0000 3.1181
#
#
#
# Elastic Compliance Matrix: (Units=1/GPa)
#
#
# Indices 1 2 3 4 5 6 
#
# 1 0.017149 -0.003828 -0.003453 0.000000 0.000000 0.000000
# 2 -0.003828 0.013307 -0.005813 0.000000 0.000000 0.000000
# 3 -0.003453 -0.005813 0.014413 0.000000 0.000000 0.000000
# 4 0.000000 0.000000 0.000000 0.027364 0.000000 0.000000
# 5 0.000000 0.000000 0.000000 0.000000 0.041529 0.000000
# 6 0.000000 0.000000 0.000000 0.000000 0.000000 0.320708
#
#
# Mechanical properties :
#
#
# Convention : Reuss Voigt Hill
#
# Bulk Modulus (GPa) = 53.52446 56.89512 55.20979
# Shear Modulus (GPa) = 10.70926 23.43563 17.07245
#
# Velocity S-wave (km/s) = 2.53362 3.74801 3.19897
# Velocity P-wave (km/s) = 6.37512 7.26868 6.83651
#
# Compressibility (1/GPa) = 0.01868305
#
# Stress axis : x y z
#
# Youngs Moduli (GPa) = 58.31087 75.14944 69.37959
#
# Poissons Ratio (x) = 0.28766 0.23955
# Poissons Ratio (y) = 0.22320 0.40329
# Poissons Ratio (z) = 0.20133 0.43683
#
# Static dielectric constant tensor:
#      x y z
#    x 1.564350 0.000000 0.000000 
#    y 0.000000 1.587610 0.000000 
#    z 0.000000 0.000000 1.565430 
# 
# From -- ./inp_files/4257.got.cif
#   From: 2010.05.17/outbox.cif.g08.bks.cpg/sg49_3_cif.got.tgz:4257.got - 2010.06.03 21:02:19.
