data_PCOD9393870
_publ_section_title
;
Structure prediction by ZEFSAII (Michael W. Deem and Ramdas Pophale) SiO2 
 PCOD9393870
Probable space group: P C C M
;
_chemical_formula_sum "Si O2"
_cell_formula_units_Z 64
_cell_length_a 12.255919
_cell_length_b 14.578025
_cell_length_c 18.054948
_cell_angle_alpha 90.000000
_cell_angle_beta 90.000000
_cell_angle_gamma 90.000000
_cell_volume 3225.825084
_symmetry_space_group_name_H-M "P C C M"
_symmetry_group_IT_number 49
_symmetry_cell_setting 'orthorhombic'
loop_
_space_group_symop_operation_xyz
x,y,z
-x,-y,z
x,-y,1/2-z
-x,y,1/2-z
-x,-y,-z
x,y,-z
-x,y,1/2+z
x,-y,1/2+z
loop_
_atom_site_type_symbol
_atom_site_label
_atom_site_fract_x
_atom_site_fract_y
_atom_site_fract_z
Si Si1 0.328091 0.038792 0.090189
Si Si2 0.750908 0.338509 0.314301
Si Si3 0.871177 0.511158 0.914732
Si Si4 0.030138 0.770211 0.324895
Si Si5 0.081504 0.072523 0.913322
Si Si6 0.185622 0.330777 0.346122
Si Si7 0.548059 0.794588 0.166803
Si Si8 0.333625 0.178248 0.412287
O O1 0.204784 0.064472 0.112733
O O2 0.402271 0.109899 0.135384
O O3 0.341059 0.930378 0.106434
O O4 0.344287 0.050836 0.000000
O O5 0.798795 0.419721 0.365280
O O6 0.847347 0.263903 0.318793
O O7 0.752630 0.365182 0.227604
O O8 0.639287 0.285914 0.334663
O O9 0.817260 0.411096 0.905815
O O10 0.000000 0.500000 0.892645
O O11 0.871014 0.542350 0.000000
O O12 0.027574 0.830362 0.397755
O O13 0.000000 0.824535 0.250000
O O14 0.940704 0.690830 0.327594
O O15 0.090035 0.054250 0.000000
O O16 0.000000 0.000000 0.878462
O O17 0.238848 0.235541 0.372232
O O18 0.500000 0.804253 0.250000
O O19 0.445817 0.775150 0.113670
O O20 0.317709 0.183617 0.500000
#
# Coordination Sequence:
#
# PCOD9393870 Si02
#       8
#     8   8   8   8   8   8   8   8
#     4  10  22  40  64  94 129 173 226 278 331 390
#     4  11  23  43  66  95 130 167 217 269 332 388
#     4  11  24  41  69 106 134 165 214 269 332 408
#     4  10  21  36  60  89 125 165 207 258 325 392
#     4  10  20  35  56  87 127 170 212 260 326 398
#     4  11  22  42  66  96 132 171 211 269 333 402
#     4  12  24  44  66  95 129 177 229 277 326 389
#     4  11  24  42  65  94 130 174 223 277 332 393
#
# _framework density 19.839884999999999
#
# number of rings (size 3 to 8) (size 9 to 14) (size 15 to 20)
#    0.000    1.250    3.750    2.250    0.000    6.250 
#    0.000    1.875    0.000    1.500    0.000    0.000 
#    0.000    0.000    0.000    0.000    0.000    0.000 
#
# Total GULP energy -356808.241079 kJ/mol
# GULP energy per Si atom -5575.128767 kJ/mol
# Density = 1.979473 g / cm^3
# Si number density = 19.839885 Si / 1000 Ang^3
#
#
#
# Elastic Constant Matrix: (Units=GPa)
#
#
# Indices 1 2 3 4 5 6 
#
# 1 94.9561 34.4772 30.6758 0.0000 0.0000 0.0000
# 2 34.4772 68.2156 32.7146 0.0000 0.0000 0.0000
# 3 30.6758 32.7146 57.5398 0.0000 0.0000 0.0000
# 4 0.0000 0.0000 0.0000 31.2285 0.0000 0.0000
# 5 0.0000 0.0000 0.0000 0.0000 30.3000 0.0000
# 6 0.0000 0.0000 0.0000 0.0000 0.0000 24.3078
#
#
#
# Elastic Compliance Matrix: (Units=1/GPa)
#
#
# Indices 1 2 3 4 5 6 
#
# 1 0.013745 -0.004720 -0.004645 0.000000 0.000000 0.000000
# 2 -0.004720 0.021776 -0.009865 0.000000 0.000000 0.000000
# 3 -0.004645 -0.009865 0.025464 0.000000 0.000000 0.000000
# 4 0.000000 0.000000 0.000000 0.032022 0.000000 0.000000
# 5 0.000000 0.000000 0.000000 0.000000 0.033003 0.000000
# 6 0.000000 0.000000 0.000000 0.000000 0.000000 0.041139
#
#
# Mechanical properties :
#
#
# Convention : Reuss Voigt Hill
#
# Bulk Modulus (GPa) = 44.39041 46.27187 45.33114
# Shear Modulus (GPa) = 23.46145 25.35685 24.40915
#
# Velocity S-wave (km/s) = 3.44254 3.57889 3.51138
# Velocity P-wave (km/s) = 6.18258 6.36013 6.27198
#
# Compressibility (1/GPa) = 0.02252739
#
# Stress axis : x y z
#
# Youngs Moduli (GPa) = 72.75241 45.92304 39.27122
#
# Poissons Ratio (x) = 0.21674 0.18240
# Poissons Ratio (y) = 0.34336 0.38739
# Poissons Ratio (z) = 0.33790 0.45301
#
# Static dielectric constant tensor:
#      x y z
#    x 1.731420 0.000000 0.000000 
#    y 0.000000 1.712530 0.000000 
#    z 0.000000 0.000000 1.741690 
# 
# From -- ./inp_files/17345.got.cif
#   From: 2010.05.17/outbox.cif.g08.bks.cpg/sg49_9_cif.got.tgz:17345.got - 2010.06.03 21:02:19.
