data_PCOD9393383
_publ_section_title
;
Structure prediction by ZEFSAII (Michael W. Deem and Ramdas Pophale) SiO2 
 PCOD9393383
Probable space group: P C C M
;
_chemical_formula_sum "Si O2"
_cell_formula_units_Z 48
_cell_length_a 13.894708
_cell_length_b 10.350958
_cell_length_c 14.978573
_cell_angle_alpha 90.000000
_cell_angle_beta 90.000000
_cell_angle_gamma 90.000000
_cell_volume 2154.271377
_symmetry_space_group_name_H-M "P C C M"
_symmetry_group_IT_number 49
_symmetry_cell_setting 'orthorhombic'
loop_
_space_group_symop_operation_xyz
x,y,z
-x,-y,z
x,-y,1/2-z
-x,y,1/2-z
-x,-y,-z
x,y,-z
-x,y,1/2+z
x,-y,1/2+z
loop_
_atom_site_type_symbol
_atom_site_label
_atom_site_fract_x
_atom_site_fract_y
_atom_site_fract_z
Si Si1 0.936092 0.612624 0.898429
Si Si2 0.298636 0.037092 0.890820
Si Si3 0.581410 0.709225 0.108391
Si Si4 0.366615 0.757688 0.893216
Si Si5 0.261530 0.499341 0.351247
Si Si6 0.081856 0.100433 0.890447
O O1 0.826170 0.564615 0.902941
O O2 0.939033 0.754768 0.857575
O O3 0.000000 0.500000 0.856351
O O4 0.973539 0.628913 0.000000
O O5 0.336999 0.898643 0.858754
O O6 0.364919 0.158311 0.865215
O O7 0.188854 0.059565 0.862623
O O8 0.299627 0.034895 0.000000
O O9 0.471402 0.713276 0.140096
O O10 0.643974 0.588269 0.140001
O O11 0.581420 0.702198 0.000000
O O12 0.289218 0.645823 0.877039
O O13 0.376132 0.770903 0.000000
O O14 0.228733 0.500000 0.250000
O O15 0.083408 0.103247 0.000000
O O16 0.000000 0.000000 0.863589
#
# Coordination Sequence:
#
# PCOD9393383 Si02
#       6
#     8   8   8   8   8   8
#     4  10  21  38  63  89 114 147 191 240 289 341
#     4   9  17  32  57  87 118 144 183 244 302 347
#     4  10  19  37  61  85 115 152 196 244 295 341
#     4  10  21  35  59  90 115 147 196 248 290 341
#     4  12  25  39  56  82 120 162 195 232 285 348
#     4   9  17  30  54  89 118 139 173 233 296 346
#
# _framework density 22.281314999999999
#
# number of rings (size 3 to 8) (size 9 to 14) (size 15 to 20)
#    0.000    2.000    1.667    2.500    2.333    5.000 
#    0.000    0.833    0.000    2.000    0.000    0.000 
#    0.000    0.000    0.000    0.000    0.000    0.000 
#
# Total GULP energy -268325.195367 kJ/mol
# GULP energy per Si atom -5590.108237 kJ/mol
# Density = 2.223060 g / cm^3
# Si number density = 22.281315 Si / 1000 Ang^3
#
#
#
# Elastic Constant Matrix: (Units=GPa)
#
#
# Indices 1 2 3 4 5 6 
#
# 1 85.3043 29.1316 -5.2680 0.0000 0.0000 0.0000
# 2 29.1316 125.7482 1.0472 0.0000 0.0000 0.0000
# 3 -5.2680 1.0472 45.1603 0.0000 0.0000 0.0000
# 4 0.0000 0.0000 0.0000 15.6996 0.0000 0.0000
# 5 0.0000 0.0000 0.0000 0.0000 -115.0263 0.0000
# 6 0.0000 0.0000 0.0000 0.0000 0.0000 54.3211
#
#
#
# Elastic Compliance Matrix: (Units=1/GPa)
#
#
# Indices 1 2 3 4 5 6 
#
# 1 0.012840 -0.002988 0.001567 0.000000 0.000000 0.000000
# 2 -0.002988 0.008649 -0.000549 0.000000 0.000000 0.000000
# 3 0.001567 -0.000549 0.022339 0.000000 0.000000 0.000000
# 4 0.000000 0.000000 0.000000 0.063696 0.000000 0.000000
# 5 0.000000 0.000000 0.000000 0.000000 -0.008694 0.000000
# 6 0.000000 0.000000 0.000000 0.000000 0.000000 0.018409
#
#
# Mechanical properties :
#
#
# Convention : Reuss Voigt Hill
#
# Bulk Modulus (GPa) = 25.06986 34.00382 29.53684
# Shear Modulus (GPa) = 37.18183 6.41900 21.80041
#
# Velocity S-wave (km/s) = 4.08946 1.69916 3.13136
# Velocity P-wave (km/s) = 5.79432 4.37536 5.13410
#
# Compressibility (1/GPa) = 0.03988854
#
# Stress axis : x y z
#
# Youngs Moduli (GPa) = 77.88293 115.61899 44.76502
#
# Poissons Ratio (x) = 0.34542 -0.07015
# Poissons Ratio (y) = 0.23268 0.02458
# Poissons Ratio (z) = -0.12205 0.06348
#
# Static dielectric constant tensor:
#      x y z
#    x 1.770210 0.000000 0.000000 
#    y 0.000000 1.964930 0.000000 
#    z 0.000000 0.000000 1.869720 
# 
# From -- ./inp_files/16244.got.cif
#   From: 2010.05.17/outbox.cif.g08.bks.cpg/sg49_9_cif.got.tgz:16244.got - 2010.06.03 21:02:19.
