data_PCOD9393405
_publ_section_title
;
Structure prediction by ZEFSAII (Michael W. Deem and Ramdas Pophale) SiO2 
 PCOD9393405
Probable space group: P C C M
;
_chemical_formula_sum "Si O2"
_cell_formula_units_Z 64
_cell_length_a 14.904690
_cell_length_b 9.849646
_cell_length_c 21.086068
_cell_angle_alpha 90.000000
_cell_angle_beta 90.000000
_cell_angle_gamma 90.000000
_cell_volume 3095.559617
_symmetry_space_group_name_H-M "P C C M"
_symmetry_group_IT_number 49
_symmetry_cell_setting 'orthorhombic'
loop_
_space_group_symop_operation_xyz
x,y,z
-x,-y,z
x,-y,1/2-z
-x,y,1/2-z
-x,-y,-z
x,y,-z
-x,y,1/2+z
x,-y,1/2+z
loop_
_atom_site_type_symbol
_atom_site_label
_atom_site_fract_x
_atom_site_fract_y
_atom_site_fract_z
Si Si1 0.191106 0.406006 0.074816
Si Si2 0.727476 0.056689 0.856197
Si Si3 0.084880 0.070596 0.817912
Si Si4 0.487633 0.339107 0.571852
Si Si5 0.446662 0.143065 0.688056
Si Si6 0.323819 0.811239 0.428946
Si Si7 0.985814 0.649923 0.855366
Si Si8 0.827231 0.703569 0.576259
O O1 0.251998 0.288764 0.103216
O O2 0.215112 0.557919 0.094335
O O3 0.087605 0.379719 0.090189
O O4 0.205321 0.401878 0.000000
O O5 0.659893 0.111951 0.802193
O O6 0.764176 0.178480 0.898896
O O7 0.817650 0.970599 0.842715
O O8 0.665612 0.952045 0.894067
O O9 0.059896 0.229543 0.815183
O O10 0.086410 0.000000 0.750000
O O11 0.000000 0.000000 0.853733
O O12 0.500000 0.500000 0.585042
O O13 0.446126 0.326596 0.500000
O O14 0.446959 0.248989 0.629048
O O15 0.586063 0.273685 0.567385
O O16 0.500000 0.198525 0.750000
O O17 0.500000 0.000000 0.676099
O O18 0.292423 0.845406 0.500000
O O19 0.077772 0.702846 0.886528
O O20 0.000000 0.500000 0.825351
O O21 0.840722 0.709313 0.500000
#
# Coordination Sequence:
#
# PCOD9393405 Si02
#       8
#     8   8   8   8   8   8   8   8
#     4   9  18  33  57  89 133 174 211 257 313 388
#     4  12  23  40  66  92 128 172 215 274 329 396
#     4  11  24  42  61  87 122 165 219 269 323 376
#     4  10  23  43  69  97 131 172 219 282 349 411
#     4  11  26  46  68  96 133 178 226 276 344 411
#     4  10  20  35  58  94 129 166 207 262 335 403
#     4  10  19  38  63  89 128 173 217 259 320 388
#     4  10  21  35  59  97 134 173 216 262 320 393
#
# _framework density 20.674775
#
# number of rings (size 3 to 8) (size 9 to 14) (size 15 to 20)
#    0.000    1.625    3.750    0.750    3.500    3.000 
#    0.000    1.875    0.000    0.000    0.000    0.000 
#    0.000    0.000    0.000    0.000    0.000    0.000 
#
# Total GULP energy -356424.195854 kJ/mol
# GULP energy per Si atom -5569.128060 kJ/mol
# Density = 2.062772 g / cm^3
# Si number density = 20.674775 Si / 1000 Ang^3
#
#
#
# Elastic Constant Matrix: (Units=GPa)
#
#
# Indices 1 2 3 4 5 6 
#
# 1 89.8533 29.1227 20.6547 0.0000 0.0000 0.0000
# 2 29.1227 143.9672 47.1281 0.0000 0.0000 0.0000
# 3 20.6547 47.1281 65.3533 0.0000 0.0000 0.0000
# 4 0.0000 0.0000 0.0000 24.9300 0.0000 0.0000
# 5 0.0000 0.0000 0.0000 0.0000 12.1364 0.0000
# 6 0.0000 0.0000 0.0000 0.0000 0.0000 37.8533
#
#
#
# Elastic Compliance Matrix: (Units=1/GPa)
#
#
# Indices 1 2 3 4 5 6 
#
# 1 0.012272 -0.001588 -0.002734 0.000000 0.000000 0.000000
# 2 -0.001588 0.009298 -0.006203 0.000000 0.000000 0.000000
# 3 -0.002734 -0.006203 0.020639 0.000000 0.000000 0.000000
# 4 0.000000 0.000000 0.000000 0.040112 0.000000 0.000000
# 5 0.000000 0.000000 0.000000 0.000000 0.082397 0.000000
# 6 0.000000 0.000000 0.000000 0.000000 0.000000 0.026418
#
#
# Mechanical properties :
#
#
# Convention : Reuss Voigt Hill
#
# Bulk Modulus (GPa) = 47.25952 54.77608 51.01780
# Shear Modulus (GPa) = 22.80629 28.46851 25.63740
#
# Velocity S-wave (km/s) = 3.32489 3.71478 3.52523
# Velocity P-wave (km/s) = 6.13580 6.70456 6.42648
#
# Compressibility (1/GPa) = 0.02115976
#
# Stress axis : x y z
#
# Youngs Moduli (GPa) = 81.48487 107.55234 48.45271
#
# Poissons Ratio (x) = 0.17075 0.13246
# Poissons Ratio (y) = 0.12937 0.30056
# Poissons Ratio (z) = 0.22276 0.66716
#
# Static dielectric constant tensor:
#      x y z
#    x 1.861430 0.000000 0.000000 
#    y 0.000000 1.769960 0.000000 
#    z 0.000000 0.000000 1.458060 
# 
# From -- ./inp_files/23242.got.cif
#   From: 2010.05.17/outbox.cif.g08.bks.cpg/sg49_12_cif.got.tgz:23242.got - 2010.06.03 21:02:19.
