data_PCOD9393341
_publ_section_title
;
Structure prediction by ZEFSAII (Michael W. Deem and Ramdas Pophale) SiO2 
 PCOD9393341
Probable space group: P C C M
;
_chemical_formula_sum "Si O2"
_cell_formula_units_Z 58
_cell_length_a 19.720752
_cell_length_b 19.943321
_cell_length_c 8.574618
_cell_angle_alpha 90.000000
_cell_angle_beta 90.000000
_cell_angle_gamma 90.000000
_cell_volume 3372.374001
_symmetry_space_group_name_H-M "P C C M"
_symmetry_group_IT_number 49
_symmetry_cell_setting 'orthorhombic'
loop_
_space_group_symop_operation_xyz
x,y,z
-x,-y,z
x,-y,1/2-z
-x,y,1/2-z
-x,-y,-z
x,y,-z
-x,y,1/2+z
x,-y,1/2+z
loop_
_atom_site_type_symbol
_atom_site_label
_atom_site_fract_x
_atom_site_fract_y
_atom_site_fract_z
Si Si1 0.500000 0.000000 0.750000
Si Si2 0.075839 0.322272 0.687594
Si Si3 0.383672 0.890847 0.688213
Si Si4 0.765056 0.072472 0.187109
Si Si5 0.708249 0.679043 0.687186
Si Si6 0.186455 0.575125 0.313879
Si Si7 0.574853 0.260652 0.686781
Si Si8 0.819705 0.788247 0.310927
O O1 0.559047 0.058168 0.744604
O O2 0.075798 0.324636 0.500000
O O3 0.122473 0.382731 0.749467
O O4 0.114442 0.253810 0.738242
O O5 0.000000 0.325654 0.750000
O O6 0.380899 0.894808 0.500000
O O7 0.311240 0.911445 0.756866
O O8 0.403818 0.815209 0.733922
O O9 0.810447 0.135534 0.242030
O O10 0.785846 0.000000 0.250000
O O11 0.765383 0.070561 0.000000
O O12 0.709047 0.675501 0.500000
O O13 0.747084 0.614975 0.755231
O O14 0.632791 0.690706 0.747745
O O15 0.754461 0.743409 0.735169
O O16 0.185401 0.500000 0.250000
O O17 0.184654 0.574955 0.500000
O O18 0.500000 0.274909 0.750000
O O19 0.574435 0.263415 0.500000
O O20 0.820110 0.789377 0.500000
#
# Coordination Sequence:
#
# PCOD9393341 Si02
#       8
#     2   8   8   8   8   8   8   8
#     4  12  22  36  48  66 102 148 182 224 290 356
#     4  10  20  37  59  88 119 153 187 225 271 327
#     4  11  23  34  47  69  98 136 181 229 279 340
#     4  11  21  34  51  73 100 136 179 231 285 337
#     4  10  19  36  58  81 108 146 188 235 282 332
#     4  11  22  38  60  90 122 156 188 224 265 322
#     4  11  22  35  51  76 105 140 186 237 287 339
#     4   8  17  33  54  76 105 142 181 224 278 332
#
# _framework density 17.198567000000001
#
# number of rings (size 3 to 8) (size 9 to 14) (size 15 to 20)
#    0.000    1.655    2.759    3.931    0.000    1.379 
#    0.000    3.448    0.000    0.828    0.000    5.793 
#    0.000    0.000    0.000    0.000    0.000    0.000 
#
# Total GULP energy -323329.876736 kJ/mol
# GULP energy per Si atom -5574.653047 kJ/mol
# Density = 1.715942 g / cm^3
# Si number density = 17.198567 Si / 1000 Ang^3
#
#
#
# Elastic Constant Matrix: (Units=GPa)
#
#
# Indices 1 2 3 4 5 6 
#
# 1 128.1554 94.5162 44.6314 0.0000 0.0000 0.0000
# 2 94.5162 159.8897 46.5320 0.0000 0.0000 0.0000
# 3 44.6314 46.5320 77.1167 0.0000 0.0000 0.0000
# 4 0.0000 0.0000 0.0000 20.1410 0.0000 0.0000
# 5 0.0000 0.0000 0.0000 0.0000 10.3615 0.0000
# 6 0.0000 0.0000 0.0000 0.0000 0.0000 17.9563
#
#
#
# Elastic Compliance Matrix: (Units=1/GPa)
#
#
# Indices 1 2 3 4 5 6 
#
# 1 0.014777 -0.007577 -0.003980 0.000000 0.000000 0.000000
# 2 -0.007577 0.011472 -0.002537 0.000000 0.000000 0.000000
# 3 -0.003980 -0.002537 0.016802 0.000000 0.000000 0.000000
# 4 0.000000 0.000000 0.000000 0.049650 0.000000 0.000000
# 5 0.000000 0.000000 0.000000 0.000000 0.096511 0.000000
# 6 0.000000 0.000000 0.000000 0.000000 0.000000 0.055691
#
#
# Mechanical properties :
#
#
# Convention : Reuss Voigt Hill
#
# Bulk Modulus (GPa) = 67.28447 81.83565 74.56006
# Shear Modulus (GPa) = 17.98268 21.65725 19.81997
#
# Velocity S-wave (km/s) = 3.23707 3.55244 3.39841
# Velocity P-wave (km/s) = 7.29236 8.03197 7.67109
#
# Compressibility (1/GPa) = 0.01486227
#
# Stress axis : x y z
#
# Youngs Moduli (GPa) = 67.67098 87.17208 59.51773
#
# Poissons Ratio (x) = 0.66050 0.23691
# Poissons Ratio (y) = 0.51274 0.15098
# Poissons Ratio (z) = 0.26936 0.22113
#
# Static dielectric constant tensor:
#      x y z
#    x 1.555190 0.000000 0.000000 
#    y 0.000000 1.572930 0.000000 
#    z 0.000000 0.000000 1.589530 
# 
# From -- ./inp_files/5065.got.cif
#   From: 2010.05.17/outbox.cif.g08.bks.cpg/sg49_3_cif.got.tgz:5065.got - 2010.06.03 21:02:19.
