data_PCOD9393967
_publ_section_title
;
Structure prediction by ZEFSAII (Michael W. Deem and Ramdas Pophale) SiO2 
 PCOD9393967
Probable space group: P C C M
;
_chemical_formula_sum "Si O2"
_cell_formula_units_Z 56
_cell_length_a 15.453681
_cell_length_b 20.536873
_cell_length_c 8.807550
_cell_angle_alpha 90.000000
_cell_angle_beta 90.000000
_cell_angle_gamma 90.000000
_cell_volume 2795.254646
_symmetry_space_group_name_H-M "P C C M"
_symmetry_group_IT_number 49
_symmetry_cell_setting 'orthorhombic'
loop_
_space_group_symop_operation_xyz
x,y,z
-x,-y,z
x,-y,1/2-z
-x,y,1/2-z
-x,-y,-z
x,y,-z
-x,y,1/2+z
x,-y,1/2+z
loop_
_atom_site_type_symbol
_atom_site_label
_atom_site_fract_x
_atom_site_fract_y
_atom_site_fract_z
Si Si1 0.404583 0.805695 0.181191
Si Si2 0.095895 0.197501 0.318954
Si Si3 0.143260 0.064231 0.830515
Si Si4 0.759485 0.572368 0.316312
Si Si5 0.347858 0.063897 0.832158
Si Si6 0.097614 0.331994 0.182686
Si Si7 0.404034 0.339911 0.682595
O O1 0.500000 0.809842 0.250000
O O2 0.357016 0.868844 0.243257
O O3 0.373021 0.733314 0.225540
O O4 0.406203 0.808621 0.000000
O O5 0.095885 0.204576 0.500000
O O6 0.134970 0.128976 0.268794
O O7 0.134163 0.262561 0.243114
O O8 0.000000 0.195199 0.250000
O O9 0.245481 0.052642 0.847562
O O10 0.106145 0.000000 0.750000
O O11 0.106043 0.074215 0.000000
O O12 0.759358 0.500000 0.250000
O O13 0.766249 0.571913 0.500000
O O14 0.839436 0.612484 0.246102
O O15 0.669584 0.608689 0.273965
O O16 0.384748 0.000000 0.750000
O O17 0.386481 0.071047 0.000000
O O18 0.000000 0.339226 0.250000
O O19 0.093521 0.332074 0.000000
O O20 0.500000 0.351036 0.750000
O O21 0.412425 0.341352 0.500000
#
# Coordination Sequence:
#
# PCOD9393967 Si02
#       7
#     8   8   8   8   8   8   8
#     4  10  20  36  57  83 112 149 193 243 297 355
#     4  11  22  38  60  86 117 154 197 247 298 357
#     4  10  21  37  55  81 114 152 198 246 301 358
#     4  11  24  43  65  97 130 166 209 252 304 369
#     4  10  21  36  54  79 111 149 192 243 295 355
#     4  11  23  42  66  95 128 166 207 257 310 368
#     4   9  21  40  63  91 126 164 206 254 308 364
#
# _framework density 20.033953
#
# number of rings (size 3 to 8) (size 9 to 14) (size 15 to 20)
#    0.000    1.714    0.000    5.143    2.000    4.571 
#    0.000    5.714    0.000    0.000    0.000    0.000 
#    0.000    0.000    0.000    0.000    0.000    0.000 
#
# Total GULP energy -312667.149501 kJ/mol
# GULP energy per Si atom -5583.341955 kJ/mol
# Density = 1.998836 g / cm^3
# Si number density = 20.033953 Si / 1000 Ang^3
#
#
#
# Elastic Constant Matrix: (Units=GPa)
#
#
# Indices 1 2 3 4 5 6 
#
# 1 65.9443 63.1195 38.1223 0.0000 0.0000 0.0000
# 2 63.1195 190.6520 82.1698 0.0000 0.0000 0.0000
# 3 38.1223 82.1698 149.7550 0.0000 0.0000 0.0000
# 4 0.0000 0.0000 0.0000 25.5446 0.0000 0.0000
# 5 0.0000 0.0000 0.0000 0.0000 24.1115 0.0000
# 6 0.0000 0.0000 0.0000 0.0000 0.0000 333.4912
#
#
#
# Elastic Compliance Matrix: (Units=1/GPa)
#
#
# Indices 1 2 3 4 5 6 
#
# 1 0.022725 -0.006588 -0.002170 0.000000 0.000000 0.000000
# 2 -0.006588 0.008780 -0.003140 0.000000 0.000000 0.000000
# 3 -0.002170 -0.003140 0.008953 0.000000 0.000000 0.000000
# 4 0.000000 0.000000 0.000000 0.039147 0.000000 0.000000
# 5 0.000000 0.000000 0.000000 0.000000 0.041474 0.000000
# 6 0.000000 0.000000 0.000000 0.000000 0.000000 0.002999
#
#
# Mechanical properties :
#
#
# Convention : Reuss Voigt Hill
#
# Bulk Modulus (GPa) = 60.02197 85.90830 72.96514
# Shear Modulus (GPa) = 32.58851 91.49209 62.04030
#
# Velocity S-wave (km/s) = 4.03757 6.76518 5.57089
# Velocity P-wave (km/s) = 7.19452 10.19794 8.82494
#
# Compressibility (1/GPa) = 0.01666057
#
# Stress axis : x y z
#
# Youngs Moduli (GPa) = 44.00459 113.89764 111.69407
#
# Poissons Ratio (x) = 0.75040 0.24237
# Poissons Ratio (y) = 0.28992 0.35075
# Poissons Ratio (z) = 0.09549 0.35767
#
# Static dielectric constant tensor:
#      x y z
#    x 2.082130 0.000000 0.000000 
#    y 0.000000 1.725590 0.000000 
#    z 0.000000 0.000000 1.704070 
# 
# From -- ./inp_files/4037.got.cif
#   From: 2010.05.17/outbox.cif.g08.bks.cpg/sg49_3_cif.got.tgz:4037.got - 2010.06.03 21:02:19.
