data_PCOD9393788
_publ_section_title
;
Structure prediction by ZEFSAII (Michael W. Deem and Ramdas Pophale) SiO2 
 PCOD9393788
Probable space group: P C C M
;
_chemical_formula_sum "Si O2"
_cell_formula_units_Z 48
_cell_length_a 30.248104
_cell_length_b 10.395326
_cell_length_c 8.646748
_cell_angle_alpha 90.000000
_cell_angle_beta 90.000000
_cell_angle_gamma 90.000000
_cell_volume 2718.873947
_symmetry_space_group_name_H-M "P C C M"
_symmetry_group_IT_number 49
_symmetry_cell_setting 'orthorhombic'
loop_
_space_group_symop_operation_xyz
x,y,z
-x,-y,z
x,-y,1/2-z
-x,y,1/2-z
-x,-y,-z
x,y,-z
-x,y,1/2+z
x,-y,1/2+z
loop_
_atom_site_type_symbol
_atom_site_label
_atom_site_fract_x
_atom_site_fract_y
_atom_site_fract_z
Si Si1 0.716488 0.859453 0.184860
Si Si2 0.117136 0.639417 0.813972
Si Si3 0.548832 0.639947 0.685467
Si Si4 0.780502 0.359080 0.186012
Si Si5 0.951189 0.859079 0.686310
Si Si6 0.381633 0.139437 0.314024
O O1 0.749342 0.750458 0.245562
O O2 0.666884 0.833334 0.245847
O O3 0.729190 0.000000 0.250000
O O4 0.716295 0.863468 0.000000
O O5 0.104099 0.500000 0.750000
O O6 0.168153 0.664001 0.768680
O O7 0.084143 0.751971 0.764151
O O8 0.115970 0.633921 0.000000
O O9 0.561879 0.500000 0.750000
O O10 0.500000 0.668859 0.750000
O O11 0.546549 0.632913 0.500000
O O12 0.583697 0.749901 0.728897
O O13 0.768280 0.500000 0.250000
O O14 0.777543 0.359170 0.000000
O O15 0.952767 0.863917 0.500000
O O16 0.000000 0.828315 0.750000
O O17 0.939251 0.000000 0.750000
O O18 0.378478 0.133132 0.500000
O O19 0.395525 0.000000 0.250000
#
# Coordination Sequence:
#
# PCOD9393788 Si02
#       6
#     8   8   8   8   8   8
#     4  11  22  37  57  81 109 143 179 222 269 318
#     4   9  20  36  55  78 106 138 175 216 261 312
#     4  10  21  36  56  80 108 140 177 218 263 313
#     4  10  20  37  57  80 109 141 178 221 266 318
#     4  10  20  35  53  77 105 137 175 216 261 311
#     4  10  21  37  56  80 108 141 179 221 265 316
#
# _framework density 17.654368000000002
#
# number of rings (size 3 to 8) (size 9 to 14) (size 15 to 20)
#    0.000    2.000    0.000    5.500    0.000    6.667 
#    0.000    6.667    0.000    0.000    0.000    0.000 
#    0.000    0.000    0.000    0.000    0.000    0.000 
#
# Total GULP energy -268045.017092 kJ/mol
# GULP energy per Si atom -5584.271189 kJ/mol
# Density = 1.761419 g / cm^3
# Si number density = 17.654368 Si / 1000 Ang^3
#
#
#
# Elastic Constant Matrix: (Units=GPa)
#
#
# Indices 1 2 3 4 5 6 
#
# 1 112.7169 138.8692 50.2261 0.0000 0.0000 0.0000
# 2 138.8692 193.4467 64.8610 0.0000 0.0000 0.0000
# 3 50.2261 64.8610 79.3851 0.0000 0.0000 0.0000
# 4 0.0000 0.0000 0.0000 31.8037 0.0000 0.0000
# 5 0.0000 0.0000 0.0000 0.0000 68.4275 0.0000
# 6 0.0000 0.0000 0.0000 0.0000 0.0000 44.8462
#
#
#
# Elastic Compliance Matrix: (Units=1/GPa)
#
#
# Indices 1 2 3 4 5 6 
#
# 1 0.078160 -0.054443 -0.004969 0.000000 0.000000 0.000000
# 2 -0.054443 0.045042 -0.002356 0.000000 0.000000 0.000000
# 3 -0.004969 -0.002356 0.017666 0.000000 0.000000 0.000000
# 4 0.000000 0.000000 0.000000 0.031443 0.000000 0.000000
# 5 0.000000 0.000000 0.000000 0.000000 0.014614 0.000000
# 6 0.000000 0.000000 0.000000 0.000000 0.000000 0.022298
#
#
# Mechanical properties :
#
#
# Convention : Reuss Voigt Hill
#
# Bulk Modulus (GPa) = 57.69545 99.27347 78.48446
# Shear Modulus (GPa) = 14.76945 37.78831 26.27888
#
# Velocity S-wave (km/s) = 2.89552 4.63152 3.86232
# Velocity P-wave (km/s) = 6.62799 9.21711 8.02762
#
# Compressibility (1/GPa) = 0.01733239
#
# Stress axis : x y z
#
# Youngs Moduli (GPa) = 12.79420 22.20149 56.60701
#
# Poissons Ratio (x) = 1.20871 0.28129
# Poissons Ratio (y) = 0.69655 0.13336
# Poissons Ratio (z) = 0.06358 0.05231
#
# Static dielectric constant tensor:
#      x y z
#    x 1.585130 0.000000 0.000000 
#    y 0.000000 1.577210 0.000000 
#    z 0.000000 0.000000 1.594900 
# 
# From -- ./inp_files/6892.got.cif
#   From: 2010.05.17/outbox.cif.g08.bks.cpg/sg49_4_cif.got.tgz:6892.got - 2010.06.03 21:02:19.
