data_PCOD9393631
_publ_section_title
;
Structure prediction by ZEFSAII (Michael W. Deem and Ramdas Pophale) SiO2 
 PCOD9393631
Probable space group: P C C M
;
_chemical_formula_sum "Si O2"
_cell_formula_units_Z 48
_cell_length_a 9.746542
_cell_length_b 32.812488
_cell_length_c 8.528482
_cell_angle_alpha 90.000000
_cell_angle_beta 90.000000
_cell_angle_gamma 90.000000
_cell_volume 2727.479265
_symmetry_space_group_name_H-M "P C C M"
_symmetry_group_IT_number 49
_symmetry_cell_setting 'orthorhombic'
loop_
_space_group_symop_operation_xyz
x,y,z
-x,-y,z
x,-y,1/2-z
-x,y,1/2-z
-x,-y,-z
x,y,-z
-x,y,1/2+z
x,-y,1/2+z
loop_
_atom_site_type_symbol
_atom_site_label
_atom_site_fract_x
_atom_site_fract_y
_atom_site_fract_z
Si Si1 0.342717 0.542031 0.687934
Si Si2 0.845405 0.793553 0.188396
Si Si3 0.656422 0.629999 0.189160
Si Si4 0.654392 0.956185 0.688086
Si Si5 0.154372 0.881328 0.811757
Si Si6 0.344400 0.280974 0.189687
O O1 0.278699 0.500000 0.750000
O O2 0.500000 0.542505 0.750000
O O3 0.345956 0.540071 0.500000
O O4 0.282011 0.586115 0.737763
O O5 0.796140 0.837591 0.248648
O O6 0.749333 0.756491 0.242285
O O7 0.000000 0.787999 0.250000
O O8 0.848256 0.794251 0.000000
O O9 0.500000 0.630037 0.250000
O O10 0.712309 0.674236 0.238890
O O11 0.654504 0.629704 0.000000
O O12 0.500000 0.950516 0.750000
O O13 0.651052 0.957521 0.500000
O O14 0.749956 0.918755 0.738177
O O15 0.704254 0.000000 0.750000
O O16 0.000000 0.887173 0.750000
O O17 0.151294 0.879766 0.000000
O O18 0.500000 0.276972 0.250000
O O19 0.348114 0.280313 0.000000
#
# Coordination Sequence:
#
# PCOD9393631 Si02
#       6
#     8   8   8   8   8   8
#     4   9  14  19  29  45  69 102 137 172 211 258
#     4  10  20  34  52  72  96 126 158 195 237 280
#     4   8  14  24  36  52  77 108 141 178 220 265
#     4  10  21  36  55  78 104 134 165 198 236 278
#     4  10  21  36  54  76 100 128 162 198 237 280
#     4   9  18  31  47  68  92 120 155 192 232 278
#
# _framework density 17.598666999999999
#
# number of rings (size 3 to 8) (size 9 to 14) (size 15 to 20)
#    0.000    2.667    0.000    4.000    0.000    5.667 
#    0.000    5.000    0.000    0.000    0.000    0.000 
#    0.000    0.667    0.000    8.333    0.000    2.500 
#
# Total GULP energy -267295.195637 kJ/mol
# GULP energy per Si atom -5568.649909 kJ/mol
# Density = 1.755861 g / cm^3
# Si number density = 17.598667 Si / 1000 Ang^3
#
#
#
# Elastic Constant Matrix: (Units=GPa)
#
#
# Indices 1 2 3 4 5 6 
#
# 1 32.6337 72.3798 11.6133 0.0000 0.0000 0.0000
# 2 72.3798 239.2873 37.9623 0.0000 0.0000 0.0000
# 3 11.6133 37.9623 33.4265 0.0000 0.0000 0.0000
# 4 0.0000 0.0000 0.0000 33.1466 0.0000 0.0000
# 5 0.0000 0.0000 0.0000 0.0000 7.2097 0.0000
# 6 0.0000 0.0000 0.0000 0.0000 0.0000 -22.2768
#
#
#
# Elastic Compliance Matrix: (Units=1/GPa)
#
#
# Indices 1 2 3 4 5 6 
#
# 1 0.093113 -0.028095 -0.000443 0.000000 0.000000 0.000000
# 2 -0.028095 0.013574 -0.005656 0.000000 0.000000 0.000000
# 3 -0.000443 -0.005656 0.036493 0.000000 0.000000 0.000000
# 4 0.000000 0.000000 0.000000 0.030169 0.000000 0.000000
# 5 0.000000 0.000000 0.000000 0.000000 0.138701 0.000000
# 6 0.000000 0.000000 0.000000 0.000000 0.000000 -0.044890
#
#
# Mechanical properties :
#
#
# Convention : Reuss Voigt Hill
#
# Bulk Modulus (GPa) = 13.37002 61.02869 37.19936
# Shear Modulus (GPa) = 13.87042 15.84206 14.85624
#
# Velocity S-wave (km/s) = 2.81045 3.00356 2.90861
# Velocity P-wave (km/s) = 4.25972 6.83972 5.69768
#
# Compressibility (1/GPa) = 0.07479422
#
# Stress axis : x y z
#
# Youngs Moduli (GPa) = 10.73963 73.66820 27.40229
#
# Poissons Ratio (x) = 2.06968 0.01214
# Poissons Ratio (y) = 0.30173 0.15497
# Poissons Ratio (z) = 0.00476 0.41663
#
# Static dielectric constant tensor:
#      x y z
#    x 1.586960 0.000000 0.000000 
#    y 0.000000 1.672830 0.000000 
#    z 0.000000 0.000000 1.595020 
# 
# From -- ./inp_files/2969.got.cif
#   From: 2010.05.17/outbox.cif.g08.bks.cpg/sg49_2_cif.got.tgz:2969.got - 2010.06.03 21:02:19.
