data_PCOD9393626
_publ_section_title
;
Structure prediction by ZEFSAII (Michael W. Deem and Ramdas Pophale) SiO2 
 PCOD9393626
Probable space group: P C C M
;
_chemical_formula_sum "Si O2"
_cell_formula_units_Z 44
_cell_length_a 15.575142
_cell_length_b 5.055595
_cell_length_c 29.722724
_cell_angle_alpha 90.000000
_cell_angle_beta 90.000000
_cell_angle_gamma 90.000000
_cell_volume 2340.415142
_symmetry_space_group_name_H-M "P C C M"
_symmetry_group_IT_number 49
_symmetry_cell_setting 'orthorhombic'
loop_
_space_group_symop_operation_xyz
x,y,z
-x,-y,z
x,-y,1/2-z
-x,y,1/2-z
-x,-y,-z
x,y,-z
-x,y,1/2+z
x,-y,1/2+z
loop_
_atom_site_type_symbol
_atom_site_label
_atom_site_fract_x
_atom_site_fract_y
_atom_site_fract_z
Si Si1 0.329479 0.592825 0.085570
Si Si2 0.405365 0.604058 0.816785
Si Si3 0.561791 0.747332 0.500000
Si Si4 0.702080 0.896992 0.796080
Si Si5 0.060591 0.254407 0.948663
Si Si6 0.773920 0.910474 0.894608
O O1 0.389694 0.604837 0.129519
O O2 0.379292 0.710178 0.043533
O O3 0.296213 0.291873 0.083961
O O4 0.248724 0.788884 0.092561
O O5 0.500000 0.500000 0.806148
O O6 0.338322 0.393907 0.796296
O O7 0.377336 0.896645 0.802171
O O8 0.500000 0.500000 0.500000
O O9 0.500000 0.000000 0.500000
O O10 0.761124 0.903503 0.840594
O O11 0.744460 0.000000 0.750000
O O12 0.136666 0.190220 0.914283
O O13 0.000000 0.500000 0.936173
O O14 0.094145 0.302519 0.000000
O O15 0.000000 0.000000 0.950405
#
# Coordination Sequence:
#
# PCOD9393626 Si02
#       6
#     8   8   4   8   8   8
#     4  10  22  35  53  77 105 150 190 229 275 331
#     4  10  20  34  51  74 107 142 184 238 286 326
#     4  12  24  36  52  76 108 150 200 242 278 320
#     4  10  21  35  53  79 105 141 188 228 279 332
#     4  10  21  36  58  88 115 142 174 220 277 336
#     4  10  21  38  57  80 111 145 181 224 280 338
#
# _framework density 18.800084999999999
#
# number of rings (size 3 to 8) (size 9 to 14) (size 15 to 20)
#    0.000    1.818    0.000    3.818    2.545    5.091 
#    0.000    0.000    0.000    0.545    0.000    1.273 
#    0.000    0.000    0.000    0.000    0.000    0.000 
#
# Total GULP energy -245543.032368 kJ/mol
# GULP energy per Si atom -5580.523463 kJ/mol
# Density = 1.875730 g / cm^3
# Si number density = 18.800085 Si / 1000 Ang^3
#
#
#
# Elastic Constant Matrix: (Units=GPa)
#
#
# Indices 1 2 3 4 5 6 
#
# 1 72.1040 10.1651 54.8715 0.0000 0.0000 0.0000
# 2 10.1651 95.0960 26.1696 0.0000 0.0000 0.0000
# 3 54.8715 26.1696 141.3884 0.0000 0.0000 0.0000
# 4 0.0000 0.0000 0.0000 26.2286 0.0000 0.0000
# 5 0.0000 0.0000 0.0000 0.0000 -9.6847 0.0000
# 6 0.0000 0.0000 0.0000 0.0000 0.0000 31.4265
#
#
#
# Elastic Compliance Matrix: (Units=1/GPa)
#
#
# Indices 1 2 3 4 5 6 
#
# 1 0.019682 -0.000002 -0.007638 0.000000 0.000000 0.000000
# 2 -0.000002 0.011080 -0.002050 0.000000 0.000000 0.000000
# 3 -0.007638 -0.002050 0.010416 0.000000 0.000000 0.000000
# 4 0.000000 0.000000 0.000000 0.038126 0.000000 0.000000
# 5 0.000000 0.000000 0.000000 0.000000 -0.103256 0.000000
# 6 0.000000 0.000000 0.000000 0.000000 0.000000 0.031820
#
#
# Mechanical properties :
#
#
# Convention : Reuss Voigt Hill
#
# Bulk Modulus (GPa) = 45.87526 54.55564 50.21545
# Shear Modulus (GPa) = 144.86462 24.08622 84.47542
#
# Velocity S-wave (km/s) = 8.78764 3.58324 6.71052
# Velocity P-wave (km/s) = 11.28796 6.79715 9.31717
#
# Compressibility (1/GPa) = 0.02179824
#
# Stress axis : x y z
#
# Youngs Moduli (GPa) = 50.80883 90.25225 96.00291
#
# Poissons Ratio (x) = 0.00018 0.73326
# Poissons Ratio (y) = 0.00010 0.19681
# Poissons Ratio (z) = 0.38807 0.18502
#
# Static dielectric constant tensor:
#      x y z
#    x 1.610150 0.000000 0.000000 
#    y 0.000000 1.628030 0.000000 
#    z 0.000000 0.000000 1.701350 
# 
# From -- ./inp_files/26727.got.cif
#   From: 2010.05.17/outbox.cif.g08.bks.cpg/sg49_14_cif.got.tgz:26727.got - 2010.06.03 21:02:19.
