data_PCOD9393223
_publ_section_title
;
Structure prediction by ZEFSAII (Michael W. Deem and Ramdas Pophale) SiO2 
 PCOD9393223
Probable space group: P C C M
;
_chemical_formula_sum "Si O2"
_cell_formula_units_Z 32
_cell_length_a 5.890413
_cell_length_b 7.571117
_cell_length_c 31.713084
_cell_angle_alpha 90.000000
_cell_angle_beta 90.000000
_cell_angle_gamma 90.000000
_cell_volume 1414.308597
_symmetry_space_group_name_H-M "P C C M"
_symmetry_group_IT_number 49
_symmetry_cell_setting 'orthorhombic'
loop_
_space_group_symop_operation_xyz
x,y,z
-x,-y,z
x,-y,1/2-z
-x,y,1/2-z
-x,-y,-z
x,y,-z
-x,y,1/2+z
x,-y,1/2+z
loop_
_atom_site_type_symbol
_atom_site_label
_atom_site_fract_x
_atom_site_fract_y
_atom_site_fract_z
Si Si1 0.000000 0.500000 0.088717
Si Si2 0.610722 0.196004 0.207987
Si Si3 0.379867 0.693763 0.953303
Si Si4 0.000000 0.000000 0.326817
Si Si5 0.648259 0.755372 0.127135
O O1 0.876958 0.352055 0.060317
O O2 0.810601 0.592104 0.116782
O O3 0.500000 0.278756 0.250000
O O4 0.521482 0.283954 0.165449
O O5 0.500000 0.000000 0.207790
O O6 0.876285 0.149031 0.201940
O O7 0.500000 0.500000 0.955321
O O8 0.507577 0.791439 0.915389
O O9 0.392986 0.772603 0.000000
O O10 0.812097 0.089043 0.356622
#
# Coordination Sequence:
#
# PCOD9393223 Si02
#       5
#     4   8   8   4   8
#     4  10  19  34  58  81 110 148 182 229 283 322
#     4   9  19  34  56  83 110 142 187 230 268 324
#     4   9  18  33  54  80 108 144 191 231 268 325
#     4  10  20  37  59  82 110 146 179 226 282 323
#     4  10  20  34  56  84 113 144 182 227 274 330
#
# _framework density 22.625896999999998
#
# number of rings (size 3 to 8) (size 9 to 14) (size 15 to 20)
#    0.000    2.500    0.000    1.875    0.000    9.000 
#    0.000    0.625    0.000   45.000    0.000    0.000 
#    0.000    0.000    0.000    0.000    0.000    0.000 
#
# Total GULP energy -178534.858278 kJ/mol
# GULP energy per Si atom -5579.214321 kJ/mol
# Density = 2.257440 g / cm^3
# Si number density = 22.625897 Si / 1000 Ang^3
#
#
#
# Elastic Constant Matrix: (Units=GPa)
#
#
# Indices 1 2 3 4 5 6 
#
# 1 123.1368 16.4007 91.4097 0.0000 0.0000 0.0000
# 2 16.4007 39.7359 35.8421 0.0000 0.0000 0.0000
# 3 91.4097 35.8421 234.8219 0.0000 0.0000 0.0000
# 4 0.0000 0.0000 0.0000 23.1611 0.0000 0.0000
# 5 0.0000 0.0000 0.0000 0.0000 17.9268 0.0000
# 6 0.0000 0.0000 0.0000 0.0000 0.0000 34.5396
#
#
#
# Elastic Compliance Matrix: (Units=1/GPa)
#
#
# Indices 1 2 3 4 5 6 
#
# 1 0.011444 -0.000818 -0.004330 0.000000 0.000000 0.000000
# 2 -0.000818 0.029243 -0.004145 0.000000 0.000000 0.000000
# 3 -0.004330 -0.004145 0.006577 0.000000 0.000000 0.000000
# 4 0.000000 0.000000 0.000000 0.043176 0.000000 0.000000
# 5 0.000000 0.000000 0.000000 0.000000 0.055782 0.000000
# 6 0.000000 0.000000 0.000000 0.000000 0.000000 0.028952
#
#
# Mechanical properties :
#
#
# Convention : Reuss Voigt Hill
#
# Bulk Modulus (GPa) = 34.87018 76.11107 55.49063
# Shear Modulus (GPa) = 24.59179 32.06165 28.32672
#
# Velocity S-wave (km/s) = 3.30037 3.76843 3.54214
# Velocity P-wave (km/s) = 5.47434 7.25581 6.42710
#
# Compressibility (1/GPa) = 0.02867780
#
# Stress axis : x y z
#
# Youngs Moduli (GPa) = 87.37862 34.19664 152.04830
#
# Poissons Ratio (x) = 0.02796 0.65840
# Poissons Ratio (y) = 0.07146 0.63026
# Poissons Ratio (z) = 0.37837 0.14175
#
# Static dielectric constant tensor:
#      x y z
#    x 1.930590 0.000000 0.000000 
#    y 0.000000 1.912920 0.000000 
#    z 0.000000 0.000000 1.907000 
# 
# From -- ./inp_files/25557.got.cif
#   From: 2010.05.17/outbox.cif.g08.bks.cpg/sg49_13_cif.got.tgz:25557.got - 2010.06.03 21:02:19.
