data_PCOD9393697
_publ_section_title
;
Structure prediction by ZEFSAII (Michael W. Deem and Ramdas Pophale) SiO2 
 PCOD9393697
Probable space group: P C C M
;
_chemical_formula_sum "Si O2"
_cell_formula_units_Z 64
_cell_length_a 21.013336
_cell_length_b 19.936841
_cell_length_c 8.702459
_cell_angle_alpha 90.000000
_cell_angle_beta 90.000000
_cell_angle_gamma 90.000000
_cell_volume 3645.804159
_symmetry_space_group_name_H-M "P C C M"
_symmetry_group_IT_number 49
_symmetry_cell_setting 'orthorhombic'
loop_
_space_group_symop_operation_xyz
x,y,z
-x,-y,z
x,-y,1/2-z
-x,y,1/2-z
-x,-y,-z
x,y,-z
-x,y,1/2+z
x,-y,1/2+z
loop_
_atom_site_type_symbol
_atom_site_label
_atom_site_fract_x
_atom_site_fract_y
_atom_site_fract_z
Si Si1 0.615997 0.428237 0.183276
Si Si2 0.184680 0.291047 0.816205
Si Si3 0.066714 0.790964 0.183252
Si Si4 0.566807 0.709370 0.183794
Si Si5 0.766793 0.572062 0.683733
Si Si6 0.310382 0.796166 0.315231
Si Si7 0.883454 0.071581 0.315961
Si Si8 0.259342 0.929692 0.816817
O O1 0.595420 0.500000 0.250000
O O2 0.579933 0.365317 0.254280
O O3 0.691362 0.420083 0.220431
O O4 0.608910 0.428436 0.000000
O O5 0.124973 0.255140 0.738134
O O6 0.195855 0.366275 0.757750
O O7 0.248631 0.249092 0.778582
O O8 0.176792 0.289856 0.000000
O O9 0.078655 0.865268 0.250946
O O10 0.000000 0.765549 0.250000
O O11 0.064801 0.794169 0.000000
O O12 0.500000 0.733923 0.250000
O O13 0.626164 0.756202 0.229356
O O14 0.564393 0.707331 0.000000
O O15 0.786611 0.500000 0.750000
O O16 0.773400 0.572896 0.500000
O O17 0.310942 0.806344 0.500000
O O18 0.301743 0.866835 0.231885
O O19 0.885139 0.070926 0.500000
O O20 0.810441 0.080014 0.259112
O O21 0.905803 0.000000 0.250000
O O22 0.284162 0.000000 0.750000
O O23 0.251998 0.933788 0.000000
#
# Coordination Sequence:
#
# PCOD9393697 Si02
#       8
#     8   8   8   8   8   8   8   8
#     4  10  20  34  54  80 113 151 192 234 279 336
#     4  11  21  37  61  87 116 151 191 238 288 339
#     4  12  25  41  59  84 116 154 195 237 287 340
#     4  11  23  39  57  81 114 152 191 236 285 340
#     4  10  20  34  56  86 118 150 190 238 287 340
#     4  10  21  37  59  84 115 150 190 235 286 339
#     4  11  21  36  56  82 116 154 194 235 281 336
#     4  11  21  34  57  86 117 149 188 235 285 338
#
# _framework density 17.554425999999999
#
# number of rings (size 3 to 8) (size 9 to 14) (size 15 to 20)
#    0.000    1.250    2.500    5.625    0.000    3.000 
#    0.000    2.500    0.000    0.750    0.000    5.250 
#    0.000    0.000    0.000    0.000    0.000    0.000 
#
# Total GULP energy -357824.251194 kJ/mol
# GULP energy per Si atom -5591.003925 kJ/mol
# Density = 1.751447 g / cm^3
# Si number density = 17.554426 Si / 1000 Ang^3
#
#
#
# Elastic Constant Matrix: (Units=GPa)
#
#
# Indices 1 2 3 4 5 6 
#
# 1 109.0493 58.9331 57.3403 0.0000 0.0000 0.0000
# 2 58.9331 119.9233 56.4141 0.0000 0.0000 0.0000
# 3 57.3403 56.4141 107.4270 0.0000 0.0000 0.0000
# 4 0.0000 0.0000 0.0000 33.7402 0.0000 0.0000
# 5 0.0000 0.0000 0.0000 0.0000 31.0260 0.0000
# 6 0.0000 0.0000 0.0000 0.0000 0.0000 15.5173
#
#
#
# Elastic Compliance Matrix: (Units=1/GPa)
#
#
# Indices 1 2 3 4 5 6 
#
# 1 0.014442 -0.004610 -0.005288 0.000000 0.000000 0.000000
# 2 -0.004610 0.012546 -0.004128 0.000000 0.000000 0.000000
# 3 -0.005288 -0.004128 0.014299 0.000000 0.000000 0.000000
# 4 0.000000 0.000000 0.000000 0.029638 0.000000 0.000000
# 5 0.000000 0.000000 0.000000 0.000000 0.032231 0.000000
# 6 0.000000 0.000000 0.000000 0.000000 0.000000 0.064444
#
#
# Mechanical properties :
#
#
# Convention : Reuss Voigt Hill
#
# Bulk Modulus (GPa) = 75.55236 75.75273 75.65254
# Shear Modulus (GPa) = 24.99226 26.97083 25.98155
#
# Velocity S-wave (km/s) = 3.77729 3.92396 3.85132
# Velocity P-wave (km/s) = 7.88392 7.98603 7.93514
#
# Compressibility (1/GPa) = 0.01323585
#
# Stress axis : x y z
#
# Youngs Moduli (GPa) = 69.24402 79.70854 69.93623
#
# Poissons Ratio (x) = 0.36742 0.36981
# Poissons Ratio (y) = 0.31918 0.28869
# Poissons Ratio (z) = 0.36615 0.32903
#
# Static dielectric constant tensor:
#      x y z
#    x 1.597480 0.000000 0.000000 
#    y 0.000000 1.584710 0.000000 
#    z 0.000000 0.000000 1.581560 
# 
# From -- ./inp_files/5928.got.cif
#   From: 2010.05.17/outbox.cif.g08.bks.cpg/sg49_3_cif.got.tgz:5928.got - 2010.06.03 21:02:19.
