data_PCOD9393285
_publ_section_title
;
Structure prediction by ZEFSAII (Michael W. Deem and Ramdas Pophale) SiO2 
 PCOD9393285
Probable space group: P C C M
;
_chemical_formula_sum "Si O2"
_cell_formula_units_Z 48
_cell_length_a 20.880268
_cell_length_b 14.761841
_cell_length_c 8.681039
_cell_angle_alpha 90.000000
_cell_angle_beta 90.000000
_cell_angle_gamma 90.000000
_cell_volume 2675.767036
_symmetry_space_group_name_H-M "P C C M"
_symmetry_group_IT_number 49
_symmetry_cell_setting 'orthorhombic'
loop_
_space_group_symop_operation_xyz
x,y,z
-x,-y,z
x,-y,1/2-z
-x,y,1/2-z
-x,-y,-z
x,y,-z
-x,y,1/2+z
x,-y,1/2+z
loop_
_atom_site_type_symbol
_atom_site_label
_atom_site_fract_x
_atom_site_fract_y
_atom_site_fract_z
Si Si1 0.307346 0.101306 0.314524
Si Si2 0.388735 0.596386 0.684603
Si Si3 0.813469 0.211791 0.685607
Si Si4 0.433737 0.215340 0.683903
Si Si5 0.238687 0.595382 0.315250
Si Si6 0.070559 0.099218 0.315635
O O1 0.301515 0.099924 0.500000
O O2 0.246757 0.153119 0.243256
O O3 0.372087 0.155476 0.272800
O O4 0.309845 0.000000 0.250000
O O5 0.411611 0.500000 0.750000
O O6 0.393017 0.595817 0.500000
O O7 0.423930 0.683652 0.750777
O O8 0.313502 0.605645 0.730567
O O9 0.816826 0.207338 0.500000
O O10 0.799911 0.315649 0.732795
O O11 0.877331 0.170568 0.758048
O O12 0.500000 0.177567 0.750000
O O13 0.437156 0.219374 0.500000
O O14 0.215024 0.500000 0.250000
O O15 0.237580 0.591066 0.500000
O O16 0.068511 0.095147 0.500000
O O17 0.000000 0.119740 0.250000
O O18 0.088605 0.000000 0.250000
#
# Coordination Sequence:
#
# PCOD9393285 Si02
#       6
#     8   8   8   8   8   8
#     4  11  24  40  59  83 110 144 187 236 285 337
#     4  10  19  35  57  83 112 145 182 229 283 339
#     4  11  21  37  60  88 119 153 190 232 281 333
#     4  11  24  40  58  80 108 145 187 234 287 344
#     4   9  19  33  55  84 115 149 184 228 279 332
#     4  11  22  38  59  87 121 159 195 236 282 334
#
# _framework density 17.938782
#
# number of rings (size 3 to 8) (size 9 to 14) (size 15 to 20)
#    0.000    1.500    1.667    4.500    0.000    4.667 
#    0.000    3.333    0.000    0.500    0.000    3.500 
#    0.000    0.000    0.000    0.000    0.000    0.000 
#
# Total GULP energy -268290.753072 kJ/mol
# GULP energy per Si atom -5589.390689 kJ/mol
# Density = 1.789795 g / cm^3
# Si number density = 17.938782 Si / 1000 Ang^3
#
#
#
# Elastic Constant Matrix: (Units=GPa)
#
#
# Indices 1 2 3 4 5 6 
#
# 1 88.7955 66.1684 38.6199 0.0000 0.0000 0.0000
# 2 66.1684 138.3626 42.7860 0.0000 0.0000 0.0000
# 3 38.6199 42.7860 76.4343 0.0000 0.0000 0.0000
# 4 0.0000 0.0000 0.0000 28.5040 0.0000 0.0000
# 5 0.0000 0.0000 0.0000 0.0000 27.9155 0.0000
# 6 0.0000 0.0000 0.0000 0.0000 0.0000 -10.4703
#
#
#
# Elastic Compliance Matrix: (Units=1/GPa)
#
#
# Indices 1 2 3 4 5 6 
#
# 1 0.019255 -0.007497 -0.005532 0.000000 0.000000 0.000000
# 2 -0.007497 0.011660 -0.002739 0.000000 0.000000 0.000000
# 3 -0.005532 -0.002739 0.017411 0.000000 0.000000 0.000000
# 4 0.000000 0.000000 0.000000 0.035083 0.000000 0.000000
# 5 0.000000 0.000000 0.000000 0.000000 0.035822 0.000000
# 6 0.000000 0.000000 0.000000 0.000000 0.000000 -0.095509
#
#
# Mechanical properties :
#
#
# Convention : Reuss Voigt Hill
#
# Bulk Modulus (GPa) = 59.56016 66.52678 63.04347
# Shear Modulus (GPa) = 82.16263 19.59106 50.87685
#
# Velocity S-wave (km/s) = 6.77504 3.30829 5.33132
# Velocity P-wave (km/s) = 9.71985 7.19437 8.55086
#
# Compressibility (1/GPa) = 0.01678975
#
# Stress axis : x y z
#
# Youngs Moduli (GPa) = 51.93504 85.76536 57.43420
#
# Poissons Ratio (x) = 0.64302 0.31772
# Poissons Ratio (y) = 0.38938 0.15729
# Poissons Ratio (z) = 0.28730 0.23487
#
# Static dielectric constant tensor:
#      x y z
#    x 1.605060 0.000000 0.000000 
#    y 0.000000 1.596920 0.000000 
#    z 0.000000 0.000000 1.599580 
# 
# From -- ./inp_files/3718.got.cif
#   From: 2010.05.17/outbox.cif.g08.bks.cpg/sg49_2_cif.got.tgz:3718.got - 2010.06.03 21:02:19.
