data_PCOD9393717
_publ_section_title
;
Structure prediction by ZEFSAII (Michael W. Deem and Ramdas Pophale) SiO2 
 PCOD9393717
Probable space group: P C C M
;
_chemical_formula_sum "Si O2"
_cell_formula_units_Z 64
_cell_length_a 9.114939
_cell_length_b 20.152955
_cell_length_c 17.335843
_cell_angle_alpha 90.000000
_cell_angle_beta 90.000000
_cell_angle_gamma 90.000000
_cell_volume 3184.472237
_symmetry_space_group_name_H-M "P C C M"
_symmetry_group_IT_number 49
_symmetry_cell_setting 'orthorhombic'
loop_
_space_group_symop_operation_xyz
x,y,z
-x,-y,z
x,-y,1/2-z
-x,y,1/2-z
-x,-y,-z
x,y,-z
-x,y,1/2+z
x,-y,1/2+z
loop_
_atom_site_type_symbol
_atom_site_label
_atom_site_fract_x
_atom_site_fract_y
_atom_site_fract_z
Si Si1 0.642205 0.355089 0.907110
Si Si2 0.909517 0.187090 0.826312
Si Si3 0.152804 0.531335 0.093554
Si Si4 0.584988 0.219747 0.824720
Si Si5 0.677180 0.598861 0.093483
Si Si6 0.057604 0.929658 0.592554
Si Si7 0.115068 0.281915 0.090123
Si Si8 0.671817 0.153237 0.410036
O O1 0.781472 0.398441 0.879271
O O2 0.626995 0.279743 0.880957
O O3 0.487700 0.387107 0.880703
O O4 0.645906 0.357310 0.000000
O O5 0.740951 0.189542 0.803888
O O6 0.000000 0.172567 0.750000
O O7 0.945234 0.128696 0.885957
O O8 0.976490 0.254957 0.862379
O O9 0.272452 0.475086 0.110868
O O10 0.000000 0.500000 0.122169
O O11 0.137639 0.536653 0.000000
O O12 0.500000 0.246179 0.750000
O O13 0.475603 0.167516 0.863993
O O14 0.798333 0.653167 0.119445
O O15 0.676988 0.605701 0.000000
O O16 0.067080 0.933386 0.500000
O O17 0.218306 0.904224 0.618781
O O18 0.000000 0.000000 0.622534
O O19 0.232374 0.221384 0.093122
O O20 0.073641 0.292177 0.000000
O O21 0.637564 0.141440 0.500000
#
# Coordination Sequence:
#
# PCOD9393717 Si02
#       8
#     8   8   8   8   8   8   8   8
#     4  10  20  34  55  82 109 147 190 236 304 366
#     4  11  24  38  56  83 116 156 198 241 290 346
#     4   9  18  30  47  78 113 139 178 238 293 348
#     4  12  24  37  55  82 117 156 198 250 296 346
#     4   9  16  29  52  77 107 142 178 225 286 353
#     4   9  19  39  66  92 120 155 191 229 283 351
#     4   9  17  32  55  83 111 145 187 236 291 351
#     4   9  17  34  59  88 118 147 186 236 286 343
#
# _framework density 20.097521
#
# number of rings (size 3 to 8) (size 9 to 14) (size 15 to 20)
#    0.000    2.250    1.250    3.375    1.750    3.750 
#    0.000    0.625    0.000    4.500    0.000    1.750 
#    0.000    0.000    0.000    0.000    0.000    0.000 
#
# Total GULP energy -357037.059898 kJ/mol
# GULP energy per Si atom -5578.704061 kJ/mol
# Density = 2.005178 g / cm^3
# Si number density = 20.097521 Si / 1000 Ang^3
#
#
#
# Elastic Constant Matrix: (Units=GPa)
#
#
# Indices 1 2 3 4 5 6 
#
# 1 125.8404 39.6370 18.9153 0.0000 0.0000 0.0000
# 2 39.6370 91.6280 2.0750 0.0000 0.0000 0.0000
# 3 18.9153 2.0750 13.0421 0.0000 0.0000 0.0000
# 4 0.0000 0.0000 0.0000 -1.7215 0.0000 0.0000
# 5 0.0000 0.0000 0.0000 0.0000 24.9252 0.0000
# 6 0.0000 0.0000 0.0000 0.0000 0.0000 26.7520
#
#
#
# Elastic Compliance Matrix: (Units=1/GPa)
#
#
# Indices 1 2 3 4 5 6 
#
# 1 0.011946 -0.004792 -0.016563 0.000000 0.000000 0.000000
# 2 -0.004792 0.012876 0.004902 0.000000 0.000000 0.000000
# 3 -0.016563 0.004902 0.099916 0.000000 0.000000 0.000000
# 4 0.000000 0.000000 0.000000 -0.580903 0.000000 0.000000
# 5 0.000000 0.000000 0.000000 0.000000 0.040120 0.000000
# 6 0.000000 0.000000 0.000000 0.000000 0.000000 0.037380
#
#
# Mechanical properties :
#
#
# Convention : Reuss Voigt Hill
#
# Bulk Modulus (GPa) = 10.88949 39.08500 24.98724
# Shear Modulus (GPa) = -15.86556 21.31669 2.72557
#
# Velocity S-wave (km/s) = -2.81273 3.26031 1.16581
# Velocity P-wave (km/s) = 2.26241 5.80196 3.77785
#
# Compressibility (1/GPa) = 0.09183167
#
# Stress axis : x y z
#
# Youngs Moduli (GPa) = 83.71247 77.66490 10.00839
#
# Poissons Ratio (x) = 0.37220 0.16577
# Poissons Ratio (y) = 0.40119 -0.04906
# Poissons Ratio (z) = 1.38650 -0.38072
#
# Static dielectric constant tensor:
#      x y z
#    x 1.733240 0.000000 0.000000 
#    y 0.000000 1.721490 0.000000 
#    z 0.000000 0.000000 1.710600 
# 
# From -- ./inp_files/16587.got.cif
#   From: 2010.05.17/outbox.cif.g08.bks.cpg/sg49_9_cif.got.tgz:16587.got - 2010.06.03 21:02:19.
