data_PCOD9393258
_publ_section_title
;
Structure prediction by ZEFSAII (Michael W. Deem and Ramdas Pophale) SiO2 
 PCOD9393258
Probable space group: P C C M
;
_chemical_formula_sum "Si O2"
_cell_formula_units_Z 58
_cell_length_a 17.350019
_cell_length_b 12.562133
_cell_length_c 14.744992
_cell_angle_alpha 90.000000
_cell_angle_beta 90.000000
_cell_angle_gamma 90.000000
_cell_volume 3213.718872
_symmetry_space_group_name_H-M "P C C M"
_symmetry_group_IT_number 49
_symmetry_cell_setting 'orthorhombic'
loop_
_space_group_symop_operation_xyz
x,y,z
-x,-y,z
x,-y,1/2-z
-x,y,1/2-z
-x,-y,-z
x,y,-z
-x,y,1/2+z
x,-y,1/2+z
loop_
_atom_site_type_symbol
_atom_site_label
_atom_site_fract_x
_atom_site_fract_y
_atom_site_fract_z
Si Si1 0.648593 0.801168 0.390699
Si Si2 0.411928 0.975180 0.610552
Si Si3 0.788624 0.355337 0.892036
Si Si4 0.359184 0.252035 0.104787
Si Si5 0.518471 0.355540 0.850407
Si Si6 0.500000 0.500000 0.500000
Si Si7 0.087095 0.628249 0.746249
Si Si8 0.780800 0.604087 0.890790
O O1 0.637298 0.795163 0.500000
O O2 0.723619 0.731646 0.369459
O O3 0.576259 0.742500 0.346219
O O4 0.642824 0.925363 0.366995
O O5 0.415641 0.966716 0.500000
O O6 0.379344 0.862935 0.645687
O O7 0.500000 0.000000 0.639337
O O8 0.864338 0.334326 0.832994
O O9 0.766368 0.478631 0.870175
O O10 0.802604 0.350516 0.000000
O O11 0.438576 0.317925 0.104512
O O12 0.290585 0.323926 0.143019
O O13 0.337508 0.233304 0.000000
O O14 0.500000 0.390134 0.750000
O O15 0.550998 0.442163 0.919475
O O16 0.081248 0.500000 0.750000
O O17 0.141574 0.644455 0.658480
O O18 0.000000 0.670724 0.750000
O O19 0.787587 0.611199 0.000000
#
# Coordination Sequence:
#
# PCOD9393258 Si02
#       8
#     8   8   8   8   8   2   8   8
#     4  10  19  35  54  75 109 145 187 232 272 313
#     4   9  16  30  54  76 100 147 193 230 277 312
#     4   9  19  32  51  77 105 139 174 216 266 321
#     4  10  19  35  54  75 109 145 187 232 272 313
#     4  12  25  36  54  77 102 149 192 228 271 322
#     4  12  26  44  48  72 112 144 192 232 274 330
#     4   9  18  34  54  78 107 136 164 208 266 332
#     4   9  19  32  51  77 105 139 174 216 266 321
#
# _framework density 18.047626999999999
#
# number of rings (size 3 to 8) (size 9 to 14) (size 15 to 20)
#    0.000    2.207    2.759    0.207    3.862    0.552 
#    0.000    4.138    0.000    0.000    0.000    1.931 
#    0.000    5.517    0.000    0.000    0.000    0.000 
#
# Total GULP energy -322948.524944 kJ/mol
# GULP energy per Si atom -5568.078016 kJ/mol
# Density = 1.800655 g / cm^3
# Si number density = 18.047627 Si / 1000 Ang^3
#
#
#
# Elastic Constant Matrix: (Units=GPa)
#
#
# Indices 1 2 3 4 5 6 
#
# 1 137.3776 58.0626 22.7988 0.0000 0.0000 0.0000
# 2 58.0626 108.5417 20.7721 0.0000 0.0000 0.0000
# 3 22.7988 20.7721 72.1064 0.0000 0.0000 0.0000
# 4 0.0000 0.0000 0.0000 12.2727 0.0000 0.0000
# 5 0.0000 0.0000 0.0000 0.0000 25.4098 0.0000
# 6 0.0000 0.0000 0.0000 0.0000 0.0000 2.8453
#
#
#
# Elastic Compliance Matrix: (Units=1/GPa)
#
#
# Indices 1 2 3 4 5 6 
#
# 1 0.009587 -0.004813 -0.001644 0.000000 0.000000 0.000000
# 2 -0.004813 0.012167 -0.001983 0.000000 0.000000 0.000000
# 3 -0.001644 -0.001983 0.014960 0.000000 0.000000 0.000000
# 4 0.000000 0.000000 0.000000 0.081481 0.000000 0.000000
# 5 0.000000 0.000000 0.000000 0.000000 0.039355 0.000000
# 6 0.000000 0.000000 0.000000 0.000000 0.000000 0.351462
#
#
# Mechanical properties :
#
#
# Convention : Reuss Voigt Hill
#
# Bulk Modulus (GPa) = 50.42511 57.92143 54.17327
# Shear Modulus (GPa) = 9.38959 22.53170 15.96064
#
# Velocity S-wave (km/s) = 2.28341 3.53719 2.97705
# Velocity P-wave (km/s) = 5.91208 6.98896 6.47295
#
# Compressibility (1/GPa) = 0.01983139
#
# Stress axis : x y z
#
# Youngs Moduli (GPa) = 104.31317 82.18640 66.84643
#
# Poissons Ratio (x) = 0.39560 0.10993
# Poissons Ratio (y) = 0.50211 0.13257
# Poissons Ratio (z) = 0.17154 0.16299
#
# Static dielectric constant tensor:
#      x y z
#    x 1.609290 0.000000 0.000000 
#    y 0.000000 1.695360 0.000000 
#    z 0.000000 0.000000 1.667030 
# 
# From -- ./inp_files/13039.got.cif
#   From: 2010.05.17/outbox.cif.g08.bks.cpg/sg49_7_cif.got.tgz:13039.got - 2010.06.03 21:02:19.
