data_PCOD9393958
_publ_section_title
;
Structure prediction by ZEFSAII (Michael W. Deem and Ramdas Pophale) SiO2 
 PCOD9393958
Probable space group: P C C M
;
_chemical_formula_sum "Si O2"
_cell_formula_units_Z 58
_cell_length_a 19.577847
_cell_length_b 19.546111
_cell_length_c 8.799993
_cell_angle_alpha 90.000000
_cell_angle_beta 90.000000
_cell_angle_gamma 90.000000
_cell_volume 3367.500103
_symmetry_space_group_name_H-M "P C C M"
_symmetry_group_IT_number 49
_symmetry_cell_setting 'orthorhombic'
loop_
_space_group_symop_operation_xyz
x,y,z
-x,-y,z
x,-y,1/2-z
-x,y,1/2-z
-x,-y,-z
x,y,-z
-x,y,1/2+z
x,-y,1/2+z
loop_
_atom_site_type_symbol
_atom_site_label
_atom_site_fract_x
_atom_site_fract_y
_atom_site_fract_z
Si Si1 0.111445 0.888515 0.174725
Si Si2 0.260586 0.928806 0.818916
Si Si3 0.575503 0.680174 0.182904
Si Si4 0.318007 0.204483 0.179790
Si Si5 0.000000 0.000000 0.750000
Si Si6 0.315094 0.424233 0.317727
Si Si7 0.072309 0.737734 0.816874
Si Si8 0.792955 0.677253 0.181542
O O1 0.183067 0.914325 0.242619
O O2 0.085843 0.816286 0.239720
O O3 0.053284 0.946596 0.175501
O O4 0.127494 0.872936 0.000000
O O5 0.306013 0.864429 0.771368
O O6 0.284828 0.000000 0.750000
O O7 0.258293 0.935377 0.000000
O O8 0.500000 0.679555 0.250000
O O9 0.615136 0.751081 0.218063
O O10 0.621342 0.620159 0.255000
O O11 0.575050 0.672456 0.000000
O O12 0.254364 0.255690 0.208120
O O13 0.319177 0.189268 0.000000
O O14 0.317975 0.500000 0.250000
O O15 0.315966 0.425456 0.500000
O O16 0.247766 0.385135 0.257104
O O17 0.134301 0.692333 0.755567
O O18 0.000000 0.715585 0.750000
O O19 0.070003 0.736647 0.000000
O O20 0.797782 0.667384 0.000000
#
# Coordination Sequence:
#
# PCOD9393958 Si02
#       8
#     8   8   8   8   2   8   8   8
#     4  10  21  31  44  66  96 135 180 227 280 341
#     4  11  21  34  50  73 101 136 184 235 286 339
#     4  10  21  38  60  90 123 155 190 226 270 328
#     4   9  19  35  55  79 108 143 184 230 278 332
#     4  12  18  36  44  62 100 148 182 228 290 352
#     4  11  22  38  61  90 123 158 190 227 269 323
#     4  11  21  35  51  75 104 140 188 238 291 342
#     4  10  20  36  57  82 110 146 189 237 284 336
#
# _framework density 17.223459999999999
#
# number of rings (size 3 to 8) (size 9 to 14) (size 15 to 20)
#    0.000    1.655    2.759    3.931    0.000    3.034 
#    0.000    1.379    0.000    0.828    0.000    5.793 
#    0.000    0.000    0.000    0.000    0.000    0.000 
#
# Total GULP energy -323608.368872 kJ/mol
# GULP energy per Si atom -5579.454636 kJ/mol
# Density = 1.718426 g / cm^3
# Si number density = 17.223460 Si / 1000 Ang^3
#
#
#
# Elastic Constant Matrix: (Units=GPa)
#
#
# Indices 1 2 3 4 5 6 
#
# 1 136.2618 74.4585 59.3824 0.0000 0.0000 0.0000
# 2 74.4585 123.7113 66.1309 0.0000 0.0000 0.0000
# 3 59.3824 66.1309 96.9685 0.0000 0.0000 0.0000
# 4 0.0000 0.0000 0.0000 24.2903 0.0000 0.0000
# 5 0.0000 0.0000 0.0000 0.0000 17.9261 0.0000
# 6 0.0000 0.0000 0.0000 0.0000 0.0000 13.4987
#
#
#
# Elastic Compliance Matrix: (Units=1/GPa)
#
#
# Indices 1 2 3 4 5 6 
#
# 1 0.011734 -0.005069 -0.003729 0.000000 0.000000 0.000000
# 2 -0.005069 0.014911 -0.007065 0.000000 0.000000 0.000000
# 3 -0.003729 -0.007065 0.017414 0.000000 0.000000 0.000000
# 4 0.000000 0.000000 0.000000 0.041169 0.000000 0.000000
# 5 0.000000 0.000000 0.000000 0.000000 0.055784 0.000000
# 6 0.000000 0.000000 0.000000 0.000000 0.000000 0.074081
#
#
# Mechanical properties :
#
#
# Convention : Reuss Voigt Hill
#
# Bulk Modulus (GPa) = 81.07791 84.09836 82.58813
# Shear Modulus (GPa) = 19.92603 21.60769 20.76686
#
# Velocity S-wave (km/s) = 3.40503 3.54580 3.47613
# Velocity P-wave (km/s) = 7.91425 8.10540 8.01039
#
# Compressibility (1/GPa) = 0.01233382
#
# Stress axis : x y z
#
# Youngs Moduli (GPa) = 85.22536 67.06590 57.42539
#
# Poissons Ratio (x) = 0.33996 0.21411
# Poissons Ratio (y) = 0.43201 0.40569
# Poissons Ratio (z) = 0.31777 0.47380
#
# Static dielectric constant tensor:
#      x y z
#    x 1.576970 0.000000 0.000000 
#    y 0.000000 1.572420 0.000000 
#    z 0.000000 0.000000 1.579500 
# 
# From -- ./inp_files/5097.got.cif
#   From: 2010.05.17/outbox.cif.g08.bks.cpg/sg49_3_cif.got.tgz:5097.got - 2010.06.03 21:02:19.
