data_PCOD9393672
_publ_section_title
;
Structure prediction by ZEFSAII (Michael W. Deem and Ramdas Pophale) SiO2 
 PCOD9393672
Probable space group: P C C M
;
_chemical_formula_sum "Si O2"
_cell_formula_units_Z 48
_cell_length_a 32.104554
_cell_length_b 9.287600
_cell_length_c 8.701113
_cell_angle_alpha 90.000000
_cell_angle_beta 90.000000
_cell_angle_gamma 90.000000
_cell_volume 2594.447893
_symmetry_space_group_name_H-M "P C C M"
_symmetry_group_IT_number 49
_symmetry_cell_setting 'orthorhombic'
loop_
_space_group_symop_operation_xyz
x,y,z
-x,-y,z
x,-y,1/2-z
-x,y,1/2-z
-x,-y,-z
x,y,-z
-x,y,1/2+z
x,-y,1/2+z
loop_
_atom_site_type_symbol
_atom_site_label
_atom_site_fract_x
_atom_site_fract_y
_atom_site_fract_z
Si Si1 0.788631 0.839670 0.315405
Si Si2 0.706707 0.660430 0.685442
Si Si3 0.041955 0.337555 0.183438
Si Si4 0.625666 0.839988 0.685419
Si Si5 0.865649 0.337673 0.684565
Si Si6 0.544417 0.660577 0.315171
O O1 0.789957 0.844750 0.500000
O O2 0.747882 0.748434 0.268429
O O3 0.829553 0.760039 0.253321
O O4 0.785944 0.000000 0.250000
O O5 0.707495 0.500000 0.750000
O O6 0.706179 0.653055 0.500000
O O7 0.665287 0.745333 0.735831
O O8 0.042810 0.500000 0.250000
O O9 0.087842 0.278916 0.222549
O O10 0.000000 0.267042 0.250000
O O11 0.038273 0.344414 0.000000
O O12 0.626514 0.846447 0.500000
O O13 0.582742 0.761815 0.730706
O O14 0.628191 0.000000 0.750000
O O15 0.862019 0.500000 0.750000
O O16 0.862154 0.344180 0.500000
O O17 0.551266 0.500000 0.250000
O O18 0.500000 0.711530 0.250000
O O19 0.542328 0.653366 0.500000
#
# Coordination Sequence:
#
# PCOD9393672 Si02
#       6
#     8   8   8   8   8   8
#     4  11  23  38  57  80 108 142 179 221 270 323
#     4  10  22  39  59  84 110 139 178 221 267 319
#     4   9  16  26  44  71 103 137 173 217 265 312
#     4  10  22  38  56  81 112 145 181 221 268 321
#     4  10  20  34  53  79 110 143 181 223 268 319
#     4  10  20  35  56  81 109 143 184 227 271 319
#
# _framework density 18.501045999999999
#
# number of rings (size 3 to 8) (size 9 to 14) (size 15 to 20)
#    0.000    2.000    0.000    4.500    0.000    7.000 
#    0.000    1.667    0.000    0.500    0.000    3.500 
#    0.000    0.000    0.000    0.000    0.000    0.000 
#
# Total GULP energy -267986.678230 kJ/mol
# GULP energy per Si atom -5583.055796 kJ/mol
# Density = 1.845894 g / cm^3
# Si number density = 18.501046 Si / 1000 Ang^3
#
#
#
# Elastic Constant Matrix: (Units=GPa)
#
#
# Indices 1 2 3 4 5 6 
#
# 1 223.7603 114.1429 59.6455 0.0000 0.0000 0.0000
# 2 114.1429 130.8517 37.0120 0.0000 0.0000 0.0000
# 3 59.6455 37.0120 47.8869 0.0000 0.0000 0.0000
# 4 0.0000 0.0000 0.0000 31.4796 0.0000 0.0000
# 5 0.0000 0.0000 0.0000 0.0000 20.3582 0.0000
# 6 0.0000 0.0000 0.0000 0.0000 0.0000 -10.1281
#
#
#
# Elastic Compliance Matrix: (Units=1/GPa)
#
#
# Indices 1 2 3 4 5 6 
#
# 1 0.009598 -0.006387 -0.007018 0.000000 0.000000 0.000000
# 2 -0.006387 0.014031 -0.002889 0.000000 0.000000 0.000000
# 3 -0.007018 -0.002889 0.031857 0.000000 0.000000 0.000000
# 4 0.000000 0.000000 0.000000 0.031767 0.000000 0.000000
# 5 0.000000 0.000000 0.000000 0.000000 0.049120 0.000000
# 6 0.000000 0.000000 0.000000 0.000000 0.000000 -0.098735
#
#
# Mechanical properties :
#
#
# Convention : Reuss Voigt Hill
#
# Bulk Modulus (GPa) = 43.67334 91.56666 67.62000
# Shear Modulus (GPa) = 64.21908 21.12186 42.67047
#
# Velocity S-wave (km/s) = 5.89800 3.38251 4.80769
# Velocity P-wave (km/s) = 8.36893 8.05328 8.21262
#
# Compressibility (1/GPa) = 0.02289726
#
# Stress axis : x y z
#
# Youngs Moduli (GPa) = 104.18735 71.26997 31.39049
#
# Poissons Ratio (x) = 0.45523 0.22030
# Poissons Ratio (y) = 0.66549 0.09068
# Poissons Ratio (z) = 0.73119 0.20589
#
# Static dielectric constant tensor:
#      x y z
#    x 1.666490 0.000000 0.000000 
#    y 0.000000 1.585840 0.000000 
#    z 0.000000 0.000000 1.626820 
# 
# From -- ./inp_files/6857.got.cif
#   From: 2010.05.17/outbox.cif.g08.bks.cpg/sg49_4_cif.got.tgz:6857.got - 2010.06.03 21:02:19.
