data_PCOD9393098
_publ_section_title
;
Structure prediction by ZEFSAII (Michael W. Deem and Ramdas Pophale) SiO2 
 PCOD9393098
Probable space group: P C C M
;
_chemical_formula_sum "Si O2"
_cell_formula_units_Z 48
_cell_length_a 15.939383
_cell_length_b 9.156336
_cell_length_c 14.400930
_cell_angle_alpha 90.000000
_cell_angle_beta 90.000000
_cell_angle_gamma 90.000000
_cell_volume 2101.763118
_symmetry_space_group_name_H-M "P C C M"
_symmetry_group_IT_number 49
_symmetry_cell_setting 'orthorhombic'
loop_
_space_group_symop_operation_xyz
x,y,z
-x,-y,z
x,-y,1/2-z
-x,y,1/2-z
-x,-y,-z
x,y,-z
-x,y,1/2+z
x,-y,1/2+z
loop_
_atom_site_type_symbol
_atom_site_label
_atom_site_fract_x
_atom_site_fract_y
_atom_site_fract_z
Si Si1 0.254849 0.088502 0.106711
Si Si2 0.915347 0.933589 0.647690
Si Si3 0.080875 0.595198 0.112674
Si Si4 0.416058 0.086374 0.386325
Si Si5 0.585377 0.579761 0.386678
Si Si6 0.244597 0.584547 0.613538
O O1 0.239182 0.248657 0.148645
O O2 0.171530 0.990710 0.105721
O O3 0.333509 0.999952 0.145087
O O4 0.278365 0.118507 0.000000
O O5 0.921397 0.759753 0.648921
O O6 0.912513 0.000000 0.750000
O O7 0.000000 0.000000 0.603594
O O8 0.164897 0.511257 0.141660
O O9 0.000000 0.500000 0.138942
O O10 0.080797 0.606879 0.000000
O O11 0.415116 0.092314 0.500000
O O12 0.414167 0.253317 0.353602
O O13 0.500000 0.000000 0.360186
O O14 0.500000 0.500000 0.358784
O O15 0.585912 0.582986 0.500000
O O16 0.668168 0.490684 0.359426
O O17 0.241464 0.585953 0.500000
#
# Coordination Sequence:
#
# PCOD9393098 Si02
#       6
#     8   8   8   8   8   8
#     4  10  19  33  55  80 108 143 184 229 275 331
#     4  11  24  40  55  78 111 146 184 226 281 344
#     4  10  20  36  60  86 110 140 183 235 287 338
#     4   9  16  26  44  74 108 140 175 220 276 330
#     4   9  15  23  37  62 101 141 171 207 260 321
#     4   9  17  29  47  75 105 134 173 219 268 319
#
# _framework density 22.837968
#
# number of rings (size 3 to 8) (size 9 to 14) (size 15 to 20)
#    0.000    2.333    0.000    3.500    0.000    9.333 
#    0.000    5.833    0.000    0.500    0.000    0.000 
#    0.000    1.333    0.000    0.000    0.000    0.000 
#
# Total GULP energy -268504.610118 kJ/mol
# GULP energy per Si atom -5593.846044 kJ/mol
# Density = 2.278599 g / cm^3
# Si number density = 22.837968 Si / 1000 Ang^3
#
#
#
# Elastic Constant Matrix: (Units=GPa)
#
#
# Indices 1 2 3 4 5 6 
#
# 1 239.0778 144.4222 1.8598 0.0000 0.0000 0.0000
# 2 144.4222 277.2491 14.9215 0.0000 0.0000 0.0000
# 3 1.8598 14.9215 75.7519 0.0000 0.0000 0.0000
# 4 0.0000 0.0000 0.0000 5.5351 0.0000 0.0000
# 5 0.0000 0.0000 0.0000 0.0000 -8.9193 0.0000
# 6 0.0000 0.0000 0.0000 0.0000 0.0000 44.9858
#
#
#
# Elastic Compliance Matrix: (Units=1/GPa)
#
#
# Indices 1 2 3 4 5 6 
#
# 1 0.006121 -0.003214 0.000483 0.000000 0.000000 0.000000
# 2 -0.003214 0.005334 -0.000972 0.000000 0.000000 0.000000
# 3 0.000483 -0.000972 0.013381 0.000000 0.000000 0.000000
# 4 0.000000 0.000000 0.000000 0.180665 0.000000 0.000000
# 5 0.000000 0.000000 0.000000 0.000000 -0.112116 0.000000
# 6 0.000000 0.000000 0.000000 0.000000 0.000000 0.022229
#
#
# Mechanical properties :
#
#
# Convention : Reuss Voigt Hill
#
# Bulk Modulus (GPa) = 57.37722 101.60953 79.49337
# Shear Modulus (GPa) = 38.81126 37.04533 37.92830
#
# Velocity S-wave (km/s) = 4.12687 4.03189 4.07966
# Velocity P-wave (km/s) = 6.91999 8.14021 7.55477
#
# Compressibility (1/GPa) = 0.01742852
#
# Stress axis : x y z
#
# Youngs Moduli (GPa) = 163.38006 187.49264 74.73548
#
# Poissons Ratio (x) = 0.60266 -0.03609
# Poissons Ratio (y) = 0.52516 0.07262
# Poissons Ratio (z) = -0.07889 0.18218
#
# Static dielectric constant tensor:
#      x y z
#    x 1.810810 0.000000 0.000000 
#    y 0.000000 1.790600 0.000000 
#    z 0.000000 0.000000 2.020810 
# 
# From -- ./inp_files/16325.got.cif
#   From: 2010.05.17/outbox.cif.g08.bks.cpg/sg49_9_cif.got.tgz:16325.got - 2010.06.03 21:02:19.
