data_PCOD9393595
_publ_section_title
;
Structure prediction by ZEFSAII (Michael W. Deem and Ramdas Pophale) SiO2 
 PCOD9393595
Probable space group: P C C M
;
_chemical_formula_sum "Si O2"
_cell_formula_units_Z 64
_cell_length_a 16.293362
_cell_length_b 22.813924
_cell_length_c 8.949988
_cell_angle_alpha 90.000000
_cell_angle_beta 90.000000
_cell_angle_gamma 90.000000
_cell_volume 3326.849465
_symmetry_space_group_name_H-M "P C C M"
_symmetry_group_IT_number 49
_symmetry_cell_setting 'orthorhombic'
loop_
_space_group_symop_operation_xyz
x,y,z
-x,-y,z
x,-y,1/2-z
-x,y,1/2-z
-x,-y,-z
x,y,-z
-x,y,1/2+z
x,-y,1/2+z
loop_
_atom_site_type_symbol
_atom_site_label
_atom_site_fract_x
_atom_site_fract_y
_atom_site_fract_z
Si Si1 0.235857 0.560906 0.319259
Si Si2 0.302341 0.186665 0.167114
Si Si3 0.412154 0.593293 0.818915
Si Si4 0.252902 0.058841 0.821630
Si Si5 0.419079 0.270285 0.674100
Si Si6 0.086075 0.647549 0.679649
Si Si7 0.888952 0.216702 0.329596
Si Si8 0.917574 0.096655 0.176132
O O1 0.204367 0.500000 0.250000
O O2 0.242017 0.558554 0.500000
O O3 0.327492 0.568971 0.250568
O O4 0.168725 0.611338 0.279379
O O5 0.303183 0.118287 0.208830
O O6 0.345571 0.229070 0.281074
O O7 0.208200 0.206373 0.159737
O O8 0.337721 0.193940 0.000000
O O9 0.500000 0.572300 0.750000
O O10 0.407260 0.662430 0.778195
O O11 0.412979 0.585769 0.000000
O O12 0.163116 0.069648 0.751444
O O13 0.287849 0.000000 0.750000
O O14 0.245168 0.053556 0.000000
O O15 0.500000 0.246031 0.750000
O O16 0.431670 0.271975 0.500000
O O17 0.079749 0.644173 0.500000
O O18 0.094861 0.716666 0.718339
O O19 0.000000 0.626061 0.750000
O O20 0.921550 0.207393 0.500000
O O21 0.916326 0.166032 0.217028
O O22 0.000000 0.072388 0.250000
O O23 0.916290 0.087625 0.000000
#
# Coordination Sequence:
#
# PCOD9393595 Si02
#       8
#     8   8   8   8   8   8   8   8
#     4  11  24  42  61  83 112 149 192 238 283 332
#     4   9  18  33  54  78 109 143 176 218 269 321
#     4  10  21  38  61  91 122 152 184 224 274 334
#     4  10  21  37  54  74 100 135 178 222 265 313
#     4  10  20  33  54  84 116 145 176 212 259 317
#     4  10  22  38  58  82 111 148 190 237 289 338
#     4   9  18  34  54  79 108 139 175 219 273 330
#     4  11  21  33  50  74 104 137 172 215 265 319
#
# _framework density 19.237418999999999
#
# number of rings (size 3 to 8) (size 9 to 14) (size 15 to 20)
#    0.000    2.000    0.000    4.500    0.000    8.250 
#    0.000    3.750    0.000    0.375    0.000    2.625 
#    0.000    0.000    0.000    0.000    0.000    0.000 
#
# Total GULP energy -357114.728855 kJ/mol
# GULP energy per Si atom -5579.917638 kJ/mol
# Density = 1.919363 g / cm^3
# Si number density = 19.237419 Si / 1000 Ang^3
#
#
#
# Elastic Constant Matrix: (Units=GPa)
#
#
# Indices 1 2 3 4 5 6 
#
# 1 65.2732 27.9932 19.7293 0.0000 0.0000 0.0000
# 2 27.9932 87.9046 29.1462 0.0000 0.0000 0.0000
# 3 19.7293 29.1462 47.3295 0.0000 0.0000 0.0000
# 4 0.0000 0.0000 0.0000 23.4096 0.0000 0.0000
# 5 0.0000 0.0000 0.0000 0.0000 33.6276 0.0000
# 6 0.0000 0.0000 0.0000 0.0000 0.0000 27.6596
#
#
#
# Elastic Compliance Matrix: (Units=1/GPa)
#
#
# Indices 1 2 3 4 5 6 
#
# 1 0.018705 -0.004236 -0.005188 0.000000 0.000000 0.000000
# 2 -0.004236 0.015254 -0.007628 0.000000 0.000000 0.000000
# 3 -0.005188 -0.007628 0.027989 0.000000 0.000000 0.000000
# 4 0.000000 0.000000 0.000000 0.042718 0.000000 0.000000
# 5 0.000000 0.000000 0.000000 0.000000 0.029737 0.000000
# 6 0.000000 0.000000 0.000000 0.000000 0.000000 0.036154
#
#
# Mechanical properties :
#
#
# Convention : Reuss Voigt Hill
#
# Bulk Modulus (GPa) = 35.91602 39.36054 37.63828
# Shear Modulus (GPa) = 23.37069 25.18193 24.27631
#
# Velocity S-wave (km/s) = 3.48926 3.62195 3.55622
# Velocity P-wave (km/s) = 5.91132 6.16410 6.03903
#
# Compressibility (1/GPa) = 0.02784273
#
# Stress axis : x y z
#
# Youngs Moduli (GPa) = 53.46083 65.55590 35.72882
#
# Poissons Ratio (x) = 0.27772 0.18538
# Poissons Ratio (y) = 0.22648 0.27253
# Poissons Ratio (z) = 0.27738 0.50005
#
# Static dielectric constant tensor:
#      x y z
#    x 1.675310 0.000000 0.000000 
#    y 0.000000 1.695680 0.000000 
#    z 0.000000 0.000000 1.547710 
# 
# From -- ./inp_files/4316.got.cif
#   From: 2010.05.17/outbox.cif.g08.bks.cpg/sg49_3_cif.got.tgz:4316.got - 2010.06.03 21:02:19.
