data_PCOD9393363
_publ_section_title
;
Structure prediction by ZEFSAII (Michael W. Deem and Ramdas Pophale) SiO2 
 PCOD9393363
Probable space group: P C C M
;
_chemical_formula_sum "Si O2"
_cell_formula_units_Z 64
_cell_length_a 24.338856
_cell_length_b 15.740214
_cell_length_c 8.692284
_cell_angle_alpha 90.000000
_cell_angle_beta 90.000000
_cell_angle_gamma 90.000000
_cell_volume 3330.003587
_symmetry_space_group_name_H-M "P C C M"
_symmetry_group_IT_number 49
_symmetry_cell_setting 'orthorhombic'
loop_
_space_group_symop_operation_xyz
x,y,z
-x,-y,z
x,-y,1/2-z
-x,y,1/2-z
-x,-y,-z
x,y,-z
-x,y,1/2+z
x,-y,1/2+z
loop_
_atom_site_type_symbol
_atom_site_label
_atom_site_fract_x
_atom_site_fract_y
_atom_site_fract_z
Si Si1 0.133328 0.245206 0.184893
Si Si2 0.255709 0.255115 0.314767
Si Si3 0.061073 0.590415 0.684139
Si Si4 0.442285 0.849862 0.816416
Si Si5 0.673430 0.589847 0.183396
Si Si6 0.675222 0.088692 0.814676
Si Si7 0.060852 0.093015 0.315483
Si Si8 0.558593 0.647435 0.683863
O O1 0.194839 0.252811 0.247154
O O2 0.099807 0.330820 0.224927
O O3 0.102551 0.164748 0.258458
O O4 0.133345 0.236638 0.000000
O O5 0.254131 0.259904 0.500000
O O6 0.290049 0.334223 0.250679
O O7 0.287746 0.168860 0.270985
O O8 0.080812 0.500000 0.750000
O O9 0.057708 0.584359 0.500000
O O10 0.000000 0.604841 0.750000
O O11 0.500000 0.880833 0.750000
O O12 0.387231 0.894963 0.758521
O O13 0.437206 0.748888 0.783428
O O14 0.444252 0.858630 0.000000
O O15 0.692805 0.500000 0.250000
O O16 0.610786 0.604123 0.238661
O O17 0.675828 0.589797 0.000000
O O18 0.696092 0.000000 0.750000
O O19 0.674006 0.085291 0.000000
O O20 0.058757 0.090022 0.500000
O O21 0.000000 0.112693 0.250000
O O22 0.075848 0.000000 0.250000
O O23 0.500000 0.618323 0.750000
O O24 0.560482 0.635702 0.500000
#
# Coordination Sequence:
#
# PCOD9393363 Si02
#       8
#     8   8   8   8   8   8   8   8
#     4  11  24  41  62  92 125 163 211 257 303 367
#     4  11  24  45  65  86 121 162 206 260 311 359
#     4  10  21  37  61  91 127 162 199 245 294 352
#     4   9  18  34  56  84 118 152 189 238 295 358
#     4  12  25  42  65  91 119 158 203 252 311 372
#     4  10  22  40  61  86 117 155 198 247 301 360
#     4  11  22  39  64  95 130 169 207 255 311 368
#     4  10  19  36  60  89 123 156 195 245 303 368
#
# _framework density 19.219199
#
# number of rings (size 3 to 8) (size 9 to 14) (size 15 to 20)
#    0.000    1.500    1.250    4.875    0.000    6.500 
#    0.000    5.000    0.000    0.000    0.000    0.000 
#    0.000    0.000    0.000    0.000    0.000    0.000 
#
# Total GULP energy -357865.226793 kJ/mol
# GULP energy per Si atom -5591.644169 kJ/mol
# Density = 1.917546 g / cm^3
# Si number density = 19.219199 Si / 1000 Ang^3
#
#
#
# Elastic Constant Matrix: (Units=GPa)
#
#
# Indices 1 2 3 4 5 6 
#
# 1 139.0969 102.2109 55.3421 0.0000 0.0000 0.0000
# 2 102.2109 158.8202 67.4937 0.0000 0.0000 0.0000
# 3 55.3421 67.4937 89.8209 0.0000 0.0000 0.0000
# 4 0.0000 0.0000 0.0000 59.9862 0.0000 0.0000
# 5 0.0000 0.0000 0.0000 0.0000 32.4713 0.0000
# 6 0.0000 0.0000 0.0000 0.0000 0.0000 -12.8951
#
#
#
# Elastic Compliance Matrix: (Units=1/GPa)
#
#
# Indices 1 2 3 4 5 6 
#
# 1 0.014085 -0.007899 -0.002743 0.000000 0.000000 0.000000
# 2 -0.007899 0.013680 -0.005413 0.000000 0.000000 0.000000
# 3 -0.002743 -0.005413 0.016890 0.000000 0.000000 0.000000
# 4 0.000000 0.000000 0.000000 0.016670 0.000000 0.000000
# 5 0.000000 0.000000 0.000000 0.000000 0.030796 0.000000
# 6 0.000000 0.000000 0.000000 0.000000 0.000000 -0.077549
#
#
# Mechanical properties :
#
#
# Convention : Reuss Voigt Hill
#
# Bulk Modulus (GPa) = 79.70324 93.09236 86.39780
# Shear Modulus (GPa) = 98.30049 26.75857 62.52953
#
# Velocity S-wave (km/s) = 7.15947 3.73538 5.71013
# Velocity P-wave (km/s) = 10.48355 8.19429 9.40880
#
# Compressibility (1/GPa) = 0.01254654
#
# Stress axis : x y z
#
# Youngs Moduli (GPa) = 70.99933 73.09901 59.20493
#
# Poissons Ratio (x) = 0.57739 0.16238
# Poissons Ratio (y) = 0.56081 0.32047
# Poissons Ratio (z) = 0.19473 0.39567
#
# Static dielectric constant tensor:
#      x y z
#    x 1.644060 0.000000 0.000000 
#    y 0.000000 1.673170 0.000000 
#    z 0.000000 0.000000 1.643790 
# 
# From -- ./inp_files/6478.got.cif
#   From: 2010.05.17/outbox.cif.g08.bks.cpg/sg49_4_cif.got.tgz:6478.got - 2010.06.03 21:02:19.
