data_PCOD9393372
_publ_section_title
;
Structure prediction by ZEFSAII (Michael W. Deem and Ramdas Pophale) SiO2 
 PCOD9393372
Probable space group: P C C M
;
_chemical_formula_sum "Si O2"
_cell_formula_units_Z 48
_cell_length_a 15.327888
_cell_length_b 7.605801
_cell_length_c 17.269671
_cell_angle_alpha 90.000000
_cell_angle_beta 90.000000
_cell_angle_gamma 90.000000
_cell_volume 2013.313199
_symmetry_space_group_name_H-M "P C C M"
_symmetry_group_IT_number 49
_symmetry_cell_setting 'orthorhombic'
loop_
_space_group_symop_operation_xyz
x,y,z
-x,-y,z
x,-y,1/2-z
-x,y,1/2-z
-x,-y,-z
x,y,-z
-x,y,1/2+z
x,-y,1/2+z
loop_
_atom_site_type_symbol
_atom_site_label
_atom_site_fract_x
_atom_site_fract_y
_atom_site_fract_z
Si Si1 0.687622 0.310088 0.910042
Si Si2 0.050399 0.254077 0.588166
Si Si3 0.829643 0.676979 0.708457
Si Si4 0.495481 0.209906 0.911278
Si Si5 0.691670 0.275332 0.587906
Si Si6 0.126313 0.127001 0.859668
O O1 0.752624 0.240829 0.843961
O O2 0.588160 0.280940 0.882949
O O3 0.708753 0.517110 0.913472
O O4 0.696574 0.243136 0.000000
O O5 0.074788 0.289596 0.500000
O O6 0.095409 0.381638 0.648885
O O7 0.947126 0.241823 0.596854
O O8 0.092617 0.066306 0.615310
O O9 0.796642 0.500000 0.750000
O O10 0.872182 0.809495 0.770458
O O11 0.402972 0.253705 0.872347
O O12 0.500000 0.000000 0.913213
O O13 0.492218 0.280141 0.000000
O O14 0.679658 0.211034 0.500000
O O15 0.774853 0.171006 0.617573
#
# Coordination Sequence:
#
# PCOD9393372 Si02
#       6
#     8   8   8   8   8   8
#     4  10  21  40  64  96 136 181 229 274 332 407
#     4  11  25  46  71  99 131 177 233 288 339 409
#     4  12  25  44  65  99 140 182 219 275 352 413
#     4   9  19  35  62  99 132 169 226 288 337 388
#     4  10  19  36  64  95 131 176 226 278 330 403
#     4  11  23  44  69  97 136 176 227 278 348 416
#
# _framework density 23.841297999999998
#
# number of rings (size 3 to 8) (size 9 to 14) (size 15 to 20)
#    0.000    1.500    1.667    4.000    2.333    4.667 
#    0.000    1.667    0.000    1.000    0.000    0.000 
#    0.000    0.000    0.000    0.000    0.000    0.000 
#
# Total GULP energy -268033.097757 kJ/mol
# GULP energy per Si atom -5584.022870 kJ/mol
# Density = 2.378703 g / cm^3
# Si number density = 23.841298 Si / 1000 Ang^3
#
#
#
# Elastic Constant Matrix: (Units=GPa)
#
#
# Indices 1 2 3 4 5 6 
#
# 1 130.3917 17.1507 25.2808 0.0000 0.0000 0.0000
# 2 17.1507 80.9609 3.8687 0.0000 0.0000 0.0000
# 3 25.2808 3.8687 111.7491 0.0000 0.0000 0.0000
# 4 0.0000 0.0000 0.0000 -73.5991 0.0000 0.0000
# 5 0.0000 0.0000 0.0000 0.0000 259.6685 0.0000
# 6 0.0000 0.0000 0.0000 0.0000 0.0000 32.7311
#
#
#
# Elastic Compliance Matrix: (Units=1/GPa)
#
#
# Indices 1 2 3 4 5 6 
#
# 1 0.008238 -0.001659 -0.001806 0.000000 0.000000 0.000000
# 2 -0.001659 0.012706 -0.000065 0.000000 0.000000 0.000000
# 3 -0.001806 -0.000065 0.009359 0.000000 0.000000 0.000000
# 4 0.000000 0.000000 0.000000 -0.013587 0.000000 0.000000
# 5 0.000000 0.000000 0.000000 0.000000 0.003851 0.000000
# 6 0.000000 0.000000 0.000000 0.000000 0.000000 0.030552
#
#
# Mechanical properties :
#
#
# Convention : Reuss Voigt Hill
#
# Bulk Modulus (GPa) = 43.02164 46.18913 44.60538
# Shear Modulus (GPa) = 75.84248 62.21353 69.02801
#
# Velocity S-wave (km/s) = 5.64628 5.11385 5.38665
# Velocity P-wave (km/s) = 7.78405 7.36779 7.57878
#
# Compressibility (1/GPa) = 0.02324412
#
# Stress axis : x y z
#
# Youngs Moduli (GPa) = 121.39522 78.70227 106.84377
#
# Poissons Ratio (x) = 0.13055 0.19298
# Poissons Ratio (y) = 0.20136 0.00691
# Poissons Ratio (z) = 0.21926 0.00509
#
# Static dielectric constant tensor:
#      x y z
#    x 1.955870 0.000000 0.000000 
#    y 0.000000 1.991190 0.000000 
#    z 0.000000 0.000000 1.936640 
# 
# From -- ./inp_files/17692.got.cif
#   From: 2010.05.17/outbox.cif.g08.bks.cpg/sg49_9_cif.got.tgz:17692.got - 2010.06.03 21:02:19.
