data_PCOD9393243
_publ_section_title
;
Structure prediction by ZEFSAII (Michael W. Deem and Ramdas Pophale) SiO2 
 PCOD9393243
Probable space group: P C C M
;
_chemical_formula_sum "Si O2"
_cell_formula_units_Z 64
_cell_length_a 5.587324
_cell_length_b 22.157687
_cell_length_c 27.302339
_cell_angle_alpha 90.000000
_cell_angle_beta 90.000000
_cell_angle_gamma 90.000000
_cell_volume 3380.088988
_symmetry_space_group_name_H-M "P C C M"
_symmetry_group_IT_number 49
_symmetry_cell_setting 'orthorhombic'
loop_
_space_group_symop_operation_xyz
x,y,z
-x,-y,z
x,-y,1/2-z
-x,y,1/2-z
-x,-y,-z
x,y,-z
-x,y,1/2+z
x,-y,1/2+z
loop_
_atom_site_type_symbol
_atom_site_label
_atom_site_fract_x
_atom_site_fract_y
_atom_site_fract_z
Si Si1 0.641357 0.058373 0.884660
Si Si2 0.741577 0.722698 0.601987
Si Si3 0.131949 0.107509 0.700908
Si Si4 0.584374 0.767906 0.698352
Si Si5 0.263364 0.163338 0.130146
Si Si6 0.243127 0.671216 0.441901
Si Si7 0.108698 0.844201 0.942651
Si Si8 0.750697 0.526584 0.941889
O O1 0.754364 0.052933 0.830299
O O2 0.453085 0.111108 0.875774
O O3 0.824005 0.089029 0.922827
O O4 0.500000 0.000000 0.901437
O O5 0.748001 0.729001 0.661414
O O6 0.496145 0.692402 0.582295
O O7 0.732974 0.791842 0.582146
O O8 0.990456 0.694462 0.581541
O O9 0.302059 0.165857 0.710837
O O10 0.000000 0.088987 0.750000
O O11 0.946889 0.136084 0.662878
O O12 0.500000 0.741341 0.750000
O O13 0.364016 0.782347 0.662080
O O14 0.152804 0.174166 0.077034
O O15 0.243539 0.687385 0.500000
O O16 0.243718 0.598610 0.437903
O O17 0.130063 0.841977 0.000000
O O18 0.500000 0.500000 0.921747
O O19 0.000000 0.500000 0.921350
O O20 0.750345 0.510787 0.000000
#
# Coordination Sequence:
#
# PCOD9393243 Si02
#       8
#     8   8   8   8   8   8   8   8
#     4  10  23  40  56  76 109 139 188 251 294 359
#     4  12  23  38  56  89 124 158 203 248 301 363
#     4  10  19  34  60  79 100 136 181 235 309 376
#     4  11  21  35  60  83 107 149 189 237 304 364
#     4  10  19  39  56  78 105 135 184 240 294 365
#     4  11  23  37  57  89 131 170 204 249 294 341
#     4  11  23  37  57  81 108 155 196 233 292 355
#     4   9  17  32  55  82 118 167 214 246 282 334
#
# _framework density 18.934411999999998
#
# number of rings (size 3 to 8) (size 9 to 14) (size 15 to 20)
#    0.000    1.500    5.000    2.625    0.000    4.750 
#    0.000    2.500    0.000    0.000    0.000    0.000 
#    0.000    7.500    0.000    0.000    0.000    0.000 
#
# Total GULP energy -356592.949159 kJ/mol
# GULP energy per Si atom -5571.764831 kJ/mol
# Density = 1.889132 g / cm^3
# Si number density = 18.934412 Si / 1000 Ang^3
#
#
#
# Elastic Constant Matrix: (Units=GPa)
#
#
# Indices 1 2 3 4 5 6 
#
# 1 104.8914 32.3641 29.2909 0.0000 0.0000 0.0000
# 2 32.3641 42.5255 19.9531 0.0000 0.0000 0.0000
# 3 29.2909 19.9531 119.8869 0.0000 0.0000 0.0000
# 4 0.0000 0.0000 0.0000 13.6155 0.0000 0.0000
# 5 0.0000 0.0000 0.0000 0.0000 26.0453 0.0000
# 6 0.0000 0.0000 0.0000 0.0000 0.0000 24.5561
#
#
#
# Elastic Compliance Matrix: (Units=1/GPa)
#
#
# Indices 1 2 3 4 5 6 
#
# 1 0.012745 -0.008937 -0.001627 0.000000 0.000000 0.000000
# 2 -0.008937 0.031773 -0.003105 0.000000 0.000000 0.000000
# 3 -0.001627 -0.003105 0.009255 0.000000 0.000000 0.000000
# 4 0.000000 0.000000 0.000000 0.073446 0.000000 0.000000
# 5 0.000000 0.000000 0.000000 0.000000 0.038395 0.000000
# 6 0.000000 0.000000 0.000000 0.000000 0.000000 0.040723
#
#
# Mechanical properties :
#
#
# Convention : Reuss Voigt Hill
#
# Bulk Modulus (GPa) = 37.82428 47.83556 42.82992
# Shear Modulus (GPa) = 20.61975 25.22309 22.92142
#
# Velocity S-wave (km/s) = 3.30359 3.65379 3.48310
# Velocity P-wave (km/s) = 5.87975 6.56650 6.23259
#
# Compressibility (1/GPa) = 0.02643805
#
# Stress axis : x y z
#
# Youngs Moduli (GPa) = 78.46044 31.47297 108.04582
#
# Poissons Ratio (x) = 0.28126 0.17575
# Poissons Ratio (y) = 0.70117 0.33545
# Poissons Ratio (z) = 0.12762 0.09771
#
# Static dielectric constant tensor:
#      x y z
#    x 1.807950 0.000000 0.000000 
#    y 0.000000 1.657620 0.000000 
#    z 0.000000 0.000000 1.678450 
# 
# From -- ./inp_files/24123.got.cif
#   From: 2010.05.17/outbox.cif.g08.bks.cpg/sg49_13_cif.got.tgz:24123.got - 2010.06.03 21:02:19.
