data_PCOD9393299
_publ_section_title
;
Structure prediction by ZEFSAII (Michael W. Deem and Ramdas Pophale) SiO2 
 PCOD9393299
Probable space group: P C C M
;
_chemical_formula_sum "Si O2"
_cell_formula_units_Z 34
_cell_length_a 10.035024
_cell_length_b 9.571816
_cell_length_c 20.120347
_cell_angle_alpha 90.000000
_cell_angle_beta 90.000000
_cell_angle_gamma 90.000000
_cell_volume 1932.627805
_symmetry_space_group_name_H-M "P C C M"
_symmetry_group_IT_number 49
_symmetry_cell_setting 'orthorhombic'
loop_
_space_group_symop_operation_xyz
x,y,z
-x,-y,z
x,-y,1/2-z
-x,y,1/2-z
-x,-y,-z
x,y,-z
-x,y,1/2+z
x,-y,1/2+z
loop_
_atom_site_type_symbol
_atom_site_label
_atom_site_fract_x
_atom_site_fract_y
_atom_site_fract_z
Si Si1 0.000000 0.500000 0.250000
Si Si2 0.480447 0.331914 0.675659
Si Si3 0.276763 0.670459 0.420469
Si Si4 0.814033 0.628075 0.362306
Si Si5 0.979797 0.155992 0.579525
O O1 0.901184 0.587156 0.297602
O O2 0.500000 0.500000 0.679981
O O3 0.500000 0.274838 0.750000
O O4 0.590917 0.292778 0.621137
O O5 0.328898 0.306842 0.654822
O O6 0.299615 0.674634 0.500000
O O7 0.221261 0.516195 0.400855
O O8 0.160347 0.776701 0.400064
O O9 0.903628 0.737097 0.401882
O O10 0.975554 0.147599 0.500000
O O11 0.000000 0.000000 0.606578
#
# Coordination Sequence:
#
# PCOD9393299 Si02
#       5
#     2   8   8   8   8
#     4  12  20  32  58  84 112 148 188 238 288 352
#     4   9  19  33  53  81 112 146 179 228 285 338
#     4  10  19  35  58  85 112 143 188 239 284 334
#     4  11  20  33  58  81 111 145 187 231 282 338
#     4  10  21  37  56  81 112 145 184 233 284 334
#
# _framework density 17.592627
#
# number of rings (size 3 to 8) (size 9 to 14) (size 15 to 20)
#    0.000    1.882    2.353    3.529    0.000    7.059 
#    0.000    1.765    0.000    5.647    0.000    0.000 
#    0.000    0.000    0.000    0.000    0.000    0.000 
#
# Total GULP energy -189536.622382 kJ/mol
# GULP energy per Si atom -5574.606541 kJ/mol
# Density = 1.755259 g / cm^3
# Si number density = 17.592627 Si / 1000 Ang^3
#
#
#
# Elastic Constant Matrix: (Units=GPa)
#
#
# Indices 1 2 3 4 5 6 
#
# 1 185.3508 47.5313 60.9987 0.0000 0.0000 0.0000
# 2 47.5313 63.4666 20.4100 0.0000 0.0000 0.0000
# 3 60.9987 20.4100 61.5613 0.0000 0.0000 0.0000
# 4 0.0000 0.0000 0.0000 -12.6026 0.0000 0.0000
# 5 0.0000 0.0000 0.0000 0.0000 31.9940 0.0000
# 6 0.0000 0.0000 0.0000 0.0000 0.0000 -4.3635
#
#
#
# Elastic Compliance Matrix: (Units=1/GPa)
#
#
# Indices 1 2 3 4 5 6 
#
# 1 0.008948 -0.004310 -0.007437 0.000000 0.000000 0.000000
# 2 -0.004310 0.019712 -0.002265 0.000000 0.000000 0.000000
# 3 -0.007437 -0.002265 0.024364 0.000000 0.000000 0.000000
# 4 0.000000 0.000000 0.000000 -0.079349 0.000000 0.000000
# 5 0.000000 0.000000 0.000000 0.000000 0.031256 0.000000
# 6 0.000000 0.000000 0.000000 0.000000 0.000000 -0.229175
#
#
# Mechanical properties :
#
#
# Convention : Reuss Voigt Hill
#
# Bulk Modulus (GPa) = 39.99951 63.13987 51.56969
# Shear Modulus (GPa) = -26.61199 15.10149 -5.75525
#
# Velocity S-wave (km/s) = -3.89354 2.93302 -1.81066
# Velocity P-wave (km/s) = 1.60407 6.88753 5.00055
#
# Compressibility (1/GPa) = 0.02500031
#
# Stress axis : x y z
#
# Youngs Moduli (GPa) = 111.75745 50.72982 41.04342
#
# Poissons Ratio (x) = 0.21862 0.30526
# Poissons Ratio (y) = 0.48162 0.09297
# Poissons Ratio (z) = 0.83119 0.11492
#
# Static dielectric constant tensor:
#      x y z
#    x 1.602680 0.000000 0.000000 
#    y 0.000000 1.592720 0.000000 
#    z 0.000000 0.000000 1.613260 
# 
# From -- ./inp_files/19430.got.cif
#   From: 2010.05.17/outbox.cif.g08.bks.cpg/sg49_10_cif.got.tgz:19430.got - 2010.06.03 21:02:19.
