data_PCOD9393835
_publ_section_title
;
Structure prediction by ZEFSAII (Michael W. Deem and Ramdas Pophale) SiO2 
 PCOD9393835
Probable space group: P C C M
;
_chemical_formula_sum "Si O2"
_cell_formula_units_Z 48
_cell_length_a 9.221345
_cell_length_b 31.898964
_cell_length_c 8.666815
_cell_angle_alpha 90.000000
_cell_angle_beta 90.000000
_cell_angle_gamma 90.000000
_cell_volume 2549.355351
_symmetry_space_group_name_H-M "P C C M"
_symmetry_group_IT_number 49
_symmetry_cell_setting 'orthorhombic'
loop_
_space_group_symop_operation_xyz
x,y,z
-x,-y,z
x,-y,1/2-z
-x,y,1/2-z
-x,-y,-z
x,y,-z
-x,y,1/2+z
x,-y,1/2+z
loop_
_atom_site_type_symbol
_atom_site_label
_atom_site_fract_x
_atom_site_fract_y
_atom_site_fract_z
Si Si1 0.162021 0.872155 0.814432
Si Si2 0.661508 0.044685 0.815402
Si Si3 0.662394 0.793260 0.184783
Si Si4 0.664216 0.364579 0.314260
Si Si5 0.162231 0.714023 0.184675
Si Si6 0.336164 0.457695 0.183941
O O1 0.235653 0.916614 0.774102
O O2 0.255926 0.834746 0.742942
O O3 0.000000 0.870061 0.750000
O O4 0.160926 0.868050 0.000000
O O5 0.500000 0.052031 0.750000
O O6 0.712691 0.000000 0.750000
O O7 0.652412 0.041913 0.000000
O O8 0.500000 0.793041 0.250000
O O9 0.747314 0.752988 0.248796
O O10 0.659738 0.792154 0.000000
O O11 0.500000 0.361258 0.250000
O O12 0.660206 0.360181 0.500000
O O13 0.760890 0.328535 0.240541
O O14 0.722875 0.411490 0.277382
O O15 0.000000 0.715896 0.250000
O O16 0.160186 0.716006 0.000000
O O17 0.265140 0.500000 0.250000
O O18 0.500000 0.456881 0.250000
O O19 0.343112 0.461341 0.000000
#
# Coordination Sequence:
#
# PCOD9393835 Si02
#       6
#     8   8   8   8   8   8
#     4  11  24  41  61  89 122 159 198 241 292 347
#     4  10  21  37  60  87 118 155 199 246 294 345
#     4  12  25  43  66  91 119 152 191 237 285 341
#     4  10  20  35  55  83 115 150 191 236 284 338
#     4  12  25  42  62  85 115 151 189 234 286 343
#     4   9  16  26  45  73 108 144 183 230 280 331
#
# _framework density 18.828289999999999
#
# number of rings (size 3 to 8) (size 9 to 14) (size 15 to 20)
#    0.000    1.333    0.000    7.500    0.000    6.333 
#    0.000    1.667    0.000    0.500    0.000    3.500 
#    0.000    0.000    0.000    0.000    0.000    0.000 
#
# Total GULP energy -268301.180105 kJ/mol
# GULP energy per Si atom -5589.607919 kJ/mol
# Density = 1.878544 g / cm^3
# Si number density = 18.828290 Si / 1000 Ang^3
#
#
#
# Elastic Constant Matrix: (Units=GPa)
#
#
# Indices 1 2 3 4 5 6 
#
# 1 133.8331 111.3562 65.1108 0.0000 0.0000 0.0000
# 2 111.3562 214.2628 96.0844 0.0000 0.0000 0.0000
# 3 65.1108 96.0844 138.0152 0.0000 0.0000 0.0000
# 4 0.0000 0.0000 0.0000 19.7074 0.0000 0.0000
# 5 0.0000 0.0000 0.0000 0.0000 24.8529 0.0000
# 6 0.0000 0.0000 0.0000 0.0000 0.0000 -186.6962
#
#
#
# Elastic Compliance Matrix: (Units=1/GPa)
#
#
# Indices 1 2 3 4 5 6 
#
# 1 0.013599 -0.006093 -0.002174 0.000000 0.000000 0.000000
# 2 -0.006093 0.009515 -0.003750 0.000000 0.000000 0.000000
# 3 -0.002174 -0.003750 0.010882 0.000000 0.000000 0.000000
# 4 0.000000 0.000000 0.000000 0.050742 0.000000 0.000000
# 5 0.000000 0.000000 0.000000 0.000000 0.040237 0.000000
# 6 0.000000 0.000000 0.000000 0.000000 0.000000 -0.005356
#
#
# Mechanical properties :
#
#
# Convention : Reuss Voigt Hill
#
# Bulk Modulus (GPa) = 100.37287 114.57931 107.47609
# Shear Modulus (GPa) = 34.01961 -14.18986 9.91488
#
# Velocity S-wave (km/s) = 4.25530 -2.74824 2.29725
# Velocity P-wave (km/s) = 8.80731 7.13558 8.01515
#
# Compressibility (1/GPa) = 0.00996285
#
# Stress axis : x y z
#
# Youngs Moduli (GPa) = 73.53377 105.09203 91.89564
#
# Poissons Ratio (x) = 0.64032 0.19977
# Poissons Ratio (y) = 0.44803 0.34462
# Poissons Ratio (z) = 0.15985 0.39411
#
# Static dielectric constant tensor:
#      x y z
#    x 1.609130 0.000000 0.000000 
#    y 0.000000 1.668820 0.000000 
#    z 0.000000 0.000000 1.629210 
# 
# From -- ./inp_files/2075.got.cif
#   From: 2010.05.17/outbox.cif.g08.bks.cpg/sg49_2_cif.got.tgz:2075.got - 2010.06.03 21:02:19.
