data_PCOD9393003
_publ_section_title
;
Structure prediction by ZEFSAII (Michael W. Deem and Ramdas Pophale) SiO2 
 PCOD9393003
Probable space group: P C C M
;
_chemical_formula_sum "Si O2"
_cell_formula_units_Z 48
_cell_length_a 16.321395
_cell_length_b 19.368812
_cell_length_c 8.763800
_cell_angle_alpha 90.000000
_cell_angle_beta 90.000000
_cell_angle_gamma 90.000000
_cell_volume 2770.465313
_symmetry_space_group_name_H-M "P C C M"
_symmetry_group_IT_number 49
_symmetry_cell_setting 'orthorhombic'
loop_
_space_group_symop_operation_xyz
x,y,z
-x,-y,z
x,-y,1/2-z
-x,y,1/2-z
-x,-y,-z
x,y,-z
-x,y,1/2+z
x,-y,1/2+z
loop_
_atom_site_type_symbol
_atom_site_label
_atom_site_fract_x
_atom_site_fract_y
_atom_site_fract_z
Si Si1 0.737414 0.326975 0.685719
Si Si2 0.915434 0.836584 0.822418
Si Si3 0.586959 0.576726 0.184140
Si Si4 0.915720 0.331172 0.677716
Si Si5 0.265714 0.165727 0.185714
Si Si6 0.413585 0.922960 0.817127
O O1 0.741253 0.328240 0.500000
O O2 0.661705 0.374213 0.731678
O O3 0.826843 0.352255 0.741788
O O4 0.725799 0.246717 0.726805
O O5 0.915375 0.752720 0.810633
O O6 0.825670 0.858175 0.763736
O O7 0.000000 0.861942 0.750000
O O8 0.918088 0.853970 0.000000
O O9 0.599521 0.500000 0.250000
O O10 0.500000 0.601780 0.250000
O O11 0.582859 0.573980 0.000000
O O12 0.918168 0.348877 0.500000
O O13 0.000000 0.356621 0.750000
O O14 0.337881 0.122491 0.260225
O O15 0.269237 0.160761 0.000000
O O16 0.500000 0.896093 0.750000
O O17 0.403754 0.000000 0.750000
O O18 0.417632 0.925520 0.000000
#
# Coordination Sequence:
#
# PCOD9393003 Si02
#       6
#     8   8   8   8   8   8
#     4   8  16  30  49  70  97 128 157 191 238 284
#     4   8  14  24  42  66  96 128 157 189 230 277
#     4  10  19  33  50  68  90 122 159 196 236 285
#     4   8  13  24  41  64  91 122 154 187 227 274
#     4   9  17  32  51  74 101 129 159 197 241 284
#     4  11  22  37  55  74  96 127 162 198 237 286
#
# _framework density 17.325610000000001
#
# number of rings (size 3 to 8) (size 9 to 14) (size 15 to 20)
#    0.000    3.000    0.000    5.000    0.000    1.333 
#    0.000    7.500    0.000    1.000    0.000    7.000 
#    0.000    0.000    0.000    0.000    0.000    0.000 
#
# Total GULP energy -267247.541154 kJ/mol
# GULP energy per Si atom -5567.657107 kJ/mol
# Density = 1.728618 g / cm^3
# Si number density = 17.325610 Si / 1000 Ang^3
#
#
#
# Elastic Constant Matrix: (Units=GPa)
#
#
# Indices 1 2 3 4 5 6 
#
# 1 232.7357 69.6160 63.6924 0.0000 0.0000 0.0000
# 2 69.6160 33.3289 19.6778 0.0000 0.0000 0.0000
# 3 63.6924 19.6778 57.5623 0.0000 0.0000 0.0000
# 4 0.0000 0.0000 0.0000 23.3735 0.0000 0.0000
# 5 0.0000 0.0000 0.0000 0.0000 29.2526 0.0000
# 6 0.0000 0.0000 0.0000 0.0000 0.0000 -15.8343
#
#
#
# Elastic Compliance Matrix: (Units=1/GPa)
#
#
# Indices 1 2 3 4 5 6 
#
# 1 0.013120 -0.023596 -0.006451 0.000000 0.000000 0.000000
# 2 -0.023596 0.080028 -0.001249 0.000000 0.000000 0.000000
# 3 -0.006451 -0.001249 0.024937 0.000000 0.000000 0.000000
# 4 0.000000 0.000000 0.000000 0.042783 0.000000 0.000000
# 5 0.000000 0.000000 0.000000 0.000000 0.034185 0.000000
# 6 0.000000 0.000000 0.000000 0.000000 0.000000 -0.063154
#
#
# Mechanical properties :
#
#
# Convention : Reuss Voigt Hill
#
# Bulk Modulus (GPa) = 18.01998 69.95551 43.98774
# Shear Modulus (GPa) = 23.47520 18.73441 21.10480
#
# Velocity S-wave (km/s) = 3.68495 3.29190 3.49395
# Velocity P-wave (km/s) = 5.34120 7.41036 6.45917
#
# Compressibility (1/GPa) = 0.05549396
#
# Stress axis : x y z
#
# Youngs Moduli (GPa) = 76.21730 12.49557 40.10037
#
# Poissons Ratio (x) = 0.29485 0.25869
# Poissons Ratio (y) = 1.79846 0.05007
# Poissons Ratio (z) = 0.49169 0.01560
#
# Static dielectric constant tensor:
#      x y z
#    x 1.627900 0.000000 0.000000 
#    y 0.000000 1.564930 0.000000 
#    z 0.000000 0.000000 1.591850 
# 
# From -- ./inp_files/3850.got.cif
#   From: 2010.05.17/outbox.cif.g08.bks.cpg/sg49_2_cif.got.tgz:3850.got - 2010.06.03 21:02:19.
