data_PCOD9393789
_publ_section_title
;
Structure prediction by ZEFSAII (Michael W. Deem and Ramdas Pophale) SiO2 
 PCOD9393789
Probable space group: P C C M
;
_chemical_formula_sum "Si O2"
_cell_formula_units_Z 48
_cell_length_a 31.952035
_cell_length_b 9.608080
_cell_length_c 8.670346
_cell_angle_alpha 90.000000
_cell_angle_beta 90.000000
_cell_angle_gamma 90.000000
_cell_volume 2661.776353
_symmetry_space_group_name_H-M "P C C M"
_symmetry_group_IT_number 49
_symmetry_cell_setting 'orthorhombic'
loop_
_space_group_symop_operation_xyz
x,y,z
-x,-y,z
x,-y,1/2-z
-x,y,1/2-z
-x,-y,-z
x,y,-z
-x,y,1/2+z
x,-y,1/2+z
loop_
_atom_site_type_symbol
_atom_site_label
_atom_site_fract_x
_atom_site_fract_y
_atom_site_fract_z
Si Si1 0.289863 0.844177 0.684313
Si Si2 0.216199 0.344556 0.685730
Si Si3 0.542190 0.342968 0.816165
Si Si4 0.364563 0.657512 0.185479
Si Si5 0.120771 0.346835 0.685460
Si Si6 0.043854 0.844169 0.185613
O O1 0.289663 0.847933 0.500000
O O2 0.249000 0.763155 0.745127
O O3 0.329555 0.756023 0.743541
O O4 0.291089 0.000000 0.750000
O O5 0.224393 0.500000 0.750000
O O6 0.219704 0.347001 0.500000
O O7 0.168284 0.306863 0.729256
O O8 0.542910 0.500000 0.750000
O O9 0.500000 0.274447 0.750000
O O10 0.588432 0.287629 0.777416
O O11 0.538485 0.349315 0.000000
O O12 0.360409 0.500000 0.250000
O O13 0.360359 0.652189 0.000000
O O14 0.112894 0.500000 0.750000
O O15 0.119853 0.352478 0.500000
O O16 0.084213 0.243469 0.735773
O O17 0.000000 0.785751 0.250000
O O18 0.047581 0.000000 0.250000
O O19 0.041970 0.847873 0.000000
#
# Coordination Sequence:
#
# PCOD9393789 Si02
#       6
#     8   8   8   8   8   8
#     4  12  25  40  57  79 107 141 178 222 270 320
#     4  10  20  38  60  83 110 141 177 219 265 319
#     4   9  16  26  45  73 106 138 173 216 262 308
#     4  10  20  35  55  81 110 144 182 221 265 317
#     4   9  20  36  56  81 109 139 175 216 262 313
#     4  10  20  35  53  77 106 141 181 220 262 311
#
# _framework density 18.033069999999999
#
# number of rings (size 3 to 8) (size 9 to 14) (size 15 to 20)
#    0.000    2.000    0.000    5.000    0.000    5.000 
#    0.000    3.333    0.000    0.500    0.000    3.500 
#    0.000    0.000    0.000    0.000    0.000    0.000 
#
# Total GULP energy -267873.301289 kJ/mol
# GULP energy per Si atom -5580.693777 kJ/mol
# Density = 1.799203 g / cm^3
# Si number density = 18.033070 Si / 1000 Ang^3
#
#
#
# Elastic Constant Matrix: (Units=GPa)
#
#
# Indices 1 2 3 4 5 6 
#
# 1 193.6564 104.9203 69.3631 0.0000 0.0000 0.0000
# 2 104.9203 92.4952 44.4062 0.0000 0.0000 0.0000
# 3 69.3631 44.4062 88.8976 0.0000 0.0000 0.0000
# 4 0.0000 0.0000 0.0000 25.7806 0.0000 0.0000
# 5 0.0000 0.0000 0.0000 0.0000 33.8040 0.0000
# 6 0.0000 0.0000 0.0000 0.0000 0.0000 -29.0776
#
#
#
# Elastic Compliance Matrix: (Units=1/GPa)
#
#
# Indices 1 2 3 4 5 6 
#
# 1 0.014429 -0.014421 -0.004055 0.000000 0.000000 0.000000
# 2 -0.014421 0.028634 -0.003052 0.000000 0.000000 0.000000
# 3 -0.004055 -0.003052 0.015937 0.000000 0.000000 0.000000
# 4 0.000000 0.000000 0.000000 0.038789 0.000000 0.000000
# 5 0.000000 0.000000 0.000000 0.000000 0.029582 0.000000
# 6 0.000000 0.000000 0.000000 0.000000 0.000000 -0.034391
#
#
# Mechanical properties :
#
#
# Convention : Reuss Voigt Hill
#
# Bulk Modulus (GPa) = 62.71150 90.26983 76.49067
# Shear Modulus (GPa) = 35.37309 16.52537 25.94923
#
# Velocity S-wave (km/s) = 4.43376 3.03048 3.79750
# Velocity P-wave (km/s) = 7.81424 7.90011 7.85729
#
# Compressibility (1/GPa) = 0.01594604
#
# Stress axis : x y z
#
# Youngs Moduli (GPa) = 69.30475 34.92340 62.74632
#
# Poissons Ratio (x) = 0.50361 0.25444
# Poissons Ratio (y) = 0.99941 0.19148
# Poissons Ratio (z) = 0.28103 0.10657
#
# Static dielectric constant tensor:
#      x y z
#    x 1.658250 0.000000 0.000000 
#    y 0.000000 1.571230 0.000000 
#    z 0.000000 0.000000 1.655190 
# 
# From -- ./inp_files/6865.got.cif
#   From: 2010.05.17/outbox.cif.g08.bks.cpg/sg49_4_cif.got.tgz:6865.got - 2010.06.03 21:02:19.
