data_PCOD9393102
_publ_section_title
;
Structure prediction by ZEFSAII (Michael W. Deem and Ramdas Pophale) SiO2 
 PCOD9393102
Probable space group: P C C M
;
_chemical_formula_sum "Si O2"
_cell_formula_units_Z 56
_cell_length_a 31.160811
_cell_length_b 5.211661
_cell_length_c 15.882416
_cell_angle_alpha 90.000000
_cell_angle_beta 90.000000
_cell_angle_gamma 90.000000
_cell_volume 2579.297742
_symmetry_space_group_name_H-M "P C C M"
_symmetry_group_IT_number 49
_symmetry_cell_setting 'orthorhombic'
loop_
_space_group_symop_operation_xyz
x,y,z
-x,-y,z
x,-y,1/2-z
-x,y,1/2-z
-x,-y,-z
x,y,-z
-x,y,1/2+z
x,-y,1/2+z
loop_
_atom_site_type_symbol
_atom_site_label
_atom_site_fract_x
_atom_site_fract_y
_atom_site_fract_z
Si Si1 0.451186 0.472090 0.102333
Si Si2 0.027822 0.741841 0.098327
Si Si3 0.841948 0.458977 0.349104
Si Si4 0.881689 0.953165 0.651285
Si Si5 0.700235 0.079856 0.155039
Si Si6 0.602481 0.022176 0.101925
Si Si7 0.253069 0.589702 0.596302
O O1 0.500000 0.500000 0.132968
O O2 0.423746 0.227627 0.131558
O O3 0.425568 0.729135 0.121630
O O4 0.453534 0.448180 0.000000
O O5 0.072019 0.821022 0.142336
O O6 0.000000 0.500000 0.131391
O O7 0.037525 0.685001 0.000000
O O8 0.000000 0.000000 0.102030
O O9 0.851297 0.500000 0.250000
O O10 0.849838 0.740924 0.386477
O O11 0.792780 0.381897 0.359122
O O12 0.872952 0.236492 0.385291
O O13 0.873232 0.000000 0.750000
O O14 0.649521 0.057876 0.139491
O O15 0.722766 0.860159 0.100125
O O16 0.710282 0.000000 0.250000
O O17 0.718469 0.362210 0.136221
O O18 0.607212 0.005660 0.000000
O O19 0.245039 0.517226 0.500000
#
# Coordination Sequence:
#
# PCOD9393102 Si02
#       7
#     8   8   8   8   8   8   8
#     4   9  17  30  52  82 113 147 191 244 299 352
#     4  10  21  37  57  82 114 152 193 240 291 339
#     4  10  21  38  59  85 119 156 194 240 299 358
#     4  10  21  37  58  85 117 154 196 240 288 350
#     4  12  25  42  63  88 124 166 204 248 310 373
#     4  10  19  33  55  82 113 150 197 249 294 350
#     4  12  25  42  65  94 123 157 207 258 305 362
#
# _framework density 21.711338000000001
#
# number of rings (size 3 to 8) (size 9 to 14) (size 15 to 20)
#    0.000    1.571    0.000    5.571    0.000    5.429 
#    0.000    0.714    0.000    2.571    0.000    0.000 
#    0.000    0.000    0.000    0.000    0.000    0.000 
#
# Total GULP energy -312863.860836 kJ/mol
# GULP energy per Si atom -5586.854658 kJ/mol
# Density = 2.166192 g / cm^3
# Si number density = 21.711338 Si / 1000 Ang^3
#
#
#
# Elastic Constant Matrix: (Units=GPa)
#
#
# Indices 1 2 3 4 5 6 
#
# 1 99.8111 48.8576 -17.0526 0.0000 0.0000 0.0000
# 2 48.8576 112.4664 23.2713 0.0000 0.0000 0.0000
# 3 -17.0526 23.2713 19.6443 0.0000 0.0000 0.0000
# 4 0.0000 0.0000 0.0000 5.8179 0.0000 0.0000
# 5 0.0000 0.0000 0.0000 0.0000 -59.0589 0.0000
# 6 0.0000 0.0000 0.0000 0.0000 0.0000 37.8960
#
#
#
# Elastic Compliance Matrix: (Units=1/GPa)
#
#
# Indices 1 2 3 4 5 6 
#
# 1 0.034681 -0.028210 0.063524 0.000000 0.000000 0.000000
# 2 -0.028210 0.034726 -0.065625 0.000000 0.000000 0.000000
# 3 0.063524 -0.065625 0.183790 0.000000 0.000000 0.000000
# 4 0.000000 0.000000 0.000000 0.171885 0.000000 0.000000
# 5 0.000000 0.000000 0.000000 0.000000 -0.016932 0.000000
# 6 0.000000 0.000000 0.000000 0.000000 0.000000 0.026388
#
#
# Mechanical properties :
#
#
# Convention : Reuss Voigt Hill
#
# Bulk Modulus (GPa) = 5.19284 38.00828 21.60056
# Shear Modulus (GPa) = 8.93893 8.72070 8.82982
#
# Velocity S-wave (km/s) = 2.03128 2.00633 2.01885
# Velocity P-wave (km/s) = 2.81042 4.78658 3.92491
#
# Compressibility (1/GPa) = 0.19257270
#
# Stress axis : x y z
#
# Youngs Moduli (GPa) = 28.83444 28.79718 5.44100
#
# Poissons Ratio (x) = 0.81237 -0.34563
# Poissons Ratio (y) = 0.81342 0.35707
# Poissons Ratio (z) = -1.83167 1.88982
#
# Static dielectric constant tensor:
#      x y z
#    x 19.125650 0.000000 0.000000 
#    y 0.000000 1.804110 0.000000 
#    z 0.000000 0.000000 1.809290 
# 
# From -- ./inp_files/14605.got.cif
#   From: 2010.05.17/outbox.cif.g08.bks.cpg/sg49_8_cif.got.tgz:14605.got - 2010.06.03 21:02:19.
