data_PCOD9393522
_publ_section_title
;
Structure prediction by ZEFSAII (Michael W. Deem and Ramdas Pophale) SiO2 
 PCOD9393522
Probable space group: P C C M
;
_chemical_formula_sum "Si O2"
_cell_formula_units_Z 56
_cell_length_a 15.723029
_cell_length_b 20.375273
_cell_length_c 8.901669
_cell_angle_alpha 90.000000
_cell_angle_beta 90.000000
_cell_angle_gamma 90.000000
_cell_volume 2851.747656
_symmetry_space_group_name_H-M "P C C M"
_symmetry_group_IT_number 49
_symmetry_cell_setting 'orthorhombic'
loop_
_space_group_symop_operation_xyz
x,y,z
-x,-y,z
x,-y,1/2-z
-x,y,1/2-z
-x,-y,-z
x,y,-z
-x,y,1/2+z
x,-y,1/2+z
loop_
_atom_site_type_symbol
_atom_site_label
_atom_site_fract_x
_atom_site_fract_y
_atom_site_fract_z
Si Si1 0.411005 0.328800 0.819109
Si Si2 0.268301 0.933040 0.821608
Si Si3 0.911937 0.620824 0.676791
Si Si4 0.737766 0.569692 0.819463
Si Si5 0.871018 0.751541 0.170102
Si Si6 0.321767 0.800338 0.677366
Si Si7 0.912978 0.903009 0.174432
O O1 0.500000 0.350242 0.750000
O O2 0.332992 0.376252 0.777545
O O3 0.388655 0.254279 0.771778
O O4 0.416027 0.328966 0.000000
O O5 0.317286 0.868066 0.766572
O O6 0.171583 0.925025 0.760667
O O7 0.302908 0.000000 0.750000
O O8 0.267739 0.937085 0.000000
O O9 0.911337 0.608697 0.500000
O O10 0.829471 0.589409 0.754202
O O11 0.903832 0.698749 0.712399
O O12 0.000000 0.597544 0.750000
O O13 0.713193 0.500000 0.750000
O O14 0.742446 0.566478 0.000000
O O15 0.770645 0.765300 0.190012
O O16 0.911660 0.823442 0.179070
O O17 0.884323 0.725327 0.000000
O O18 0.333063 0.814730 0.500000
O O19 0.000000 0.925500 0.250000
O O20 0.907333 0.922931 0.000000
#
# Coordination Sequence:
#
# PCOD9393522 Si02
#       7
#     8   8   8   8   8   8   8
#     4  10  22  41  68  98 131 163 200 249 305 367
#     4  11  22  36  55  81 112 153 200 247 300 366
#     4  12  24  37  58  87 120 163 211 259 307 364
#     4  11  24  45  66  91 127 167 207 255 309 362
#     4   9  17  33  55  79 113 153 198 250 306 358
#     4   9  18  37  61  86 119 159 196 246 304 355
#     4  10  20  33  49  73 108 149 196 251 306 360
#
# _framework density 19.637080000000001
#
# number of rings (size 3 to 8) (size 9 to 14) (size 15 to 20)
#    0.000    1.714    1.429    4.714    0.000    6.571 
#    0.000    4.286    0.000    0.429    0.000    3.000 
#    0.000    0.000    0.000    0.000    0.000    0.000 
#
# Total GULP energy -313020.233708 kJ/mol
# GULP energy per Si atom -5589.647030 kJ/mol
# Density = 1.959239 g / cm^3
# Si number density = 19.637080 Si / 1000 Ang^3
#
#
#
# Elastic Constant Matrix: (Units=GPa)
#
#
# Indices 1 2 3 4 5 6 
#
# 1 94.6669 41.8518 42.1880 0.0000 0.0000 0.0000
# 2 41.8518 112.8682 51.9085 0.0000 0.0000 0.0000
# 3 42.1880 51.9085 114.6723 0.0000 0.0000 0.0000
# 4 0.0000 0.0000 0.0000 30.5865 0.0000 0.0000
# 5 0.0000 0.0000 0.0000 0.0000 23.3546 0.0000
# 6 0.0000 0.0000 0.0000 0.0000 0.0000 -7.5892
#
#
#
# Elastic Compliance Matrix: (Units=1/GPa)
#
#
# Indices 1 2 3 4 5 6 
#
# 1 0.013633 -0.003471 -0.003444 0.000000 0.000000 0.000000
# 2 -0.003471 0.012073 -0.004188 0.000000 0.000000 0.000000
# 3 -0.003444 -0.004188 0.011883 0.000000 0.000000 0.000000
# 4 0.000000 0.000000 0.000000 0.032694 0.000000 0.000000
# 5 0.000000 0.000000 0.000000 0.000000 0.042818 0.000000
# 6 0.000000 0.000000 0.000000 0.000000 0.000000 -0.131766
#
#
# Mechanical properties :
#
#
# Convention : Reuss Voigt Hill
#
# Bulk Modulus (GPa) = 65.00886 66.01153 65.51019
# Shear Modulus (GPa) = 576.72529 21.68765 299.20647
#
# Velocity S-wave (km/s) = 17.15604 3.32689 12.35714
# Velocity P-wave (km/s) = 20.63047 6.96034 15.39582
#
# Compressibility (1/GPa) = 0.01538252
#
# Stress axis : x y z
#
# Youngs Moduli (GPa) = 73.35241 82.82886 84.15051
#
# Poissons Ratio (x) = 0.28750 0.28984
# Poissons Ratio (y) = 0.25461 0.35243
# Poissons Ratio (z) = 0.25265 0.34690
#
# Static dielectric constant tensor:
#      x y z
#    x 1.679140 0.000000 0.000000 
#    y 0.000000 1.718270 0.000000 
#    z 0.000000 0.000000 1.660990 
# 
# From -- ./inp_files/4071.got.cif
#   From: 2010.05.17/outbox.cif.g08.bks.cpg/sg49_3_cif.got.tgz:4071.got - 2010.06.03 21:02:19.
