data_PCOD9393558
_publ_section_title
;
Structure prediction by ZEFSAII (Michael W. Deem and Ramdas Pophale) SiO2 
 PCOD9393558
Probable space group: P C C M
;
_chemical_formula_sum "Si O2"
_cell_formula_units_Z 40
_cell_length_a 16.788171
_cell_length_b 5.024947
_cell_length_c 24.585973
_cell_angle_alpha 90.000000
_cell_angle_beta 90.000000
_cell_angle_gamma 90.000000
_cell_volume 2074.064557
_symmetry_space_group_name_H-M "P C C M"
_symmetry_group_IT_number 49
_symmetry_cell_setting 'orthorhombic'
loop_
_space_group_symop_operation_xyz
x,y,z
-x,-y,z
x,-y,1/2-z
-x,y,1/2-z
-x,-y,-z
x,y,-z
-x,y,1/2+z
x,-y,1/2+z
loop_
_atom_site_type_symbol
_atom_site_label
_atom_site_fract_x
_atom_site_fract_y
_atom_site_fract_z
Si Si1 0.747700 0.476884 0.312959
Si Si2 0.369823 0.070925 0.563398
Si Si3 0.414132 0.416575 0.132368
Si Si4 0.055198 0.742230 0.061614
Si Si5 0.791355 0.981159 0.619968
O O1 0.768619 0.500000 0.250000
O O2 0.655653 0.394304 0.323143
O O3 0.757678 0.769618 0.337194
O O4 0.797833 0.262989 0.348780
O O5 0.388865 0.063023 0.500000
O O6 0.386515 0.358517 0.589197
O O7 0.276764 0.996968 0.573843
O O8 0.417337 0.855042 0.598568
O O9 0.500000 0.500000 0.154324
O O10 0.130168 0.844325 0.095829
O O11 0.000000 0.500000 0.082954
O O12 0.080889 0.663481 0.000000
O O13 0.000000 0.000000 0.057757
#
# Coordination Sequence:
#
# PCOD9393558 Si02
#       5
#     8   8   8   8   8
#     4  10  21  37  57  77 100 139 185 228 274 314
#     4  10  20  33  51  75 106 144 177 211 263 325
#     4  10  21  34  50  76 105 136 179 226 271 320
#     4  10  20  34  56  86 116 144 171 206 260 320
#     4  10  20  36  56  79 108 138 178 223 261 318
#
# _framework density 19.285803999999999
#
# number of rings (size 3 to 8) (size 9 to 14) (size 15 to 20)
#    0.000    2.000    0.000    3.600    0.000    2.800 
#    0.000    6.000    0.000   16.200    0.000    0.000 
#    0.000    0.000    0.000    0.000    0.000    0.000 
#
# Total GULP energy -223160.298156 kJ/mol
# GULP energy per Si atom -5579.007454 kJ/mol
# Density = 1.924191 g / cm^3
# Si number density = 19.285804 Si / 1000 Ang^3
#
#
#
# Elastic Constant Matrix: (Units=GPa)
#
#
# Indices 1 2 3 4 5 6 
#
# 1 89.4650 1.2101 7.0302 0.0000 0.0000 0.0000
# 2 1.2101 94.0498 -4.3704 0.0000 0.0000 0.0000
# 3 7.0302 -4.3704 38.2024 0.0000 0.0000 0.0000
# 4 0.0000 0.0000 0.0000 20.9284 0.0000 0.0000
# 5 0.0000 0.0000 0.0000 0.0000 -4.1233 0.0000
# 6 0.0000 0.0000 0.0000 0.0000 0.0000 36.2307
#
#
#
# Elastic Compliance Matrix: (Units=1/GPa)
#
#
# Indices 1 2 3 4 5 6 
#
# 1 0.011347 -0.000244 -0.002116 0.000000 0.000000 0.000000
# 2 -0.000244 0.010695 0.001268 0.000000 0.000000 0.000000
# 3 -0.002116 0.001268 0.026711 0.000000 0.000000 0.000000
# 4 0.000000 0.000000 0.000000 0.047782 0.000000 0.000000
# 5 0.000000 0.000000 0.000000 0.000000 -0.242522 0.000000
# 6 0.000000 0.000000 0.000000 0.000000 0.000000 0.027601
#
#
# Mechanical properties :
#
#
# Convention : Reuss Voigt Hill
#
# Bulk Modulus (GPa) = 21.47357 25.49521 23.48439
# Shear Modulus (GPa) = -49.66248 25.13030 -12.26609
#
# Velocity S-wave (km/s) = -5.08003 3.61369 -2.52467
# Velocity P-wave (km/s) = 4.82186 5.53715 1.92480
#
# Compressibility (1/GPa) = 0.04656887
#
# Stress axis : x y z
#
# Youngs Moduli (GPa) = 88.12787 93.50377 37.43786
#
# Poissons Ratio (x) = 0.02285 0.07922
# Poissons Ratio (y) = 0.02153 -0.04749
# Poissons Ratio (z) = 0.18649 -0.11861
#
# Static dielectric constant tensor:
#      x y z
#    x 1.721090 0.000000 0.000000 
#    y 0.000000 1.662530 0.000000 
#    z 0.000000 0.000000 1.638340 
# 
# From -- ./inp_files/21721.got.cif
#   From: 2010.05.17/outbox.cif.g08.bks.cpg/sg49_11_cif.got.tgz:21721.got - 2010.06.03 21:02:19.
