data_PCOD9393882
_publ_section_title
;
Structure prediction by ZEFSAII (Michael W. Deem and Ramdas Pophale) SiO2 
 PCOD9393882
Probable space group: P C C M
;
_chemical_formula_sum "Si O2"
_cell_formula_units_Z 64
_cell_length_a 9.028566
_cell_length_b 21.460309
_cell_length_c 17.123053
_cell_angle_alpha 90.000000
_cell_angle_beta 90.000000
_cell_angle_gamma 90.000000
_cell_volume 3317.691110
_symmetry_space_group_name_H-M "P C C M"
_symmetry_group_IT_number 49
_symmetry_cell_setting 'orthorhombic'
loop_
_space_group_symop_operation_xyz
x,y,z
-x,-y,z
x,-y,1/2-z
-x,y,1/2-z
-x,-y,-z
x,y,-z
-x,y,1/2+z
x,-y,1/2+z
loop_
_atom_site_type_symbol
_atom_site_label
_atom_site_fract_x
_atom_site_fract_y
_atom_site_fract_z
Si Si1 0.058680 0.184896 0.338056
Si Si2 0.615602 0.817150 0.405306
Si Si3 0.926327 0.437323 0.664265
Si Si4 0.427116 0.561651 0.335464
Si Si5 0.928204 0.681678 0.406965
Si Si6 0.587089 0.677447 0.592902
Si Si7 0.914856 0.061823 0.594078
Si Si8 0.421362 0.936835 0.595092
O O1 0.234132 0.179738 0.355551
O O2 0.017872 0.253077 0.371287
O O3 0.000000 0.181550 0.250000
O O4 0.990290 0.126141 0.382598
O O5 0.649359 0.819902 0.500000
O O6 0.545586 0.749195 0.390055
O O7 0.510532 0.874569 0.384783
O O8 0.749631 0.444453 0.669147
O O9 0.000000 0.500000 0.629784
O O10 0.000000 0.430523 0.750000
O O11 0.971233 0.376131 0.617024
O O12 0.500000 0.500000 0.374214
O O13 0.500000 0.564317 0.250000
O O14 0.478267 0.625519 0.374868
O O15 0.923789 0.688798 0.500000
O O16 0.758084 0.669138 0.379444
O O17 0.589774 0.670807 0.500000
O O18 0.912368 0.058202 0.500000
O O19 0.746660 0.063100 0.623070
O O20 0.000000 0.000000 0.622543
O O21 0.418730 0.938385 0.500000
O O22 0.500000 0.000000 0.621711
#
# Coordination Sequence:
#
# PCOD9393882 Si02
#       8
#     8   8   8   8   8   8   8   8
#     4  11  22  36  57  84 115 150 188 233 286 342
#     4   9  18  36  59  82 113 149 187 230 280 337
#     4  11  22  38  60  85 118 153 189 233 282 338
#     4  11  22  37  58  82 111 148 188 229 277 337
#     4  10  21  39  61  84 113 149 192 238 286 339
#     4   9  19  36  57  81 111 147 186 233 283 331
#     4  10  20  35  57  84 114 149 191 238 286 336
#     4   9  17  31  55  83 109 144 190 235 277 329
#
# _framework density 19.290524999999999
#
# number of rings (size 3 to 8) (size 9 to 14) (size 15 to 20)
#    0.000    2.000    0.000    6.000    0.000    5.250 
#    0.000    1.875    0.000    0.750    0.000    0.000 
#    0.000    0.000    0.000    0.000    0.000    0.000 
#
# Total GULP energy -357195.871581 kJ/mol
# GULP energy per Si atom -5581.185493 kJ/mol
# Density = 1.924662 g / cm^3
# Si number density = 19.290525 Si / 1000 Ang^3
#
#
#
# Elastic Constant Matrix: (Units=GPa)
#
#
# Indices 1 2 3 4 5 6 
#
# 1 146.6484 104.7702 28.5204 0.0000 0.0000 0.0000
# 2 104.7702 184.5783 27.5773 0.0000 0.0000 0.0000
# 3 28.5204 27.5773 22.8372 0.0000 0.0000 0.0000
# 4 0.0000 0.0000 0.0000 56.1279 0.0000 0.0000
# 5 0.0000 0.0000 0.0000 0.0000 39.9731 0.0000
# 6 0.0000 0.0000 0.0000 0.0000 0.0000 41.4233
#
#
#
# Elastic Compliance Matrix: (Units=1/GPa)
#
#
# Indices 1 2 3 4 5 6 
#
# 1 0.012766 -0.005935 -0.008776 0.000000 0.000000 0.000000
# 2 -0.005935 0.009370 -0.003902 0.000000 0.000000 0.000000
# 3 -0.008776 -0.003902 0.059461 0.000000 0.000000 0.000000
# 4 0.000000 0.000000 0.000000 0.017816 0.000000 0.000000
# 5 0.000000 0.000000 0.000000 0.000000 0.025017 0.000000
# 6 0.000000 0.000000 0.000000 0.000000 0.000000 0.024141
#
#
# Mechanical properties :
#
#
# Convention : Reuss Voigt Hill
#
# Bulk Modulus (GPa) = 22.53806 75.08887 48.81346
# Shear Modulus (GPa) = 24.92681 40.38459 32.65570
#
# Velocity S-wave (km/s) = 3.59859 4.58043 4.11887
# Velocity P-wave (km/s) = 5.38287 8.18435 6.92672
#
# Compressibility (1/GPa) = 0.04436940
#
# Stress axis : x y z
#
# Youngs Moduli (GPa) = 78.33324 106.72779 16.81784
#
# Poissons Ratio (x) = 0.63343 0.14759
# Poissons Ratio (y) = 0.46491 0.06563
# Poissons Ratio (z) = 0.68745 0.41649
#
# Static dielectric constant tensor:
#      x y z
#    x 1.673650 0.000000 0.000000 
#    y 0.000000 1.691100 0.000000 
#    z 0.000000 0.000000 1.680220 
# 
# From -- ./inp_files/16586.got.cif
#   From: 2010.05.17/outbox.cif.g08.bks.cpg/sg49_9_cif.got.tgz:16586.got - 2010.06.03 21:02:19.
