data_PCOD9393390
_publ_section_title
;
Structure prediction by ZEFSAII (Michael W. Deem and Ramdas Pophale) SiO2 
 PCOD9393390
Probable space group: P C C M
;
_chemical_formula_sum "Si O2"
_cell_formula_units_Z 64
_cell_length_a 24.139345
_cell_length_b 15.754033
_cell_length_c 8.799271
_cell_angle_alpha 90.000000
_cell_angle_beta 90.000000
_cell_angle_gamma 90.000000
_cell_volume 3346.292699
_symmetry_space_group_name_H-M "P C C M"
_symmetry_group_IT_number 49
_symmetry_cell_setting 'orthorhombic'
loop_
_space_group_symop_operation_xyz
x,y,z
-x,-y,z
x,-y,1/2-z
-x,y,1/2-z
-x,-y,-z
x,y,-z
-x,y,1/2+z
x,-y,1/2+z
loop_
_atom_site_type_symbol
_atom_site_label
_atom_site_fract_x
_atom_site_fract_y
_atom_site_fract_z
Si Si1 0.938752 0.249408 0.817217
Si Si2 0.135900 0.410843 0.681271
Si Si3 0.747518 0.851427 0.819353
Si Si4 0.438746 0.241501 0.182972
Si Si5 0.749418 0.350765 0.318173
Si Si6 0.627607 0.589631 0.817117
Si Si7 0.634385 0.090125 0.180464
Si Si8 0.127676 0.908791 0.318065
O O1 0.902649 0.331855 0.772449
O O2 0.908687 0.165956 0.753318
O O3 0.000000 0.255701 0.750000
O O4 0.940774 0.245382 0.000000
O O5 0.116841 0.500000 0.750000
O O6 0.135636 0.416443 0.500000
O O7 0.198035 0.391740 0.737669
O O8 0.748416 0.750369 0.789900
O O9 0.698280 0.893425 0.725673
O O10 0.807722 0.889110 0.783808
O O11 0.736581 0.863279 0.000000
O O12 0.500000 0.235543 0.250000
O O13 0.410694 0.331139 0.227159
O O14 0.401089 0.165804 0.246728
O O15 0.439840 0.236780 0.000000
O O16 0.755077 0.362630 0.500000
O O17 0.690812 0.389984 0.268880
O O18 0.609523 0.500000 0.750000
O O19 0.627414 0.585067 0.000000
O O20 0.617136 0.000000 0.250000
O O21 0.628025 0.089597 0.000000
O O22 0.121231 0.908697 0.500000
O O23 0.112772 0.000000 0.250000
#
# Coordination Sequence:
#
# PCOD9393390 Si02
#       8
#     8   8   8   8   8   8   8   8
#     4  11  25  44  65  90 121 160 210 260 310 367
#     4  11  24  40  62  93 126 162 204 254 307 369
#     4  10  20  38  64  94 129 166 202 249 309 368
#     4  11  24  45  66  90 123 162 210 262 313 367
#     4  10  19  37  63  92 126 165 201 247 309 367
#     4  10  22  39  62  90 126 163 203 252 303 363
#     4  12  25  41  65  95 127 166 207 254 308 369
#     4  11  23  40  65  94 127 165 204 252 309 368
#
# _framework density 19.125644000000001
#
# number of rings (size 3 to 8) (size 9 to 14) (size 15 to 20)
#    0.000    1.250    2.500    3.375    0.000    7.500 
#    0.000    5.000    0.000    0.000    0.000    0.000 
#    0.000    0.000    0.000    0.000    0.000    0.000 
#
# Total GULP energy -358009.946501 kJ/mol
# GULP energy per Si atom -5593.905414 kJ/mol
# Density = 1.908211 g / cm^3
# Si number density = 19.125644 Si / 1000 Ang^3
#
#
#
# Elastic Constant Matrix: (Units=GPa)
#
#
# Indices 1 2 3 4 5 6 
#
# 1 98.8395 43.2064 42.0680 0.0000 0.0000 0.0000
# 2 43.2064 148.6382 52.1794 0.0000 0.0000 0.0000
# 3 42.0680 52.1794 62.1028 0.0000 0.0000 0.0000
# 4 0.0000 0.0000 0.0000 1.0894 0.0000 0.0000
# 5 0.0000 0.0000 0.0000 0.0000 20.4996 0.0000
# 6 0.0000 0.0000 0.0000 0.0000 0.0000 8414.3949
#
#
#
# Elastic Compliance Matrix: (Units=1/GPa)
#
#
# Indices 1 2 3 4 5 6 
#
# 1 0.014336 -0.001075 -0.008808 0.000000 0.000000 0.000000
# 2 -0.001075 0.009623 -0.007357 0.000000 0.000000 0.000000
# 3 -0.008808 -0.007357 0.028250 0.000000 0.000000 0.000000
# 4 0.000000 0.000000 0.000000 0.917956 0.000000 0.000000
# 5 0.000000 0.000000 0.000000 0.000000 0.048781 0.000000
# 6 0.000000 0.000000 0.000000 0.000000 0.000000 0.000119
#
#
# Mechanical properties :
#
#
# Convention : Reuss Voigt Hill
#
# Bulk Modulus (GPa) = 56.40409 64.94314 60.67362
# Shear Modulus (GPa) = 4.71941 1698.67188 851.69564
#
# Velocity S-wave (km/s) = 1.57256 29.83442 21.12541
# Velocity P-wave (km/s) = 5.73172 34.94023 25.03670
#
# Compressibility (1/GPa) = 0.01772921
#
# Stress axis : x y z
#
# Youngs Moduli (GPa) = 69.75328 103.91811 35.39823
#
# Poissons Ratio (x) = 0.11174 0.31178
# Poissons Ratio (y) = 0.07501 0.26042
# Poissons Ratio (z) = 0.61437 0.76452
#
# Static dielectric constant tensor:
#      x y z
#    x 1.636840 0.000000 0.000000 
#    y 0.000000 1.651120 0.000000 
#    z 0.000000 0.000000 1.639280 
# 
# From -- ./inp_files/4319.got.cif
#   From: 2010.05.17/outbox.cif.g08.bks.cpg/sg49_3_cif.got.tgz:4319.got - 2010.06.03 21:02:19.
