data_PCOD9393646
_publ_section_title
;
Structure prediction by ZEFSAII (Michael W. Deem and Ramdas Pophale) SiO2 
 PCOD9393646
Probable space group: P C C M
;
_chemical_formula_sum "Si O2"
_cell_formula_units_Z 48
_cell_length_a 29.974175
_cell_length_b 9.334294
_cell_length_c 9.843268
_cell_angle_alpha 90.000000
_cell_angle_beta 90.000000
_cell_angle_gamma 90.000000
_cell_volume 2754.025923
_symmetry_space_group_name_H-M "P C C M"
_symmetry_group_IT_number 49
_symmetry_cell_setting 'orthorhombic'
loop_
_space_group_symop_operation_xyz
x,y,z
-x,-y,z
x,-y,1/2-z
-x,y,1/2-z
-x,-y,-z
x,y,-z
-x,y,1/2+z
x,-y,1/2+z
loop_
_atom_site_type_symbol
_atom_site_label
_atom_site_fract_x
_atom_site_fract_y
_atom_site_fract_z
Si Si1 0.457881 0.647692 0.334318
Si Si2 0.045488 0.822406 0.500000
Si Si3 0.375845 0.860556 0.341537
Si Si4 0.804183 0.640767 0.160557
Si Si5 0.275182 0.859674 0.659827
Si Si6 0.061505 0.843291 0.000000
Si Si7 0.095902 0.673090 0.740142
O O1 0.450580 0.500000 0.250000
O O2 0.500000 0.712338 0.250000
O O3 0.465706 0.629938 0.500000
O O4 0.414387 0.745333 0.319048
O O5 0.063083 0.735301 0.627925
O O6 0.992077 0.826023 0.500000
O O7 0.065999 0.983669 0.500000
O O8 0.377622 0.902765 0.500000
O O9 0.325602 0.803451 0.315483
O O10 0.382525 0.000000 0.250000
O O11 0.798087 0.500000 0.250000
O O12 0.763828 0.748216 0.189236
O O13 0.852874 0.701655 0.198057
O O14 0.804255 0.606866 0.000000
O O15 0.272205 0.896145 0.500000
O O16 0.269647 0.000000 0.750000
O O17 0.083155 0.761424 0.126583
O O18 0.091291 0.500000 0.750000
#
# Coordination Sequence:
#
# PCOD9393646 Si02
#       7
#     8   4   8   8   8   4   8
#     4  10  20  34  52  77 107 144 185 232 279 332
#     4  11  23  43  59  87 123 145 193 233 284 335
#     4   9  19  35  55  78 110 144 183 229 276 329
#     4  10  22  39  59  83 114 146 181 228 275 326
#     4   9  19  37  57  83 112 144 184 228 275 329
#     4  11  25  39  63  87 115 157 185 237 282 337
#     4  11  23  40  61  87 116 152 191 234 282 337
#
# _framework density 17.429029
#
# number of rings (size 3 to 8) (size 9 to 14) (size 15 to 20)
#    0.000    2.000    0.833    2.500    3.500    7.667 
#    0.000    1.667    0.000    0.000    0.000    0.000 
#    0.000    0.000    0.000    0.000    0.000    0.000 
#
# Total GULP energy -267579.471299 kJ/mol
# GULP energy per Si atom -5574.572319 kJ/mol
# Density = 1.738936 g / cm^3
# Si number density = 17.429029 Si / 1000 Ang^3
#
#
#
# Elastic Constant Matrix: (Units=GPa)
#
#
# Indices 1 2 3 4 5 6 
#
# 1 133.7758 71.2214 60.6349 0.0000 0.0000 0.0000
# 2 71.2214 72.9026 42.5299 0.0000 0.0000 0.0000
# 3 60.6349 42.5299 100.1528 0.0000 0.0000 0.0000
# 4 0.0000 0.0000 0.0000 25.9803 0.0000 0.0000
# 5 0.0000 0.0000 0.0000 0.0000 29.9613 0.0000
# 6 0.0000 0.0000 0.0000 0.0000 0.0000 29.3247
#
#
#
# Elastic Compliance Matrix: (Units=1/GPa)
#
#
# Indices 1 2 3 4 5 6 
#
# 1 0.016846 -0.013968 -0.004267 0.000000 0.000000 0.000000
# 2 -0.013968 0.029816 -0.004205 0.000000 0.000000 0.000000
# 3 -0.004267 -0.004205 0.014354 0.000000 0.000000 0.000000
# 4 0.000000 0.000000 0.000000 0.038491 0.000000 0.000000
# 5 0.000000 0.000000 0.000000 0.000000 0.033376 0.000000
# 6 0.000000 0.000000 0.000000 0.000000 0.000000 0.034101
#
#
# Mechanical properties :
#
#
# Convention : Reuss Voigt Hill
#
# Bulk Modulus (GPa) = 61.97577 72.84482 67.41030
# Shear Modulus (GPa) = 23.01584 25.88292 24.44938
#
# Velocity S-wave (km/s) = 3.63787 3.85781 3.74946
# Velocity P-wave (km/s) = 7.29943 7.85681 7.58324
#
# Compressibility (1/GPa) = 0.01613534
#
# Stress axis : x y z
#
# Youngs Moduli (GPa) = 59.36202 33.53951 69.66750
#
# Poissons Ratio (x) = 0.46847 0.29730
# Poissons Ratio (y) = 0.82916 0.29294
# Poissons Ratio (z) = 0.25332 0.14103
#
# Static dielectric constant tensor:
#      x y z
#    x 1.600580 0.000000 0.000000 
#    y 0.000000 1.560620 0.000000 
#    z 0.000000 0.000000 0.917120 
# 
# From -- ./inp_files/6928.got.cif
#   From: 2010.05.17/outbox.cif.g08.bks.cpg/sg49_4_cif.got.tgz:6928.got - 2010.06.03 21:02:19.
