data_PCOD9393175
_publ_section_title
;
Structure prediction by ZEFSAII (Michael W. Deem and Ramdas Pophale) SiO2 
 PCOD9393175
Probable space group: P C C M
;
_chemical_formula_sum "Si O2"
_cell_formula_units_Z 64
_cell_length_a 10.713349
_cell_length_b 14.636338
_cell_length_c 20.122670
_cell_angle_alpha 90.000000
_cell_angle_beta 90.000000
_cell_angle_gamma 90.000000
_cell_volume 3155.319112
_symmetry_space_group_name_H-M "P C C M"
_symmetry_group_IT_number 49
_symmetry_cell_setting 'orthorhombic'
loop_
_space_group_symop_operation_xyz
x,y,z
-x,-y,z
x,-y,1/2-z
-x,y,1/2-z
-x,-y,-z
x,y,-z
-x,y,1/2+z
x,-y,1/2+z
loop_
_atom_site_type_symbol
_atom_site_label
_atom_site_fract_x
_atom_site_fract_y
_atom_site_fract_z
Si Si1 0.260865 0.329377 0.424089
Si Si2 0.131257 0.868287 0.717656
Si Si3 0.863840 0.044691 0.426790
Si Si4 0.980060 0.608214 0.074484
Si Si5 0.383246 0.134696 0.710323
Si Si6 0.373707 0.356201 0.286911
Si Si7 0.874772 0.648712 0.212303
Si Si8 0.335633 0.117552 0.570136
O O1 0.286654 0.361530 0.500000
O O2 0.345887 0.372434 0.365555
O O3 0.277455 0.219450 0.424686
O O4 0.115484 0.348573 0.409400
O O5 0.149075 0.898566 0.641164
O O6 0.248809 0.897172 0.763095
O O7 0.127706 0.758335 0.719049
O O8 0.000000 0.899076 0.750000
O O9 0.850806 0.091772 0.500000
O O10 0.768162 0.960349 0.426974
O O11 0.000000 0.000000 0.424848
O O12 0.887058 0.628285 0.134397
O O13 0.000000 0.500000 0.072264
O O14 0.942832 0.638858 0.000000
O O15 0.500000 0.100925 0.750000
O O16 0.378591 0.245193 0.715980
O O17 0.413903 0.108252 0.635474
O O18 0.500000 0.388570 0.250000
O O19 0.251197 0.386728 0.246356
O O20 0.000000 0.615316 0.250000
O O21 0.403875 0.111529 0.500000
#
# Coordination Sequence:
#
# PCOD9393175 Si02
#       8
#     8   8   8   8   8   8   8   8
#     4   9  17  32  55  78 105 144 182 216 265 325
#     4  10  21  34  53  76 106 137 174 220 262 314
#     4  10  21  33  47  72 105 138 174 218 266 311
#     4  10  21  35  55  84 112 138 174 220 267 317
#     4   9  18  33  53  75 103 137 175 220 265 308
#     4   9  17  32  53  81 112 138 176 225 263 312
#     4  10  19  34  55  81 107 139 179 220 267 313
#     4   9  18  32  51  74 101 138 181 218 255 316
#
# _framework density 20.28321
#
# number of rings (size 3 to 8) (size 9 to 14) (size 15 to 20)
#    0.000    2.500    1.250    0.750    3.500    2.500 
#    0.000    2.500    0.000    7.500    0.000    2.625 
#    0.000    0.000    0.000    0.000    0.000    0.000 
#
# Total GULP energy -356877.336442 kJ/mol
# GULP energy per Si atom -5576.208382 kJ/mol
# Density = 2.023704 g / cm^3
# Si number density = 20.283210 Si / 1000 Ang^3
#
#
#
# Elastic Constant Matrix: (Units=GPa)
#
#
# Indices 1 2 3 4 5 6 
#
# 1 100.6163 1.6498 81.1776 0.0000 0.0000 0.0000
# 2 1.6498 32.7250 12.3460 0.0000 0.0000 0.0000
# 3 81.1776 12.3460 194.0337 0.0000 0.0000 0.0000
# 4 0.0000 0.0000 0.0000 -28.6472 0.0000 0.0000
# 5 0.0000 0.0000 0.0000 0.0000 34.5133 0.0000
# 6 0.0000 0.0000 0.0000 0.0000 0.0000 -7.0740
#
#
#
# Elastic Compliance Matrix: (Units=1/GPa)
#
#
# Indices 1 2 3 4 5 6 
#
# 1 0.015090 0.001661 -0.006419 0.000000 0.000000 0.000000
# 2 0.001661 0.031492 -0.002699 0.000000 0.000000 0.000000
# 3 -0.006419 -0.002699 0.008011 0.000000 0.000000 0.000000
# 4 0.000000 0.000000 0.000000 -0.034907 0.000000 0.000000
# 5 0.000000 0.000000 0.000000 0.000000 0.028974 0.000000
# 6 0.000000 0.000000 0.000000 0.000000 0.000000 -0.141362
#
#
# Mechanical properties :
#
#
# Convention : Reuss Voigt Hill
#
# Bulk Modulus (GPa) = 25.20168 57.52463 41.36316
# Shear Modulus (GPa) = -77.44518 15.23852 -31.10333
#
# Velocity S-wave (km/s) = -6.18586 2.74394 -3.92018
# Velocity P-wave (km/s) = 6.21030 6.20171 0.23094
#
# Compressibility (1/GPa) = 0.03967989
#
# Stress axis : x y z
#
# Youngs Moduli (GPa) = 66.26721 31.75404 124.82871
#
# Poissons Ratio (x) = -0.05274 0.80128
# Poissons Ratio (y) = -0.11006 0.33687
# Poissons Ratio (z) = 0.42537 0.08569
#
# Static dielectric constant tensor:
#      x y z
#    x 1.691260 0.000000 0.000000 
#    y 0.000000 1.719840 0.000000 
#    z 0.000000 0.000000 1.774160 
# 
# From -- ./inp_files/17329.got.cif
#   From: 2010.05.17/outbox.cif.g08.bks.cpg/sg49_9_cif.got.tgz:17329.got - 2010.06.03 21:02:19.
