data_PCOD9393310
_publ_section_title
;
Structure prediction by ZEFSAII (Michael W. Deem and Ramdas Pophale) SiO2 
 PCOD9393310
Probable space group: P C C M
;
_chemical_formula_sum "Si O2"
_cell_formula_units_Z 30
_cell_length_a 6.338440
_cell_length_b 14.572928
_cell_length_c 15.058367
_cell_angle_alpha 90.000000
_cell_angle_beta 90.000000
_cell_angle_gamma 90.000000
_cell_volume 1390.935784
_symmetry_space_group_name_H-M "P C C M"
_symmetry_group_IT_number 49
_symmetry_cell_setting 'orthorhombic'
loop_
_space_group_symop_operation_xyz
x,y,z
-x,-y,z
x,-y,1/2-z
-x,y,1/2-z
-x,-y,-z
x,y,-z
-x,y,1/2+z
x,-y,1/2+z
loop_
_atom_site_type_symbol
_atom_site_label
_atom_site_fract_x
_atom_site_fract_y
_atom_site_fract_z
Si Si1 0.524568 0.892061 0.000000
Si Si2 0.257498 0.281372 0.000000
Si Si3 0.000000 0.000000 0.750000
Si Si4 0.578277 0.347041 0.155786
Si Si5 0.312975 0.851125 0.818160
Si Si6 0.136970 0.590644 0.000000
O O1 0.737145 0.830422 0.000000
O O2 0.401317 0.860092 0.084924
O O3 0.500000 0.000000 0.000000
O O4 0.386490 0.314813 0.088856
O O5 0.025496 0.323742 0.000000
O O6 0.137495 0.072021 0.694315
O O7 0.500000 0.387274 0.250000
O O8 0.717616 0.258377 0.189014
O O9 0.720685 0.405456 0.088641
O O10 0.500000 0.874494 0.750000
O O11 0.000000 0.500000 0.000000
#
# Coordination Sequence:
#
# PCOD9393310 Si02
#       6
#     4   4   2   8   8   4
#     4  10  19  35  59  85 119 162 205 253 315 382
#     4   9  21  40  61  89 130 166 203 269 323 376
#     4  12  22  34  60  90 130 170 214 278 316 362
#     4   9  21  42  64  89 129 173 209 257 329 396
#     4  10  22  38  55  85 124 165 212 261 316 382
#     4  11  24  43  69 100 128 162 218 282 334 393
#
# _framework density 21.568214000000001
#
# number of rings (size 3 to 8) (size 9 to 14) (size 15 to 20)
#    0.000    2.133    0.000    2.800    0.000   12.267 
#    0.000    5.333    0.000    0.000    0.000    0.000 
#    0.000    0.000    0.000    0.000    0.000    0.000 
#
# Total GULP energy -167168.299505 kJ/mol
# GULP energy per Si atom -5572.276650 kJ/mol
# Density = 2.151912 g / cm^3
# Si number density = 21.568214 Si / 1000 Ang^3
#
#
#
# Elastic Constant Matrix: (Units=GPa)
#
#
# Indices 1 2 3 4 5 6 
#
# 1 54.8571 30.3227 61.4389 0.0000 0.0000 0.0000
# 2 30.3227 85.9827 34.6344 0.0000 0.0000 0.0000
# 3 61.4389 34.6344 192.0377 0.0000 0.0000 0.0000
# 4 0.0000 0.0000 0.0000 13.3582 0.0000 0.0000
# 5 0.0000 0.0000 0.0000 0.0000 15.7237 0.0000
# 6 0.0000 0.0000 0.0000 0.0000 0.0000 36.5565
#
#
#
# Elastic Compliance Matrix: (Units=1/GPa)
#
#
# Indices 1 2 3 4 5 6 
#
# 1 0.032725 -0.007897 -0.009046 0.000000 0.000000 0.000000
# 2 -0.007897 0.014447 -0.000079 0.000000 0.000000 0.000000
# 3 -0.009046 -0.000079 0.008116 0.000000 0.000000 0.000000
# 4 0.000000 0.000000 0.000000 0.074860 0.000000 0.000000
# 5 0.000000 0.000000 0.000000 0.000000 0.063598 0.000000
# 6 0.000000 0.000000 0.000000 0.000000 0.000000 0.027355
#
#
# Mechanical properties :
#
#
# Convention : Reuss Voigt Hill
#
# Bulk Modulus (GPa) = 47.07154 65.07440 56.07297
# Shear Modulus (GPa) = 19.06745 26.89311 22.98028
#
# Velocity S-wave (km/s) = 2.97653 3.53496 3.26769
# Velocity P-wave (km/s) = 5.80386 6.84822 6.34756
#
# Compressibility (1/GPa) = 0.02124426
#
# Stress axis : x y z
#
# Youngs Moduli (GPa) = 30.55734 69.21787 123.22075
#
# Poissons Ratio (x) = 0.54664 1.11460
# Poissons Ratio (y) = 0.24132 0.00973
# Poissons Ratio (z) = 0.27641 0.00547
#
# Static dielectric constant tensor:
#      x y z
#    x 1.830820 0.000000 0.000000 
#    y 0.000000 2.147500 0.000000 
#    z 0.000000 0.000000 1.734950 
# 
# From -- ./inp_files/15111.got.cif
#   From: 2010.05.17/outbox.cif.g08.bks.cpg/sg49_8_cif.got.tgz:15111.got - 2010.06.03 21:02:19.
