data_PCOD9393744
_publ_section_title
;
Structure prediction by ZEFSAII (Michael W. Deem and Ramdas Pophale) SiO2 
 PCOD9393744
Probable space group: P C C M
;
_chemical_formula_sum "Si O2"
_cell_formula_units_Z 64
_cell_length_a 19.902582
_cell_length_b 20.932378
_cell_length_c 8.694357
_cell_angle_alpha 90.000000
_cell_angle_beta 90.000000
_cell_angle_gamma 90.000000
_cell_volume 3622.141894
_symmetry_space_group_name_H-M "P C C M"
_symmetry_group_IT_number 49
_symmetry_cell_setting 'orthorhombic'
loop_
_space_group_symop_operation_xyz
x,y,z
-x,-y,z
x,-y,1/2-z
-x,y,1/2-z
-x,-y,-z
x,y,-z
-x,y,1/2+z
x,-y,1/2+z
loop_
_atom_site_type_symbol
_atom_site_label
_atom_site_fract_x
_atom_site_fract_y
_atom_site_fract_z
Si Si1 0.572346 0.765945 0.317749
Si Si2 0.572340 0.387392 0.182412
Si Si3 0.711373 0.432063 0.683165
Si Si4 0.792495 0.066391 0.683877
Si Si5 0.206464 0.686843 0.183367
Si Si6 0.071299 0.263126 0.184136
Si Si7 0.928585 0.119445 0.184076
Si Si8 0.289060 0.194373 0.816629
O O1 0.500000 0.784101 0.250000
O O2 0.574538 0.777439 0.500000
O O3 0.579954 0.689267 0.294012
O O4 0.633940 0.800540 0.235079
O O5 0.500000 0.406117 0.250000
O O6 0.634314 0.420576 0.265947
O O7 0.574945 0.399853 0.000000
O O8 0.733548 0.500000 0.750000
O O9 0.716198 0.431164 0.500000
O O10 0.754858 0.374824 0.754104
O O11 0.799409 0.062803 0.500000
O O12 0.865321 0.079466 0.757846
O O13 0.745136 0.126714 0.720653
O O14 0.765652 0.000000 0.750000
O O15 0.133394 0.695054 0.258540
O O16 0.248945 0.749210 0.232142
O O17 0.201323 0.684283 0.000000
O O18 0.080761 0.191450 0.250956
O O19 0.000000 0.286144 0.250000
O O20 0.069534 0.259584 0.000000
O O21 0.000000 0.096103 0.250000
O O22 0.931072 0.121282 0.000000
O O23 0.283491 0.204547 0.000000
#
# Coordination Sequence:
#
# PCOD9393744 Si02
#       8
#     8   8   8   8   8   8   8   8
#     4  10  20  34  57  86 119 151 190 238 290 345
#     4  10  20  35  55  83 117 155 197 238 284 344
#     4  12  25  41  60  84 118 157 197 244 293 347
#     4  11  24  40  58  83 117 155 198 242 293 350
#     4  12  23  38  61  89 118 154 197 241 291 345
#     4  11  21  36  58  88 120 153 193 241 293 343
#     4  11  21  35  56  82 116 155 196 239 287 345
#     4  11  22  37  60  87 117 152 194 242 292 345
#
# _framework density 17.669104000000001
#
# number of rings (size 3 to 8) (size 9 to 14) (size 15 to 20)
#    0.000    1.000    2.500    6.750    0.000    3.000 
#    0.000    2.500    0.000    0.750    0.000    5.250 
#    0.000    0.000    0.000    0.000    0.000    0.000 
#
# Total GULP energy -357969.430873 kJ/mol
# GULP energy per Si atom -5593.272357 kJ/mol
# Density = 1.762889 g / cm^3
# Si number density = 17.669104 Si / 1000 Ang^3
#
#
#
# Elastic Constant Matrix: (Units=GPa)
#
#
# Indices 1 2 3 4 5 6 
#
# 1 113.2944 51.9728 52.0434 0.0000 0.0000 0.0000
# 2 51.9728 97.8966 60.0795 0.0000 0.0000 0.0000
# 3 52.0434 60.0795 142.1849 0.0000 0.0000 0.0000
# 4 0.0000 0.0000 0.0000 26.4928 0.0000 0.0000
# 5 0.0000 0.0000 0.0000 0.0000 6.0324 0.0000
# 6 0.0000 0.0000 0.0000 0.0000 0.0000 12.8351
#
#
#
# Elastic Compliance Matrix: (Units=1/GPa)
#
#
# Indices 1 2 3 4 5 6 
#
# 1 0.012218 -0.005052 -0.002337 0.000000 0.000000 0.000000
# 2 -0.005052 0.015880 -0.004861 0.000000 0.000000 0.000000
# 3 -0.002337 -0.004861 0.009943 0.000000 0.000000 0.000000
# 4 0.000000 0.000000 0.000000 0.037746 0.000000 0.000000
# 5 0.000000 0.000000 0.000000 0.000000 0.165771 0.000000
# 6 0.000000 0.000000 0.000000 0.000000 0.000000 0.077911
#
#
# Mechanical properties :
#
#
# Convention : Reuss Voigt Hill
#
# Bulk Modulus (GPa) = 73.85494 75.72969 74.79232
# Shear Modulus (GPa) = 14.34794 21.69076 18.01935
#
# Velocity S-wave (km/s) = 2.85272 3.50753 3.19693
# Velocity P-wave (km/s) = 7.26225 7.70433 7.48655
#
# Compressibility (1/GPa) = 0.01354006
#
# Stress axis : x y z
#
# Youngs Moduli (GPa) = 81.84791 62.97218 100.57752
#
# Poissons Ratio (x) = 0.31813 0.23509
# Poissons Ratio (y) = 0.41349 0.48890
# Poissons Ratio (z) = 0.19131 0.30610
#
# Static dielectric constant tensor:
#      x y z
#    x 1.598920 0.000000 0.000000 
#    y 0.000000 1.599430 0.000000 
#    z 0.000000 0.000000 1.584850 
# 
# From -- ./inp_files/5347.got.cif
#   From: 2010.05.17/outbox.cif.g08.bks.cpg/sg49_3_cif.got.tgz:5347.got - 2010.06.03 21:02:19.
