data_PCOD9393975
_publ_section_title
;
Structure prediction by ZEFSAII (Michael W. Deem and Ramdas Pophale) SiO2 
 PCOD9393975
Probable space group: P C C M
;
_chemical_formula_sum "Si O2"
_cell_formula_units_Z 64
_cell_length_a 15.387134
_cell_length_b 9.022757
_cell_length_c 23.882815
_cell_angle_alpha 90.000000
_cell_angle_beta 90.000000
_cell_angle_gamma 90.000000
_cell_volume 3315.755598
_symmetry_space_group_name_H-M "P C C M"
_symmetry_group_IT_number 49
_symmetry_cell_setting 'orthorhombic'
loop_
_space_group_symop_operation_xyz
x,y,z
-x,-y,z
x,-y,1/2-z
-x,y,1/2-z
-x,-y,-z
x,y,-z
-x,y,1/2+z
x,-y,1/2+z
loop_
_atom_site_type_symbol
_atom_site_label
_atom_site_fract_x
_atom_site_fract_y
_atom_site_fract_z
Si Si1 0.262147 0.346185 0.062580
Si Si2 0.642368 0.839393 0.232795
Si Si3 0.380900 0.341225 0.346408
Si Si4 0.187809 0.166659 0.164640
Si Si5 0.232488 0.693036 0.935152
Si Si6 0.081720 0.099125 0.612086
Si Si7 0.421113 0.336784 0.130843
Si Si8 0.019863 0.337969 0.815228
O O1 0.229999 0.229743 0.108035
O O2 0.222588 0.512442 0.070343
O O3 0.366125 0.344045 0.073857
O O4 0.241084 0.299218 0.000000
O O5 0.625557 0.734590 0.285969
O O6 0.743127 0.847611 0.214153
O O7 0.597123 0.790963 0.175435
O O8 0.611472 0.000000 0.250000
O O9 0.306725 0.279567 0.388058
O O10 0.378912 0.518949 0.338236
O O11 0.475709 0.332013 0.375423
O O12 0.118981 0.291993 0.179832
O O13 0.139113 0.015631 0.148310
O O14 0.148761 0.799010 0.924094
O O15 0.260330 0.716234 0.000000
O O16 0.035509 0.215598 0.652806
O O17 0.000000 0.000000 0.586899
O O18 0.000000 0.500000 0.838762
O O19 0.000000 0.337041 0.750000
#
# Coordination Sequence:
#
# PCOD9393975 Si02
#       8
#     8   8   8   8   8   8   8   8
#     4   9  19  38  61  83 114 149 189 242 286 339
#     4  11  22  34  54  82 115 151 189 229 281 341
#     4  10  20  36  58  80 115 151 185 240 283 342
#     4  10  22  37  56  86 112 152 192 229 282 344
#     4  10  21  37  58  85 112 148 196 240 288 340
#     4  10  22  39  60  82 116 153 187 239 284 344
#     4   9  20  37  55  85 113 147 193 228 290 342
#     4  10  22  38  58  85 115 147 186 233 284 340
#
# _framework density 19.301784999999999
#
# number of rings (size 3 to 8) (size 9 to 14) (size 15 to 20)
#    0.000    2.125    0.000    2.250    3.500    5.000 
#    4.500    4.375    0.000    6.750    0.000    5.250 
#    0.000    0.000    0.000    0.000    0.000    0.000 
#
# Total GULP energy -356364.588525 kJ/mol
# GULP energy per Si atom -5568.196696 kJ/mol
# Density = 1.925785 g / cm^3
# Si number density = 19.301785 Si / 1000 Ang^3
#
#
#
# Elastic Constant Matrix: (Units=GPa)
#
#
# Indices 1 2 3 4 5 6 
#
# 1 80.4565 24.5649 20.3914 0.0000 0.0000 0.0000
# 2 24.5649 82.1062 20.8438 0.0000 0.0000 0.0000
# 3 20.3914 20.8438 61.2790 0.0000 0.0000 0.0000
# 4 0.0000 0.0000 0.0000 16.8356 0.0000 0.0000
# 5 0.0000 0.0000 0.0000 0.0000 11.1259 0.0000
# 6 0.0000 0.0000 0.0000 0.0000 0.0000 24.3113
#
#
#
# Elastic Compliance Matrix: (Units=1/GPa)
#
#
# Indices 1 2 3 4 5 6 
#
# 1 0.014383 -0.003380 -0.003636 0.000000 0.000000 0.000000
# 2 -0.003380 0.014125 -0.003680 0.000000 0.000000 0.000000
# 3 -0.003636 -0.003680 0.018780 0.000000 0.000000 0.000000
# 4 0.000000 0.000000 0.000000 0.059398 0.000000 0.000000
# 5 0.000000 0.000000 0.000000 0.000000 0.089880 0.000000
# 6 0.000000 0.000000 0.000000 0.000000 0.000000 0.041133
#
#
# Mechanical properties :
#
#
# Convention : Reuss Voigt Hill
#
# Bulk Modulus (GPa) = 38.61629 39.49356 39.05493
# Shear Modulus (GPa) = 18.67600 20.99067 19.83333
#
# Velocity S-wave (km/s) = 3.11397 3.30130 3.20900
# Velocity P-wave (km/s) = 5.74274 5.91920 5.83164
#
# Compressibility (1/GPa) = 0.02589581
#
# Stress axis : x y z
#
# Youngs Moduli (GPa) = 69.52816 70.79777 53.24672
#
# Poissons Ratio (x) = 0.23929 0.19362
# Poissons Ratio (y) = 0.23500 0.19594
# Poissons Ratio (z) = 0.25283 0.26052
#
# Static dielectric constant tensor:
#      x y z
#    x 1.764070 0.000000 0.000000 
#    y 0.000000 1.708300 0.000000 
#    z 0.000000 0.000000 1.632260 
# 
# From -- ./inp_files/23225.got.cif
#   From: 2010.05.17/outbox.cif.g08.bks.cpg/sg49_12_cif.got.tgz:23225.got - 2010.06.03 21:02:19.
