data_PCOD9393157
_publ_section_title
;
Structure prediction by ZEFSAII (Michael W. Deem and Ramdas Pophale) SiO2 
 PCOD9393157
Probable space group: P C C M
;
_chemical_formula_sum "Si O2"
_cell_formula_units_Z 48
_cell_length_a 7.034204
_cell_length_b 10.740027
_cell_length_c 30.799069
_cell_angle_alpha 90.000000
_cell_angle_beta 90.000000
_cell_angle_gamma 90.000000
_cell_volume 2326.793924
_symmetry_space_group_name_H-M "P C C M"
_symmetry_group_IT_number 49
_symmetry_cell_setting 'orthorhombic'
loop_
_space_group_symop_operation_xyz
x,y,z
-x,-y,z
x,-y,1/2-z
-x,y,1/2-z
-x,-y,-z
x,y,-z
-x,y,1/2+z
x,-y,1/2+z
loop_
_atom_site_type_symbol
_atom_site_label
_atom_site_fract_x
_atom_site_fract_y
_atom_site_fract_z
Si Si1 0.852828 0.384223 0.451469
Si Si2 0.780940 0.244279 0.666674
Si Si3 0.290708 0.491610 0.866787
Si Si4 0.672702 0.770451 0.352941
Si Si5 0.727382 0.858135 0.257476
Si Si6 0.027332 0.862144 0.090687
O O1 0.773745 0.373472 0.500000
O O2 0.705186 0.427762 0.414438
O O3 0.957507 0.254837 0.438540
O O4 0.000000 0.500000 0.450730
O O5 0.827082 0.389645 0.659044
O O6 0.556275 0.228338 0.653044
O O7 0.810468 0.216003 0.716958
O O8 0.899602 0.157483 0.634289
O O9 0.500000 0.500000 0.846678
O O10 0.241235 0.635570 0.865991
O O11 0.754439 0.811376 0.306248
O O12 0.756369 0.853228 0.391729
O O13 0.500000 0.852912 0.250000
O O14 0.785359 0.000000 0.250000
O O15 0.000000 0.000000 0.071921
#
# Coordination Sequence:
#
# PCOD9393157 Si02
#       6
#     8   8   8   8   8   8
#     4  10  20  37  59  80 107 138 175 224 273 331
#     4   9  20  34  51  80 108 141 187 221 264 318
#     4   9  18  34  56  81 104 139 179 221 274 322
#     4  10  19  34  54  76 111 143 180 228 262 310
#     4   9  17  30  48  71 105 148 182 217 264 308
#     4  11  22  35  57  82 107 144 180 218 273 324
#
# _framework density 20.629245999999998
#
# number of rings (size 3 to 8) (size 9 to 14) (size 15 to 20)
#    0.000    2.333    1.667    1.000    0.000    4.000 
#    0.000    5.000    0.000    2.000    0.000    4.667 
#    0.000    0.000    0.000    0.000    0.000    0.000 
#
# Total GULP energy -267400.599348 kJ/mol
# GULP energy per Si atom -5570.845820 kJ/mol
# Density = 2.058229 g / cm^3
# Si number density = 20.629246 Si / 1000 Ang^3
#
#
#
# Elastic Constant Matrix: (Units=GPa)
#
#
# Indices 1 2 3 4 5 6 
#
# 1 64.8049 -8.9149 -18.1263 0.0000 0.0000 0.0000
# 2 -8.9149 121.5581 31.0365 0.0000 0.0000 0.0000
# 3 -18.1263 31.0365 90.0423 0.0000 0.0000 0.0000
# 4 0.0000 0.0000 0.0000 16.1692 0.0000 0.0000
# 5 0.0000 0.0000 0.0000 0.0000 25.4594 0.0000
# 6 0.0000 0.0000 0.0000 0.0000 0.0000 19.8121
#
#
#
# Elastic Compliance Matrix: (Units=1/GPa)
#
#
# Indices 1 2 3 4 5 6 
#
# 1 0.016369 0.000394 0.003159 0.000000 0.000000 0.000000
# 2 0.000394 0.009030 -0.003033 0.000000 0.000000 0.000000
# 3 0.003159 -0.003033 0.012787 0.000000 0.000000 0.000000
# 4 0.000000 0.000000 0.000000 0.061846 0.000000 0.000000
# 5 0.000000 0.000000 0.000000 0.000000 0.039278 0.000000
# 6 0.000000 0.000000 0.000000 0.000000 0.000000 0.050474
#
#
# Mechanical properties :
#
#
# Convention : Reuss Voigt Hill
#
# Bulk Modulus (GPa) = 25.49320 31.59955 28.54637
# Shear Modulus (GPa) = 24.77455 30.44879 27.61167
#
# Velocity S-wave (km/s) = 3.46922 3.84604 3.66248
# Velocity P-wave (km/s) = 5.33216 5.92232 5.63497
#
# Compressibility (1/GPa) = 0.03922615
#
# Stress axis : x y z
#
# Youngs Moduli (GPa) = 61.09176 110.74386 78.20184
#
# Poissons Ratio (x) = -0.04361 -0.24707
# Poissons Ratio (y) = -0.02406 0.23720
# Poissons Ratio (z) = -0.19302 0.33591
#
# Static dielectric constant tensor:
#      x y z
#    x 1.802960 0.000000 0.000000 
#    y 0.000000 3.153740 0.000000 
#    z 0.000000 0.000000 1.720530 
# 
# From -- ./inp_files/26282.got.cif
#   From: 2010.05.17/outbox.cif.g08.bks.cpg/sg49_14_cif.got.tgz:26282.got - 2010.06.03 21:02:19.
