data_PCOD9393333
_publ_section_title
;
Structure prediction by ZEFSAII (Michael W. Deem and Ramdas Pophale) SiO2 
 PCOD9393333
Probable space group: P C C M
;
_chemical_formula_sum "Si O2"
_cell_formula_units_Z 64
_cell_length_a 14.314920
_cell_length_b 14.684155
_cell_length_c 18.143975
_cell_angle_alpha 90.000000
_cell_angle_beta 90.000000
_cell_angle_gamma 90.000000
_cell_volume 3813.908979
_symmetry_space_group_name_H-M "P C C M"
_symmetry_group_IT_number 49
_symmetry_cell_setting 'orthorhombic'
loop_
_space_group_symop_operation_xyz
x,y,z
-x,-y,z
x,-y,1/2-z
-x,y,1/2-z
-x,-y,-z
x,y,-z
-x,y,1/2+z
x,-y,1/2+z
loop_
_atom_site_type_symbol
_atom_site_label
_atom_site_fract_x
_atom_site_fract_y
_atom_site_fract_z
Si Si1 0.342425 0.901541 0.751098
Si Si2 0.099972 0.412433 0.710345
Si Si3 0.788665 0.472504 0.084828
Si Si4 0.265244 0.681137 0.580362
Si Si5 0.622009 0.414371 0.804414
Si Si6 0.757810 0.728635 0.237227
Si Si7 0.506635 0.103036 0.371876
Si Si8 0.488662 0.311160 0.917684
O O1 0.269032 0.824815 0.769022
O O2 0.396328 0.887695 0.673512
O O3 0.424342 0.900422 0.811462
O O4 0.297900 0.000000 0.750000
O O5 0.148194 0.500000 0.750000
O O6 0.117216 0.436687 0.625059
O O7 0.154913 0.321394 0.727892
O O8 0.000000 0.406944 0.750000
O O9 0.781640 0.581787 0.085462
O O10 0.701338 0.440194 0.135035
O O11 0.781355 0.442401 0.000000
O O12 0.244942 0.720992 0.500000
O O13 0.230534 0.736532 0.649990
O O14 0.377557 0.671129 0.585538
O O15 0.602492 0.500000 0.750000
O O16 0.669329 0.336825 0.753927
O O17 0.539304 0.367682 0.852359
O O18 0.496288 0.201083 0.411588
O O19 0.500000 0.000000 0.407014
O O20 0.520931 0.340327 0.000000
#
# Coordination Sequence:
#
# PCOD9393333 Si02
#       8
#     8   8   8   8   8   8   8   8
#     4   9  17  29  50  75  97 126 175 221 253 303
#     4  10  20  35  53  80 104 124 165 209 254 315
#     4  10  19  36  52  70 103 138 167 207 255 300
#     4  10  20  32  45  68  98 132 174 209 249 298
#     4  11  21  34  47  73  98 141 185 216 251 302
#     4  11  17  34  55  69  94 134 168 209 262 304
#     4   9  17  30  47  71 101 131 174 227 268 304
#     4  11  22  33  45  68 105 143 179 229 266 306
#
# _framework density 16.780683
#
# number of rings (size 3 to 8) (size 9 to 14) (size 15 to 20)
#    0.000    1.875    5.000    1.875    0.000    1.250 
#    4.500    3.750    0.000    0.375    0.000    0.000 
#    0.000    0.000    0.000    4.375    0.000    0.000 
#
# Total GULP energy -356398.411784 kJ/mol
# GULP energy per Si atom -5568.725184 kJ/mol
# Density = 1.674249 g / cm^3
# Si number density = 16.780683 Si / 1000 Ang^3
#
#
#
# Elastic Constant Matrix: (Units=GPa)
#
#
# Indices 1 2 3 4 5 6 
#
# 1 55.4688 36.0561 18.2223 0.0000 0.0000 0.0000
# 2 36.0561 106.1558 25.7284 0.0000 0.0000 0.0000
# 3 18.2223 25.7284 96.4583 0.0000 0.0000 0.0000
# 4 0.0000 0.0000 0.0000 16.7241 0.0000 0.0000
# 5 0.0000 0.0000 0.0000 0.0000 15.8281 0.0000
# 6 0.0000 0.0000 0.0000 0.0000 0.0000 18.4106
#
#
#
# Elastic Compliance Matrix: (Units=1/GPa)
#
#
# Indices 1 2 3 4 5 6 
#
# 1 0.023682 -0.007440 -0.002489 0.000000 0.000000 0.000000
# 2 -0.007440 0.012409 -0.001904 0.000000 0.000000 0.000000
# 3 -0.002489 -0.001904 0.011345 0.000000 0.000000 0.000000
# 4 0.000000 0.000000 0.000000 0.059794 0.000000 0.000000
# 5 0.000000 0.000000 0.000000 0.000000 0.063179 0.000000
# 6 0.000000 0.000000 0.000000 0.000000 0.000000 0.054317
#
#
# Mechanical properties :
#
#
# Convention : Reuss Voigt Hill
#
# Bulk Modulus (GPa) = 42.07240 46.45518 44.26379
# Shear Modulus (GPa) = 19.50710 22.06429 20.78569
#
# Velocity S-wave (km/s) = 3.41321 3.63004 3.52329
# Velocity P-wave (km/s) = 6.37649 6.73152 6.55641
#
# Compressibility (1/GPa) = 0.02376855
#
# Stress axis : x y z
#
# Youngs Moduli (GPa) = 42.22541 80.58792 88.14184
#
# Poissons Ratio (x) = 0.59961 0.21941
# Poissons Ratio (y) = 0.31418 0.16784
# Poissons Ratio (z) = 0.10511 0.15346
#
# Static dielectric constant tensor:
#      x y z
#    x 1.586030 0.000000 0.000000 
#    y 0.000000 1.588440 0.000000 
#    z 0.000000 0.000000 1.617620 
# 
# From -- ./inp_files/18015.got.cif
#   From: 2010.05.17/outbox.cif.g08.bks.cpg/sg49_10_cif.got.tgz:18015.got - 2010.06.03 21:02:19.
