data_PCOD9393750
_publ_section_title
;
Structure prediction by ZEFSAII (Michael W. Deem and Ramdas Pophale) SiO2 
 PCOD9393750
Probable space group: P C C M
;
_chemical_formula_sum "Si O2"
_cell_formula_units_Z 34
_cell_length_a 7.029869
_cell_length_b 20.936297
_cell_length_c 9.858695
_cell_angle_alpha 90.000000
_cell_angle_beta 90.000000
_cell_angle_gamma 90.000000
_cell_volume 1450.997064
_symmetry_space_group_name_H-M "P C C M"
_symmetry_group_IT_number 49
_symmetry_cell_setting 'orthorhombic'
loop_
_space_group_symop_operation_xyz
x,y,z
-x,-y,z
x,-y,1/2-z
-x,y,1/2-z
-x,-y,-z
x,y,-z
-x,y,1/2+z
x,-y,1/2+z
loop_
_atom_site_type_symbol
_atom_site_label
_atom_site_fract_x
_atom_site_fract_y
_atom_site_fract_z
Si Si1 0.194673 0.400409 0.661783
Si Si2 0.282073 0.092044 0.500000
Si Si3 0.500000 0.500000 0.750000
Si Si4 0.191216 0.718354 0.661065
Si Si5 0.284902 0.142376 0.226337
Si Si6 0.740793 0.054593 0.500000
O O1 0.156371 0.388027 0.500000
O O2 0.353884 0.455037 0.668306
O O3 0.273671 0.339923 0.749131
O O4 0.000000 0.416317 0.750000
O O5 0.212023 0.135145 0.376393
O O6 0.512397 0.074396 0.500000
O O7 0.212461 0.019352 0.500000
O O8 0.170009 0.702625 0.500000
O O9 0.292048 0.786630 0.668351
O O10 0.000000 0.729822 0.750000
O O11 0.500000 0.120737 0.250000
O O12 0.187543 0.091354 0.130854
#
# Coordination Sequence:
#
# PCOD9393750 Si02
#       6
#     8   4   2   8   8   4
#     4  11  26  48  75 107 146 189 236 285 343 410
#     4   9  18  28  57  83 123 159 210 265 338 392
#     4  12  28  48  76 116 146 188 224 282 338 414
#     4  11  24  43  65  92 130 175 220 270 330 394
#     4  10  20  34  57  89 121 161 213 274 328 389
#     4   9  16  34  49  87 121 163 206 269 330 398
#
# _framework density 23.432162000000002
#
# number of rings (size 3 to 8) (size 9 to 14) (size 15 to 20)
#    0.000    1.647    1.176    4.235    4.941    7.529 
#    0.000    0.000    0.000    4.235    0.000    0.000 
#    0.000    0.000    0.000    0.000    0.000    0.000 
#
# Total GULP energy -189288.294396 kJ/mol
# GULP energy per Si atom -5567.302776 kJ/mol
# Density = 2.337883 g / cm^3
# Si number density = 23.432162 Si / 1000 Ang^3
#
#
#
# Elastic Constant Matrix: (Units=GPa)
#
#
# Indices 1 2 3 4 5 6 
#
# 1 61.8148 -24.6087 20.8264 0.0000 0.0000 0.0000
# 2 -24.6087 94.9963 79.3057 0.0000 0.0000 0.0000
# 3 20.8264 79.3057 262.0511 0.0000 0.0000 0.0000
# 4 0.0000 0.0000 0.0000 36.0320 0.0000 0.0000
# 5 0.0000 0.0000 0.0000 0.0000 9.1067 0.0000
# 6 0.0000 0.0000 0.0000 0.0000 0.0000 21.4822
#
#
#
# Elastic Compliance Matrix: (Units=1/GPa)
#
#
# Indices 1 2 3 4 5 6 
#
# 1 0.021413 0.009323 -0.004523 0.000000 0.000000 0.000000
# 2 0.009323 0.018145 -0.006232 0.000000 0.000000 0.000000
# 3 -0.004523 -0.006232 0.006062 0.000000 0.000000 0.000000
# 4 0.000000 0.000000 0.000000 0.027753 0.000000 0.000000
# 5 0.000000 0.000000 0.000000 0.000000 0.109809 0.000000
# 6 0.000000 0.000000 0.000000 0.000000 0.000000 0.046550
#
#
# Mechanical properties :
#
#
# Convention : Reuss Voigt Hill
#
# Bulk Modulus (GPa) = 23.38926 63.32321 43.35623
# Shear Modulus (GPa) = 20.25538 36.21343 28.23441
#
# Velocity S-wave (km/s) = 2.94330 3.93550 3.47499
# Velocity P-wave (km/s) = 4.64264 6.90895 5.88590
#
# Compressibility (1/GPa) = 0.04275467
#
# Stress axis : x y z
#
# Youngs Moduli (GPa) = 46.70073 55.11260 164.97292
#
# Poissons Ratio (x) = -0.51383 0.74622
# Poissons Ratio (y) = -0.43540 1.02814
# Poissons Ratio (z) = 0.21124 0.34347
#
# Static dielectric constant tensor:
#      x y z
#    x 2.001700 0.000000 0.000000 
#    y 0.000000 1.920140 0.000000 
#    z 0.000000 0.000000 1.990980 
# 
# From -- ./inp_files/1573.got.cif
#   From: 2010.05.17/outbox.cif.g08.bks.cpg/sg49_1_cif.got.tgz:1573.got - 2010.06.03 21:02:19.
