data_PCOD9393544
_publ_section_title
;
Structure prediction by ZEFSAII (Michael W. Deem and Ramdas Pophale) SiO2 
 PCOD9393544
Probable space group: P C C M
;
_chemical_formula_sum "Si O2"
_cell_formula_units_Z 58
_cell_length_a 16.564096
_cell_length_b 23.582774
_cell_length_c 8.943113
_cell_angle_alpha 90.000000
_cell_angle_beta 90.000000
_cell_angle_gamma 90.000000
_cell_volume 3493.424375
_symmetry_space_group_name_H-M "P C C M"
_symmetry_group_IT_number 49
_symmetry_cell_setting 'orthorhombic'
loop_
_space_group_symop_operation_xyz
x,y,z
-x,-y,z
x,-y,1/2-z
-x,y,1/2-z
-x,-y,-z
x,y,-z
-x,y,1/2+z
x,-y,1/2+z
loop_
_atom_site_type_symbol
_atom_site_label
_atom_site_fract_x
_atom_site_fract_y
_atom_site_fract_z
Si Si1 0.725149 0.617704 0.174617
Si Si2 0.917443 0.272040 0.176269
Si Si3 0.000000 0.500000 0.750000
Si Si4 0.423451 0.561559 0.175562
Si Si5 0.588758 0.945013 0.823004
Si Si6 0.877934 0.403921 0.832282
Si Si7 0.408741 0.815121 0.319915
Si Si8 0.263108 0.258774 0.681533
O O1 0.657159 0.591606 0.277709
O O2 0.808701 0.586038 0.211024
O O3 0.731744 0.681686 0.232206
O O4 0.705482 0.614246 0.000000
O O5 0.910820 0.340558 0.203794
O O6 0.831256 0.242832 0.215558
O O7 0.000000 0.251156 0.250000
O O8 0.926614 0.265867 0.000000
O O9 0.941749 0.454821 0.831763
O O10 0.419122 0.500000 0.250000
O O11 0.500000 0.592064 0.250000
O O12 0.434318 0.557002 0.000000
O O13 0.500000 0.943430 0.750000
O O14 0.618166 0.880944 0.797996
O O15 0.630964 0.000000 0.750000
O O16 0.582827 0.954155 0.000000
O O17 0.842684 0.399560 0.000000
O O18 0.500000 0.807385 0.250000
O O19 0.413298 0.804643 0.500000
O O20 0.338156 0.778193 0.242463
O O21 0.269234 0.264588 0.500000
#
# Coordination Sequence:
#
# PCOD9393544 Si02
#       8
#     8   8   2   8   8   8   8   8
#     4  11  23  39  57  76  99 131 164 200 249 300
#     4   9  18  34  53  72  96 127 162 204 253 303
#     4  12  22  36  56  78 104 128 164 194 244 296
#     4  11  22  39  59  78  98 120 153 196 241 292
#     4   9  16  26  43  68 101 140 183 219 255 298
#     4  10  22  37  52  75 103 129 159 197 242 298
#     4  10  20  33  50  76 108 145 183 222 261 304
#     4  10  21  37  54  76 103 133 170 215 257 304
#
# _framework density 16.602620000000002
#
# number of rings (size 3 to 8) (size 9 to 14) (size 15 to 20)
#    0.000    1.931    0.690    5.586    0.966    6.069 
#    0.000    2.759    0.000    0.000    0.000    0.000 
#    0.000    0.552    0.000    6.069    0.000    4.414 
#
# Total GULP energy -322876.044448 kJ/mol
# GULP energy per Si atom -5566.828353 kJ/mol
# Density = 1.656483 g / cm^3
# Si number density = 16.602620 Si / 1000 Ang^3
#
#
#
# Elastic Constant Matrix: (Units=GPa)
#
#
# Indices 1 2 3 4 5 6 
#
# 1 105.4324 34.6314 42.1343 0.0000 0.0000 0.0000
# 2 34.6314 49.7245 20.3497 0.0000 0.0000 0.0000
# 3 42.1343 20.3497 95.3310 0.0000 0.0000 0.0000
# 4 0.0000 0.0000 0.0000 20.6759 0.0000 0.0000
# 5 0.0000 0.0000 0.0000 0.0000 26.7402 0.0000
# 6 0.0000 0.0000 0.0000 0.0000 0.0000 13.5398
#
#
#
# Elastic Compliance Matrix: (Units=1/GPa)
#
#
# Indices 1 2 3 4 5 6 
#
# 1 0.013826 -0.007811 -0.004444 0.000000 0.000000 0.000000
# 2 -0.007811 0.026449 -0.002194 0.000000 0.000000 0.000000
# 3 -0.004444 -0.002194 0.012922 0.000000 0.000000 0.000000
# 4 0.000000 0.000000 0.000000 0.048366 0.000000 0.000000
# 5 0.000000 0.000000 0.000000 0.000000 0.037397 0.000000
# 6 0.000000 0.000000 0.000000 0.000000 0.000000 0.073856
#
#
# Mechanical properties :
#
#
# Convention : Reuss Voigt Hill
#
# Bulk Modulus (GPa) = 41.15109 49.41319 45.28214
# Shear Modulus (GPa) = 20.01506 22.41600 21.21553
#
# Velocity S-wave (km/s) = 3.47585 3.67842 3.57857
# Velocity P-wave (km/s) = 6.39910 6.91867 6.66395
#
# Compressibility (1/GPa) = 0.02430069
#
# Stress axis : x y z
#
# Youngs Moduli (GPa) = 72.32640 37.80919 77.38767
#
# Poissons Ratio (x) = 0.29533 0.34387
# Poissons Ratio (y) = 0.56494 0.16975
# Poissons Ratio (z) = 0.32139 0.08293
#
# Static dielectric constant tensor:
#      x y z
#    x 1.709730 0.000000 0.000000 
#    y 0.000000 1.744840 0.000000 
#    z 0.000000 0.000000 1.568960 
# 
# From -- ./inp_files/4260.got.cif
#   From: 2010.05.17/outbox.cif.g08.bks.cpg/sg49_3_cif.got.tgz:4260.got - 2010.06.03 21:02:19.
