data_PCOD9393659
_publ_section_title
;
Structure prediction by ZEFSAII (Michael W. Deem and Ramdas Pophale) SiO2 
 PCOD9393659
Probable space group: P C C M
;
_chemical_formula_sum "Si O2"
_cell_formula_units_Z 64
_cell_length_a 24.666226
_cell_length_b 15.610924
_cell_length_c 8.153262
_cell_angle_alpha 90.000000
_cell_angle_beta 90.000000
_cell_angle_gamma 90.000000
_cell_volume 3139.516097
_symmetry_space_group_name_H-M "P C C M"
_symmetry_group_IT_number 49
_symmetry_cell_setting 'orthorhombic'
loop_
_space_group_symop_operation_xyz
x,y,z
-x,-y,z
x,-y,1/2-z
-x,y,1/2-z
-x,-y,-z
x,y,-z
-x,y,1/2+z
x,-y,1/2+z
loop_
_atom_site_type_symbol
_atom_site_label
_atom_site_fract_x
_atom_site_fract_y
_atom_site_fract_z
Si Si1 0.557749 0.098652 0.695962
Si Si2 0.795282 0.906124 0.800835
Si Si3 0.667420 0.319822 0.811974
Si Si4 0.559018 0.401109 0.695058
Si Si5 0.774142 0.592788 0.308452
Si Si6 0.677189 0.858733 0.187718
Si Si7 0.937715 0.595849 0.196551
Si Si8 0.147594 0.266104 0.808499
O O1 0.500000 0.138894 0.750000
O O2 0.558697 0.106842 0.500000
O O3 0.616888 0.127846 0.761390
O O4 0.555360 0.000000 0.750000
O O5 0.732687 0.896486 0.738886
O O6 0.832115 0.825904 0.741505
O O7 0.815277 0.000000 0.750000
O O8 0.793258 0.900520 0.000000
O O9 0.606954 0.348832 0.777026
O O10 0.709655 0.396521 0.788419
O O11 0.684098 0.242904 0.694900
O O12 0.673272 0.290168 0.000000
O O13 0.563389 0.500000 0.750000
O O14 0.500000 0.370237 0.750000
O O15 0.563879 0.395969 0.500000
O O16 0.791578 0.500000 0.250000
O O17 0.787191 0.603946 0.500000
O O18 0.802562 0.668371 0.209920
O O19 0.674307 0.890251 0.000000
O O20 0.919829 0.500000 0.250000
O O21 0.901679 0.675610 0.261184
O O22 0.000000 0.605350 0.250000
O O23 0.934528 0.596794 0.000000
O O24 0.135186 0.251469 0.000000
#
# Coordination Sequence:
#
# PCOD9393659 Si02
#       8
#     8   8   8   8   8   8   8   8
#     4  10  20  34  53  76 100 132 171 219 282 349
#     4  10  21  38  60  85 115 152 196 249 304 358
#     4  11  23  37  54  79 108 141 183 230 282 343
#     4  11  22  38  58  77 101 135 179 230 283 343
#     4  11  23  36  55  83 115 153 192 234 287 344
#     4  10  21  37  56  77 106 144 184 232 295 351
#     4  10  20  35  58  90 126 167 205 243 289 342
#     4  10  21  38  60  86 120 158 200 247 294 343
#
# _framework density 20.385307999999998
#
# number of rings (size 3 to 8) (size 9 to 14) (size 15 to 20)
#    0.000    1.625    1.250    4.875    0.000    7.000 
#    0.000    1.250    0.000    0.375    0.000    2.625 
#    0.000    0.000    0.000    0.000    0.000    0.000 
#
# Total GULP energy -357083.971568 kJ/mol
# GULP energy per Si atom -5579.437056 kJ/mol
# Density = 2.033891 g / cm^3
# Si number density = 20.385308 Si / 1000 Ang^3
#
#
#
# Elastic Constant Matrix: (Units=GPa)
#
#
# Indices 1 2 3 4 5 6 
#
# 1 120.3627 55.4635 10.2644 0.0000 0.0000 0.0000
# 2 55.4635 126.4285 -0.6912 0.0000 0.0000 0.0000
# 3 10.2644 -0.6912 29.9033 0.0000 0.0000 0.0000
# 4 0.0000 0.0000 0.0000 22.7422 0.0000 0.0000
# 5 0.0000 0.0000 0.0000 0.0000 -27.3712 0.0000
# 6 0.0000 0.0000 0.0000 0.0000 0.0000 52.1634
#
#
#
# Elastic Compliance Matrix: (Units=1/GPa)
#
#
# Indices 1 2 3 4 5 6 
#
# 1 0.010835 -0.004774 -0.003829 0.000000 0.000000 0.000000
# 2 -0.004774 0.010014 0.001870 0.000000 0.000000 0.000000
# 3 -0.003829 0.001870 0.034799 0.000000 0.000000 0.000000
# 4 0.000000 0.000000 0.000000 0.043971 0.000000 0.000000
# 5 0.000000 0.000000 0.000000 0.000000 -0.036535 0.000000
# 6 0.000000 0.000000 0.000000 0.000000 0.000000 0.019171
#
#
# Mechanical properties :
#
#
# Convention : Reuss Voigt Hill
#
# Bulk Modulus (GPa) = 23.70725 45.19643 34.45184
# Shear Modulus (GPa) = 45.54502 23.61741 34.58121
#
# Velocity S-wave (km/s) = 4.73187 3.40744 4.12318
# Velocity P-wave (km/s) = 6.44274 6.14004 6.29321
#
# Compressibility (1/GPa) = 0.04218119
#
# Stress axis : x y z
#
# Youngs Moduli (GPa) = 92.29610 99.85829 28.73660
#
# Poissons Ratio (x) = 0.47673 0.11004
# Poissons Ratio (y) = 0.44063 -0.05374
# Poissons Ratio (z) = 0.35344 -0.18675
#
# Static dielectric constant tensor:
#      x y z
#    x 2.120240 0.000000 0.000000 
#    y 0.000000 1.725900 0.000000 
#    z 0.000000 0.000000 1.742590 
# 
# From -- ./inp_files/6491.got.cif
#   From: 2010.05.17/outbox.cif.g08.bks.cpg/sg49_4_cif.got.tgz:6491.got - 2010.06.03 21:02:19.
