data_PCOD9393428
_publ_section_title
;
Structure prediction by ZEFSAII (Michael W. Deem and Ramdas Pophale) SiO2 
 PCOD9393428
Probable space group: P C C M
;
_chemical_formula_sum "Si O2"
_cell_formula_units_Z 64
_cell_length_a 25.441112
_cell_length_b 15.341979
_cell_length_c 8.792128
_cell_angle_alpha 90.000000
_cell_angle_beta 90.000000
_cell_angle_gamma 90.000000
_cell_volume 3431.717078
_symmetry_space_group_name_H-M "P C C M"
_symmetry_group_IT_number 49
_symmetry_cell_setting 'orthorhombic'
loop_
_space_group_symop_operation_xyz
x,y,z
-x,-y,z
x,-y,1/2-z
-x,y,1/2-z
-x,-y,-z
x,y,-z
-x,y,1/2+z
x,-y,1/2+z
loop_
_atom_site_type_symbol
_atom_site_label
_atom_site_fract_x
_atom_site_fract_y
_atom_site_fract_z
Si Si1 0.558403 0.092865 0.317649
Si Si2 0.642158 0.776489 0.683742
Si Si3 0.160702 0.165793 0.676969
Si Si4 0.805907 0.367274 0.823141
Si Si5 0.914144 0.588690 0.820473
Si Si6 0.945794 0.780973 0.181534
Si Si7 0.733111 0.910497 0.682721
Si Si8 0.313928 0.407749 0.316651
O O1 0.500000 0.104957 0.250000
O O2 0.556605 0.087373 0.500000
O O3 0.595222 0.171592 0.263058
O O4 0.577751 0.000000 0.250000
O O5 0.635147 0.779535 0.500000
O O6 0.695092 0.830494 0.720532
O O7 0.651869 0.676345 0.729487
O O8 0.150320 0.145193 0.500000
O O9 0.185366 0.263225 0.680786
O O10 0.106112 0.168272 0.765431
O O11 0.207478 0.105867 0.738473
O O12 0.852420 0.405633 0.721916
O O13 0.747242 0.391378 0.773035
O O14 0.812974 0.394658 0.000000
O O15 0.935793 0.500000 0.750000
O O16 0.938014 0.680253 0.763141
O O17 0.920785 0.585482 0.000000
O O18 0.000000 0.815011 0.250000
O O19 0.948333 0.780202 0.000000
O O20 0.735016 0.915506 0.500000
O O21 0.712135 0.000000 0.750000
O O22 0.331301 0.500000 0.250000
O O23 0.314747 0.410913 0.500000
#
# Coordination Sequence:
#
# PCOD9393428 Si02
#       8
#     8   8   8   8   8   8   8   8
#     4  11  22  38  61  90 121 157 197 238 285 337
#     4  10  20  37  57  82 120 159 195 236 281 331
#     4   9  17  33  54  74 101 138 174 211 262 323
#     4   9  16  30  50  70  97 137 179 218 263 317
#     4  10  20  31  44  66  94 125 164 213 266 321
#     4  10  21  35  51  71  93 124 168 216 267 323
#     4  10  20  34  55  83 115 149 181 216 270 333
#     4  10  20  33  51  76 110 152 195 238 281 327
#
# _framework density 18.649556
#
# number of rings (size 3 to 8) (size 9 to 14) (size 15 to 20)
#    0.000    2.125    1.250    3.000    0.000    5.750 
#    0.000    1.250    0.000    0.750    0.000    5.250 
#    0.000    0.000    0.000    0.000    0.000    0.000 
#
# Total GULP energy -357247.559748 kJ/mol
# GULP energy per Si atom -5581.993121 kJ/mol
# Density = 1.860711 g / cm^3
# Si number density = 18.649556 Si / 1000 Ang^3
#
#
#
# Elastic Constant Matrix: (Units=GPa)
#
#
# Indices 1 2 3 4 5 6 
#
# 1 103.9818 49.6801 34.9165 0.0000 0.0000 0.0000
# 2 49.6801 96.6350 27.7657 0.0000 0.0000 0.0000
# 3 34.9165 27.7657 44.8981 0.0000 0.0000 0.0000
# 4 0.0000 0.0000 0.0000 -7.3046 0.0000 0.0000
# 5 0.0000 0.0000 0.0000 0.0000 21.6193 0.0000
# 6 0.0000 0.0000 0.0000 0.0000 0.0000 4.4727
#
#
#
# Elastic Compliance Matrix: (Units=1/GPa)
#
#
# Indices 1 2 3 4 5 6 
#
# 1 0.014948 -0.005283 -0.008357 0.000000 0.000000 0.000000
# 2 -0.005283 0.014452 -0.004828 0.000000 0.000000 0.000000
# 3 -0.008357 -0.004828 0.031758 0.000000 0.000000 0.000000
# 4 0.000000 0.000000 0.000000 -0.136901 0.000000 0.000000
# 5 0.000000 0.000000 0.000000 0.000000 0.046255 0.000000
# 6 0.000000 0.000000 0.000000 0.000000 0.000000 0.223579
#
#
# Mechanical properties :
#
#
# Convention : Reuss Voigt Hill
#
# Bulk Modulus (GPa) = 41.28939 52.24884 46.76912
# Shear Modulus (GPa) = 20.91159 12.63432 16.77295
#
# Velocity S-wave (km/s) = 3.35220 2.60563 3.00221
# Velocity P-wave (km/s) = 6.09678 6.09339 6.09508
#
# Compressibility (1/GPa) = 0.02421930
#
# Stress axis : x y z
#
# Youngs Moduli (GPa) = 66.90013 69.19599 31.48827
#
# Poissons Ratio (x) = 0.36559 0.26315
# Poissons Ratio (y) = 0.35346 0.15204
# Poissons Ratio (z) = 0.55910 0.33410
#
# Static dielectric constant tensor:
#      x y z
#    x 1.642990 0.000000 0.000000 
#    y 0.000000 1.664410 0.000000 
#    z 0.000000 0.000000 1.629780 
# 
# From -- ./inp_files/4309.got.cif
#   From: 2010.05.17/outbox.cif.g08.bks.cpg/sg49_3_cif.got.tgz:4309.got - 2010.06.03 21:02:19.
