data_PCOD9393848
_publ_section_title
;
Structure prediction by ZEFSAII (Michael W. Deem and Ramdas Pophale) SiO2 
 PCOD9393848
Probable space group: P C C M
;
_chemical_formula_sum "Si O2"
_cell_formula_units_Z 58
_cell_length_a 19.697514
_cell_length_b 19.846425
_cell_length_c 8.274896
_cell_angle_alpha 90.000000
_cell_angle_beta 90.000000
_cell_angle_gamma 90.000000
_cell_volume 3234.865658
_symmetry_space_group_name_H-M "P C C M"
_symmetry_group_IT_number 49
_symmetry_cell_setting 'orthorhombic'
loop_
_space_group_symop_operation_xyz
x,y,z
-x,-y,z
x,-y,1/2-z
-x,y,1/2-z
-x,-y,-z
x,y,-z
-x,y,1/2+z
x,-y,1/2+z
loop_
_atom_site_type_symbol
_atom_site_label
_atom_site_fract_x
_atom_site_fract_y
_atom_site_fract_z
Si Si1 0.796810 0.819109 0.808807
Si Si2 0.256213 0.572368 0.193275
Si Si3 0.073219 0.250777 0.310739
Si Si4 0.313932 0.713707 0.807472
Si Si5 0.313341 0.076442 0.194748
Si Si6 0.577002 0.186100 0.306306
Si Si7 0.000000 0.500000 0.250000
Si Si8 0.104948 0.398848 0.811585
O O1 0.866945 0.801918 0.723064
O O2 0.745075 0.757222 0.777407
O O3 0.755042 0.884683 0.751513
O O4 0.809022 0.824529 0.000000
O O5 0.282213 0.500000 0.250000
O O6 0.303786 0.635665 0.235239
O O7 0.182832 0.584862 0.273866
O O8 0.246748 0.571843 0.000000
O O9 0.070313 0.266014 0.500000
O O10 0.091060 0.320440 0.219678
O O11 0.000000 0.227116 0.250000
O O12 0.384610 0.747759 0.758846
O O13 0.304401 0.720512 0.000000
O O14 0.377015 0.122427 0.248916
O O15 0.317418 0.000000 0.250000
O O16 0.313175 0.077924 0.000000
O O17 0.500000 0.181003 0.250000
O O18 0.579148 0.187891 0.500000
O O19 0.943645 0.555905 0.301982
O O20 0.089222 0.415325 0.000000
#
# Coordination Sequence:
#
# PCOD9393848 Si02
#       8
#     8   8   8   8   8   8   2   8
#     4  10  20  36  57  81 110 146 189 233 279 331
#     4  11  23  36  53  77 106 139 186 234 285 338
#     4  12  24  37  54  77 105 140 185 234 288 339
#     4  10  20  35  56  81 110 145 188 234 279 333
#     4   9  20  36  57  87 120 154 188 222 266 324
#     4  10  21  37  58  87 120 154 190 225 270 326
#     4  12  26  36  52  70 106 148 190 220 294 352
#     4  12  24  36  52  71 101 140 183 233 282 340
#
# _framework density 17.929648
#
# number of rings (size 3 to 8) (size 9 to 14) (size 15 to 20)
#    0.000    1.379    2.759    4.345    0.000    6.345 
#    0.000    1.379    0.000    0.828    0.000    5.793 
#    0.000    0.000    0.000    0.000    0.000    0.000 
#
# Total GULP energy -323675.620645 kJ/mol
# GULP energy per Si atom -5580.614149 kJ/mol
# Density = 1.788884 g / cm^3
# Si number density = 17.929648 Si / 1000 Ang^3
#
#
#
# Elastic Constant Matrix: (Units=GPa)
#
#
# Indices 1 2 3 4 5 6 
#
# 1 111.0290 73.5794 13.9874 0.0000 0.0000 0.0000
# 2 73.5794 133.4465 18.9644 0.0000 0.0000 0.0000
# 3 13.9874 18.9644 55.7171 0.0000 0.0000 0.0000
# 4 0.0000 0.0000 0.0000 22.4646 0.0000 0.0000
# 5 0.0000 0.0000 0.0000 0.0000 25.6046 0.0000
# 6 0.0000 0.0000 0.0000 0.0000 0.0000 18.3285
#
#
#
# Elastic Compliance Matrix: (Units=1/GPa)
#
#
# Indices 1 2 3 4 5 6 
#
# 1 0.014240 -0.007717 -0.000948 0.000000 0.000000 0.000000
# 2 -0.007717 0.012056 -0.002166 0.000000 0.000000 0.000000
# 3 -0.000948 -0.002166 0.018923 0.000000 0.000000 0.000000
# 4 0.000000 0.000000 0.000000 0.044515 0.000000 0.000000
# 5 0.000000 0.000000 0.000000 0.000000 0.039055 0.000000
# 6 0.000000 0.000000 0.000000 0.000000 0.000000 0.054560
#
#
# Mechanical properties :
#
#
# Convention : Reuss Voigt Hill
#
# Bulk Modulus (GPa) = 42.45084 57.02835 49.73960
# Shear Modulus (GPa) = 23.48908 26.19032 24.83970
#
# Velocity S-wave (km/s) = 3.62341 3.82609 3.72613
# Velocity P-wave (km/s) = 6.42131 7.16899 6.80543
#
# Compressibility (1/GPa) = 0.02355666
#
# Stress axis : x y z
#
# Youngs Moduli (GPa) = 70.22386 82.94314 52.84514
#
# Poissons Ratio (x) = 0.64007 0.05011
# Poissons Ratio (y) = 0.54191 0.11448
# Poissons Ratio (z) = 0.06659 0.17968
#
# Static dielectric constant tensor:
#      x y z
#    x 1.595100 0.000000 0.000000 
#    y 0.000000 1.609260 0.000000 
#    z 0.000000 0.000000 1.660350 
# 
# From -- ./inp_files/5106.got.cif
#   From: 2010.05.17/outbox.cif.g08.bks.cpg/sg49_3_cif.got.tgz:5106.got - 2010.06.03 21:02:19.
