data_PCOD9393106
_publ_section_title
;
Structure prediction by ZEFSAII (Michael W. Deem and Ramdas Pophale) SiO2 
 PCOD9393106
Probable space group: P C C M
;
_chemical_formula_sum "Si O2"
_cell_formula_units_Z 64
_cell_length_a 16.516208
_cell_length_b 22.388076
_cell_length_c 9.139581
_cell_angle_alpha 90.000000
_cell_angle_beta 90.000000
_cell_angle_gamma 90.000000
_cell_volume 3379.507404
_symmetry_space_group_name_H-M "P C C M"
_symmetry_group_IT_number 49
_symmetry_cell_setting 'orthorhombic'
loop_
_space_group_symop_operation_xyz
x,y,z
-x,-y,z
x,-y,1/2-z
-x,y,1/2-z
-x,-y,-z
x,y,-z
-x,y,1/2+z
x,-y,1/2+z
loop_
_atom_site_type_symbol
_atom_site_label
_atom_site_fract_x
_atom_site_fract_y
_atom_site_fract_z
Si Si1 0.916449 0.848842 0.176850
Si Si2 0.703383 0.682714 0.665611
Si Si3 0.583945 0.091951 0.670582
Si Si4 0.767816 0.938248 0.823317
Si Si5 0.740555 0.561053 0.173337
Si Si6 0.075705 0.598785 0.328097
Si Si7 0.111374 0.277872 0.332532
Si Si8 0.418989 0.764415 0.669132
O O1 0.835285 0.887595 0.211330
O O2 0.905418 0.782838 0.245404
O O3 0.000000 0.872955 0.250000
O O4 0.924478 0.846470 0.000000
O O5 0.673652 0.674305 0.500000
O O6 0.704574 0.619814 0.750036
O O7 0.793276 0.709418 0.658252
O O8 0.652952 0.731296 0.752127
O O9 0.500000 0.073055 0.750000
O O10 0.577139 0.074567 0.500000
O O11 0.673643 0.072573 0.724787
O O12 0.587093 0.163989 0.679407
O O13 0.794208 0.000000 0.750000
O O14 0.765877 0.942596 0.000000
O O15 0.713773 0.500000 0.250000
O O16 0.837851 0.567565 0.193217
O O17 0.724095 0.560742 0.000000
O O18 0.060742 0.603862 0.500000
O O19 0.082365 0.664149 0.255226
O O20 0.000000 0.568396 0.250000
O O21 0.079458 0.274750 0.500000
O O22 0.500000 0.745600 0.750000
O O23 0.421370 0.748320 0.500000
#
# Coordination Sequence:
#
# PCOD9393106 Si02
#       8
#     8   8   8   8   8   8   8   8
#     4  11  23  39  58  80 108 143 185 233 284 335
#     4  10  20  34  54  80 109 141 178 220 267 320
#     4   9  19  36  58  86 117 148 180 218 269 328
#     4  10  23  41  59  80 109 146 187 230 275 326
#     4  10  21  36  53  73  99 136 180 223 266 312
#     4  10  20  33  50  73 103 137 172 214 266 320
#     4  10  20  34  54  80 108 138 175 220 271 327
#     4  10  19  33  55  83 115 145 175 213 261 318
#
# _framework density 18.937670000000001
#
# number of rings (size 3 to 8) (size 9 to 14) (size 15 to 20)
#    0.000    2.000    0.000    3.375    0.000    6.750 
#    0.000    3.750    0.000    0.375    0.000    2.625 
#    0.000    0.000    0.000    0.000    0.000    0.000 
#
# Total GULP energy -357120.133153 kJ/mol
# GULP energy per Si atom -5580.002081 kJ/mol
# Density = 1.889457 g / cm^3
# Si number density = 18.937670 Si / 1000 Ang^3
#
#
#
# Elastic Constant Matrix: (Units=GPa)
#
#
# Indices 1 2 3 4 5 6 
#
# 1 70.3925 29.0652 27.8350 0.0000 0.0000 0.0000
# 2 29.0652 65.6012 41.5513 0.0000 0.0000 0.0000
# 3 27.8350 41.5513 94.3959 0.0000 0.0000 0.0000
# 4 0.0000 0.0000 0.0000 39.6794 0.0000 0.0000
# 5 0.0000 0.0000 0.0000 0.0000 30.8874 0.0000
# 6 0.0000 0.0000 0.0000 0.0000 0.0000 5.8951
#
#
#
# Elastic Compliance Matrix: (Units=1/GPa)
#
#
# Indices 1 2 3 4 5 6 
#
# 1 0.017790 -0.006322 -0.002463 0.000000 0.000000 0.000000
# 2 -0.006322 0.023383 -0.008429 0.000000 0.000000 0.000000
# 3 -0.002463 -0.008429 0.015030 0.000000 0.000000 0.000000
# 4 0.000000 0.000000 0.000000 0.025202 0.000000 0.000000
# 5 0.000000 0.000000 0.000000 0.000000 0.032376 0.000000
# 6 0.000000 0.000000 0.000000 0.000000 0.000000 0.169633
#
#
# Mechanical properties :
#
#
# Convention : Reuss Voigt Hill
#
# Bulk Modulus (GPa) = 45.92177 47.47697 46.69937
# Shear Modulus (GPa) = 15.37984 24.08825 19.73405
#
# Velocity S-wave (km/s) = 2.85288 3.57035 3.23159
# Velocity P-wave (km/s) = 5.92903 6.49007 6.21589
#
# Compressibility (1/GPa) = 0.02177616
#
# Stress axis : x y z
#
# Youngs Moduli (GPa) = 56.20993 42.76542 66.53303
#
# Poissons Ratio (x) = 0.27037 0.16388
# Poissons Ratio (y) = 0.35537 0.56079
# Poissons Ratio (z) = 0.13845 0.36046
#
# Static dielectric constant tensor:
#      x y z
#    x 1.742250 0.000000 0.000000 
#    y 0.000000 1.628860 0.000000 
#    z 0.000000 0.000000 1.648200 
# 
# From -- ./inp_files/4344.got.cif
#   From: 2010.05.17/outbox.cif.g08.bks.cpg/sg49_3_cif.got.tgz:4344.got - 2010.06.03 21:02:19.
