data_PCOD9393612
_publ_section_title
;
Structure prediction by ZEFSAII (Michael W. Deem and Ramdas Pophale) SiO2 
 PCOD9393612
Probable space group: P C C M
;
_chemical_formula_sum "Si O2"
_cell_formula_units_Z 40
_cell_length_a 13.896790
_cell_length_b 19.139158
_cell_length_c 8.631867
_cell_angle_alpha 90.000000
_cell_angle_beta 90.000000
_cell_angle_gamma 90.000000
_cell_volume 2295.842349
_symmetry_space_group_name_H-M "P C C M"
_symmetry_group_IT_number 49
_symmetry_cell_setting 'orthorhombic'
loop_
_space_group_symop_operation_xyz
x,y,z
-x,-y,z
x,-y,1/2-z
-x,y,1/2-z
-x,-y,-z
x,y,-z
-x,y,1/2+z
x,-y,1/2+z
loop_
_atom_site_type_symbol
_atom_site_label
_atom_site_fract_x
_atom_site_fract_y
_atom_site_fract_z
Si Si1 0.391896 0.075068 0.814478
Si Si2 0.395988 0.651049 0.686294
Si Si3 0.798181 0.575234 0.185611
Si Si4 0.104684 0.281200 0.813503
Si Si5 0.294697 0.212233 0.314691
O O1 0.500000 0.085573 0.750000
O O2 0.327961 0.138673 0.754143
O O3 0.358681 0.000000 0.750000
O O4 0.394593 0.073640 0.000000
O O5 0.500000 0.630842 0.750000
O O6 0.398056 0.654958 0.500000
O O7 0.310059 0.598369 0.732697
O O8 0.365020 0.726587 0.752191
O O9 0.824367 0.500000 0.250000
O O10 0.867131 0.639163 0.232761
O O11 0.799637 0.572015 0.000000
O O12 0.188763 0.233329 0.743942
O O13 0.000000 0.263541 0.750000
O O14 0.107508 0.276972 0.000000
O O15 0.298333 0.210954 0.500000
#
# Coordination Sequence:
#
# PCOD9393612 Si02
#       5
#     8   8   8   8   8
#     4  11  21  35  54  81 115 149 182 217 255 304
#     4  10  20  34  50  73 102 137 177 218 260 311
#     4   9  20  35  51  72 102 134 171 215 263 314
#     4  10  21  38  57  80 104 133 172 218 266 316
#     4  11  21  35  55  79 106 140 176 217 263 310
#
# _framework density 17.422799999999999
#
# number of rings (size 3 to 8) (size 9 to 14) (size 15 to 20)
#    0.000    1.800    0.000    7.200    0.000    5.600 
#    0.000    4.000    0.000    0.600    0.000    4.200 
#    0.000    0.000    0.000    0.000    0.000    0.000 
#
# Total GULP energy -223444.213604 kJ/mol
# GULP energy per Si atom -5586.105340 kJ/mol
# Density = 1.738314 g / cm^3
# Si number density = 17.422800 Si / 1000 Ang^3
#
#
#
# Elastic Constant Matrix: (Units=GPa)
#
#
# Indices 1 2 3 4 5 6 
#
# 1 57.1755 16.6225 18.0956 0.0000 0.0000 0.0000
# 2 16.6225 107.8259 30.1508 0.0000 0.0000 0.0000
# 3 18.0956 30.1508 106.4190 0.0000 0.0000 0.0000
# 4 0.0000 0.0000 0.0000 27.6479 0.0000 0.0000
# 5 0.0000 0.0000 0.0000 0.0000 35.3047 0.0000
# 6 0.0000 0.0000 0.0000 0.0000 0.0000 7.4925
#
#
#
# Elastic Compliance Matrix: (Units=1/GPa)
#
#
# Indices 1 2 3 4 5 6 
#
# 1 0.018951 -0.002194 -0.002601 0.000000 0.000000 0.000000
# 2 -0.002194 0.010326 -0.002553 0.000000 0.000000 0.000000
# 3 -0.002601 -0.002553 0.010562 0.000000 0.000000 0.000000
# 4 0.000000 0.000000 0.000000 0.036169 0.000000 0.000000
# 5 0.000000 0.000000 0.000000 0.000000 0.028325 0.000000
# 6 0.000000 0.000000 0.000000 0.000000 0.000000 0.133466
#
#
# Mechanical properties :
#
#
# Convention : Reuss Voigt Hill
#
# Bulk Modulus (GPa) = 39.77027 44.57312 42.17169
# Shear Modulus (GPa) = 19.16618 27.85912 23.51265
#
# Velocity S-wave (km/s) = 3.32032 4.00309 3.67759
# Velocity P-wave (km/s) = 6.12988 6.85603 6.50310
#
# Compressibility (1/GPa) = 0.02514441
#
# Stress axis : x y z
#
# Youngs Moduli (GPa) = 52.76744 96.84080 94.67695
#
# Poissons Ratio (x) = 0.21250 0.24623
# Poissons Ratio (y) = 0.11579 0.24166
# Poissons Ratio (z) = 0.13724 0.24719
#
# Static dielectric constant tensor:
#      x y z
#    x 1.577670 0.000000 0.000000 
#    y 0.000000 1.579180 0.000000 
#    z 0.000000 0.000000 1.582000 
# 
# From -- ./inp_files/2674.got.cif
#   From: 2010.05.17/outbox.cif.g08.bks.cpg/sg49_2_cif.got.tgz:2674.got - 2010.06.03 21:02:19.
