data_PCOD9393915
_publ_section_title
;
Structure prediction by ZEFSAII (Michael W. Deem and Ramdas Pophale) SiO2 
 PCOD9393915
Probable space group: P C C M
;
_chemical_formula_sum "Si O2"
_cell_formula_units_Z 48
_cell_length_a 13.797750
_cell_length_b 10.324485
_cell_length_c 17.984601
_cell_angle_alpha 90.000000
_cell_angle_beta 90.000000
_cell_angle_gamma 90.000000
_cell_volume 2561.990273
_symmetry_space_group_name_H-M "P C C M"
_symmetry_group_IT_number 49
_symmetry_cell_setting 'orthorhombic'
loop_
_space_group_symop_operation_xyz
x,y,z
-x,-y,z
x,-y,1/2-z
-x,y,1/2-z
-x,-y,-z
x,y,-z
-x,y,1/2+z
x,-y,1/2+z
loop_
_atom_site_type_symbol
_atom_site_label
_atom_site_fract_x
_atom_site_fract_y
_atom_site_fract_z
Si Si1 0.042308 0.647088 0.584910
Si Si2 0.790007 0.555130 0.827175
Si Si3 0.828594 0.292870 0.911586
Si Si4 0.592385 0.906314 0.084053
Si Si5 0.283286 0.911326 0.812984
Si Si6 0.597027 0.287557 0.711852
O O1 0.073545 0.669784 0.500000
O O2 0.133802 0.656930 0.638709
O O3 0.000000 0.500000 0.588899
O O4 0.944078 0.723548 0.600410
O O5 0.831236 0.500000 0.750000
O O6 0.790462 0.434056 0.884110
O O7 0.686072 0.616502 0.806934
O O8 0.778320 0.188881 0.859688
O O9 0.810138 0.280230 0.000000
O O10 0.570466 0.782153 0.134517
O O11 0.500000 0.000000 0.081299
O O12 0.671282 0.989675 0.128094
O O13 0.620906 0.872736 0.000000
O O14 0.362529 0.824850 0.767645
O O15 0.233475 0.000000 0.750000
O O16 0.500000 0.342501 0.750000
#
# Coordination Sequence:
#
# PCOD9393915 Si02
#       6
#     8   8   8   8   8   8
#     4   8  17  34  58  84 114 150 189 236 289 346
#     4  11  21  35  56  89 116 158 200 239 293 358
#     4  10  20  38  61  90 124 156 193 245 303 361
#     4  10  20  35  60  84 106 150 206 253 290 349
#     4  10  20  36  60  87 116 155 198 244 300 353
#     4  11  22  38  56  82 122 157 194 249 305 348
#
# _framework density 18.735434999999999
#
# number of rings (size 3 to 8) (size 9 to 14) (size 15 to 20)
#    0.000    2.000    3.333    2.000    0.000    4.667 
#    0.000    0.000    0.000    8.000    0.000   10.500 
#    0.000    0.000    0.000    0.000    0.000    0.000 
#
# Total GULP energy -267511.285574 kJ/mol
# GULP energy per Si atom -5573.151783 kJ/mol
# Density = 1.869279 g / cm^3
# Si number density = 18.735435 Si / 1000 Ang^3
#
#
#
# Elastic Constant Matrix: (Units=GPa)
#
#
# Indices 1 2 3 4 5 6 
#
# 1 75.3082 17.1772 59.4460 0.0000 0.0000 0.0000
# 2 17.1772 41.9079 37.0678 0.0000 0.0000 0.0000
# 3 59.4460 37.0678 152.7435 0.0000 0.0000 0.0000
# 4 0.0000 0.0000 0.0000 34.6784 0.0000 0.0000
# 5 0.0000 0.0000 0.0000 0.0000 47.1699 0.0000
# 6 0.0000 0.0000 0.0000 0.0000 0.0000 18.2342
#
#
#
# Elastic Compliance Matrix: (Units=1/GPa)
#
#
# Indices 1 2 3 4 5 6 
#
# 1 0.019252 -0.001609 -0.007102 0.000000 0.000000 0.000000
# 2 -0.001609 0.030518 -0.006780 0.000000 0.000000 0.000000
# 3 -0.007102 -0.006780 0.010956 0.000000 0.000000 0.000000
# 4 0.000000 0.000000 0.000000 0.028836 0.000000 0.000000
# 5 0.000000 0.000000 0.000000 0.000000 0.021200 0.000000
# 6 0.000000 0.000000 0.000000 0.000000 0.000000 0.054842
#
#
# Mechanical properties :
#
#
# Convention : Reuss Voigt Hill
#
# Bulk Modulus (GPa) = 33.61994 55.26016 44.44005
# Shear Modulus (GPa) = 24.21282 30.43441 27.32361
#
# Velocity S-wave (km/s) = 3.59883 4.03479 3.82303
# Velocity P-wave (km/s) = 5.93737 7.15997 6.57714
#
# Compressibility (1/GPa) = 0.02974426
#
# Stress axis : x y z
#
# Youngs Moduli (GPa) = 51.94258 32.76726 91.27121
#
# Poissons Ratio (x) = 0.05273 0.64822
# Poissons Ratio (y) = 0.08358 0.61881
# Poissons Ratio (z) = 0.36890 0.22216
#
# Static dielectric constant tensor:
#      x y z
#    x 1.675990 0.000000 0.000000 
#    y 0.000000 1.744390 0.000000 
#    z 0.000000 0.000000 1.651720 
# 
# From -- ./inp_files/17060.got.cif
#   From: 2010.05.17/outbox.cif.g08.bks.cpg/sg49_9_cif.got.tgz:17060.got - 2010.06.03 21:02:19.
