data_PCOD9393737
_publ_section_title
;
Structure prediction by ZEFSAII (Michael W. Deem and Ramdas Pophale) SiO2 
 PCOD9393737
Probable space group: P C C M
;
_chemical_formula_sum "Si O2"
_cell_formula_units_Z 58
_cell_length_a 20.888213
_cell_length_b 8.577087
_cell_length_c 16.580063
_cell_angle_alpha 90.000000
_cell_angle_beta 90.000000
_cell_angle_gamma 90.000000
_cell_volume 2970.484422
_symmetry_space_group_name_H-M "P C C M"
_symmetry_group_IT_number 49
_symmetry_cell_setting 'orthorhombic'
loop_
_space_group_symop_operation_xyz
x,y,z
-x,-y,z
x,-y,1/2-z
-x,y,1/2-z
-x,-y,-z
x,y,-z
-x,y,1/2+z
x,-y,1/2+z
loop_
_atom_site_type_symbol
_atom_site_label
_atom_site_fract_x
_atom_site_fract_y
_atom_site_fract_z
Si Si1 0.646896 0.185249 0.248204
Si Si2 0.788150 0.681584 0.268597
Si Si3 0.007193 0.315415 0.911108
Si Si4 0.871698 0.195411 0.906441
Si Si5 0.000000 0.000000 0.750000
Si Si6 0.885215 0.147628 0.651990
Si Si7 0.420838 0.682326 0.408410
Si Si8 0.573636 0.691407 0.408560
O O1 0.714557 0.272322 0.240245
O O2 0.613565 0.239523 0.331976
O O3 0.606240 0.227913 0.168078
O O4 0.656674 0.000000 0.250000
O O5 0.797769 0.500000 0.250000
O O6 0.816618 0.722028 0.355790
O O7 0.829911 0.790627 0.208906
O O8 0.941489 0.248197 0.871479
O O9 0.000000 0.500000 0.908567
O O10 0.082488 0.287474 0.895692
O O11 0.999616 0.244023 0.000000
O O12 0.866372 0.008678 0.894582
O O13 0.866633 0.235910 0.000000
O O14 0.049275 0.899657 0.698146
O O15 0.399791 0.728739 0.500000
O O16 0.496985 0.714010 0.403435
O O17 0.413439 0.494607 0.402708
O O18 0.593504 0.741150 0.500000
#
# Coordination Sequence:
#
# PCOD9393737 Si02
#       8
#     8   8   8   8   2   8   8   8
#     4  12  25  40  60  90 128 170 210 256 311 371
#     4  12  26  44  63  83 117 164 210 252 299 368
#     4  10  20  34  56  88 119 147 187 240 296 358
#     4  11  22  39  61  88 117 149 189 246 308 365
#     4  12  20  32  64  84 116 144 194 240 300 364
#     4  12  20  38  60  87 115 153 195 243 305 367
#     4   9  19  39  66  97 128 166 211 260 306 359
#     4   9  19  38  67  97 129 166 211 258 307 357
#
# _framework density 19.525434000000001
#
# number of rings (size 3 to 8) (size 9 to 14) (size 15 to 20)
#    0.000    1.241    2.759    4.552    0.000    4.414 
#    0.000    6.897    0.000    0.000    0.000    0.000 
#    0.000    0.000    0.000    0.000    0.000    0.000 
#
# Total GULP energy -323299.001716 kJ/mol
# GULP energy per Si atom -5574.120719 kJ/mol
# Density = 1.948099 g / cm^3
# Si number density = 19.525434 Si / 1000 Ang^3
#
#
#
# Elastic Constant Matrix: (Units=GPa)
#
#
# Indices 1 2 3 4 5 6 
#
# 1 80.0269 23.5466 52.9378 0.0000 0.0000 0.0000
# 2 23.5466 63.1503 25.7302 0.0000 0.0000 0.0000
# 3 52.9378 25.7302 119.7040 0.0000 0.0000 0.0000
# 4 0.0000 0.0000 0.0000 -100.3247 0.0000 0.0000
# 5 0.0000 0.0000 0.0000 0.0000 24.9568 0.0000
# 6 0.0000 0.0000 0.0000 0.0000 0.0000 37.3736
#
#
#
# Elastic Compliance Matrix: (Units=1/GPa)
#
#
# Indices 1 2 3 4 5 6 
#
# 1 0.018503 -0.003907 -0.007343 0.000000 0.000000 0.000000
# 2 -0.003907 0.018180 -0.002180 0.000000 0.000000 0.000000
# 3 -0.007343 -0.002180 0.012070 0.000000 0.000000 0.000000
# 4 0.000000 0.000000 0.000000 -0.009968 0.000000 0.000000
# 5 0.000000 0.000000 0.000000 0.000000 0.040069 0.000000
# 6 0.000000 0.000000 0.000000 0.000000 0.000000 0.026757
#
#
# Mechanical properties :
#
#
# Convention : Reuss Voigt Hill
#
# Bulk Modulus (GPa) = 45.67681 51.92337 48.80009
# Shear Modulus (GPa) = 35.77341 3.11226 19.44284
#
# Velocity S-wave (km/s) = 4.28500 1.26389 3.15901
# Velocity P-wave (km/s) = 6.92285 5.36473 6.19299
#
# Compressibility (1/GPa) = 0.02189295
#
# Stress axis : x y z
#
# Youngs Moduli (GPa) = 54.04620 55.00452 82.85172
#
# Poissons Ratio (x) = 0.21492 0.60836
# Poissons Ratio (y) = 0.21117 0.18061
# Poissons Ratio (z) = 0.39685 0.11990
#
# Static dielectric constant tensor:
#      x y z
#    x 1.687750 0.000000 0.000000 
#    y 0.000000 1.535140 0.000000 
#    z 0.000000 0.000000 1.661550 
# 
# From -- ./inp_files/18191.got.cif
#   From: 2010.05.17/outbox.cif.g08.bks.cpg/sg49_10_cif.got.tgz:18191.got - 2010.06.03 21:02:19.
