data_PCOD9393006
_publ_section_title
;
Structure prediction by ZEFSAII (Michael W. Deem and Ramdas Pophale) SiO2 
 PCOD9393006
Probable space group: P C C M
;
_chemical_formula_sum "Si O2"
_cell_formula_units_Z 48
_cell_length_a 24.910172
_cell_length_b 13.829234
_cell_length_c 8.569468
_cell_angle_alpha 90.000000
_cell_angle_beta 90.000000
_cell_angle_gamma 90.000000
_cell_volume 2952.084013
_symmetry_space_group_name_H-M "P C C M"
_symmetry_group_IT_number 49
_symmetry_cell_setting 'orthorhombic'
loop_
_space_group_symop_operation_xyz
x,y,z
-x,-y,z
x,-y,1/2-z
-x,y,1/2-z
-x,-y,-z
x,y,-z
-x,y,1/2+z
x,-y,1/2+z
loop_
_atom_site_type_symbol
_atom_site_label
_atom_site_fract_x
_atom_site_fract_y
_atom_site_fract_z
Si Si1 0.716396 0.203316 0.688020
Si Si2 0.664594 0.605255 0.686373
Si Si3 0.055021 0.889858 0.313261
Si Si4 0.827483 0.890757 0.811871
Si Si5 0.610328 0.894081 0.313396
Si Si6 0.558374 0.298763 0.313534
O O1 0.711917 0.198425 0.500000
O O2 0.702199 0.310707 0.744484
O O3 0.775625 0.169834 0.737037
O O4 0.670777 0.134081 0.760702
O O5 0.678749 0.500000 0.750000
O O6 0.666407 0.607691 0.500000
O O7 0.604782 0.633662 0.743139
O O8 0.051846 0.892205 0.500000
O O9 0.113666 0.850275 0.265843
O O10 0.000000 0.843972 0.250000
O O11 0.055765 0.000000 0.250000
O O12 0.822498 0.000000 0.750000
O O13 0.827016 0.895047 0.000000
O O14 0.606667 0.891316 0.500000
O O15 0.573316 0.809943 0.241469
O O16 0.596773 0.000000 0.250000
O O17 0.500000 0.324829 0.250000
O O18 0.560028 0.303570 0.500000
#
# Coordination Sequence:
#
# PCOD9393006 Si02
#       6
#     8   8   8   8   8   8
#     4  10  19  33  50  71  96 124 156 196 237 281
#     4  11  22  38  57  77  97 122 151 187 233 283
#     4   9  15  24  36  55  83 121 162 200 233 268
#     4   9  18  28  42  64  94 128 164 198 234 273
#     4  11  21  34  50  71  97 129 162 195 232 275
#     4  11  22  38  56  77 100 124 154 191 230 276
#
# _framework density 16.259699999999999
#
# number of rings (size 3 to 8) (size 9 to 14) (size 15 to 20)
#    0.000    1.833    0.000    8.500    0.000    4.000 
#    0.000    3.333    0.000    0.000    0.000    0.000 
#    0.000    0.667    0.000    7.667    0.000    2.333 
#
# Total GULP energy -267867.924967 kJ/mol
# GULP energy per Si atom -5580.581770 kJ/mol
# Density = 1.622269 g / cm^3
# Si number density = 16.259700 Si / 1000 Ang^3
#
#
#
# Elastic Constant Matrix: (Units=GPa)
#
#
# Indices 1 2 3 4 5 6 
#
# 1 117.6072 10.0959 11.8720 0.0000 0.0000 0.0000
# 2 10.0959 46.5780 -0.9837 0.0000 0.0000 0.0000
# 3 11.8720 -0.9837 73.6893 0.0000 0.0000 0.0000
# 4 0.0000 0.0000 0.0000 14.2757 0.0000 0.0000
# 5 0.0000 0.0000 0.0000 0.0000 27.6472 0.0000
# 6 0.0000 0.0000 0.0000 0.0000 0.0000 8.9117
#
#
#
# Elastic Compliance Matrix: (Units=1/GPa)
#
#
# Indices 1 2 3 4 5 6 
#
# 1 0.008816 -0.001941 -0.001446 0.000000 0.000000 0.000000
# 2 -0.001941 0.021903 0.000605 0.000000 0.000000 0.000000
# 3 -0.001446 0.000605 0.013812 0.000000 0.000000 0.000000
# 4 0.000000 0.000000 0.000000 0.070049 0.000000 0.000000
# 5 0.000000 0.000000 0.000000 0.000000 0.036170 0.000000
# 6 0.000000 0.000000 0.000000 0.000000 0.000000 0.112212
#
#
# Mechanical properties :
#
#
# Convention : Reuss Voigt Hill
#
# Bulk Modulus (GPa) = 25.66382 31.09363 28.37873
# Shear Modulus (GPa) = 17.76110 24.62629 21.19370
#
# Velocity S-wave (km/s) = 3.30864 3.89596 3.61425
# Velocity P-wave (km/s) = 5.51490 6.27715 5.90833
#
# Compressibility (1/GPa) = 0.03896535
#
# Stress axis : x y z
#
# Youngs Moduli (GPa) = 113.43633 45.65596 72.40316
#
# Poissons Ratio (x) = 0.08863 0.10471
# Poissons Ratio (y) = 0.22022 -0.04382
# Poissons Ratio (z) = 0.16405 -0.02763
#
# Static dielectric constant tensor:
#      x y z
#    x 1.584160 0.000000 0.000000 
#    y 0.000000 1.515880 0.000000 
#    z 0.000000 0.000000 1.554230 
# 
# From -- ./inp_files/6367.got.cif
#   From: 2010.05.17/outbox.cif.g08.bks.cpg/sg49_4_cif.got.tgz:6367.got - 2010.06.03 21:02:19.
