data_PCOD9393347
_publ_section_title
;
Structure prediction by ZEFSAII (Michael W. Deem and Ramdas Pophale) SiO2 
 PCOD9393347
Probable space group: P C C M
;
_chemical_formula_sum "Si O2"
_cell_formula_units_Z 58
_cell_length_a 26.048272
_cell_length_b 14.814658
_cell_length_c 8.870692
_cell_angle_alpha 90.000000
_cell_angle_beta 90.000000
_cell_angle_gamma 90.000000
_cell_volume 3423.166699
_symmetry_space_group_name_H-M "P C C M"
_symmetry_group_IT_number 49
_symmetry_cell_setting 'orthorhombic'
loop_
_space_group_symop_operation_xyz
x,y,z
-x,-y,z
x,-y,1/2-z
-x,y,1/2-z
-x,-y,-z
x,y,-z
-x,y,1/2+z
x,-y,1/2+z
loop_
_atom_site_type_symbol
_atom_site_label
_atom_site_fract_x
_atom_site_fract_y
_atom_site_fract_z
Si Si1 0.304537 0.595447 0.680841
Si Si2 0.146917 0.789756 0.318488
Si Si3 0.500000 0.000000 0.250000
Si Si4 0.449411 0.176675 0.830687
Si Si5 0.054696 0.900910 0.819421
Si Si6 0.657497 0.780092 0.679849
Si Si7 0.817015 0.406011 0.680047
Si Si8 0.251761 0.099749 0.180694
O O1 0.321627 0.500000 0.750000
O O2 0.310549 0.596461 0.500000
O O3 0.331997 0.680413 0.755300
O O4 0.243588 0.604309 0.715430
O O5 0.138593 0.793174 0.500000
O O6 0.099989 0.835710 0.233293
O O7 0.155019 0.685675 0.272298
O O8 0.199500 0.844614 0.288228
O O9 0.463797 0.070142 0.163219
O O10 0.500000 0.217398 0.750000
O O11 0.398797 0.190164 0.733573
O O12 0.442269 0.210895 0.000000
O O13 0.000000 0.871902 0.750000
O O14 0.065227 0.000000 0.750000
O O15 0.051445 0.906874 0.000000
O O16 0.661325 0.780877 0.500000
O O17 0.700376 0.846216 0.749882
O O18 0.835356 0.500000 0.750000
O O19 0.821060 0.412326 0.500000
O O20 0.248369 0.000000 0.250000
O O21 0.257842 0.094546 0.000000
#
# Coordination Sequence:
#
# PCOD9393347 Si02
#       8
#     8   8   2   8   8   8   8   8
#     4  10  19  36  58  84 114 148 187 233 284 334
#     4  10  20  37  57  80 113 149 185 230 281 335
#     4   8  22  36  62  80 104 140 190 232 280 328
#     4  10  21  37  57  79 108 141 184 234 278 328
#     4  11  22  37  58  83 110 146 190 236 280 330
#     4  12  24  37  56  83 114 151 192 232 280 337
#     4   9  18  33  54  81 112 147 184 228 277 332
#     4  11  23  38  53  76 113 152 188 228 281 338
#
# _framework density 16.943376000000001
#
# number of rings (size 3 to 8) (size 9 to 14) (size 15 to 20)
#    0.414    1.241    1.379    4.759    0.966    3.310 
#    0.000    0.000    0.000    0.828    0.000    5.793 
#    0.000    0.000    0.000    0.000    0.000    0.000 
#
# Total GULP energy -323625.777877 kJ/mol
# GULP energy per Si atom -5579.754791 kJ/mol
# Density = 1.690481 g / cm^3
# Si number density = 16.943376 Si / 1000 Ang^3
#
#
#
# Elastic Constant Matrix: (Units=GPa)
#
#
# Indices 1 2 3 4 5 6 
#
# 1 117.0637 76.3631 62.8490 0.0000 0.0000 0.0000
# 2 76.3631 137.7149 60.3344 0.0000 0.0000 0.0000
# 3 62.8490 60.3344 109.6270 0.0000 0.0000 0.0000
# 4 0.0000 0.0000 0.0000 30.7652 0.0000 0.0000
# 5 0.0000 0.0000 0.0000 0.0000 41.1556 0.0000
# 6 0.0000 0.0000 0.0000 0.0000 0.0000 17.3006
#
#
#
# Elastic Compliance Matrix: (Units=1/GPa)
#
#
# Indices 1 2 3 4 5 6 
#
# 1 0.015544 -0.006213 -0.005492 0.000000 0.000000 0.000000
# 2 -0.006213 0.012052 -0.003071 0.000000 0.000000 0.000000
# 3 -0.005492 -0.003071 0.013960 0.000000 0.000000 0.000000
# 4 0.000000 0.000000 0.000000 0.032504 0.000000 0.000000
# 5 0.000000 0.000000 0.000000 0.000000 0.024298 0.000000
# 6 0.000000 0.000000 0.000000 0.000000 0.000000 0.057801
#
#
# Mechanical properties :
#
#
# Convention : Reuss Voigt Hill
#
# Bulk Modulus (GPa) = 83.30227 84.83319 84.06773
# Shear Modulus (GPa) = 26.35564 28.83488 27.59526
#
# Velocity S-wave (km/s) = 3.94828 4.12981 4.04006
# Velocity P-wave (km/s) = 8.37001 8.53919 8.45502
#
# Compressibility (1/GPa) = 0.01200448
#
# Stress axis : x y z
#
# Youngs Moduli (GPa) = 64.33511 82.97436 71.63103
#
# Poissons Ratio (x) = 0.51552 0.39338
# Poissons Ratio (y) = 0.39971 0.21998
# Poissons Ratio (z) = 0.35331 0.25482
#
# Static dielectric constant tensor:
#      x y z
#    x 1.552670 0.000000 0.000000 
#    y 0.000000 1.564040 0.000000 
#    z 0.000000 0.000000 1.572920 
# 
# From -- ./inp_files/6464.got.cif
#   From: 2010.05.17/outbox.cif.g08.bks.cpg/sg49_4_cif.got.tgz:6464.got - 2010.06.03 21:02:19.
