data_PCOD9393894
_publ_section_title
;
Structure prediction by ZEFSAII (Michael W. Deem and Ramdas Pophale) SiO2 
 PCOD9393894
Probable space group: P C C M
;
_chemical_formula_sum "Si O2"
_cell_formula_units_Z 34
_cell_length_a 10.655617
_cell_length_b 17.791527
_cell_length_c 9.069149
_cell_angle_alpha 90.000000
_cell_angle_beta 90.000000
_cell_angle_gamma 90.000000
_cell_volume 1719.326525
_symmetry_space_group_name_H-M "P C C M"
_symmetry_group_IT_number 49
_symmetry_cell_setting 'orthorhombic'
loop_
_space_group_symop_operation_xyz
x,y,z
-x,-y,z
x,-y,1/2-z
-x,y,1/2-z
-x,-y,-z
x,y,-z
-x,y,1/2+z
x,-y,1/2+z
loop_
_atom_site_type_symbol
_atom_site_label
_atom_site_fract_x
_atom_site_fract_y
_atom_site_fract_z
Si Si1 0.372751 0.583118 0.821835
Si Si2 0.380121 0.852933 0.835876
Si Si3 0.126249 0.356528 0.830580
Si Si4 0.500000 0.000000 0.750000
Si Si5 0.875885 0.824424 0.833237
O O1 0.363723 0.500000 0.750000
O O2 0.500000 0.616459 0.750000
O O3 0.248306 0.624419 0.765362
O O4 0.380721 0.580307 0.000000
O O5 0.500000 0.818922 0.750000
O O6 0.414631 0.941675 0.839202
O O7 0.251776 0.843433 0.749949
O O8 0.370631 0.822080 0.000000
O O9 0.116521 0.266242 0.838331
O O10 0.000000 0.384907 0.750000
O O11 0.136906 0.384621 0.000000
O O12 0.000000 0.852006 0.750000
O O13 0.872070 0.852997 0.000000
#
# Coordination Sequence:
#
# PCOD9393894 Si02
#       5
#     8   8   8   2   8
#     4  11  22  38  59  83 113 149 188 235 284 336
#     4  10  20  35  58  83 112 146 185 227 275 328
#     4  10  21  38  58  83 113 148 188 233 281 335
#     4   8  22  36  60  84 114 148 186 228 278 324
#     4  10  21  37  58  83 115 149 186 231 282 332
#
# _framework density 19.775185
#
# number of rings (size 3 to 8) (size 9 to 14) (size 15 to 20)
#    0.706    1.176    0.000    5.294    0.000    4.235 
#    0.000    2.941    0.000    2.824    0.000    0.000 
#    0.000    0.000    0.000    0.000    0.000    0.000 
#
# Total GULP energy -189607.626132 kJ/mol
# GULP energy per Si atom -5576.694886 kJ/mol
# Density = 1.973018 g / cm^3
# Si number density = 19.775185 Si / 1000 Ang^3
#
#
#
# Elastic Constant Matrix: (Units=GPa)
#
#
# Indices 1 2 3 4 5 6 
#
# 1 208.9844 4.1534 119.3414 0.0000 0.0000 0.0000
# 2 4.1534 8.2668 8.5681 0.0000 0.0000 0.0000
# 3 119.3414 8.5681 235.5543 0.0000 0.0000 0.0000
# 4 0.0000 0.0000 0.0000 8.4103 0.0000 0.0000
# 5 0.0000 0.0000 0.0000 0.0000 37.1376 0.0000
# 6 0.0000 0.0000 0.0000 0.0000 0.0000 31.7939
#
#
#
# Elastic Compliance Matrix: (Units=1/GPa)
#
#
# Indices 1 2 3 4 5 6 
#
# 1 0.006733 0.000159 -0.003417 0.000000 0.000000 0.000000
# 2 0.000159 0.125708 -0.004653 0.000000 0.000000 0.000000
# 3 -0.003417 -0.004653 0.006146 0.000000 0.000000 0.000000
# 4 0.000000 0.000000 0.000000 0.118901 0.000000 0.000000
# 5 0.000000 0.000000 0.000000 0.000000 0.026927 0.000000
# 6 0.000000 0.000000 0.000000 0.000000 0.000000 0.031453
#
#
# Mechanical properties :
#
#
# Convention : Reuss Voigt Hill
#
# Bulk Modulus (GPa) = 8.14567 79.65902 43.90235
# Shear Modulus (GPa) = 13.41878 36.85122 25.13500
#
# Velocity S-wave (km/s) = 2.60776 4.32152 3.56903
# Velocity P-wave (km/s) = 3.63253 8.07902 6.26362
#
# Compressibility (1/GPa) = 0.12276465
#
# Stress axis : x y z
#
# Youngs Moduli (GPa) = 148.51683 7.95493 162.71277
#
# Poissons Ratio (x) = -0.00126 0.55601
# Poissons Ratio (y) = -0.02358 0.75710
# Poissons Ratio (z) = 0.50750 0.03701
#
# Static dielectric constant tensor:
#      x y z
#    x 1.701860 0.000000 0.000000 
#    y 0.000000 1.716700 0.000000 
#    z 0.000000 0.000000 1.700470 
# 
# From -- ./inp_files/1513.got.cif
#   From: 2010.05.17/outbox.cif.g08.bks.cpg/sg49_1_cif.got.tgz:1513.got - 2010.06.03 21:02:19.
