data_PCOD9393730
_publ_section_title
;
Structure prediction by ZEFSAII (Michael W. Deem and Ramdas Pophale) SiO2 
 PCOD9393730
Probable space group: P C C M
;
_chemical_formula_sum "Si O2"
_cell_formula_units_Z 48
_cell_length_a 21.869765
_cell_length_b 5.145168
_cell_length_c 21.836356
_cell_angle_alpha 90.000000
_cell_angle_beta 90.000000
_cell_angle_gamma 90.000000
_cell_volume 2457.105717
_symmetry_space_group_name_H-M "P C C M"
_symmetry_group_IT_number 49
_symmetry_cell_setting 'orthorhombic'
loop_
_space_group_symop_operation_xyz
x,y,z
-x,-y,z
x,-y,1/2-z
-x,y,1/2-z
-x,-y,-z
x,y,-z
-x,y,1/2+z
x,-y,1/2+z
loop_
_atom_site_type_symbol
_atom_site_label
_atom_site_fract_x
_atom_site_fract_y
_atom_site_fract_z
Si Si1 0.173181 0.200800 0.374424
Si Si2 0.040101 0.740851 0.928917
Si Si3 0.335869 0.672224 0.647278
Si Si4 0.205092 0.695042 0.305224
Si Si5 0.527916 0.253642 0.318822
Si Si6 0.302943 0.161030 0.429087
O O1 0.104465 0.196472 0.397932
O O2 0.185727 0.504333 0.360221
O O3 0.229475 0.131737 0.419166
O O4 0.180446 0.985055 0.319594
O O5 0.000000 0.500000 0.903244
O O6 0.053135 0.675980 0.000000
O O7 0.000000 0.000000 0.926320
O O8 0.278607 0.716270 0.692748
O O9 0.399711 0.715746 0.681369
O O10 0.326851 0.391925 0.615334
O O11 0.330842 0.892183 0.595181
O O12 0.186921 0.500000 0.250000
O O13 0.500000 0.500000 0.352079
O O14 0.500000 0.252275 0.250000
O O15 0.500000 0.000000 0.348984
O O16 0.316002 0.212919 0.500000
#
# Coordination Sequence:
#
# PCOD9393730 Si02
#       6
#     8   8   8   8   8   8
#     4  10  20  36  55  84 115 148 189 231 289 337
#     4  10  20  34  56  85 115 149 187 235 287 337
#     4  10  21  36  56  85 114 142 188 232 285 334
#     4  10  21  35  56  82 113 150 182 239 287 334
#     4  10  21  36  55  82 110 146 177 228 284 342
#     4  10  20  36  59  83 112 151 186 231 281 339
#
# _framework density 19.535177999999998
#
# number of rings (size 3 to 8) (size 9 to 14) (size 15 to 20)
#    0.000    2.000    0.000    3.500    2.333    0.000 
#    6.000    5.000    0.000   17.500    0.000    0.000 
#    0.000    0.000    0.000    0.000    0.000    0.000 
#
# Total GULP energy -267357.190227 kJ/mol
# GULP energy per Si atom -5569.941463 kJ/mol
# Density = 1.949071 g / cm^3
# Si number density = 19.535178 Si / 1000 Ang^3
#
#
#
# Elastic Constant Matrix: (Units=GPa)
#
#
# Indices 1 2 3 4 5 6 
#
# 1 158.2111 27.9004 25.7838 0.0000 0.0000 0.0000
# 2 27.9004 137.4198 3.6090 0.0000 0.0000 0.0000
# 3 25.7838 3.6090 35.9602 0.0000 0.0000 0.0000
# 4 0.0000 0.0000 0.0000 -9.1358 0.0000 0.0000
# 5 0.0000 0.0000 0.0000 0.0000 11.7693 0.0000
# 6 0.0000 0.0000 0.0000 0.0000 0.0000 23.3104
#
#
#
# Elastic Compliance Matrix: (Units=1/GPa)
#
#
# Indices 1 2 3 4 5 6 
#
# 1 0.007405 -0.001368 -0.005172 0.000000 0.000000 0.000000
# 2 -0.001368 0.007549 0.000223 0.000000 0.000000 0.000000
# 3 -0.005172 0.000223 0.031494 0.000000 0.000000 0.000000
# 4 0.000000 0.000000 0.000000 -0.109460 0.000000 0.000000
# 5 0.000000 0.000000 0.000000 0.000000 0.084967 0.000000
# 6 0.000000 0.000000 0.000000 0.000000 0.000000 0.042899
#
#
# Mechanical properties :
#
#
# Convention : Reuss Voigt Hill
#
# Bulk Modulus (GPa) = 29.57287 49.57528 39.57407
# Shear Modulus (GPa) = 56.33185 23.47530 39.90358
#
# Velocity S-wave (km/s) = 5.37575 3.47031 4.52447
# Velocity P-wave (km/s) = 7.32822 6.44127 6.89901
#
# Compressibility (1/GPa) = 0.03381478
#
# Stress axis : x y z
#
# Youngs Moduli (GPa) = 135.04897 132.47184 31.75159
#
# Poissons Ratio (x) = 0.18116 0.16422
# Poissons Ratio (y) = 0.18469 -0.00708
# Poissons Ratio (z) = 0.69847 -0.02954
#
# Static dielectric constant tensor:
#      x y z
#    x 1.686620 0.000000 0.000000 
#    y 0.000000 1.719080 0.000000 
#    z 0.000000 0.000000 1.716400 
# 
# From -- ./inp_files/23298.got.cif
#   From: 2010.05.17/outbox.cif.g08.bks.cpg/sg49_12_cif.got.tgz:23298.got - 2010.06.03 21:02:19.
