data_PCOD9393803
_publ_section_title
;
Structure prediction by ZEFSAII (Michael W. Deem and Ramdas Pophale) SiO2 
 PCOD9393803
Probable space group: P C C M
;
_chemical_formula_sum "Si O2"
_cell_formula_units_Z 64
_cell_length_a 22.636585
_cell_length_b 17.544572
_cell_length_c 8.507908
_cell_angle_alpha 90.000000
_cell_angle_beta 90.000000
_cell_angle_gamma 90.000000
_cell_volume 3378.908816
_symmetry_space_group_name_H-M "P C C M"
_symmetry_group_IT_number 49
_symmetry_cell_setting 'orthorhombic'
loop_
_space_group_symop_operation_xyz
x,y,z
-x,-y,z
x,-y,1/2-z
-x,y,1/2-z
-x,-y,-z
x,y,-z
-x,y,1/2+z
x,-y,1/2+z
loop_
_atom_site_type_symbol
_atom_site_label
_atom_site_fract_x
_atom_site_fract_y
_atom_site_fract_z
Si Si1 0.435089 0.624518 0.316332
Si Si2 0.309465 0.577148 0.186306
Si Si3 0.120269 0.248463 0.186678
Si Si4 0.248115 0.729422 0.188556
Si Si5 0.932336 0.415703 0.690085
Si Si6 0.433162 0.922147 0.688053
Si Si7 0.620996 0.772407 0.684266
Si Si8 0.067240 0.082949 0.189800
O O1 0.500000 0.605906 0.250000
O O2 0.435994 0.608971 0.500000
O O3 0.377123 0.585166 0.243552
O O4 0.418508 0.712387 0.280488
O O5 0.284064 0.500000 0.250000
O O6 0.267516 0.644962 0.239903
O O7 0.311446 0.579089 0.000000
O O8 0.189479 0.245099 0.226435
O O9 0.097036 0.333447 0.241870
O O10 0.093698 0.166105 0.242330
O O11 0.110115 0.249393 0.000000
O O12 0.309566 0.771923 0.222182
O O13 0.238265 0.731067 0.000000
O O14 0.909496 0.500000 0.750000
O O15 0.930447 0.418169 0.500000
O O16 0.000000 0.411690 0.750000
O O17 0.500000 0.920794 0.750000
O O18 0.431898 0.916660 0.500000
O O19 0.402149 0.853849 0.774252
O O20 0.405659 0.000000 0.750000
O O21 0.384975 0.751853 0.000000
O O22 0.000000 0.084245 0.250000
O O23 0.092194 0.000000 0.250000
O O24 0.069455 0.080678 0.000000
#
# Coordination Sequence:
#
# PCOD9393803 Si02
#       8
#     8   8   8   8   8   8   8   8
#     4  11  21  34  53  78 104 135 172 216 269 326
#     4  10  21  38  56  78 105 137 176 222 271 324
#     4  10  22  37  56  82 114 148 188 231 276 326
#     4   9  21  38  57  78 104 138 180 223 265 312
#     4  10  20  35  54  81 114 150 186 228 275 327
#     4  11  21  34  53  79 107 137 170 212 264 320
#     4  10  20  37  55  75 103 136 175 219 264 319
#     4  10  20  36  58  87 117 149 184 226 275 329
#
# _framework density 18.941026999999998
#
# number of rings (size 3 to 8) (size 9 to 14) (size 15 to 20)
#    0.000    1.875    0.000    6.375    0.000    5.750 
#    0.000    4.375    0.000    1.500    0.000    0.000 
#    0.000    0.000    0.000    0.000    0.000    0.000 
#
# Total GULP energy -356552.960497 kJ/mol
# GULP energy per Si atom -5571.140008 kJ/mol
# Density = 1.889792 g / cm^3
# Si number density = 18.941027 Si / 1000 Ang^3
#
#
#
# Elastic Constant Matrix: (Units=GPa)
#
#
# Indices 1 2 3 4 5 6 
#
# 1 53.8042 34.6012 9.4217 0.0000 0.0000 0.0000
# 2 34.6012 143.8421 4.9487 0.0000 0.0000 0.0000
# 3 9.4217 4.9487 35.9468 0.0000 0.0000 0.0000
# 4 0.0000 0.0000 0.0000 31.2654 0.0000 0.0000
# 5 0.0000 0.0000 0.0000 0.0000 26.0839 0.0000
# 6 0.0000 0.0000 0.0000 0.0000 0.0000 12.2385
#
#
#
# Elastic Compliance Matrix: (Units=1/GPa)
#
#
# Indices 1 2 3 4 5 6 
#
# 1 0.022943 -0.005337 -0.005279 0.000000 0.000000 0.000000
# 2 -0.005337 0.008227 0.000266 0.000000 0.000000 0.000000
# 3 -0.005279 0.000266 0.029166 0.000000 0.000000 0.000000
# 4 0.000000 0.000000 0.000000 0.031984 0.000000 0.000000
# 5 0.000000 0.000000 0.000000 0.000000 0.038338 0.000000
# 6 0.000000 0.000000 0.000000 0.000000 0.000000 0.081709
#
#
# Mechanical properties :
#
#
# Convention : Reuss Voigt Hill
#
# Bulk Modulus (GPa) = 25.22941 36.83736 31.03339
# Shear Modulus (GPa) = 20.30234 26.22567 23.26400
#
# Velocity S-wave (km/s) = 3.27750 3.72505 3.50842
# Velocity P-wave (km/s) = 5.26037 6.16377 5.72990
#
# Compressibility (1/GPa) = 0.03963628
#
# Stress axis : x y z
#
# Youngs Moduli (GPa) = 43.58709 121.55423 34.28682
#
# Poissons Ratio (x) = 0.64876 0.18098
# Poissons Ratio (y) = 0.23263 -0.00913
# Poissons Ratio (z) = 0.23007 -0.03238
#
# Static dielectric constant tensor:
#      x y z
#    x 1.620010 0.000000 0.000000 
#    y 0.000000 1.675300 0.000000 
#    z 0.000000 0.000000 1.653340 
# 
# From -- ./inp_files/6013.got.cif
#   From: 2010.05.17/outbox.cif.g08.bks.cpg/sg49_4_cif.got.tgz:6013.got - 2010.06.03 21:02:19.
