data_PCOD9393213
_publ_section_title
;
Structure prediction by ZEFSAII (Michael W. Deem and Ramdas Pophale) SiO2 
 PCOD9393213
Probable space group: P C C M
;
_chemical_formula_sum "Si O2"
_cell_formula_units_Z 48
_cell_length_a 9.251435
_cell_length_b 18.709018
_cell_length_c 15.819202
_cell_angle_alpha 90.000000
_cell_angle_beta 90.000000
_cell_angle_gamma 90.000000
_cell_volume 2738.070754
_symmetry_space_group_name_H-M "P C C M"
_symmetry_group_IT_number 49
_symmetry_cell_setting 'orthorhombic'
loop_
_space_group_symop_operation_xyz
x,y,z
-x,-y,z
x,-y,1/2-z
-x,y,1/2-z
-x,-y,-z
x,y,-z
-x,y,1/2+z
x,-y,1/2+z
loop_
_atom_site_type_symbol
_atom_site_label
_atom_site_fract_x
_atom_site_fract_y
_atom_site_fract_z
Si Si1 0.396065 0.919577 0.333684
Si Si2 0.830093 0.832309 0.737178
Si Si3 0.675480 0.580116 0.597029
Si Si4 0.171728 0.336507 0.253106
Si Si5 0.331447 0.589938 0.597405
Si Si6 0.316350 0.074251 0.404219
O O1 0.500000 0.923060 0.250000
O O2 0.268089 0.866339 0.311170
O O3 0.516581 0.899009 0.402131
O O4 0.328046 0.995241 0.361995
O O5 0.802245 0.747915 0.734928
O O6 0.778299 0.873514 0.653046
O O7 0.000000 0.844352 0.750000
O O8 0.714937 0.598023 0.500000
O O9 0.763046 0.621935 0.667238
O O10 0.504820 0.596710 0.607523
O O11 0.697291 0.494928 0.607871
O O12 0.247014 0.365618 0.167837
O O13 0.000000 0.348244 0.250000
O O14 0.295057 0.609167 0.500000
O O15 0.265286 0.068949 0.500000
#
# Coordination Sequence:
#
# PCOD9393213 Si02
#       6
#     8   8   8   8   8   8
#     4   9  17  33  57  79 103 136 170 209 261 313
#     4  10  22  38  51  71 109 148 176 207 254 313
#     4   9  19  36  59  82 106 135 175 224 269 313
#     4  11  23  36  52  77 111 148 179 213 262 315
#     4   9  19  37  58  82 106 134 176 225 268 312
#     4  10  19  34  57  83 104 127 169 224 266 306
#
# _framework density 17.530591999999999
#
# number of rings (size 3 to 8) (size 9 to 14) (size 15 to 20)
#    0.000    2.333    0.000    6.500    0.000    9.333 
#    0.000   10.000    0.000    0.000    0.000    0.000 
#    0.000    0.000    0.000    0.000    0.000    0.000 
#
# Total GULP energy -267536.657523 kJ/mol
# GULP energy per Si atom -5573.680365 kJ/mol
# Density = 1.749069 g / cm^3
# Si number density = 17.530592 Si / 1000 Ang^3
#
#
#
# Elastic Constant Matrix: (Units=GPa)
#
#
# Indices 1 2 3 4 5 6 
#
# 1 82.1585 81.4213 67.5319 0.0000 0.0000 0.0000
# 2 81.4213 99.8562 87.4134 0.0000 0.0000 0.0000
# 3 67.5319 87.4134 139.7806 0.0000 0.0000 0.0000
# 4 0.0000 0.0000 0.0000 1.9720 0.0000 0.0000
# 5 0.0000 0.0000 0.0000 0.0000 6.0801 0.0000
# 6 0.0000 0.0000 0.0000 0.0000 0.0000 33.6262
#
#
#
# Elastic Compliance Matrix: (Units=1/GPa)
#
#
# Indices 1 2 3 4 5 6 
#
# 1 0.064321 -0.055778 0.003806 0.000000 0.000000 0.000000
# 2 -0.055778 0.070498 -0.017139 0.000000 0.000000 0.000000
# 3 0.003806 -0.017139 0.016033 0.000000 0.000000 0.000000
# 4 0.000000 0.000000 0.000000 0.507106 0.000000 0.000000
# 5 0.000000 0.000000 0.000000 0.000000 0.164471 0.000000
# 6 0.000000 0.000000 0.000000 0.000000 0.000000 0.029739
#
#
# Mechanical properties :
#
#
# Convention : Reuss Voigt Hill
#
# Bulk Modulus (GPa) = 79.17230 88.28094 83.72662
# Shear Modulus (GPa) = 5.02715 14.03090 9.52902
#
# Velocity S-wave (km/s) = 1.69525 2.83214 2.33398
# Velocity P-wave (km/s) = 7.00659 7.82063 7.42477
#
# Compressibility (1/GPa) = 0.01263068
#
# Stress axis : x y z
#
# Youngs Moduli (GPa) = 15.54713 14.18470 62.37081
#
# Poissons Ratio (x) = 0.79120 -0.23741
# Poissons Ratio (y) = 0.86719 1.06897
# Poissons Ratio (z) = -0.05918 0.24311
#
# Static dielectric constant tensor:
#      x y z
#    x 1.591830 0.000000 0.000000 
#    y 0.000000 1.583820 0.000000 
#    z 0.000000 0.000000 1.624270 
# 
# From -- ./inp_files/11749.got.cif
#   From: 2010.05.17/outbox.cif.g08.bks.cpg/sg49_6_cif.got.tgz:11749.got - 2010.06.03 21:02:19.
