data_PCOD9393554
_publ_section_title
;
Structure prediction by ZEFSAII (Michael W. Deem and Ramdas Pophale) SiO2 
 PCOD9393554
Probable space group: P C C M
;
_chemical_formula_sum "Si O2"
_cell_formula_units_Z 56
_cell_length_a 15.959031
_cell_length_b 21.054826
_cell_length_c 8.185180
_cell_angle_alpha 90.000000
_cell_angle_beta 90.000000
_cell_angle_gamma 90.000000
_cell_volume 2750.340154
_symmetry_space_group_name_H-M "P C C M"
_symmetry_group_IT_number 49
_symmetry_cell_setting 'orthorhombic'
loop_
_space_group_symop_operation_xyz
x,y,z
-x,-y,z
x,-y,1/2-z
-x,y,1/2-z
-x,-y,-z
x,y,-z
-x,y,1/2+z
x,-y,1/2+z
loop_
_atom_site_type_symbol
_atom_site_label
_atom_site_fract_x
_atom_site_fract_y
_atom_site_fract_z
Si Si1 0.402840 0.662475 0.193794
Si Si2 0.856589 0.933006 0.688119
Si Si3 0.331005 0.935157 0.303134
Si Si4 0.404439 0.200726 0.805311
Si Si5 0.097246 0.343025 0.302358
Si Si6 0.095614 0.203897 0.697065
Si Si7 0.253022 0.572757 0.197804
O O1 0.500000 0.655333 0.250000
O O2 0.369728 0.733378 0.235295
O O3 0.335165 0.611568 0.257127
O O4 0.405759 0.656915 0.000000
O O5 0.880765 0.929575 0.500000
O O6 0.757258 0.938152 0.710739
O O7 0.876003 0.864350 0.765817
O O8 0.892805 0.000000 0.750000
O O9 0.320111 0.935990 0.500000
O O10 0.368323 0.867260 0.254500
O O11 0.377864 0.000000 0.250000
O O12 0.500000 0.200480 0.750000
O O13 0.398653 0.204439 0.000000
O O14 0.095986 0.343084 0.500000
O O15 0.129463 0.272622 0.248527
O O16 0.166016 0.394120 0.246718
O O17 0.000000 0.353040 0.250000
O O18 0.105571 0.202100 0.500000
O O19 0.000000 0.207874 0.750000
O O20 0.256627 0.500000 0.250000
O O21 0.253356 0.575917 0.000000
#
# Coordination Sequence:
#
# PCOD9393554 Si02
#       7
#     8   8   8   8   8   8   8
#     4  10  21  38  61  87 117 154 190 235 284 334
#     4  10  20  33  51  74 103 142 181 226 277 327
#     4  10  21  35  51  75 106 141 183 228 276 328
#     4  10  21  36  55  81 109 141 183 229 276 330
#     4   9  19  38  59  84 115 148 190 233 280 337
#     4   9  19  34  54  77 103 138 181 225 274 327
#     4  10  23  40  61  88 118 152 190 229 278 341
#
# _framework density 20.361118000000001
#
# number of rings (size 3 to 8) (size 9 to 14) (size 15 to 20)
#    0.000    2.286    0.000    3.429    2.000    6.286 
#    0.000    5.714    0.000    0.000    0.000    0.000 
#    0.000    0.000    0.000    0.000    0.000    0.000 
#
# Total GULP energy -311955.710222 kJ/mol
# GULP energy per Si atom -5570.637683 kJ/mol
# Density = 2.031478 g / cm^3
# Si number density = 20.361118 Si / 1000 Ang^3
#
#
#
# Elastic Constant Matrix: (Units=GPa)
#
#
# Indices 1 2 3 4 5 6 
#
# 1 71.2771 78.5399 2.5082 0.0000 0.0000 0.0000
# 2 78.5399 218.9007 12.5964 0.0000 0.0000 0.0000
# 3 2.5082 12.5964 12.8688 0.0000 0.0000 0.0000
# 4 0.0000 0.0000 0.0000 28.3444 0.0000 0.0000
# 5 0.0000 0.0000 0.0000 0.0000 5.4287 0.0000
# 6 0.0000 0.0000 0.0000 0.0000 0.0000 66.9783
#
#
#
# Elastic Compliance Matrix: (Units=1/GPa)
#
#
# Indices 1 2 3 4 5 6 
#
# 1 0.023384 -0.008613 0.003873 0.000000 0.000000 0.000000
# 2 -0.008613 0.008013 -0.006165 0.000000 0.000000 0.000000
# 3 0.003873 -0.006165 0.082987 0.000000 0.000000 0.000000
# 4 0.000000 0.000000 0.000000 0.035280 0.000000 0.000000
# 5 0.000000 0.000000 0.000000 0.000000 0.184207 0.000000
# 6 0.000000 0.000000 0.000000 0.000000 0.000000 0.014930
#
#
# Mechanical properties :
#
#
# Convention : Reuss Voigt Hill
#
# Bulk Modulus (GPa) = 10.80214 54.48171 32.64193
# Shear Modulus (GPa) = 12.45424 34.11040 23.28232
#
# Velocity S-wave (km/s) = 2.47588 4.09745 3.38519
# Velocity P-wave (km/s) = 3.67288 7.01436 5.59872
#
# Compressibility (1/GPa) = 0.09257426
#
# Stress axis : x y z
#
# Youngs Moduli (GPa) = 42.76442 124.79316 12.05011
#
# Poissons Ratio (x) = 1.07482 -0.04667
# Poissons Ratio (y) = 0.36832 0.07429
# Poissons Ratio (z) = -0.16562 0.76934
#
# Static dielectric constant tensor:
#      x y z
#    x 1.722530 0.000000 0.000000 
#    y 0.000000 1.827370 0.000000 
#    z 0.000000 0.000000 1.733770 
# 
# From -- ./inp_files/4089.got.cif
#   From: 2010.05.17/outbox.cif.g08.bks.cpg/sg49_3_cif.got.tgz:4089.got - 2010.06.03 21:02:19.
