data_PCOD9393797
_publ_section_title
;
Structure prediction by ZEFSAII (Michael W. Deem and Ramdas Pophale) SiO2 
 PCOD9393797
Probable space group: P C C M
;
_chemical_formula_sum "Si O2"
_cell_formula_units_Z 56
_cell_length_a 15.521393
_cell_length_b 20.825441
_cell_length_c 8.808995
_cell_angle_alpha 90.000000
_cell_angle_beta 90.000000
_cell_angle_gamma 90.000000
_cell_volume 2847.418259
_symmetry_space_group_name_H-M "P C C M"
_symmetry_group_IT_number 49
_symmetry_cell_setting 'orthorhombic'
loop_
_space_group_symop_operation_xyz
x,y,z
-x,-y,z
x,-y,1/2-z
-x,y,1/2-z
-x,-y,-z
x,y,-z
-x,y,1/2+z
x,-y,1/2+z
loop_
_atom_site_type_symbol
_atom_site_label
_atom_site_fract_x
_atom_site_fract_y
_atom_site_fract_z
Si Si1 0.243240 0.929309 0.683105
Si Si2 0.649062 0.563323 0.169194
Si Si3 0.403837 0.843406 0.683669
Si Si4 0.595476 0.298981 0.316169
Si Si5 0.854102 0.435952 0.670523
Si Si6 0.904541 0.695569 0.319306
Si Si7 0.903593 0.827601 0.182590
O O1 0.244738 0.932705 0.500000
O O2 0.332448 0.894969 0.731893
O O3 0.161721 0.884565 0.724253
O O4 0.235755 0.000000 0.750000
O O5 0.614073 0.500000 0.250000
O O6 0.636115 0.634064 0.238947
O O7 0.751616 0.554837 0.157182
O O8 0.611653 0.564677 0.000000
O O9 0.500000 0.852930 0.750000
O O10 0.410544 0.845337 0.500000
O O11 0.370552 0.771661 0.727137
O O12 0.500000 0.299782 0.250000
O O13 0.597176 0.300039 0.500000
O O14 0.889813 0.500000 0.750000
O O15 0.889849 0.427539 0.500000
O O16 0.865535 0.371718 0.766980
O O17 0.905782 0.701089 0.500000
O O18 0.866273 0.760188 0.245821
O O19 0.000000 0.694117 0.250000
O O20 0.000000 0.836733 0.250000
O O21 0.909845 0.823428 0.000000
#
# Coordination Sequence:
#
# PCOD9393797 Si02
#       7
#     8   8   8   8   8   8   8
#     4  10  23  40  62  89 119 155 193 233 284 349
#     4   9  19  33  51  73 103 143 181 227 278 331
#     4   9  19  37  59  84 115 151 193 237 286 342
#     4   9  18  33  53  76 103 139 183 227 277 330
#     4  10  20  35  54  77 108 146 187 234 285 337
#     4  11  22  37  57  83 111 144 186 232 281 337
#     4  10  21  39  62  88 119 156 193 237 289 340
#
# _framework density 19.666937000000001
#
# number of rings (size 3 to 8) (size 9 to 14) (size 15 to 20)
#    0.000    2.286    0.000    3.000    2.000    4.000 
#    0.000    5.714    0.000    0.000    0.000    0.000 
#    0.000    0.000    0.000    0.000    0.000    0.000 
#
# Total GULP energy -312194.742985 kJ/mol
# GULP energy per Si atom -5574.906125 kJ/mol
# Density = 1.962217 g / cm^3
# Si number density = 19.666937 Si / 1000 Ang^3
#
#
#
# Elastic Constant Matrix: (Units=GPa)
#
#
# Indices 1 2 3 4 5 6 
#
# 1 60.1835 61.0072 24.2748 0.0000 0.0000 0.0000
# 2 61.0072 204.0691 58.4383 0.0000 0.0000 0.0000
# 3 24.2748 58.4383 65.6756 0.0000 0.0000 0.0000
# 4 0.0000 0.0000 0.0000 31.7918 0.0000 0.0000
# 5 0.0000 0.0000 0.0000 0.0000 11.8714 0.0000
# 6 0.0000 0.0000 0.0000 0.0000 0.0000 -183.6661
#
#
#
# Elastic Compliance Matrix: (Units=1/GPa)
#
#
# Indices 1 2 3 4 5 6 
#
# 1 0.024391 -0.006321 -0.003391 0.000000 0.000000 0.000000
# 2 -0.006321 0.008214 -0.004972 0.000000 0.000000 0.000000
# 3 -0.003391 -0.004972 0.020904 0.000000 0.000000 0.000000
# 4 0.000000 0.000000 0.000000 0.031455 0.000000 0.000000
# 5 0.000000 0.000000 0.000000 0.000000 0.084236 0.000000
# 6 0.000000 0.000000 0.000000 0.000000 0.000000 -0.005445
#
#
# Mechanical properties :
#
#
# Convention : Reuss Voigt Hill
#
# Bulk Modulus (GPa) = 41.42425 68.59654 55.01039
# Shear Modulus (GPa) = 24.85462 -15.58671 4.63396
#
# Velocity S-wave (km/s) = 3.55882 -2.81825 1.53666
# Velocity P-wave (km/s) = 6.16405 4.93607 5.58392
#
# Compressibility (1/GPa) = 0.02414045
#
# Stress axis : x y z
#
# Youngs Moduli (GPa) = 40.99910 121.74605 47.83710
#
# Poissons Ratio (x) = 0.76951 0.16222
# Poissons Ratio (y) = 0.25914 0.23787
# Poissons Ratio (z) = 0.13903 0.60538
#
# Static dielectric constant tensor:
#      x y z
#    x 1.793550 0.000000 0.000000 
#    y 0.000000 1.729180 0.000000 
#    z 0.000000 0.000000 1.690860 
# 
# From -- ./inp_files/4079.got.cif
#   From: 2010.05.17/outbox.cif.g08.bks.cpg/sg49_3_cif.got.tgz:4079.got - 2010.06.03 21:02:19.
