data_PCOD9393527
_publ_section_title
;
Structure prediction by ZEFSAII (Michael W. Deem and Ramdas Pophale) SiO2 
 PCOD9393527
Probable space group: P C C M
;
_chemical_formula_sum "Si O2"
_cell_formula_units_Z 46
_cell_length_a 14.514766
_cell_length_b 21.123200
_cell_length_c 9.441362
_cell_angle_alpha 90.000000
_cell_angle_beta 90.000000
_cell_angle_gamma 90.000000
_cell_volume 2894.705588
_symmetry_space_group_name_H-M "P C C M"
_symmetry_group_IT_number 49
_symmetry_cell_setting 'orthorhombic'
loop_
_space_group_symop_operation_xyz
x,y,z
-x,-y,z
x,-y,1/2-z
-x,y,1/2-z
-x,-y,-z
x,y,-z
-x,y,1/2+z
x,-y,1/2+z
loop_
_atom_site_type_symbol
_atom_site_label
_atom_site_fract_x
_atom_site_fract_y
_atom_site_fract_z
Si Si1 0.401105 0.297198 0.331066
Si Si2 0.343157 0.085673 0.648380
Si Si3 0.907596 0.129219 0.335895
Si Si4 0.401766 0.441490 0.668706
Si Si5 0.716350 0.805890 0.831542
Si Si6 0.500000 0.000000 0.750000
Si Si7 0.815657 0.000000 0.250000
O O1 0.500000 0.290839 0.250000
O O2 0.413368 0.285104 0.500000
O O3 0.365960 0.369909 0.316959
O O4 0.328442 0.250802 0.256546
O O5 0.341063 0.122297 0.500000
O O6 0.338647 0.131470 0.782451
O O7 0.433298 0.043707 0.659072
O O8 0.255474 0.039013 0.652665
O O9 0.925669 0.140295 0.500000
O O10 0.821576 0.174294 0.294506
O O11 0.875873 0.055846 0.317593
O O12 0.000000 0.140416 0.250000
O O13 0.353158 0.500000 0.750000
O O14 0.500000 0.437464 0.750000
O O15 0.411105 0.454505 0.500000
O O16 0.709922 0.795723 0.000000
#
# Coordination Sequence:
#
# PCOD9393527 Si02
#       7
#     8   8   8   8   8   2   4
#     4  10  20  33  50  72  99 134 171 201 235 276
#     4  10  20  34  50  65  87 120 157 197 242 287
#     4  10  21  35  52  73  94 118 151 194 245 299
#     4   9  16  26  43  68  97 129 164 199 232 269
#     4  10  22  37  50  68  96 125 159 201 240 285
#     4  10  22  32  46  66  88 116 156 202 244 280
#     4   9  19  33  51  72  92 114 148 192 242 296
#
# _framework density 15.891082000000001
#
# number of rings (size 3 to 8) (size 9 to 14) (size 15 to 20)
#    0.000    2.261    0.000    3.130    1.217   11.826 
#    0.000    0.000    0.000    0.000    0.000    0.000 
#    0.000    0.696    0.000    7.652    0.000    5.565 
#
# Total GULP energy -256095.054920 kJ/mol
# GULP energy per Si atom -5567.283803 kJ/mol
# Density = 1.585491 g / cm^3
# Si number density = 15.891082 Si / 1000 Ang^3
#
#
#
# Elastic Constant Matrix: (Units=GPa)
#
#
# Indices 1 2 3 4 5 6 
#
# 1 83.2363 50.8574 47.5350 0.0000 0.0000 0.0000
# 2 50.8574 110.7689 56.7843 0.0000 0.0000 0.0000
# 3 47.5350 56.7843 106.3762 0.0000 0.0000 0.0000
# 4 0.0000 0.0000 0.0000 25.2129 0.0000 0.0000
# 5 0.0000 0.0000 0.0000 0.0000 -23.4166 0.0000
# 6 0.0000 0.0000 0.0000 0.0000 0.0000 -1.0013
#
#
#
# Elastic Compliance Matrix: (Units=1/GPa)
#
#
# Indices 1 2 3 4 5 6 
#
# 1 0.018545 -0.005874 -0.005151 0.000000 0.000000 0.000000
# 2 -0.005874 0.014289 -0.005003 0.000000 0.000000 0.000000
# 3 -0.005151 -0.005003 0.014373 0.000000 0.000000 0.000000
# 4 0.000000 0.000000 0.000000 0.039662 0.000000 0.000000
# 5 0.000000 0.000000 0.000000 0.000000 -0.042705 0.000000
# 6 0.000000 0.000000 0.000000 0.000000 0.000000 -0.998698
#
#
# Mechanical properties :
#
#
# Convention : Reuss Voigt Hill
#
# Bulk Modulus (GPa) = 66.00236 67.85943 66.93090
# Shear Modulus (GPa) = -5.45002 9.83932 2.19465
#
# Velocity S-wave (km/s) = -1.85393 2.49102 1.17646
# Velocity P-wave (km/s) = 6.08618 7.14626 6.63742
#
# Compressibility (1/GPa) = 0.01515097
#
# Stress axis : x y z
#
# Youngs Moduli (GPa) = 53.92380 69.98232 69.57371
#
# Poissons Ratio (x) = 0.41105 0.35841
# Poissons Ratio (y) = 0.31673 0.34808
# Poissons Ratio (z) = 0.27779 0.35013
#
# Static dielectric constant tensor:
#      x y z
#    x 1.521560 0.000000 0.000000 
#    y 0.000000 1.562990 0.000000 
#    z 0.000000 0.000000 1.554840 
# 
# From -- ./inp_files/3895.got.cif
#   From: 2010.05.17/outbox.cif.g08.bks.cpg/sg49_2_cif.got.tgz:3895.got - 2010.06.03 21:02:19.
