data_PCOD9393208
_publ_section_title
;
Structure prediction by ZEFSAII (Michael W. Deem and Ramdas Pophale) SiO2 
 PCOD9393208
Probable space group: P C C M
;
_chemical_formula_sum "Si O2"
_cell_formula_units_Z 48
_cell_length_a 20.777654
_cell_length_b 14.747340
_cell_length_c 8.701965
_cell_angle_alpha 90.000000
_cell_angle_beta 90.000000
_cell_angle_gamma 90.000000
_cell_volume 2666.413719
_symmetry_space_group_name_H-M "P C C M"
_symmetry_group_IT_number 49
_symmetry_cell_setting 'orthorhombic'
loop_
_space_group_symop_operation_xyz
x,y,z
-x,-y,z
x,-y,1/2-z
-x,y,1/2-z
-x,-y,-z
x,y,-z
-x,y,1/2+z
x,-y,1/2+z
loop_
_atom_site_type_symbol
_atom_site_label
_atom_site_fract_x
_atom_site_fract_y
_atom_site_fract_z
Si Si1 0.683719 0.718544 0.184001
Si Si2 0.932061 0.291762 0.184732
Si Si3 0.114247 0.904279 0.815862
Si Si4 0.429035 0.401416 0.316318
Si Si5 0.810287 0.600811 0.815795
Si Si6 0.734251 0.903251 0.315690
O O1 0.622307 0.671923 0.260825
O O2 0.747035 0.659332 0.223749
O O3 0.696301 0.819478 0.244415
O O4 0.676597 0.718313 0.000000
O O5 0.921215 0.186981 0.235487
O O6 0.872815 0.350353 0.246583
O O7 0.000000 0.324391 0.250000
O O8 0.932188 0.294345 0.000000
O O9 0.189831 0.893877 0.773590
O O10 0.090648 0.000000 0.750000
O O11 0.110557 0.909031 0.000000
O O12 0.409693 0.500000 0.250000
O O13 0.500000 0.382029 0.250000
O O14 0.431723 0.406202 0.500000
O O15 0.804196 0.500000 0.750000
O O16 0.815782 0.597522 0.000000
O O17 0.729736 0.902072 0.500000
O O18 0.712626 0.000000 0.250000
#
# Coordination Sequence:
#
# PCOD9393208 Si02
#       6
#     8   8   8   8   8   8
#     4  11  22  37  60  90 120 154 194 237 287 341
#     4  11  23  40  58  80 110 146 188 235 288 346
#     4   9  19  34  55  80 110 145 182 230 283 340
#     4  11  22  38  60  88 124 162 199 240 286 340
#     4  11  24  40  60  84 111 145 187 237 287 340
#     4  10  19  34  56  85 117 152 191 236 289 340
#
# _framework density 18.001707
#
# number of rings (size 3 to 8) (size 9 to 14) (size 15 to 20)
#    0.000    1.500    1.667    4.500    0.000    6.000 
#    0.000    3.333    0.000    0.500    0.000    3.500 
#    0.000    0.000    0.000    0.000    0.000    0.000 
#
# Total GULP energy -268313.184286 kJ/mol
# GULP energy per Si atom -5589.858006 kJ/mol
# Density = 1.796073 g / cm^3
# Si number density = 18.001707 Si / 1000 Ang^3
#
#
#
# Elastic Constant Matrix: (Units=GPa)
#
#
# Indices 1 2 3 4 5 6 
#
# 1 81.7263 63.1937 45.0594 0.0000 0.0000 0.0000
# 2 63.1937 139.5666 51.2598 0.0000 0.0000 0.0000
# 3 45.0594 51.2598 80.9552 0.0000 0.0000 0.0000
# 4 0.0000 0.0000 0.0000 35.2885 0.0000 0.0000
# 5 0.0000 0.0000 0.0000 0.0000 20.8030 0.0000
# 6 0.0000 0.0000 0.0000 0.0000 0.0000 0.4036
#
#
#
# Elastic Compliance Matrix: (Units=1/GPa)
#
#
# Indices 1 2 3 4 5 6 
#
# 1 0.022012 -0.007124 -0.007741 0.000000 0.000000 0.000000
# 2 -0.007124 0.011642 -0.003406 0.000000 0.000000 0.000000
# 3 -0.007741 -0.003406 0.018818 0.000000 0.000000 0.000000
# 4 0.000000 0.000000 0.000000 0.028338 0.000000 0.000000
# 5 0.000000 0.000000 0.000000 0.000000 0.048070 0.000000
# 6 0.000000 0.000000 0.000000 0.000000 0.000000 2.477679
#
#
# Mechanical properties :
#
#
# Convention : Reuss Voigt Hill
#
# Bulk Modulus (GPa) = 62.77689 69.03043 65.90366
# Shear Modulus (GPa) = 1.88792 20.81471 11.35132
#
# Velocity S-wave (km/s) = 1.02519 3.40408 2.51384
# Velocity P-wave (km/s) = 6.02908 7.34031 6.71677
#
# Compressibility (1/GPa) = 0.01592943
#
# Stress axis : x y z
#
# Youngs Moduli (GPa) = 45.42883 85.89908 53.13996
#
# Poissons Ratio (x) = 0.61191 0.41138
# Poissons Ratio (y) = 0.32362 0.18101
# Poissons Ratio (z) = 0.35169 0.29260
#
# Static dielectric constant tensor:
#      x y z
#    x 1.596640 0.000000 0.000000 
#    y 0.000000 1.602340 0.000000 
#    z 0.000000 0.000000 1.600550 
# 
# From -- ./inp_files/3689.got.cif
#   From: 2010.05.17/outbox.cif.g08.bks.cpg/sg49_2_cif.got.tgz:3689.got - 2010.06.03 21:02:19.
