data_PCOD9393778
_publ_section_title
;
Structure prediction by ZEFSAII (Michael W. Deem and Ramdas Pophale) SiO2 
 PCOD9393778
Probable space group: P C C M
;
_chemical_formula_sum "Si O2"
_cell_formula_units_Z 52
_cell_length_a 17.855355
_cell_length_b 16.684020
_cell_length_c 9.858952
_cell_angle_alpha 90.000000
_cell_angle_beta 90.000000
_cell_angle_gamma 90.000000
_cell_volume 2936.972927
_symmetry_space_group_name_H-M "P C C M"
_symmetry_group_IT_number 49
_symmetry_cell_setting 'orthorhombic'
loop_
_space_group_symop_operation_xyz
x,y,z
-x,-y,z
x,-y,1/2-z
-x,y,1/2-z
-x,-y,-z
x,y,-z
-x,y,1/2+z
x,-y,1/2+z
loop_
_atom_site_type_symbol
_atom_site_label
_atom_site_fract_x
_atom_site_fract_y
_atom_site_fract_z
Si Si1 0.696071 0.000000 0.250000
Si Si2 0.635591 0.246806 0.339821
Si Si3 0.335000 0.426062 0.159099
Si Si4 0.213120 0.154930 0.841166
Si Si5 0.156063 0.574415 0.341154
Si Si6 0.924724 0.255752 0.335937
Si Si7 0.567573 0.109606 0.844984
O O1 0.750046 0.928528 0.202840
O O2 0.636661 0.953194 0.345468
O O3 0.617197 0.230958 0.500000
O O4 0.626880 0.340701 0.312125
O O5 0.722667 0.222044 0.323715
O O6 0.593867 0.189870 0.233814
O O7 0.360808 0.500000 0.250000
O O8 0.245420 0.415269 0.181832
O O9 0.345080 0.443794 0.000000
O O10 0.135115 0.188750 0.786186
O O11 0.200341 0.146969 0.000000
O O12 0.130261 0.500000 0.250000
O O13 0.146087 0.555240 0.500000
O O14 0.113423 0.657255 0.313675
O O15 0.936760 0.248316 0.500000
O O16 0.000000 0.249867 0.250000
O O17 0.500000 0.081452 0.750000
O O18 0.544310 0.123355 0.000000
#
# Coordination Sequence:
#
# PCOD9393778 Si02
#       7
#     4   8   8   8   8   8   8
#     4  10  21  36  61  84 106 134 172 218 263 312
#     4   9  17  33  56  78 105 145 183 218 264 315
#     4   9  16  28  49  77 106 139 180 223 268 313
#     4   9  17  34  56  75 100 137 177 217 266 322
#     4   9  17  30  49  73 103 138 178 220 267 317
#     4  10  20  35  53  73 102 142 182 221 268 320
#     4  11  23  37  56  86 117 143 172 208 257 317
#
# _framework density 17.705304000000002
#
# number of rings (size 3 to 8) (size 9 to 14) (size 15 to 20)
#    0.000    2.462    1.538    1.154    0.000    4.000 
#    0.000    5.769    0.000    2.308    0.000    3.231 
#    0.000    0.000    0.000    0.000    0.000    0.000 
#
# Total GULP energy -289568.900559 kJ/mol
# GULP energy per Si atom -5568.632703 kJ/mol
# Density = 1.766501 g / cm^3
# Si number density = 17.705304 Si / 1000 Ang^3
#
#
#
# Elastic Constant Matrix: (Units=GPa)
#
#
# Indices 1 2 3 4 5 6 
#
# 1 64.1113 43.8924 43.6227 0.0000 0.0000 0.0000
# 2 43.8924 136.3075 59.9858 0.0000 0.0000 0.0000
# 3 43.6227 59.9858 81.6226 0.0000 0.0000 0.0000
# 4 0.0000 0.0000 0.0000 -23.7720 0.0000 0.0000
# 5 0.0000 0.0000 0.0000 0.0000 22.8639 0.0000
# 6 0.0000 0.0000 0.0000 0.0000 0.0000 -18.8078
#
#
#
# Elastic Compliance Matrix: (Units=1/GPa)
#
#
# Indices 1 2 3 4 5 6 
#
# 1 0.025459 -0.003267 -0.011206 0.000000 0.000000 0.000000
# 2 -0.003267 0.011262 -0.006531 0.000000 0.000000 0.000000
# 3 -0.011206 -0.006531 0.023040 0.000000 0.000000 0.000000
# 4 0.000000 0.000000 0.000000 -0.042066 0.000000 0.000000
# 5 0.000000 0.000000 0.000000 0.000000 0.043737 0.000000
# 6 0.000000 0.000000 0.000000 0.000000 0.000000 -0.053169
#
#
# Mechanical properties :
#
#
# Convention : Reuss Voigt Hill
#
# Bulk Modulus (GPa) = 56.32335 64.11593 60.21964
# Shear Modulus (GPa) = 88.98723 5.02618 47.00670
#
# Velocity S-wave (km/s) = 7.09713 1.68670 5.15821
# Velocity P-wave (km/s) = 9.95187 6.33125 8.34040
#
# Compressibility (1/GPa) = 0.01775463
#
# Stress axis : x y z
#
# Youngs Moduli (GPa) = 39.27904 88.79058 43.40254
#
# Poissons Ratio (x) = 0.29005 0.48635
# Poissons Ratio (y) = 0.12831 0.28347
# Poissons Ratio (z) = 0.44015 0.57990
#
# Static dielectric constant tensor:
#      x y z
#    x 1.632980 0.000000 0.000000 
#    y 0.000000 1.646230 0.000000 
#    z 0.000000 0.000000 1.591960 
# 
# From -- ./inp_files/5030.got.cif
#   From: 2010.05.17/outbox.cif.g08.bks.cpg/sg49_3_cif.got.tgz:5030.got - 2010.06.03 21:02:19.
