data_PCOD9393311
_publ_section_title
;
Structure prediction by ZEFSAII (Michael W. Deem and Ramdas Pophale) SiO2 
 PCOD9393311
Probable space group: P C C M
;
_chemical_formula_sum "Si O2"
_cell_formula_units_Z 64
_cell_length_a 9.523446
_cell_length_b 19.225037
_cell_length_c 15.394604
_cell_angle_alpha 90.000000
_cell_angle_beta 90.000000
_cell_angle_gamma 90.000000
_cell_volume 2818.576520
_symmetry_space_group_name_H-M "P C C M"
_symmetry_group_IT_number 49
_symmetry_cell_setting 'orthorhombic'
loop_
_space_group_symop_operation_xyz
x,y,z
-x,-y,z
x,-y,1/2-z
-x,y,1/2-z
-x,-y,-z
x,y,-z
-x,y,1/2+z
x,-y,1/2+z
loop_
_atom_site_type_symbol
_atom_site_label
_atom_site_fract_x
_atom_site_fract_y
_atom_site_fract_z
Si Si1 0.656059 0.360059 0.105171
Si Si2 0.955711 0.176121 0.845490
Si Si3 0.153776 0.521633 0.850231
Si Si4 0.646008 0.197846 0.894798
Si Si5 0.646181 0.597388 0.101539
Si Si6 0.884131 0.049793 0.597562
Si Si7 0.171338 0.275681 0.895513
Si Si8 0.644959 0.139631 0.393982
O O1 0.793947 0.399510 0.139352
O O2 0.636777 0.279316 0.129283
O O3 0.511871 0.397494 0.136315
O O4 0.666204 0.363408 0.000000
O O5 0.792091 0.171339 0.858826
O O6 0.000000 0.154362 0.750000
O O7 0.035560 0.123409 0.908331
O O8 0.019262 0.252878 0.861403
O O9 0.152893 0.500000 0.750000
O O10 0.276856 0.475770 0.892680
O O11 0.000000 0.500000 0.885808
O O12 0.513668 0.152399 0.865398
O O13 0.649566 0.195527 0.000000
O O14 0.754239 0.654876 0.138587
O O15 0.630191 0.615873 0.000000
O O16 0.857235 0.021472 0.500000
O O17 0.735081 0.073239 0.637290
O O18 0.000000 0.000000 0.640386
O O19 0.273319 0.211169 0.872354
O O20 0.160118 0.280115 0.000000
O O21 0.645422 0.135162 0.500000
#
# Coordination Sequence:
#
# PCOD9393311 Si02
#       8
#     8   8   8   8   8   8   8   8
#     4  10  21  38  61  87 109 141 192 247 304 363
#     4  11  23  35  51  82 122 158 192 234 285 349
#     4  11  26  42  53  74 114 154 190 239 297 367
#     4  10  19  35  59  87 118 149 190 250 304 349
#     4  10  20  37  62  84 103 135 189 246 297 352
#     4   9  18  36  62  87 114 154 200 238 278 338
#     4   9  17  34  57  80 105 142 187 235 290 347
#     4   8  14  30  57  86 115 143 182 237 290 338
#
# _framework density 22.706496999999999
#
# number of rings (size 3 to 8) (size 9 to 14) (size 15 to 20)
#    0.000    2.250    1.250    2.625    1.750    4.250 
#    0.000    3.125    0.000    3.000    0.000    3.500 
#    0.000    0.000    0.000    0.000    0.000    0.250 
#
# Total GULP energy -357179.792347 kJ/mol
# GULP energy per Si atom -5580.934255 kJ/mol
# Density = 2.265482 g / cm^3
# Si number density = 22.706497 Si / 1000 Ang^3
#
#
#
# Elastic Constant Matrix: (Units=GPa)
#
#
# Indices 1 2 3 4 5 6 
#
# 1 181.1810 47.4879 7.3499 0.0000 0.0000 0.0000
# 2 47.4879 53.7121 -1.6647 0.0000 0.0000 0.0000
# 3 7.3499 -1.6647 40.1163 0.0000 0.0000 0.0000
# 4 0.0000 0.0000 0.0000 -16.5164 0.0000 0.0000
# 5 0.0000 0.0000 0.0000 0.0000 92.1936 0.0000
# 6 0.0000 0.0000 0.0000 0.0000 0.0000 47.6254
#
#
#
# Elastic Compliance Matrix: (Units=1/GPa)
#
#
# Indices 1 2 3 4 5 6 
#
# 1 0.007286 -0.006491 -0.001604 0.000000 0.000000 0.000000
# 2 -0.006491 0.024425 0.002203 0.000000 0.000000 0.000000
# 3 -0.001604 0.002203 0.025313 0.000000 0.000000 0.000000
# 4 0.000000 0.000000 0.000000 -0.060546 0.000000 0.000000
# 5 0.000000 0.000000 0.000000 0.000000 0.010847 0.000000
# 6 0.000000 0.000000 0.000000 0.000000 0.000000 0.020997
#
#
# Mechanical properties :
#
#
# Convention : Reuss Voigt Hill
#
# Bulk Modulus (GPa) = 22.10506 42.37285 32.23896
# Shear Modulus (GPa) = 90.60188 39.44962 65.02575
#
# Velocity S-wave (km/s) = 6.32360 4.17270 5.35721
# Velocity P-wave (km/s) = 7.94188 6.47432 7.24536
#
# Compressibility (1/GPa) = 0.04523851
#
# Stress axis : x y z
#
# Youngs Moduli (GPa) = 137.25366 40.94157 39.50562
#
# Poissons Ratio (x) = 0.26576 0.06338
# Poissons Ratio (y) = 0.89094 -0.08703
# Poissons Ratio (z) = 0.22019 -0.09019
#
# Static dielectric constant tensor:
#      x y z
#    x 1.878010 0.000000 0.000000 
#    y 0.000000 1.864700 0.000000 
#    z 0.000000 0.000000 1.888560 
# 
# From -- ./inp_files/16589.got.cif
#   From: 2010.05.17/outbox.cif.g08.bks.cpg/sg49_9_cif.got.tgz:16589.got - 2010.06.03 21:02:19.
