data_PCOD9393552
_publ_section_title
;
Structure prediction by ZEFSAII (Michael W. Deem and Ramdas Pophale) SiO2 
 PCOD9393552
Probable space group: P C C M
;
_chemical_formula_sum "Si O2"
_cell_formula_units_Z 40
_cell_length_a 13.919199
_cell_length_b 18.997239
_cell_length_c 8.767143
_cell_angle_alpha 90.000000
_cell_angle_beta 90.000000
_cell_angle_gamma 90.000000
_cell_volume 2318.263624
_symmetry_space_group_name_H-M "P C C M"
_symmetry_group_IT_number 49
_symmetry_cell_setting 'orthorhombic'
loop_
_space_group_symop_operation_xyz
x,y,z
-x,-y,z
x,-y,1/2-z
-x,y,1/2-z
-x,-y,-z
x,y,-z
-x,y,1/2+z
x,-y,1/2+z
loop_
_atom_site_type_symbol
_atom_site_label
_atom_site_fract_x
_atom_site_fract_y
_atom_site_fract_z
Si Si1 0.289070 0.208673 0.317569
Si Si2 0.209734 0.574046 0.681886
Si Si3 0.604946 0.645355 0.317977
Si Si4 0.104783 0.718421 0.682921
Si Si5 0.606805 0.074819 0.317461
O O1 0.286938 0.199568 0.500000
O O2 0.359360 0.274940 0.283249
O O3 0.185082 0.231184 0.255619
O O4 0.327951 0.139032 0.237426
O O5 0.177634 0.500000 0.750000
O O6 0.216105 0.569246 0.500000
O O7 0.314013 0.594730 0.748262
O O8 0.139445 0.638851 0.720911
O O9 0.500000 0.633138 0.250000
O O10 0.603196 0.637027 0.500000
O O11 0.105087 0.725673 0.500000
O O12 0.000000 0.731446 0.750000
O O13 0.500000 0.086312 0.250000
O O14 0.601846 0.071303 0.500000
O O15 0.640524 0.000000 0.250000
#
# Coordination Sequence:
#
# PCOD9393552 Si02
#       5
#     8   8   8   8   8
#     4  10  20  35  55  79 107 139 175 218 263 310
#     4  10  21  36  53  74 102 133 170 214 262 313
#     4  10  20  33  51  74 102 136 174 213 256 307
#     4  10  21  37  57  80 104 134 172 217 265 315
#     4  11  21  34  53  80 114 149 183 217 256 304
#
# _framework density 17.254293000000001
#
# number of rings (size 3 to 8) (size 9 to 14) (size 15 to 20)
#    0.000    1.800    0.000    5.400    0.000    7.200 
#    0.000    4.000    0.000    0.600    0.000    4.200 
#    0.000    0.000    0.000    0.000    0.000    0.000 
#
# Total GULP energy -223495.292993 kJ/mol
# GULP energy per Si atom -5587.382325 kJ/mol
# Density = 1.721502 g / cm^3
# Si number density = 17.254293 Si / 1000 Ang^3
#
#
#
# Elastic Constant Matrix: (Units=GPa)
#
#
# Indices 1 2 3 4 5 6 
#
# 1 62.0563 22.7573 23.2268 0.0000 0.0000 0.0000
# 2 22.7573 107.2681 47.6844 0.0000 0.0000 0.0000
# 3 23.2268 47.6844 84.7212 0.0000 0.0000 0.0000
# 4 0.0000 0.0000 0.0000 31.3944 0.0000 0.0000
# 5 0.0000 0.0000 0.0000 0.0000 27.2043 0.0000
# 6 0.0000 0.0000 0.0000 0.0000 0.0000 9.0622
#
#
#
# Elastic Compliance Matrix: (Units=1/GPa)
#
#
# Indices 1 2 3 4 5 6 
#
# 1 0.018341 -0.002208 -0.003785 0.000000 0.000000 0.000000
# 2 -0.002208 0.012699 -0.006542 0.000000 0.000000 0.000000
# 3 -0.003785 -0.006542 0.016523 0.000000 0.000000 0.000000
# 4 0.000000 0.000000 0.000000 0.031853 0.000000 0.000000
# 5 0.000000 0.000000 0.000000 0.000000 0.036759 0.000000
# 6 0.000000 0.000000 0.000000 0.000000 0.000000 0.110349
#
#
# Mechanical properties :
#
#
# Convention : Reuss Voigt Hill
#
# Bulk Modulus (GPa) = 44.46059 49.04253 46.75156
# Shear Modulus (GPa) = 19.29808 24.22398 21.76103
#
# Velocity S-wave (km/s) = 3.34795 3.75098 3.55518
# Velocity P-wave (km/s) = 6.38505 6.87349 6.63377
#
# Compressibility (1/GPa) = 0.02249183
#
# Stress axis : x y z
#
# Youngs Moduli (GPa) = 54.52250 78.74531 60.52032
#
# Poissons Ratio (x) = 0.17390 0.22909
# Poissons Ratio (y) = 0.12041 0.39593
# Poissons Ratio (z) = 0.20639 0.51516
#
# Static dielectric constant tensor:
#      x y z
#    x 1.550970 0.000000 0.000000 
#    y 0.000000 1.580740 0.000000 
#    z 0.000000 0.000000 1.570390 
# 
# From -- ./inp_files/2662.got.cif
#   From: 2010.05.17/outbox.cif.g08.bks.cpg/sg49_2_cif.got.tgz:2662.got - 2010.06.03 21:02:19.
