data_PCOD9393127
_publ_section_title
;
Structure prediction by ZEFSAII (Michael W. Deem and Ramdas Pophale) SiO2 
 PCOD9393127
Probable space group: P C C M
;
_chemical_formula_sum "Si O2"
_cell_formula_units_Z 40
_cell_length_a 9.658985
_cell_length_b 12.071729
_cell_length_c 13.838826
_cell_angle_alpha 90.000000
_cell_angle_beta 90.000000
_cell_angle_gamma 90.000000
_cell_volume 1613.616098
_symmetry_space_group_name_H-M "P C C M"
_symmetry_group_IT_number 49
_symmetry_cell_setting 'orthorhombic'
loop_
_space_group_symop_operation_xyz
x,y,z
-x,-y,z
x,-y,1/2-z
-x,y,1/2-z
-x,-y,-z
x,y,-z
-x,y,1/2+z
x,-y,1/2+z
loop_
_atom_site_type_symbol
_atom_site_label
_atom_site_fract_x
_atom_site_fract_y
_atom_site_fract_z
Si Si1 0.851528 0.553216 0.117440
Si Si2 0.593352 0.159053 0.889543
Si Si3 0.294171 0.219158 0.889600
Si Si4 0.594295 0.592665 0.347092
Si Si5 0.847178 0.014198 0.110288
O O1 0.792367 0.675307 0.149845
O O2 0.739905 0.466936 0.155687
O O3 0.000000 0.500000 0.143458
O O4 0.850615 0.557222 0.000000
O O5 0.437657 0.169085 0.846791
O O6 0.626641 0.288953 0.891028
O O7 0.722807 0.089893 0.846575
O O8 0.578254 0.114971 0.000000
O O9 0.201582 0.111712 0.894049
O O10 0.333479 0.252571 0.000000
O O11 0.500000 0.500000 0.399209
O O12 0.500000 0.611500 0.250000
O O13 0.865083 0.058520 0.000000
O O14 0.000000 0.000000 0.151776
#
# Coordination Sequence:
#
# PCOD9393127 Si02
#       5
#     8   8   8   8   8
#     4  10  21  36  61  94 128 162 207 269 328 387
#     4  10  19  33  58  84 116 160 203 255 310 372
#     4   9  17  31  51  82 119 155 199 249 310 376
#     4  11  23  39  58  85 123 162 214 259 315 388
#     4   9  18  30  50  85 124 156 192 248 316 376
#
# _framework density 24.789045000000002
#
# number of rings (size 3 to 8) (size 9 to 14) (size 15 to 20)
#    0.000    2.200    2.000    1.200    2.800    3.200 
#    0.000    2.000    0.000    3.600    0.000    1.400 
#    0.000    0.000    0.000    0.000    0.000    0.200 
#
# Total GULP energy -222826.550325 kJ/mol
# GULP energy per Si atom -5570.663758 kJ/mol
# Density = 2.473262 g / cm^3
# Si number density = 24.789045 Si / 1000 Ang^3
#
#
#
# Elastic Constant Matrix: (Units=GPa)
#
#
# Indices 1 2 3 4 5 6 
#
# 1 283.7516 105.5773 29.5561 0.0000 0.0000 0.0000
# 2 105.5773 176.6116 14.1419 0.0000 0.0000 0.0000
# 3 29.5561 14.1419 89.9266 0.0000 0.0000 0.0000
# 4 0.0000 0.0000 0.0000 9.8621 0.0000 0.0000
# 5 0.0000 0.0000 0.0000 0.0000 2.4168 0.0000
# 6 0.0000 0.0000 0.0000 0.0000 0.0000 40.3038
#
#
#
# Elastic Compliance Matrix: (Units=1/GPa)
#
#
# Indices 1 2 3 4 5 6 
#
# 1 0.004638 -0.002684 -0.001102 0.000000 0.000000 0.000000
# 2 -0.002684 0.007288 -0.000264 0.000000 0.000000 0.000000
# 3 -0.001102 -0.000264 0.011524 0.000000 0.000000 0.000000
# 4 0.000000 0.000000 0.000000 0.101399 0.000000 0.000000
# 5 0.000000 0.000000 0.000000 0.000000 0.413773 0.000000
# 6 0.000000 0.000000 0.000000 0.000000 0.000000 0.024812
#
#
# Mechanical properties :
#
#
# Convention : Reuss Voigt Hill
#
# Bulk Modulus (GPa) = 65.15050 94.31560 79.73305
# Shear Modulus (GPa) = 8.67078 37.25083 22.96080
#
# Velocity S-wave (km/s) = 1.87228 3.88069 3.04673
# Velocity P-wave (km/s) = 5.56892 7.62952 6.67916
#
# Compressibility (1/GPa) = 0.01534908
#
# Stress axis : x y z
#
# Youngs Moduli (GPa) = 215.62310 137.21484 86.77600
#
# Poissons Ratio (x) = 0.36830 0.09564
# Poissons Ratio (y) = 0.57876 0.02290
# Poissons Ratio (z) = 0.23765 0.03621
#
# Static dielectric constant tensor:
#      x y z
#    x 2.063780 0.000000 0.000000 
#    y 0.000000 1.941070 0.000000 
#    z 0.000000 0.000000 2.142270 
# 
# From -- ./inp_files/19625.got.cif
#   From: 2010.05.17/outbox.cif.g08.bks.cpg/sg49_10_cif.got.tgz:19625.got - 2010.06.03 21:02:19.
