data_PCOD9393761
_publ_section_title
;
Structure prediction by ZEFSAII (Michael W. Deem and Ramdas Pophale) SiO2 
 PCOD9393761
Probable space group: P C C M
;
_chemical_formula_sum "Si O2"
_cell_formula_units_Z 40
_cell_length_a 23.778258
_cell_length_b 8.789331
_cell_length_c 10.046554
_cell_angle_alpha 90.000000
_cell_angle_beta 90.000000
_cell_angle_gamma 90.000000
_cell_volume 2099.679354
_symmetry_space_group_name_H-M "P C C M"
_symmetry_group_IT_number 49
_symmetry_cell_setting 'orthorhombic'
loop_
_space_group_symop_operation_xyz
x,y,z
-x,-y,z
x,-y,1/2-z
-x,y,1/2-z
-x,-y,-z
x,y,-z
-x,y,1/2+z
x,-y,1/2+z
loop_
_atom_site_type_symbol
_atom_site_label
_atom_site_fract_x
_atom_site_fract_y
_atom_site_fract_z
Si Si1 0.244839 0.814706 0.000000
Si Si2 0.434112 0.317524 0.751421
Si Si3 0.948995 0.340000 0.834898
Si Si4 0.365022 0.193624 0.000000
Si Si5 0.624622 0.169871 0.000000
Si Si6 0.768575 0.178502 0.500000
Si Si7 0.824776 0.683060 0.260670
O O1 0.310600 0.783853 0.000000
O O2 0.217135 0.739143 0.872889
O O3 0.233306 0.995392 0.000000
O O4 0.431250 0.500000 0.750000
O O5 0.500000 0.275281 0.750000
O O6 0.397594 0.261060 0.874738
O O7 0.406238 0.239253 0.625596
O O8 0.944922 0.500000 0.750000
O O9 0.887850 0.269930 0.806135
O O10 0.000000 0.262871 0.750000
O O11 0.957072 0.354211 0.000000
O O12 0.297740 0.226143 0.000000
O O13 0.374202 0.012387 0.000000
O O14 0.802550 0.242290 0.374163
O O15 0.823148 0.500000 0.250000
#
# Coordination Sequence:
#
# PCOD9393761 Si02
#       7
#     4   8   8   4   4   4   8
#     4  11  23  44  59  88 126 161 206 245 318 373
#     4  11  24  41  62  91 125 159 197 251 315 369
#     4  10  20  34  59  91 128 163 205 262 314 362
#     4  11  24  42  61  91 119 158 218 245 304 369
#     4  11  24  40  65  87 119 164 204 257 294 367
#     4  11  25  40  63  86 124 171 196 257 312 369
#     4  11  23  38  63  94 121 155 212 257 303 365
#
# _framework density 19.050528
#
# number of rings (size 3 to 8) (size 9 to 14) (size 15 to 20)
#    0.000    1.200    1.000    5.400    5.600   12.000 
#    0.000    0.000    0.000    3.600    0.000    0.000 
#    0.000    0.000    0.000    0.000    0.000    0.000 
#
# Total GULP energy -223121.092247 kJ/mol
# GULP energy per Si atom -5578.027306 kJ/mol
# Density = 1.900717 g / cm^3
# Si number density = 19.050528 Si / 1000 Ang^3
#
#
#
# Elastic Constant Matrix: (Units=GPa)
#
#
# Indices 1 2 3 4 5 6 
#
# 1 206.0700 67.0351 102.5045 0.0000 0.0000 0.0000
# 2 67.0351 46.2908 40.6627 0.0000 0.0000 0.0000
# 3 102.5045 40.6627 217.5571 0.0000 0.0000 0.0000
# 4 0.0000 0.0000 0.0000 33.0787 0.0000 0.0000
# 5 0.0000 0.0000 0.0000 0.0000 42.7794 0.0000
# 6 0.0000 0.0000 0.0000 0.0000 0.0000 13.1406
#
#
#
# Elastic Compliance Matrix: (Units=1/GPa)
#
#
# Indices 1 2 3 4 5 6 
#
# 1 0.010149 -0.012559 -0.002435 0.000000 0.000000 0.000000
# 2 -0.012559 0.041386 -0.001818 0.000000 0.000000 0.000000
# 3 -0.002435 -0.001818 0.006083 0.000000 0.000000 0.000000
# 4 0.000000 0.000000 0.000000 0.030231 0.000000 0.000000
# 5 0.000000 0.000000 0.000000 0.000000 0.023376 0.000000
# 6 0.000000 0.000000 0.000000 0.000000 0.000000 0.076100
#
#
# Mechanical properties :
#
#
# Convention : Reuss Voigt Hill
#
# Bulk Modulus (GPa) = 41.67370 98.92472 70.29921
# Shear Modulus (GPa) = 21.83912 35.11411 28.47662
#
# Velocity S-wave (km/s) = 3.38949 4.29792 3.87045
# Velocity P-wave (km/s) = 6.10255 8.75613 7.54688
#
# Compressibility (1/GPa) = 0.02399595
#
# Stress axis : x y z
#
# Youngs Moduli (GPa) = 98.53085 24.16260 164.38169
#
# Poissons Ratio (x) = 0.30345 0.40020
# Poissons Ratio (y) = 1.23741 0.29888
# Poissons Ratio (z) = 0.23988 0.04393
#
# Static dielectric constant tensor:
#      x y z
#    x 1.689900 0.000000 0.000000 
#    y 0.000000 1.648970 0.000000 
#    z 0.000000 0.000000 1.589860 
# 
# From -- ./inp_files/6260.got.cif
#   From: 2010.05.17/outbox.cif.g08.bks.cpg/sg49_4_cif.got.tgz:6260.got - 2010.06.03 21:02:19.
