data_PCOD9393525
_publ_section_title
;
Structure prediction by ZEFSAII (Michael W. Deem and Ramdas Pophale) SiO2 
 PCOD9393525
Probable space group: P C C M
;
_chemical_formula_sum "Si O2"
_cell_formula_units_Z 26
_cell_length_a 5.409542
_cell_length_b 7.412927
_cell_length_c 31.490028
_cell_angle_alpha 90.000000
_cell_angle_beta 90.000000
_cell_angle_gamma 90.000000
_cell_volume 1262.767126
_symmetry_space_group_name_H-M "P C C M"
_symmetry_group_IT_number 49
_symmetry_cell_setting 'orthorhombic'
loop_
_space_group_symop_operation_xyz
x,y,z
-x,-y,z
x,-y,1/2-z
-x,y,1/2-z
-x,-y,-z
x,y,-z
-x,y,1/2+z
x,-y,1/2+z
loop_
_atom_site_type_symbol
_atom_site_label
_atom_site_fract_x
_atom_site_fract_y
_atom_site_fract_z
Si Si1 0.738480 0.287654 0.863043
Si Si2 0.250167 0.880717 0.952732
Si Si3 0.763693 0.690628 0.172738
Si Si4 0.000000 0.500000 0.250000
O O1 0.729229 0.250631 0.912798
O O2 0.496497 0.219306 0.837888
O O3 0.749584 0.500924 0.853027
O O4 0.994096 0.210947 0.844530
O O5 0.500000 0.000000 0.951424
O O6 0.238239 0.796809 0.000000
O O7 0.000000 0.000000 0.948057
O O8 0.827264 0.624213 0.220214
#
# Coordination Sequence:
#
# PCOD9393525 Si02
#       4
#     8   8   8   2
#     4   9  17  31  45  71  99 120 157 195 237 283
#     4  10  20  33  50  69  93 130 171 203 230 275
#     4   9  18  29  50  73  97 123 149 193 242 287
#     4   8  16  30  48  78 100 118 156 186 236 300
#
# _framework density 20.589704000000001
#
# number of rings (size 3 to 8) (size 9 to 14) (size 15 to 20)
#    0.000    3.077    0.000    1.846    0.000    9.846 
#    0.000    6.154    0.000    0.000    0.000  112.000 
#    0.000    0.000    0.000    0.000    0.000    0.000 
#
# Total GULP energy -144800.739185 kJ/mol
# GULP energy per Si atom -5569.259199 kJ/mol
# Density = 2.054284 g / cm^3
# Si number density = 20.589704 Si / 1000 Ang^3
#
#
#
# Elastic Constant Matrix: (Units=GPa)
#
#
# Indices 1 2 3 4 5 6 
#
# 1 216.8919 12.1616 53.1167 0.0000 0.0000 0.0000
# 2 12.1616 47.9539 34.0127 0.0000 0.0000 0.0000
# 3 53.1167 34.0127 199.5916 0.0000 0.0000 0.0000
# 4 0.0000 0.0000 0.0000 -375.8186 0.0000 0.0000
# 5 0.0000 0.0000 0.0000 0.0000 90.7530 0.0000
# 6 0.0000 0.0000 0.0000 0.0000 0.0000 -2.0216
#
#
#
# Elastic Compliance Matrix: (Units=1/GPa)
#
#
# Indices 1 2 3 4 5 6 
#
# 1 0.004938 -0.000364 -0.001252 0.000000 0.000000 0.000000
# 2 -0.000364 0.023747 -0.003950 0.000000 0.000000 0.000000
# 3 -0.001252 -0.003950 0.006017 0.000000 0.000000 0.000000
# 4 0.000000 0.000000 0.000000 -0.002661 0.000000 0.000000
# 5 0.000000 0.000000 0.000000 0.000000 0.011019 0.000000
# 6 0.000000 0.000000 0.000000 0.000000 0.000000 -0.494649
#
#
# Mechanical properties :
#
#
# Convention : Reuss Voigt Hill
#
# Bulk Modulus (GPa) = 42.42809 73.66879 58.04844
# Shear Modulus (GPa) = -11.55799 -33.07436 -22.31617
#
# Velocity S-wave (km/s) = -2.37185 -4.01228 -3.29576
# Velocity P-wave (km/s) = 3.62634 3.79375 3.71099
#
# Compressibility (1/GPa) = 0.02356929
#
# Stress axis : x y z
#
# Youngs Moduli (GPa) = 202.52672 42.11004 166.20916
#
# Poissons Ratio (x) = 0.01534 0.20809
# Poissons Ratio (y) = 0.07377 0.65651
# Poissons Ratio (z) = 0.25356 0.16633
#
# Static dielectric constant tensor:
#      x y z
#    x 2.194570 0.000000 0.000000 
#    y 0.000000 1.654550 0.000000 
#    z 0.000000 0.000000 1.726550 
# 
# From -- ./inp_files/25397.got.cif
#   From: 2010.05.17/outbox.cif.g08.bks.cpg/sg49_13_cif.got.tgz:25397.got - 2010.06.03 21:02:19.
