data_PCOD9393867
_publ_section_title
;
Structure prediction by ZEFSAII (Michael W. Deem and Ramdas Pophale) SiO2 
 PCOD9393867
Probable space group: P C C M
;
_chemical_formula_sum "Si O2"
_cell_formula_units_Z 56
_cell_length_a 10.365338
_cell_length_b 15.841192
_cell_length_c 15.540001
_cell_angle_alpha 90.000000
_cell_angle_beta 90.000000
_cell_angle_gamma 90.000000
_cell_volume 2551.657432
_symmetry_space_group_name_H-M "P C C M"
_symmetry_group_IT_number 49
_symmetry_cell_setting 'orthorhombic'
loop_
_space_group_symop_operation_xyz
x,y,z
-x,-y,z
x,-y,1/2-z
-x,y,1/2-z
-x,-y,-z
x,y,-z
-x,y,1/2+z
x,-y,1/2+z
loop_
_atom_site_type_symbol
_atom_site_label
_atom_site_fract_x
_atom_site_fract_y
_atom_site_fract_z
Si Si1 0.886354 0.952368 0.157337
Si Si2 0.719200 0.308976 0.656768
Si Si3 0.526331 0.791866 0.401720
Si Si4 0.351439 0.504515 0.645194
Si Si5 0.639718 0.041426 0.904763
Si Si6 0.753924 0.326649 0.863635
Si Si7 0.983218 0.240628 0.650700
O O1 0.940192 0.857623 0.156943
O O2 0.879687 0.000000 0.250000
O O3 0.743554 0.972859 0.125119
O O4 0.000000 0.000000 0.106646
O O5 0.603499 0.242952 0.641052
O O6 0.690548 0.401719 0.622014
O O7 0.736063 0.315993 0.760185
O O8 0.853819 0.281673 0.615399
O O9 0.491895 0.816808 0.500000
O O10 0.606668 0.869666 0.358588
O O11 0.628517 0.716757 0.403063
O O12 0.500000 0.500000 0.616490
O O13 0.352524 0.500000 0.750000
O O14 0.260778 0.426510 0.616884
O O15 0.500000 0.000000 0.907351
O O16 0.686401 0.065693 0.000000
O O17 0.883498 0.275081 0.889627
O O18 0.000000 0.267594 0.750000
#
# Coordination Sequence:
#
# PCOD9393867 Si02
#       7
#     8   8   8   8   8   8   8
#     4  11  21  37  57  83 118 148 192 243 288 346
#     4  10  20  35  59  83 115 153 190 236 292 345
#     4  11  22  37  57  85 114 150 199 241 285 343
#     4   9  16  31  54  86 114 145 189 234 284 348
#     4  10  23  41  57  80 117 154 195 244 290 342
#     4  10  20  36  59  83 116 149 189 239 288 345
#     4  10  20  35  56  87 113 148 190 238 291 341
#
# _framework density 21.94652
#
# number of rings (size 3 to 8) (size 9 to 14) (size 15 to 20)
#    0.000    1.857    2.857    2.143    2.000    1.143 
#    2.571    5.714    0.000    0.000    0.000    2.000 
#    0.000    0.000    0.000    0.000    0.000    0.000 
#
# Total GULP energy -311832.437678 kJ/mol
# GULP energy per Si atom -5568.436387 kJ/mol
# Density = 2.189657 g / cm^3
# Si number density = 21.946520 Si / 1000 Ang^3
#
#
#
# Elastic Constant Matrix: (Units=GPa)
#
#
# Indices 1 2 3 4 5 6 
#
# 1 181.6598 64.3637 15.4883 0.0000 0.0000 0.0000
# 2 64.3637 134.4242 10.7524 0.0000 0.0000 0.0000
# 3 15.4883 10.7524 28.8716 0.0000 0.0000 0.0000
# 4 0.0000 0.0000 0.0000 6.4647 0.0000 0.0000
# 5 0.0000 0.0000 0.0000 0.0000 -18.4527 0.0000
# 6 0.0000 0.0000 0.0000 0.0000 0.0000 45.2334
#
#
#
# Elastic Compliance Matrix: (Units=1/GPa)
#
#
# Indices 1 2 3 4 5 6 
#
# 1 0.006802 -0.003056 -0.002511 0.000000 0.000000 0.000000
# 2 -0.003056 0.009040 -0.001728 0.000000 0.000000 0.000000
# 3 -0.002511 -0.001728 0.036626 0.000000 0.000000 0.000000
# 4 0.000000 0.000000 0.000000 0.154686 0.000000 0.000000
# 5 0.000000 0.000000 0.000000 0.000000 -0.054193 0.000000
# 6 0.000000 0.000000 0.000000 0.000000 0.000000 0.022108
#
#
# Mechanical properties :
#
#
# Convention : Reuss Voigt Hill
#
# Bulk Modulus (GPa) = 26.39897 58.46271 42.43084
# Shear Modulus (GPa) = 24.71773 23.60584 24.16178
#
# Velocity S-wave (km/s) = 3.35964 3.28320 3.32164
# Velocity P-wave (km/s) = 5.20619 6.40852 5.83839
#
# Compressibility (1/GPa) = 0.03788026
#
# Stress axis : x y z
#
# Youngs Moduli (GPa) = 147.02499 110.61359 27.30277
#
# Poissons Ratio (x) = 0.33802 0.06855
# Poissons Ratio (y) = 0.44928 0.04717
# Poissons Ratio (z) = 0.36913 0.19109
#
# Static dielectric constant tensor:
#      x y z
#    x 1.832490 0.000000 0.000000 
#    y 0.000000 1.922810 0.000000 
#    z 0.000000 0.000000 1.940400 
# 
# From -- ./inp_files/19905.got.cif
#   From: 2010.05.17/outbox.cif.g08.bks.cpg/sg49_10_cif.got.tgz:19905.got - 2010.06.03 21:02:19.
