data_PCOD9393012
_publ_section_title
;
Structure prediction by ZEFSAII (Michael W. Deem and Ramdas Pophale) SiO2 
 PCOD9393012
Probable space group: P C C M
;
_chemical_formula_sum "Si O2"
_cell_formula_units_Z 48
_cell_length_a 18.467667
_cell_length_b 14.088580
_cell_length_c 8.434244
_cell_angle_alpha 90.000000
_cell_angle_beta 90.000000
_cell_angle_gamma 90.000000
_cell_volume 2194.448627
_symmetry_space_group_name_H-M "P C C M"
_symmetry_group_IT_number 49
_symmetry_cell_setting 'orthorhombic'
loop_
_space_group_symop_operation_xyz
x,y,z
-x,-y,z
x,-y,1/2-z
-x,y,1/2-z
-x,-y,-z
x,y,-z
-x,y,1/2+z
x,-y,1/2+z
loop_
_atom_site_type_symbol
_atom_site_label
_atom_site_fract_x
_atom_site_fract_y
_atom_site_fract_z
Si Si1 0.576904 0.809175 0.191894
Si Si2 0.116154 0.097674 0.809185
Si Si3 0.729253 0.137251 0.320109
Si Si4 0.380422 0.597729 0.308095
Si Si5 0.924718 0.304552 0.813011
Si Si6 0.225086 0.641360 0.320718
O O1 0.500000 0.846093 0.250000
O O2 0.648844 0.864268 0.250833
O O3 0.584812 0.698039 0.241526
O O4 0.579671 0.810869 0.000000
O O5 0.198725 0.097587 0.740430
O O6 0.082570 0.197367 0.756012
O O7 0.081724 0.000000 0.750000
O O8 0.118355 0.098618 0.000000
O O9 0.724503 0.098716 0.500000
O O10 0.750505 0.248370 0.332746
O O11 0.414992 0.500000 0.250000
O O12 0.378066 0.598321 0.500000
O O13 0.297299 0.598314 0.245330
O O14 0.851957 0.360277 0.763866
O O15 0.000000 0.346273 0.750000
O O16 0.927846 0.297477 0.000000
O O17 0.215497 0.605051 0.500000
#
# Coordination Sequence:
#
# PCOD9393012 Si02
#       6
#     8   8   8   8   8   8
#     4   9  17  30  46  67  93 125 159 195 237 281
#     4  10  19  33  51  72  97 125 156 194 236 281
#     4   7  13  28  48  64  86 120 156 191 232 276
#     4   9  18  31  48  69  97 128 159 194 238 284
#     4  11  21  33  50  73  98 126 157 191 231 279
#     4   8  15  31  50  67  89 122 159 197 235 275
#
# _framework density 21.873374999999999
#
# number of rings (size 3 to 8) (size 9 to 14) (size 15 to 20)
#    0.000    3.000    0.000    5.000    0.000    2.000 
#    0.000   10.833    0.000    1.000    0.000    7.000 
#    0.000    0.000    0.000    0.000    0.000    0.000 
#
# Total GULP energy -267459.243948 kJ/mol
# GULP energy per Si atom -5572.067582 kJ/mol
# Density = 2.182359 g / cm^3
# Si number density = 21.873375 Si / 1000 Ang^3
#
#
#
# Elastic Constant Matrix: (Units=GPa)
#
#
# Indices 1 2 3 4 5 6 
#
# 1 171.9654 -8.6611 22.2835 0.0000 0.0000 0.0000
# 2 -8.6611 21.2093 -10.7957 0.0000 0.0000 0.0000
# 3 22.2835 -10.7957 49.8772 0.0000 0.0000 0.0000
# 4 0.0000 0.0000 0.0000 -29.2836 0.0000 0.0000
# 5 0.0000 0.0000 0.0000 0.0000 44.6111 0.0000
# 6 0.0000 0.0000 0.0000 0.0000 0.0000 2.3737
#
#
#
# Elastic Compliance Matrix: (Units=1/GPa)
#
#
# Indices 1 2 3 4 5 6 
#
# 1 0.006202 0.001261 -0.002498 0.000000 0.000000 0.000000
# 2 0.001261 0.053243 0.010961 0.000000 0.000000 0.000000
# 3 -0.002498 0.010961 0.023538 0.000000 0.000000 0.000000
# 4 0.000000 0.000000 0.000000 -0.034149 0.000000 0.000000
# 5 0.000000 0.000000 0.000000 0.000000 0.022416 0.000000
# 6 0.000000 0.000000 0.000000 0.000000 0.000000 0.421276
#
#
# Mechanical properties :
#
#
# Convention : Reuss Voigt Hill
#
# Bulk Modulus (GPa) = 9.76266 27.63395 18.69830
# Shear Modulus (GPa) = 9.85762 19.55527 14.70645
#
# Velocity S-wave (km/s) = 2.12520 2.99326 2.59577
# Velocity P-wave (km/s) = 3.23958 4.96056 4.18940
#
# Compressibility (1/GPa) = 0.10243112
#
# Stress axis : x y z
#
# Youngs Moduli (GPa) = 161.22936 18.78176 42.48515
#
# Poissons Ratio (x) = -0.02369 0.10613
# Poissons Ratio (y) = -0.20336 -0.46567
# Poissons Ratio (z) = 0.40275 -0.20586
#
# Static dielectric constant tensor:
#      x y z
#    x 1.859920 0.000000 0.000000 
#    y 0.000000 1.827360 0.000000 
#    z 0.000000 0.000000 1.769030 
# 
# From -- ./inp_files/4894.got.cif
#   From: 2010.05.17/outbox.cif.g08.bks.cpg/sg49_3_cif.got.tgz:4894.got - 2010.06.03 21:02:19.
