data_PCOD9393259
_publ_section_title
;
Structure prediction by ZEFSAII (Michael W. Deem and Ramdas Pophale) SiO2 
 PCOD9393259
Probable space group: P C C M
;
_chemical_formula_sum "Si O2"
_cell_formula_units_Z 48
_cell_length_a 14.792849
_cell_length_b 21.070311
_cell_length_c 8.657760
_cell_angle_alpha 90.000000
_cell_angle_beta 90.000000
_cell_angle_gamma 90.000000
_cell_volume 2698.536600
_symmetry_space_group_name_H-M "P C C M"
_symmetry_group_IT_number 49
_symmetry_cell_setting 'orthorhombic'
loop_
_space_group_symop_operation_xyz
x,y,z
-x,-y,z
x,-y,1/2-z
-x,y,1/2-z
-x,-y,-z
x,y,-z
-x,y,1/2+z
x,-y,1/2+z
loop_
_atom_site_type_symbol
_atom_site_label
_atom_site_fract_x
_atom_site_fract_y
_atom_site_fract_z
Si Si1 0.899216 0.308717 0.313595
Si Si2 0.788210 0.432678 0.313877
Si Si3 0.099388 0.069306 0.814743
Si Si4 0.404751 0.237827 0.316107
Si Si5 0.595656 0.619396 0.814527
Si Si6 0.222825 0.812066 0.313534
O O1 0.902652 0.309040 0.500000
O O2 0.849489 0.373403 0.262977
O O3 0.839198 0.248063 0.267690
O O4 0.000000 0.304478 0.250000
O O5 0.819249 0.500000 0.250000
O O6 0.789892 0.434109 0.500000
O O7 0.684372 0.419252 0.265904
O O8 0.170653 0.123587 0.771894
O O9 0.000000 0.085566 0.750000
O O10 0.123431 0.000000 0.750000
O O11 0.093784 0.066246 0.000000
O O12 0.500000 0.213528 0.250000
O O13 0.409641 0.242827 0.500000
O O14 0.392672 0.308535 0.245531
O O15 0.319949 0.196384 0.263377
O O16 0.500000 0.595257 0.750000
O O17 0.591736 0.620864 0.000000
O O18 0.233197 0.810042 0.500000
#
# Coordination Sequence:
#
# PCOD9393259 Si02
#       6
#     8   8   8   8   8   8
#     4  10  21  38  56  77 105 137 178 227 273 320
#     4  10  22  38  55  73 104 141 176 225 274 326
#     4  10  20  34  56  83 118 156 187 228 270 321
#     4  11  21  33  55  84 112 143 179 223 270 324
#     4  10  19  35  55  77 107 139 174 220 273 327
#     4  10  20  37  58  81 113 147 182 225 273 318
#
# _framework density 17.787419
#
# number of rings (size 3 to 8) (size 9 to 14) (size 15 to 20)
#    0.000    1.833    1.667    4.500    0.000    4.667 
#    0.000    3.333    0.000    0.500    0.000    3.500 
#    0.000    0.000    0.000    0.000    0.000    0.000 
#
# Total GULP energy -268101.138723 kJ/mol
# GULP energy per Si atom -5585.440390 kJ/mol
# Density = 1.774693 g / cm^3
# Si number density = 17.787419 Si / 1000 Ang^3
#
#
#
# Elastic Constant Matrix: (Units=GPa)
#
#
# Indices 1 2 3 4 5 6 
#
# 1 134.7908 70.5551 34.5846 0.0000 0.0000 0.0000
# 2 70.5551 100.4931 29.3968 0.0000 0.0000 0.0000
# 3 34.5846 29.3968 43.3604 0.0000 0.0000 0.0000
# 4 0.0000 0.0000 0.0000 23.5286 0.0000 0.0000
# 5 0.0000 0.0000 0.0000 0.0000 31.0425 0.0000
# 6 0.0000 0.0000 0.0000 0.0000 0.0000 19.8952
#
#
#
# Elastic Compliance Matrix: (Units=1/GPa)
#
#
# Indices 1 2 3 4 5 6 
#
# 1 0.012553 -0.007340 -0.005036 0.000000 0.000000 0.000000
# 2 -0.007340 0.016705 -0.005470 0.000000 0.000000 0.000000
# 3 -0.005036 -0.005470 0.030788 0.000000 0.000000 0.000000
# 4 0.000000 0.000000 0.000000 0.042502 0.000000 0.000000
# 5 0.000000 0.000000 0.000000 0.000000 0.032214 0.000000
# 6 0.000000 0.000000 0.000000 0.000000 0.000000 0.050263
#
#
# Mechanical properties :
#
#
# Convention : Reuss Voigt Hill
#
# Bulk Modulus (GPa) = 41.06388 60.85747 50.96067
# Shear Modulus (GPa) = 21.84965 24.50043 23.17504
#
# Velocity S-wave (km/s) = 3.50862 3.71536 3.61347
# Velocity P-wave (km/s) = 6.28887 7.25901 6.79129
#
# Compressibility (1/GPa) = 0.02435230
#
# Stress axis : x y z
#
# Youngs Moduli (GPa) = 79.66013 59.86313 32.47998
#
# Poissons Ratio (x) = 0.43942 0.16357
# Poissons Ratio (y) = 0.58473 0.17768
# Poissons Ratio (z) = 0.40118 0.32748
#
# Static dielectric constant tensor:
#      x y z
#    x 1.600260 0.000000 0.000000 
#    y 0.000000 1.593940 0.000000 
#    z 0.000000 0.000000 1.602140 
# 
# From -- ./inp_files/3747.got.cif
#   From: 2010.05.17/outbox.cif.g08.bks.cpg/sg49_2_cif.got.tgz:3747.got - 2010.06.03 21:02:19.
