data_PCOD9393611
_publ_section_title
;
Structure prediction by ZEFSAII (Michael W. Deem and Ramdas Pophale) SiO2 
 PCOD9393611
Probable space group: P C C M
;
_chemical_formula_sum "Si O2"
_cell_formula_units_Z 56
_cell_length_a 20.421412
_cell_length_b 15.922869
_cell_length_c 8.643939
_cell_angle_alpha 90.000000
_cell_angle_beta 90.000000
_cell_angle_gamma 90.000000
_cell_volume 2810.727759
_symmetry_space_group_name_H-M "P C C M"
_symmetry_group_IT_number 49
_symmetry_cell_setting 'orthorhombic'
loop_
_space_group_symop_operation_xyz
x,y,z
-x,-y,z
x,-y,1/2-z
-x,y,1/2-z
-x,-y,-z
x,y,-z
-x,y,1/2+z
x,-y,1/2+z
loop_
_atom_site_type_symbol
_atom_site_label
_atom_site_fract_x
_atom_site_fract_y
_atom_site_fract_z
Si Si1 0.683382 0.274779 0.186116
Si Si2 0.930658 0.386524 0.679811
Si Si3 0.313311 0.910597 0.323908
Si Si4 0.062621 0.793448 0.180796
Si Si5 0.427453 0.591113 0.185596
Si Si6 0.844123 0.086790 0.677010
Si Si7 0.212435 0.412123 0.315012
O O1 0.673399 0.180146 0.246846
O O2 0.622913 0.335496 0.228633
O O3 0.747777 0.328747 0.238241
O O4 0.687190 0.269426 0.000000
O O5 0.926775 0.408667 0.500000
O O6 0.933522 0.287005 0.708889
O O7 0.863493 0.410338 0.764449
O O8 0.000000 0.415503 0.750000
O O9 0.337049 0.908305 0.500000
O O10 0.234164 0.914306 0.324653
O O11 0.335295 0.000000 0.250000
O O12 0.128762 0.842873 0.209912
O O13 0.000000 0.842748 0.250000
O O14 0.055127 0.771998 0.000000
O O15 0.406941 0.500000 0.250000
O O16 0.500000 0.607899 0.250000
O O17 0.429775 0.585908 0.000000
O O18 0.866689 0.098791 0.500000
O O19 0.867602 0.000000 0.750000
O O20 0.240500 0.500000 0.250000
O O21 0.216118 0.414443 0.500000
#
# Coordination Sequence:
#
# PCOD9393611 Si02
#       7
#     8   8   8   8   8   8   8
#     4  10  22  38  59  87 122 158 196 240 291 344
#     4  11  22  38  57  77 102 138 184 233 284 343
#     4  10  21  36  58  84 113 148 189 235 286 340
#     4  11  21  34  51  71  95 127 168 219 276 338
#     4  10  20  36  59  90 126 166 204 243 285 338
#     4  10  20  34  50  72  99 131 171 219 276 340
#     4  11  23  39  58  84 116 151 190 239 292 347
#
# _framework density 19.923666000000001
#
# number of rings (size 3 to 8) (size 9 to 14) (size 15 to 20)
#    0.000    1.571    0.000    6.857    0.000    6.857 
#    0.000    2.857    0.000    0.429    0.000    3.000 
#    0.000    0.000    0.000    0.000    0.000    0.000 
#
# Total GULP energy -312465.681952 kJ/mol
# GULP energy per Si atom -5579.744321 kJ/mol
# Density = 1.987832 g / cm^3
# Si number density = 19.923666 Si / 1000 Ang^3
#
#
#
# Elastic Constant Matrix: (Units=GPa)
#
#
# Indices 1 2 3 4 5 6 
#
# 1 72.1964 51.1922 29.7142 0.0000 0.0000 0.0000
# 2 51.1922 157.4532 44.4807 0.0000 0.0000 0.0000
# 3 29.7142 44.4807 97.9273 0.0000 0.0000 0.0000
# 4 0.0000 0.0000 0.0000 32.1099 0.0000 0.0000
# 5 0.0000 0.0000 0.0000 0.0000 11.2014 0.0000
# 6 0.0000 0.0000 0.0000 0.0000 0.0000 11.5945
#
#
#
# Elastic Compliance Matrix: (Units=1/GPa)
#
#
# Indices 1 2 3 4 5 6 
#
# 1 0.018930 -0.005199 -0.003382 0.000000 0.000000 0.000000
# 2 -0.005199 0.008714 -0.002381 0.000000 0.000000 0.000000
# 3 -0.003382 -0.002381 0.012319 0.000000 0.000000 0.000000
# 4 0.000000 0.000000 0.000000 0.031143 0.000000 0.000000
# 5 0.000000 0.000000 0.000000 0.000000 0.089274 0.000000
# 6 0.000000 0.000000 0.000000 0.000000 0.000000 0.086248
#
#
# Mechanical properties :
#
#
# Convention : Reuss Voigt Hill
#
# Bulk Modulus (GPa) = 55.43517 64.26122 59.84820
# Shear Modulus (GPa) = 18.21064 24.46049 21.33556
#
# Velocity S-wave (km/s) = 3.02656 3.50767 3.27596
# Velocity P-wave (km/s) = 6.33226 6.98060 6.66432
#
# Compressibility (1/GPa) = 0.01803909
#
# Stress axis : x y z
#
# Youngs Moduli (GPa) = 52.82724 114.75889 81.17385
#
# Poissons Ratio (x) = 0.59663 0.27456
# Poissons Ratio (y) = 0.27465 0.19324
# Poissons Ratio (z) = 0.17868 0.27318
#
# Static dielectric constant tensor:
#      x y z
#    x 1.734620 0.000000 0.000000 
#    y 0.000000 1.750550 0.000000 
#    z 0.000000 0.000000 1.695710 
# 
# From -- ./inp_files/5783.got.cif
#   From: 2010.05.17/outbox.cif.g08.bks.cpg/sg49_3_cif.got.tgz:5783.got - 2010.06.03 21:02:19.
