data_PCOD9393994
_publ_section_title
;
Structure prediction by ZEFSAII (Michael W. Deem and Ramdas Pophale) SiO2 
 PCOD9393994
Probable space group: P C C M
;
_chemical_formula_sum "Si O2"
_cell_formula_units_Z 58
_cell_length_a 23.773533
_cell_length_b 15.262913
_cell_length_c 8.852641
_cell_angle_alpha 90.000000
_cell_angle_beta 90.000000
_cell_angle_gamma 90.000000
_cell_volume 3212.210584
_symmetry_space_group_name_H-M "P C C M"
_symmetry_group_IT_number 49
_symmetry_cell_setting 'orthorhombic'
loop_
_space_group_symop_operation_xyz
x,y,z
-x,-y,z
x,-y,1/2-z
-x,y,1/2-z
-x,-y,-z
x,y,-z
-x,y,1/2+z
x,-y,1/2+z
loop_
_atom_site_type_symbol
_atom_site_label
_atom_site_fract_x
_atom_site_fract_y
_atom_site_fract_z
Si Si1 0.399422 0.905520 0.319102
Si Si2 0.000000 0.000000 0.750000
Si Si3 0.227396 0.408824 0.319629
Si Si4 0.440823 0.272568 0.318806
Si Si5 0.054978 0.173393 0.330595
Si Si6 0.266143 0.906399 0.320980
Si Si7 0.350915 0.594607 0.681939
Si Si8 0.823258 0.776491 0.680810
O O1 0.408741 0.904068 0.500000
O O2 0.431063 0.826634 0.237594
O O3 0.332459 0.891752 0.290712
O O4 0.414478 0.000000 0.250000
O O5 0.959308 0.069176 0.832744
O O6 0.206300 0.500000 0.250000
O O7 0.236356 0.418439 0.500000
O O8 0.287351 0.390406 0.240265
O O9 0.187405 0.326115 0.293172
O O10 0.500000 0.303483 0.250000
O O11 0.440811 0.277044 0.500000
O O12 0.391428 0.331635 0.248975
O O13 0.056664 0.207179 0.500000
O O14 0.115674 0.192545 0.261118
O O15 0.000000 0.211830 0.250000
O O16 0.258950 0.910396 0.500000
O O17 0.226836 0.831639 0.253826
O O18 0.250699 0.000000 0.250000
O O19 0.367725 0.500000 0.750000
O O20 0.352538 0.593753 0.500000
O O21 0.821045 0.792116 0.500000
#
# Coordination Sequence:
#
# PCOD9393994 Si02
#       8
#     8   2   8   8   8   8   8   8
#     4  10  21  39  59  81 110 146 187 232 280 332
#     4   8  18  32  54  68 104 140 190 224 272 312
#     4  10  20  36  59  84 113 146 181 226 278 330
#     4  12  25  41  60  84 112 145 186 231 279 329
#     4   9  19  33  50  74 105 141 183 226 271 320
#     4  10  21  34  52  79 111 145 180 221 270 327
#     4  11  22  39  62  88 117 147 182 223 274 336
#     4  10  21  35  52  79 113 145 181 229 279 328
#
# _framework density 18.056100000000001
#
# number of rings (size 3 to 8) (size 9 to 14) (size 15 to 20)
#    0.414    1.379    0.000    5.586    0.966    6.069 
#    0.000    2.759    0.000    0.414    0.000    2.897 
#    0.000    0.000    0.000    0.000    0.000    0.000 
#
# Total GULP energy -323609.581526 kJ/mol
# GULP energy per Si atom -5579.475544 kJ/mol
# Density = 1.801500 g / cm^3
# Si number density = 18.056100 Si / 1000 Ang^3
#
#
#
# Elastic Constant Matrix: (Units=GPa)
#
#
# Indices 1 2 3 4 5 6 
#
# 1 43.9379 39.0554 32.4421 0.0000 0.0000 0.0000
# 2 39.0554 83.8352 35.0407 0.0000 0.0000 0.0000
# 3 32.4421 35.0407 99.3539 0.0000 0.0000 0.0000
# 4 0.0000 0.0000 0.0000 31.6873 0.0000 0.0000
# 5 0.0000 0.0000 0.0000 0.0000 42.3376 0.0000
# 6 0.0000 0.0000 0.0000 0.0000 0.0000 -8.4537
#
#
#
# Elastic Compliance Matrix: (Units=1/GPa)
#
#
# Indices 1 2 3 4 5 6 
#
# 1 0.044098 -0.017036 -0.008391 0.000000 0.000000 0.000000
# 2 -0.017036 0.020572 -0.001693 0.000000 0.000000 0.000000
# 3 -0.008391 -0.001693 0.013402 0.000000 0.000000 0.000000
# 4 0.000000 0.000000 0.000000 0.031558 0.000000 0.000000
# 5 0.000000 0.000000 0.000000 0.000000 0.023620 0.000000
# 6 0.000000 0.000000 0.000000 0.000000 0.000000 -0.118291
#
#
# Mechanical properties :
#
#
# Convention : Reuss Voigt Hill
#
# Bulk Modulus (GPa) = 41.95967 48.91149 45.43558
# Shear Modulus (GPa) = 64.81441 21.15349 42.98395
#
# Velocity S-wave (km/s) = 5.99784 3.42649 4.88441
# Velocity P-wave (km/s) = 8.44123 6.54232 7.55170
#
# Compressibility (1/GPa) = 0.02383241
#
# Stress axis : x y z
#
# Youngs Moduli (GPa) = 22.67669 48.60930 74.61639
#
# Poissons Ratio (x) = 0.82813 0.62610
# Poissons Ratio (y) = 0.38633 0.12630
# Poissons Ratio (z) = 0.19028 0.08228
#
# Static dielectric constant tensor:
#      x y z
#    x 1.627540 0.000000 0.000000 
#    y 0.000000 1.612220 0.000000 
#    z 0.000000 0.000000 1.613570 
# 
# From -- ./inp_files/6461.got.cif
#   From: 2010.05.17/outbox.cif.g08.bks.cpg/sg49_4_cif.got.tgz:6461.got - 2010.06.03 21:02:19.
