data_PCOD9393030
_publ_section_title
;
Structure prediction by ZEFSAII (Michael W. Deem and Ramdas Pophale) SiO2 
 PCOD9393030
Probable space group: P C C M
;
_chemical_formula_sum "Si O2"
_cell_formula_units_Z 64
_cell_length_a 25.237442
_cell_length_b 15.284606
_cell_length_c 8.672241
_cell_angle_alpha 90.000000
_cell_angle_beta 90.000000
_cell_angle_gamma 90.000000
_cell_volume 3345.268032
_symmetry_space_group_name_H-M "P C C M"
_symmetry_group_IT_number 49
_symmetry_cell_setting 'orthorhombic'
loop_
_space_group_symop_operation_xyz
x,y,z
-x,-y,z
x,-y,1/2-z
-x,y,1/2-z
-x,-y,-z
x,y,-z
-x,y,1/2+z
x,-y,1/2+z
loop_
_atom_site_type_symbol
_atom_site_label
_atom_site_fract_x
_atom_site_fract_y
_atom_site_fract_z
Si Si1 0.853175 0.779099 0.315643
Si Si2 0.665734 0.163900 0.818016
Si Si3 0.555743 0.214380 0.313854
Si Si4 0.767986 0.091425 0.317349
Si Si5 0.058983 0.905641 0.684239
Si Si6 0.582601 0.409505 0.320870
Si Si7 0.189260 0.591355 0.184833
Si Si8 0.299975 0.652834 0.318898
O O1 0.857152 0.787003 0.500000
O O2 0.801043 0.830133 0.258185
O O3 0.902132 0.828965 0.238441
O O4 0.845650 0.676899 0.276817
O O5 0.606410 0.163352 0.751712
O O6 0.706876 0.102081 0.730550
O O7 0.687875 0.261002 0.780223
O O8 0.666569 0.147476 0.000000
O O9 0.500000 0.181343 0.250000
O O10 0.557543 0.213389 0.500000
O O11 0.562123 0.316162 0.258983
O O12 0.774248 0.093757 0.500000
O O13 0.788201 0.000000 0.250000
O O14 0.057484 0.910585 0.500000
O O15 0.000000 0.891378 0.750000
O O16 0.077106 0.000000 0.750000
O O17 0.563730 0.500000 0.250000
O O18 0.568753 0.410877 0.500000
O O19 0.646573 0.403930 0.307473
O O20 0.168026 0.500000 0.250000
O O21 0.247222 0.607184 0.258781
O O22 0.194577 0.586771 0.000000
O O23 0.293934 0.677231 0.500000
#
# Coordination Sequence:
#
# PCOD9393030 Si02
#       8
#     8   8   8   8   8   8   8   8
#     4  11  23  40  60  89 127 166 207 252 301 357
#     4  11  21  36  57  82 112 147 186 232 289 352
#     4  10  21  37  54  75 100 136 183 233 288 349
#     4  12  24  39  61  90 124 160 195 239 293 359
#     4  11  22  39  64  94 128 167 208 254 303 360
#     4   9  19  31  45  68  98 133 175 226 282 342
#     4  11  23  36  55  81 117 160 207 254 301 355
#     4  10  19  33  52  75 107 146 192 239 289 347
#
# _framework density 19.131501
#
# number of rings (size 3 to 8) (size 9 to 14) (size 15 to 20)
#    0.000    1.375    1.250    6.750    0.000    5.750 
#    0.000    1.250    0.000    0.750    0.000    5.250 
#    0.000    0.000    0.000    0.000    0.000    0.000 
#
# Total GULP energy -357699.171875 kJ/mol
# GULP energy per Si atom -5589.049561 kJ/mol
# Density = 1.908796 g / cm^3
# Si number density = 19.131501 Si / 1000 Ang^3
#
#
#
# Elastic Constant Matrix: (Units=GPa)
#
#
# Indices 1 2 3 4 5 6 
#
# 1 101.3107 39.6303 31.3567 0.0000 0.0000 0.0000
# 2 39.6303 88.1906 33.4511 0.0000 0.0000 0.0000
# 3 31.3567 33.4511 93.6204 0.0000 0.0000 0.0000
# 4 0.0000 0.0000 0.0000 21.8620 0.0000 0.0000
# 5 0.0000 0.0000 0.0000 0.0000 46.6899 0.0000
# 6 0.0000 0.0000 0.0000 0.0000 0.0000 -2.0864
#
#
#
# Elastic Compliance Matrix: (Units=1/GPa)
#
#
# Indices 1 2 3 4 5 6 
#
# 1 0.012467 -0.004649 -0.002515 0.000000 0.000000 0.000000
# 2 -0.004649 0.014850 -0.003749 0.000000 0.000000 0.000000
# 3 -0.002515 -0.003749 0.012863 0.000000 0.000000 0.000000
# 4 0.000000 0.000000 0.000000 0.045741 0.000000 0.000000
# 5 0.000000 0.000000 0.000000 0.000000 0.021418 0.000000
# 6 0.000000 0.000000 0.000000 0.000000 0.000000 -0.479303
#
#
# Mechanical properties :
#
#
# Convention : Reuss Voigt Hill
#
# Bulk Modulus (GPa) = 54.47850 54.66644 54.57247
# Shear Modulus (GPa) = -14.53407 25.20535 5.33564
#
# Velocity S-wave (km/s) = -2.75924 3.63365 1.67182
# Velocity P-wave (km/s) = 4.28794 6.80004 5.68450
#
# Compressibility (1/GPa) = 0.01835586
#
# Stress axis : x y z
#
# Youngs Moduli (GPa) = 80.20923 67.33985 77.74073
#
# Poissons Ratio (x) = 0.31304 0.19550
# Poissons Ratio (y) = 0.37286 0.29145
# Poissons Ratio (z) = 0.20171 0.25246
#
# Static dielectric constant tensor:
#      x y z
#    x 1.668460 0.000000 0.000000 
#    y 0.000000 1.676370 0.000000 
#    z 0.000000 0.000000 1.637130 
# 
# From -- ./inp_files/6490.got.cif
#   From: 2010.05.17/outbox.cif.g08.bks.cpg/sg49_4_cif.got.tgz:6490.got - 2010.06.03 21:02:19.
