data_PCOD9393633
_publ_section_title
;
Structure prediction by ZEFSAII (Michael W. Deem and Ramdas Pophale) SiO2 
 PCOD9393633
Probable space group: P C C M
;
_chemical_formula_sum "Si O2"
_cell_formula_units_Z 64
_cell_length_a 24.953351
_cell_length_b 15.558934
_cell_length_c 9.099380
_cell_angle_alpha 90.000000
_cell_angle_beta 90.000000
_cell_angle_gamma 90.000000
_cell_volume 3532.811912
_symmetry_space_group_name_H-M "P C C M"
_symmetry_group_IT_number 49
_symmetry_cell_setting 'orthorhombic'
loop_
_space_group_symop_operation_xyz
x,y,z
-x,-y,z
x,-y,1/2-z
-x,y,1/2-z
-x,-y,-z
x,y,-z
-x,y,1/2+z
x,-y,1/2+z
loop_
_atom_site_type_symbol
_atom_site_label
_atom_site_fract_x
_atom_site_fract_y
_atom_site_fract_z
Si Si1 0.442119 0.725037 0.176081
Si Si2 0.139905 0.085686 0.167629
Si Si3 0.056360 0.591576 0.176997
Si Si4 0.729390 0.086925 0.668451
Si Si5 0.350433 0.407002 0.322760
Si Si6 0.559260 0.084080 0.823590
Si Si7 0.859233 0.260257 0.175081
Si Si8 0.734616 0.736239 0.323616
O O1 0.500000 0.717175 0.250000
O O2 0.402561 0.648803 0.220431
O O3 0.418293 0.820543 0.207203
O O4 0.448858 0.721607 0.000000
O O5 0.205222 0.085229 0.169234
O O6 0.123091 0.173070 0.246286
O O7 0.122006 0.000000 0.250000
O O8 0.122314 0.084490 0.000000
O O9 0.069706 0.500000 0.250000
O O10 0.102245 0.660663 0.209428
O O11 0.000000 0.618352 0.250000
O O12 0.050786 0.583150 0.000000
O O13 0.711265 0.086801 0.500000
O O14 0.715211 0.175494 0.749275
O O15 0.712140 0.000000 0.750000
O O16 0.348996 0.500000 0.250000
O O17 0.350694 0.416080 0.500000
O O18 0.300328 0.346266 0.282091
O O19 0.500000 0.088118 0.750000
O O20 0.585327 0.000000 0.750000
O O21 0.555762 0.072718 0.000000
O O22 0.797106 0.277251 0.214655
O O23 0.860538 0.246164 0.000000
O O24 0.730410 0.747108 0.500000
#
# Coordination Sequence:
#
# PCOD9393633 Si02
#       8
#     8   8   8   8   8   8   8   8
#     4   9  19  35  54  76 101 130 165 204 246 294
#     4   9  16  26  44  71 102 135 170 208 248 292
#     4  10  20  34  52  74 101 131 166 209 256 304
#     4   9  16  27  46  73 103 135 170 206 245 292
#     4  10  22  39  56  74  99 131 166 209 260 306
#     4   9  15  25  44  70  99 127 155 188 230 281
#     4   9  18  32  51  75 101 133 171 207 247 298
#     4   9  18  34  53  73 102 136 168 206 251 298
#
# _framework density 18.115881000000002
#
# number of rings (size 3 to 8) (size 9 to 14) (size 15 to 20)
#    0.000    2.750    0.000    2.250    0.000    6.250 
#    0.000    1.875    0.000    1.875    0.000    2.625 
#    0.000    0.000    0.000    0.000    0.000    0.000 
#
# Total GULP energy -356882.410799 kJ/mol
# GULP energy per Si atom -5576.287669 kJ/mol
# Density = 1.807465 g / cm^3
# Si number density = 18.115881 Si / 1000 Ang^3
#
#
#
# Elastic Constant Matrix: (Units=GPa)
#
#
# Indices 1 2 3 4 5 6 
#
# 1 75.2636 83.0051 47.8696 0.0000 0.0000 0.0000
# 2 83.0051 200.2072 78.5714 0.0000 0.0000 0.0000
# 3 47.8696 78.5714 61.5049 0.0000 0.0000 0.0000
# 4 0.0000 0.0000 0.0000 38.7965 0.0000 0.0000
# 5 0.0000 0.0000 0.0000 0.0000 17.1737 0.0000
# 6 0.0000 0.0000 0.0000 0.0000 0.0000 154.8819
#
#
#
# Elastic Compliance Matrix: (Units=1/GPa)
#
#
# Indices 1 2 3 4 5 6 
#
# 1 0.030100 -0.006588 -0.015010 0.000000 0.000000 0.000000
# 2 -0.006588 0.011459 -0.009511 0.000000 0.000000 0.000000
# 3 -0.015010 -0.009511 0.040091 0.000000 0.000000 0.000000
# 4 0.000000 0.000000 0.000000 0.025776 0.000000 0.000000
# 5 0.000000 0.000000 0.000000 0.000000 0.058229 0.000000
# 6 0.000000 0.000000 0.000000 0.000000 0.000000 0.006457
#
#
# Mechanical properties :
#
#
# Convention : Reuss Voigt Hill
#
# Bulk Modulus (GPa) = 51.46382 83.98532 67.72457
# Shear Modulus (GPa) = 20.76368 50.67238 35.71803
#
# Velocity S-wave (km/s) = 3.38917 5.29452 4.44513
# Velocity P-wave (km/s) = 6.61703 9.15624 7.98817
#
# Compressibility (1/GPa) = 0.01943112
#
# Stress axis : x y z
#
# Youngs Moduli (GPa) = 33.22310 87.26888 24.94335
#
# Poissons Ratio (x) = 0.57497 0.37440
# Poissons Ratio (y) = 0.21889 0.23723
# Poissons Ratio (z) = 0.49868 0.82998
#
# Static dielectric constant tensor:
#      x y z
#    x 1.630900 0.000000 0.000000 
#    y 0.000000 1.611430 0.000000 
#    z 0.000000 0.000000 1.610600 
# 
# From -- ./inp_files/6540.got.cif
#   From: 2010.05.17/outbox.cif.g08.bks.cpg/sg49_4_cif.got.tgz:6540.got - 2010.06.03 21:02:19.
