data_PCOD9393164
_publ_section_title
;
Structure prediction by ZEFSAII (Michael W. Deem and Ramdas Pophale) SiO2 
 PCOD9393164
Probable space group: P C C M
;
_chemical_formula_sum "Si O2"
_cell_formula_units_Z 34
_cell_length_a 12.168592
_cell_length_b 13.838830
_cell_length_c 9.391242
_cell_angle_alpha 90.000000
_cell_angle_beta 90.000000
_cell_angle_gamma 90.000000
_cell_volume 1581.476476
_symmetry_space_group_name_H-M "P C C M"
_symmetry_group_IT_number 49
_symmetry_cell_setting 'orthorhombic'
loop_
_space_group_symop_operation_xyz
x,y,z
-x,-y,z
x,-y,1/2-z
-x,y,1/2-z
-x,-y,-z
x,y,-z
-x,y,1/2+z
x,-y,1/2+z
loop_
_atom_site_type_symbol
_atom_site_label
_atom_site_fract_x
_atom_site_fract_y
_atom_site_fract_z
Si Si1 0.109687 0.634402 0.165442
Si Si2 0.668204 0.591041 0.831340
Si Si3 0.391749 0.184929 0.167188
Si Si4 0.000000 0.000000 0.750000
Si Si5 0.181869 0.145207 0.655029
O O1 0.213305 0.600458 0.256548
O O2 0.124310 0.750408 0.163897
O O3 0.000000 0.609307 0.250000
O O4 0.110235 0.601691 0.000000
O O5 0.616001 0.500000 0.750000
O O6 0.616883 0.697898 0.813233
O O7 0.674735 0.571850 0.000000
O O8 0.500000 0.151192 0.250000
O O9 0.278504 0.141012 0.229019
O O10 0.400223 0.165625 0.000000
O O11 0.084729 0.068242 0.666966
O O12 0.236249 0.138075 0.500000
#
# Coordination Sequence:
#
# PCOD9393164 Si02
#       5
#     8   8   8   2   8
#     4  10  19  34  54  79 115 159 200 245 297 358
#     4  10  21  36  55  84 117 155 201 252 300 352
#     4  10  22  41  65  89 121 162 206 251 302 359
#     4  12  22  40  66 102 128 156 196 244 302 360
#     4  10  22  38  61  92 126 161 199 245 301 362
#
# _framework density 21.498895000000001
#
# number of rings (size 3 to 8) (size 9 to 14) (size 15 to 20)
#    0.000    1.882    1.176    2.471    0.000    6.588 
#    0.000    5.294    0.000    2.824    0.000    0.000 
#    0.000    0.000    0.000    0.000    0.000    0.000 
#
# Total GULP energy -189916.422617 kJ/mol
# GULP energy per Si atom -5585.777136 kJ/mol
# Density = 2.144996 g / cm^3
# Si number density = 21.498895 Si / 1000 Ang^3
#
#
#
# Elastic Constant Matrix: (Units=GPa)
#
#
# Indices 1 2 3 4 5 6 
#
# 1 150.2563 17.2045 87.3301 0.0000 0.0000 0.0000
# 2 17.2045 72.1000 21.9602 0.0000 0.0000 0.0000
# 3 87.3301 21.9602 157.8216 0.0000 0.0000 0.0000
# 4 0.0000 0.0000 0.0000 8.9829 0.0000 0.0000
# 5 0.0000 0.0000 0.0000 0.0000 25.1153 0.0000
# 6 0.0000 0.0000 0.0000 0.0000 0.0000 -87.4570
#
#
#
# Elastic Compliance Matrix: (Units=1/GPa)
#
#
# Indices 1 2 3 4 5 6 
#
# 1 0.009846 -0.000721 -0.005348 0.000000 0.000000 0.000000
# 2 -0.000721 0.014536 -0.001624 0.000000 0.000000 0.000000
# 3 -0.005348 -0.001624 0.009522 0.000000 0.000000 0.000000
# 4 0.000000 0.000000 0.000000 0.111323 0.000000 0.000000
# 5 0.000000 0.000000 0.000000 0.000000 0.039816 0.000000
# 6 0.000000 0.000000 0.000000 0.000000 0.000000 -0.011434
#
#
# Mechanical properties :
#
#
# Convention : Reuss Voigt Hill
#
# Bulk Modulus (GPa) = 53.99927 70.35194 62.17560
# Shear Modulus (GPa) = 25.61907 6.24045 15.92976
#
# Velocity S-wave (km/s) = 3.45577 1.70557 2.72501
# Velocity P-wave (km/s) = 6.41053 6.05584 6.23571
#
# Compressibility (1/GPa) = 0.01851877
#
# Stress axis : x y z
#
# Youngs Moduli (GPa) = 101.56266 68.79383 105.02475
#
# Poissons Ratio (x) = 0.04957 0.56168
# Poissons Ratio (y) = 0.07318 0.17055
# Poissons Ratio (z) = 0.54316 0.11172
#
# Static dielectric constant tensor:
#      x y z
#    x 1.738200 0.000000 0.000000 
#    y 0.000000 1.849100 0.000000 
#    z 0.000000 0.000000 1.707250 
# 
# From -- ./inp_files/2563.got.cif
#   From: 2010.05.17/outbox.cif.g08.bks.cpg/sg49_2_cif.got.tgz:2563.got - 2010.06.03 21:02:19.
