data_PCOD9393490
_publ_section_title
;
Structure prediction by ZEFSAII (Michael W. Deem and Ramdas Pophale) SiO2 
 PCOD9393490
Probable space group: P C C M
;
_chemical_formula_sum "Si O2"
_cell_formula_units_Z 64
_cell_length_a 15.588855
_cell_length_b 12.050383
_cell_length_c 14.535603
_cell_angle_alpha 90.000000
_cell_angle_beta 90.000000
_cell_angle_gamma 90.000000
_cell_volume 2730.537346
_symmetry_space_group_name_H-M "P C C M"
_symmetry_group_IT_number 49
_symmetry_cell_setting 'orthorhombic'
loop_
_space_group_symop_operation_xyz
x,y,z
-x,-y,z
x,-y,1/2-z
-x,y,1/2-z
-x,-y,-z
x,y,-z
-x,y,1/2+z
x,-y,1/2+z
loop_
_atom_site_type_symbol
_atom_site_label
_atom_site_fract_x
_atom_site_fract_y
_atom_site_fract_z
Si Si1 0.562519 0.333137 0.612385
Si Si2 0.089730 0.173621 0.852297
Si Si3 0.378153 0.430050 0.612546
Si Si4 0.572596 0.917020 0.893526
Si Si5 0.902492 0.155596 0.859406
Si Si6 0.236325 0.017774 0.860249
Si Si7 0.803042 0.623540 0.610638
Si Si8 0.082605 0.571967 0.611049
O O1 0.569364 0.332336 0.500000
O O2 0.465587 0.368255 0.637711
O O3 0.618343 0.440433 0.642223
O O4 0.580352 0.208240 0.646433
O O5 0.089045 0.130136 0.748321
O O6 0.087403 0.305898 0.849947
O O7 0.998649 0.139842 0.897052
O O8 0.179332 0.125294 0.887903
O O9 0.377194 0.431478 0.500000
O O10 0.293763 0.365452 0.644756
O O11 0.500000 0.000000 0.854602
O O12 0.666398 0.972391 0.892350
O O13 0.546847 0.899253 0.000000
O O14 0.824742 0.081300 0.895637
O O15 0.870404 0.281630 0.865102
O O16 0.243792 0.000000 0.750000
O O17 0.801211 0.625112 0.500000
O O18 0.837234 0.503092 0.637589
O O19 0.079645 0.584118 0.500000
O O20 0.000000 0.500000 0.637940
#
# Coordination Sequence:
#
# PCOD9393490 Si02
#       8
#     8   8   8   8   8   8   8   8
#     4   8  15  30  50  77 110 142 181 219 268 332
#     4  10  21  39  60  81 109 150 195 242 280 337
#     4   8  15  28  50  77 109 148 179 215 267 333
#     4  10  22  37  57  87 115 143 184 239 288 339
#     4  10  21  38  58  82 109 151 198 239 282 336
#     4  10  23  41  60  81 111 150 198 239 288 339
#     4  10  20  32  52  83 118 150 182 229 285 338
#     4  10  20  35  54  82 117 146 177 227 290 345
#
# _framework density 23.438611000000002
#
# number of rings (size 3 to 8) (size 9 to 14) (size 15 to 20)
#    0.000    2.500    1.250    1.125    3.500    3.250 
#    0.000    0.000    0.000    2.250    0.000    0.000 
#    0.000    0.000    0.000    0.000    0.000    0.000 
#
# Total GULP energy -357267.278199 kJ/mol
# GULP energy per Si atom -5582.301222 kJ/mol
# Density = 2.338526 g / cm^3
# Si number density = 23.438611 Si / 1000 Ang^3
#
#
#
# Elastic Constant Matrix: (Units=GPa)
#
#
# Indices 1 2 3 4 5 6 
#
# 1 151.2198 43.9308 -0.2395 0.0000 0.0000 0.0000
# 2 43.9308 135.3520 1.3667 0.0000 0.0000 0.0000
# 3 -0.2395 1.3667 65.5524 0.0000 0.0000 0.0000
# 4 0.0000 0.0000 0.0000 16.2279 0.0000 0.0000
# 5 0.0000 0.0000 0.0000 0.0000 21.6628 0.0000
# 6 0.0000 0.0000 0.0000 0.0000 0.0000 10.1351
#
#
#
# Elastic Compliance Matrix: (Units=1/GPa)
#
#
# Indices 1 2 3 4 5 6 
#
# 1 0.007302 -0.002371 0.000076 0.000000 0.000000 0.000000
# 2 -0.002371 0.008159 -0.000179 0.000000 0.000000 0.000000
# 3 0.000076 -0.000179 0.015259 0.000000 0.000000 0.000000
# 4 0.000000 0.000000 0.000000 0.061622 0.000000 0.000000
# 5 0.000000 0.000000 0.000000 0.000000 0.046162 0.000000
# 6 0.000000 0.000000 0.000000 0.000000 0.000000 0.098667
#
#
# Mechanical properties :
#
#
# Convention : Reuss Voigt Hill
#
# Bulk Modulus (GPa) = 38.79966 49.13779 43.96873
# Shear Modulus (GPa) = 19.94344 30.07624 25.00984
#
# Velocity S-wave (km/s) = 2.92015 3.58605 3.27010
# Velocity P-wave (km/s) = 5.28766 6.17708 5.74960
#
# Compressibility (1/GPa) = 0.02577342
#
# Stress axis : x y z
#
# Youngs Moduli (GPa) = 136.95415 122.55821 65.53515
#
# Poissons Ratio (x) = 0.29054 -0.00499
# Poissons Ratio (y) = 0.32467 0.01172
# Poissons Ratio (z) = -0.01042 0.02191
#
# Static dielectric constant tensor:
#      x y z
#    x 1.871780 0.000000 0.000000 
#    y 0.000000 1.875180 0.000000 
#    z 0.000000 0.000000 1.942220 
# 
# From -- ./inp_files/17953.got.cif
#   From: 2010.05.17/outbox.cif.g08.bks.cpg/sg49_9_cif.got.tgz:17953.got - 2010.06.03 21:02:19.
