data_PCOD9393206
_publ_section_title
;
Structure prediction by ZEFSAII (Michael W. Deem and Ramdas Pophale) SiO2 
 PCOD9393206
Probable space group: P C C M
;
_chemical_formula_sum "Si O2"
_cell_formula_units_Z 64
_cell_length_a 9.196563
_cell_length_b 21.461570
_cell_length_c 15.318470
_cell_angle_alpha 90.000000
_cell_angle_beta 90.000000
_cell_angle_gamma 90.000000
_cell_volume 3023.447486
_symmetry_space_group_name_H-M "P C C M"
_symmetry_group_IT_number 49
_symmetry_cell_setting 'orthorhombic'
loop_
_space_group_symop_operation_xyz
x,y,z
-x,-y,z
x,-y,1/2-z
-x,y,1/2-z
-x,-y,-z
x,y,-z
-x,y,1/2+z
x,-y,1/2+z
loop_
_atom_site_type_symbol
_atom_site_label
_atom_site_fract_x
_atom_site_fract_y
_atom_site_fract_z
Si Si1 0.810110 0.649853 0.399462
Si Si2 0.912533 0.159433 0.341518
Si Si3 0.584206 0.441892 0.099933
Si Si4 0.419436 0.324286 0.156885
Si Si5 0.364824 0.227761 0.398560
Si Si6 0.336097 0.109003 0.728277
Si Si7 0.113508 0.053769 0.401005
Si Si8 0.086219 0.300475 0.841302
O O1 0.763230 0.648502 0.500000
O O2 0.729732 0.589698 0.359387
O O3 0.746548 0.717095 0.370320
O O4 0.982072 0.654329 0.395397
O O5 0.758492 0.128987 0.313350
O O6 0.903439 0.229665 0.375683
O O7 0.000000 0.162283 0.250000
O O8 0.014211 0.115810 0.399339
O O9 0.500000 0.500000 0.141836
O O10 0.474681 0.383441 0.103032
O O11 0.618270 0.461187 0.000000
O O12 0.500000 0.327136 0.250000
O O13 0.479331 0.261237 0.112332
O O14 0.248484 0.324113 0.167561
O O15 0.339538 0.210590 0.500000
O O16 0.349252 0.170624 0.333012
O O17 0.500000 0.088704 0.750000
O O18 0.240988 0.061691 0.669613
O O19 0.166499 0.042630 0.500000
O O20 0.000000 0.000000 0.375824
O O21 0.000000 0.299123 0.750000
#
# Coordination Sequence:
#
# PCOD9393206 Si02
#       8
#     8   8   8   8   8   8   8   8
#     4   9  18  31  51  79 108 143 186 230 278 334
#     4   9  19  34  56  84 116 156 196 229 282 351
#     4   9  19  38  58  74 100 143 192 236 286 354
#     4  11  21  34  55  81 113 150 190 235 287 352
#     4  10  19  34  56  84 121 158 189 226 285 355
#     4  11  21  36  60  92 122 151 193 247 300 350
#     4  10  22  42  64  85 116 160 204 242 287 351
#     4  11  20  32  51  79 114 145 178 228 284 335
#
# _framework density 21.167888999999999
#
# number of rings (size 3 to 8) (size 9 to 14) (size 15 to 20)
#    0.000    2.000    0.000    7.125    0.000    5.000 
#    0.000    4.375    0.000    4.500    0.000    0.000 
#    0.000    0.000    0.000    0.000    0.000    0.000 
#
# Total GULP energy -357121.537615 kJ/mol
# GULP energy per Si atom -5580.024025 kJ/mol
# Density = 2.111971 g / cm^3
# Si number density = 21.167889 Si / 1000 Ang^3
#
#
#
# Elastic Constant Matrix: (Units=GPa)
#
#
# Indices 1 2 3 4 5 6 
#
# 1 182.0513 34.1143 21.5434 0.0000 0.0000 0.0000
# 2 34.1143 67.2976 12.0843 0.0000 0.0000 0.0000
# 3 21.5434 12.0843 55.0457 0.0000 0.0000 0.0000
# 4 0.0000 0.0000 0.0000 -28.3688 0.0000 0.0000
# 5 0.0000 0.0000 0.0000 0.0000 23.1560 0.0000
# 6 0.0000 0.0000 0.0000 0.0000 0.0000 17.2827
#
#
#
# Elastic Compliance Matrix: (Units=1/GPa)
#
#
# Indices 1 2 3 4 5 6 
#
# 1 0.006240 -0.002836 -0.001819 0.000000 0.000000 0.000000
# 2 -0.002836 0.016758 -0.002569 0.000000 0.000000 0.000000
# 3 -0.001819 -0.002569 0.019443 0.000000 0.000000 0.000000
# 4 0.000000 0.000000 0.000000 -0.035250 0.000000 0.000000
# 5 0.000000 0.000000 0.000000 0.000000 0.043185 0.000000
# 6 0.000000 0.000000 0.000000 0.000000 0.000000 0.057861
#
#
# Mechanical properties :
#
#
# Convention : Reuss Voigt Hill
#
# Bulk Modulus (GPa) = 35.72505 48.87539 42.30022
# Shear Modulus (GPa) = 37.87372 18.19082 28.03227
#
# Velocity S-wave (km/s) = 4.23449 2.93466 3.64302
# Velocity P-wave (km/s) = 6.38917 5.88409 6.14183
#
# Compressibility (1/GPa) = 0.02799157
#
# Stress axis : x y z
#
# Youngs Moduli (GPa) = 160.26274 59.67140 51.43308
#
# Poissons Ratio (x) = 0.16925 0.09358
# Poissons Ratio (y) = 0.45456 0.13213
# Poissons Ratio (z) = 0.29158 0.15329
#
# Static dielectric constant tensor:
#      x y z
#    x 1.805240 0.000000 0.000000 
#    y 0.000000 1.797680 0.000000 
#    z 0.000000 0.000000 1.833460 
# 
# From -- ./inp_files/16570.got.cif
#   From: 2010.05.17/outbox.cif.g08.bks.cpg/sg49_9_cif.got.tgz:16570.got - 2010.06.03 21:02:19.
