data_PCOD9393216
_publ_section_title
;
Structure prediction by ZEFSAII (Michael W. Deem and Ramdas Pophale) SiO2 
 PCOD9393216
Probable space group: P C C M
;
_chemical_formula_sum "Si O2"
_cell_formula_units_Z 50
_cell_length_a 8.285765
_cell_length_b 18.722075
_cell_length_c 14.557912
_cell_angle_alpha 90.000000
_cell_angle_beta 90.000000
_cell_angle_gamma 90.000000
_cell_volume 2258.321048
_symmetry_space_group_name_H-M "P C C M"
_symmetry_group_IT_number 49
_symmetry_cell_setting 'orthorhombic'
loop_
_space_group_symop_operation_xyz
x,y,z
-x,-y,z
x,-y,1/2-z
-x,y,1/2-z
-x,-y,-z
x,y,-z
-x,y,1/2+z
x,-y,1/2+z
loop_
_atom_site_type_symbol
_atom_site_label
_atom_site_fract_x
_atom_site_fract_y
_atom_site_fract_z
Si Si1 0.000000 0.500000 0.250000
Si Si2 0.852292 0.155843 0.609708
Si Si3 0.791127 0.848284 0.606770
Si Si4 0.266882 0.692835 0.611460
Si Si5 0.319285 0.005126 0.858790
Si Si6 0.384163 0.713856 0.888975
Si Si7 0.071819 0.383175 0.611084
O O1 0.096830 0.450190 0.321743
O O2 0.863848 0.163331 0.500000
O O3 0.755270 0.224826 0.640991
O O4 0.032616 0.162411 0.648285
O O5 0.770680 0.079163 0.623056
O O6 0.802118 0.828120 0.500000
O O7 0.763979 0.932577 0.609996
O O8 0.651955 0.795565 0.643270
O O9 0.264696 0.688552 0.500000
O O10 0.449563 0.676936 0.643873
O O11 0.105059 0.649310 0.636869
O O12 0.500000 0.000000 0.896595
O O13 0.328171 0.000000 0.750000
O O14 0.218268 0.671591 0.871333
O O15 0.404120 0.715478 0.000000
O O16 0.071601 0.398620 0.500000
#
# Coordination Sequence:
#
# PCOD9393216 Si02
#       7
#     2   8   8   8   8   8   8
#     4  12  26  44  70 102 128 172 202 232 314 374
#     4  10  19  34  57  84 111 147 203 259 303 356
#     4  10  19  34  57  84 111 147 203 259 303 356
#     4   9  17  34  63  92 119 158 203 250 306 358
#     4  11  24  37  46  70 114 161 206 252 307 363
#     4   9  17  34  63  92 119 158 203 250 306 358
#     4  10  21  43  67  95 132 162 203 253 296 368
#
# _framework density 22.140340999999999
#
# number of rings (size 3 to 8) (size 9 to 14) (size 15 to 20)
#    0.000    2.080    1.600    2.160    0.000    5.120 
#    2.880    2.400    0.000    3.840    0.000    0.000 
#    0.000    0.000    0.000    0.000    0.000    0.000 
#
# Total GULP energy -278812.708573 kJ/mol
# GULP energy per Si atom -5576.254171 kJ/mol
# Density = 2.208995 g / cm^3
# Si number density = 22.140341 Si / 1000 Ang^3
#
#
#
# Elastic Constant Matrix: (Units=GPa)
#
#
# Indices 1 2 3 4 5 6 
#
# 1 142.1592 31.9360 27.8371 0.0000 0.0000 0.0000
# 2 31.9360 85.3615 17.5987 0.0000 0.0000 0.0000
# 3 27.8371 17.5987 65.3149 0.0000 0.0000 0.0000
# 4 0.0000 0.0000 0.0000 41.6365 0.0000 0.0000
# 5 0.0000 0.0000 0.0000 0.0000 14.5183 0.0000
# 6 0.0000 0.0000 0.0000 0.0000 0.0000 6.4662
#
#
#
# Elastic Compliance Matrix: (Units=1/GPa)
#
#
# Indices 1 2 3 4 5 6 
#
# 1 0.008137 -0.002466 -0.002804 0.000000 0.000000 0.000000
# 2 -0.002466 0.013151 -0.002492 0.000000 0.000000 0.000000
# 3 -0.002804 -0.002492 0.017177 0.000000 0.000000 0.000000
# 4 0.000000 0.000000 0.000000 0.024017 0.000000 0.000000
# 5 0.000000 0.000000 0.000000 0.000000 0.068879 0.000000
# 6 0.000000 0.000000 0.000000 0.000000 0.000000 0.154649
#
#
# Mechanical properties :
#
#
# Convention : Reuss Voigt Hill
#
# Bulk Modulus (GPa) = 43.59013 49.73102 46.66058
# Shear Modulus (GPa) = 16.17165 26.88845 21.53005
#
# Velocity S-wave (km/s) = 2.70555 3.48868 3.12177
# Velocity P-wave (km/s) = 5.43055 6.22402 5.84077
#
# Compressibility (1/GPa) = 0.02294097
#
# Stress axis : x y z
#
# Youngs Moduli (GPa) = 122.88874 76.03701 58.21774
#
# Poissons Ratio (x) = 0.18754 0.16322
# Poissons Ratio (y) = 0.30310 0.14510
# Poissons Ratio (z) = 0.34453 0.18951
#
# Static dielectric constant tensor:
#      x y z
#    x 1.911910 0.000000 0.000000 
#    y 0.000000 1.869390 0.000000 
#    z 0.000000 0.000000 1.841520 
# 
# From -- ./inp_files/11867.got.cif
#   From: 2010.05.17/outbox.cif.g08.bks.cpg/sg49_6_cif.got.tgz:11867.got - 2010.06.03 21:02:19.
