data_PCOD9393032
_publ_section_title
;
Structure prediction by ZEFSAII (Michael W. Deem and Ramdas Pophale) SiO2 
 PCOD9393032
Probable space group: P C C M
;
_chemical_formula_sum "Si O2"
_cell_formula_units_Z 64
_cell_length_a 19.823125
_cell_length_b 19.823120
_cell_length_c 9.162946
_cell_angle_alpha 90.000000
_cell_angle_beta 90.000000
_cell_angle_gamma 90.000000
_cell_volume 3600.636309
_symmetry_space_group_name_H-M "P C C M"
_symmetry_group_IT_number 49
_symmetry_cell_setting 'orthorhombic'
loop_
_space_group_symop_operation_xyz
x,y,z
-x,-y,z
x,-y,1/2-z
-x,y,1/2-z
-x,-y,-z
x,y,-z
-x,y,1/2+z
x,-y,1/2+z
loop_
_atom_site_type_symbol
_atom_site_label
_atom_site_fract_x
_atom_site_fract_y
_atom_site_fract_z
Si Si1 0.904951 0.067653 0.664689
Si Si2 0.434703 0.242547 0.835472
Si Si3 0.724109 0.428870 0.321850
Si Si4 0.567653 0.595049 0.164688
Si Si5 0.304907 0.195094 0.665333
Si Si6 0.928870 0.775891 0.178150
Si Si7 0.257453 0.934703 0.664529
Si Si8 0.809183 0.309183 0.170181
O O1 0.932273 0.064153 0.500000
O O2 0.919040 0.144110 0.719698
O O3 0.823796 0.063167 0.658772
O O4 0.926517 0.000000 0.750000
O O5 0.500000 0.218199 0.750000
O O6 0.436834 0.323796 0.841230
O O7 0.368924 0.222692 0.749005
O O8 0.433028 0.216883 0.000000
O O9 0.744098 0.500000 0.250000
O O10 0.727630 0.428307 0.500000
O O11 0.644110 0.419040 0.280302
O O12 0.773193 0.371357 0.254936
O O13 0.500000 0.573483 0.250000
O O14 0.564154 0.567726 0.000000
O O15 0.322398 0.177602 0.500000
O O16 0.277309 0.131076 0.749005
O O17 0.248017 0.251982 0.664537
O O18 0.871357 0.726807 0.245064
O O19 0.000000 0.755901 0.250000
O O20 0.928308 0.772370 0.000000
O O21 0.283117 0.933028 0.500000
O O22 0.281802 0.000000 0.750000
O O23 0.826341 0.326341 0.000000
#
# Coordination Sequence:
#
# PCOD9393032 Si02
#       8
#     8   8   8   8   8   8   8   8
#     4   9  19  33  52  78 114 155 193 232 278 332
#     4  10  19  33  52  78 111 148 189 235 288 339
#     4  11  23  40  60  86 118 155 194 238 289 342
#     4   9  19  33  52  78 114 155 193 232 278 332
#     4  11  21  33  55  84 111 146 191 239 287 338
#     4  11  23  40  60  86 118 155 194 238 289 342
#     4  10  19  33  52  78 111 148 189 235 288 339
#     4  11  23  39  61  88 115 148 191 239 285 338
#
# _framework density 17.774636000000001
#
# number of rings (size 3 to 8) (size 9 to 14) (size 15 to 20)
#    0.000    1.750    2.500    2.250    0.000    4.500 
#    0.000    2.500    0.000    0.750    0.000    5.250 
#    0.000    0.000    0.000    0.000    0.000    0.000 
#
# Total GULP energy -356852.583642 kJ/mol
# GULP energy per Si atom -5575.821619 kJ/mol
# Density = 1.773418 g / cm^3
# Si number density = 17.774636 Si / 1000 Ang^3
#
#
#
# Elastic Constant Matrix: (Units=GPa)
#
#
# Indices 1 2 3 4 5 6 
#
# 1 107.7878 45.2189 60.1542 0.0000 0.0000 0.0000
# 2 45.2189 107.7889 60.1543 0.0000 0.0000 0.0000
# 3 60.1542 60.1543 138.4687 0.0000 0.0000 0.0000
# 4 0.0000 0.0000 0.0000 -0.9866 0.0000 0.0000
# 5 0.0000 0.0000 0.0000 0.0000 -0.9840 0.0000
# 6 0.0000 0.0000 0.0000 0.0000 0.0000 13.0965
#
#
#
# Elastic Compliance Matrix: (Units=1/GPa)
#
#
# Indices 1 2 3 4 5 6 
#
# 1 0.012954 -0.003028 -0.004312 0.000000 0.000000 0.000000
# 2 -0.003028 0.012954 -0.004312 0.000000 0.000000 0.000000
# 3 -0.004312 -0.004312 0.010969 0.000000 0.000000 0.000000
# 4 0.000000 0.000000 0.000000 -1.013604 0.000000 0.000000
# 5 0.000000 0.000000 0.000000 0.000000 -1.016218 0.000000
# 6 0.000000 0.000000 0.000000 0.000000 0.000000 0.076356
#
#
# Mechanical properties :
#
#
# Convention : Reuss Voigt Hill
#
# Bulk Modulus (GPa) = 73.67992 76.12224 74.90108
# Shear Modulus (GPa) = -2.64724 14.79304 6.07290
#
# Velocity S-wave (km/s) = -1.22171 2.88801 1.85041
# Velocity P-wave (km/s) = 6.28905 7.35120 6.84077
#
# Compressibility (1/GPa) = 0.01357222
#
# Stress axis : x y z
#
# Youngs Moduli (GPa) = 77.19409 77.19501 91.16983
#
# Poissons Ratio (x) = 0.23374 0.39315
# Poissons Ratio (y) = 0.23374 0.39314
# Poissons Ratio (z) = 0.33288 0.33288
#
# Static dielectric constant tensor:
#      x y z
#    x 1.598640 0.000000 0.000000 
#    y 0.000000 1.598640 0.000000 
#    z 0.000000 0.000000 1.627820 
# 
# From -- ./inp_files/5305.got.cif
#   From: 2010.05.17/outbox.cif.g08.bks.cpg/sg49_3_cif.got.tgz:5305.got - 2010.06.03 21:02:19.
