data_PCOD9393080
_publ_section_title
;
Structure prediction by ZEFSAII (Michael W. Deem and Ramdas Pophale) SiO2 
 PCOD9393080
Probable space group: P C C M
;
_chemical_formula_sum "Si O2"
_cell_formula_units_Z 48
_cell_length_a 29.335220
_cell_length_b 9.487499
_cell_length_c 9.631124
_cell_angle_alpha 90.000000
_cell_angle_beta 90.000000
_cell_angle_gamma 90.000000
_cell_volume 2680.513921
_symmetry_space_group_name_H-M "P C C M"
_symmetry_group_IT_number 49
_symmetry_cell_setting 'orthorhombic'
loop_
_space_group_symop_operation_xyz
x,y,z
-x,-y,z
x,-y,1/2-z
-x,y,1/2-z
-x,-y,-z
x,y,-z
-x,y,1/2+z
x,-y,1/2+z
loop_
_atom_site_type_symbol
_atom_site_label
_atom_site_fract_x
_atom_site_fract_y
_atom_site_fract_z
Si Si1 0.453475 0.137979 0.334140
Si Si2 0.629013 0.645237 0.665956
Si Si3 0.951055 0.332363 0.500000
Si Si4 0.054717 0.674900 0.000000
Si Si5 0.884056 0.330836 0.255580
Si Si6 0.801791 0.858582 0.837323
Si Si7 0.694254 0.146372 0.333957
O O1 0.500000 0.172276 0.250000
O O2 0.460877 0.109678 0.500000
O O3 0.417267 0.263166 0.325873
O O4 0.435750 0.000000 0.250000
O O5 0.623820 0.500000 0.750000
O O6 0.639490 0.626396 0.500000
O O7 0.666533 0.735986 0.749721
O O8 0.951402 0.504049 0.500000
O O9 0.919883 0.291157 0.373204
O O10 0.002448 0.275668 0.500000
O O11 0.086939 0.715497 0.875112
O O12 0.878062 0.500000 0.250000
O O13 0.835791 0.258869 0.279389
O O14 0.748294 0.821362 0.826484
O O15 0.809038 0.000000 0.750000
O O16 0.811625 0.881441 0.000000
O O17 0.682238 0.135746 0.500000
O O18 0.686830 0.000000 0.250000
#
# Coordination Sequence:
#
# PCOD9393080 Si02
#       7
#     8   8   4   4   8   8   8
#     4  10  21  37  60  88 119 157 204 247 290 341
#     4  11  24  40  59  88 122 158 195 241 298 350
#     4   9  16  32  51  75 111 141 177 229 270 325
#     4   9  18  28  51  83 105 139 183 221 276 325
#     4  10  19  33  54  81 109 139 180 229 276 328
#     4  10  22  39  58  81 111 147 184 226 278 335
#     4  10  21  39  62  85 110 148 195 240 286 346
#
# _framework density 17.907012000000002
#
# number of rings (size 3 to 8) (size 9 to 14) (size 15 to 20)
#    0.000    2.000    0.833    3.000    1.167    7.667 
#    0.000    1.667    0.000    3.000    0.000    0.000 
#    0.000    0.000    0.000    0.000    0.000    0.000 
#
# Total GULP energy -267404.760201 kJ/mol
# GULP energy per Si atom -5570.932504 kJ/mol
# Density = 1.786626 g / cm^3
# Si number density = 17.907012 Si / 1000 Ang^3
#
#
#
# Elastic Constant Matrix: (Units=GPa)
#
#
# Indices 1 2 3 4 5 6 
#
# 1 97.1264 70.8983 76.5320 0.0000 0.0000 0.0000
# 2 70.8983 95.4444 72.1612 0.0000 0.0000 0.0000
# 3 76.5320 72.1612 198.6422 0.0000 0.0000 0.0000
# 4 0.0000 0.0000 0.0000 28.3565 0.0000 0.0000
# 5 0.0000 0.0000 0.0000 0.0000 30.9272 0.0000
# 6 0.0000 0.0000 0.0000 0.0000 0.0000 32.5660
#
#
#
# Elastic Compliance Matrix: (Units=1/GPa)
#
#
# Indices 1 2 3 4 5 6 
#
# 1 0.024502 -0.015253 -0.003899 0.000000 0.000000 0.000000
# 2 -0.015253 0.023940 -0.002820 0.000000 0.000000 0.000000
# 3 -0.003899 -0.002820 0.007561 0.000000 0.000000 0.000000
# 4 0.000000 0.000000 0.000000 0.035265 0.000000 0.000000
# 5 0.000000 0.000000 0.000000 0.000000 0.032334 0.000000
# 6 0.000000 0.000000 0.000000 0.000000 0.000000 0.030707
#
#
# Mechanical properties :
#
#
# Convention : Reuss Voigt Hill
#
# Bulk Modulus (GPa) = 82.92853 92.26622 87.59737
# Shear Modulus (GPa) = 24.71917 29.81138 27.26527
#
# Velocity S-wave (km/s) = 3.71943 4.08461 3.90629
# Velocity P-wave (km/s) = 8.05337 8.59549 8.32884
#
# Compressibility (1/GPa) = 0.01205858
#
# Stress axis : x y z
#
# Youngs Moduli (GPa) = 40.81274 41.77194 132.25976
#
# Poissons Ratio (x) = 0.63714 0.51570
# Poissons Ratio (y) = 0.62251 0.37298
# Poissons Ratio (z) = 0.15914 0.11780
#
# Static dielectric constant tensor:
#      x y z
#    x 1.597350 0.000000 0.000000 
#    y 0.000000 1.600880 0.000000 
#    z 0.000000 0.000000 1.589010 
# 
# From -- ./inp_files/6916.got.cif
#   From: 2010.05.17/outbox.cif.g08.bks.cpg/sg49_4_cif.got.tgz:6916.got - 2010.06.03 21:02:19.
