data_PCOD9393097
_publ_section_title
;
Structure prediction by ZEFSAII (Michael W. Deem and Ramdas Pophale) SiO2 
 PCOD9393097
Probable space group: P C C M
;
_chemical_formula_sum "Si O2"
_cell_formula_units_Z 64
_cell_length_a 20.560994
_cell_length_b 18.428041
_cell_length_c 9.198666
_cell_angle_alpha 90.000000
_cell_angle_beta 90.000000
_cell_angle_gamma 90.000000
_cell_volume 3485.363881
_symmetry_space_group_name_H-M "P C C M"
_symmetry_group_IT_number 49
_symmetry_cell_setting 'orthorhombic'
loop_
_space_group_symop_operation_xyz
x,y,z
-x,-y,z
x,-y,1/2-z
-x,y,1/2-z
-x,-y,-z
x,y,-z
-x,y,1/2+z
x,-y,1/2+z
loop_
_atom_site_type_symbol
_atom_site_label
_atom_site_fract_x
_atom_site_fract_y
_atom_site_fract_z
Si Si1 0.361886 0.074279 0.674075
Si Si2 0.929736 0.645696 0.829088
Si Si3 0.892346 0.814767 0.157491
Si Si4 0.432060 0.227952 0.327452
Si Si5 0.067944 0.936584 0.166476
Si Si6 0.699011 0.298112 0.172725
Si Si7 0.803620 0.576459 0.325067
Si Si8 0.741398 0.845148 0.162350
O O1 0.361151 0.066286 0.500000
O O2 0.402803 0.147743 0.710699
O O3 0.290386 0.093791 0.736481
O O4 0.385014 0.000000 0.750000
O O5 0.907651 0.730199 0.829078
O O6 0.871344 0.604727 0.745430
O O7 0.000000 0.637772 0.750000
O O8 0.934052 0.623461 0.000000
O O9 0.911468 0.854973 0.304356
O O10 0.818252 0.840450 0.148194
O O11 0.922796 0.838194 0.000000
O O12 0.500000 0.239811 0.250000
O O13 0.442001 0.226728 0.500000
O O14 0.378287 0.290691 0.296951
O O15 0.000000 0.934653 0.250000
O O16 0.107275 0.000000 0.250000
O O17 0.064473 0.955018 0.000000
O O18 0.743477 0.368031 0.203492
O O19 0.725730 0.231872 0.265880
O O20 0.706350 0.282713 0.000000
O O21 0.788871 0.500000 0.250000
O O22 0.810728 0.570248 0.500000
O O23 0.713069 0.852536 0.000000
#
# Coordination Sequence:
#
# PCOD9393097 Si02
#       8
#     8   8   8   8   8   8   8   8
#     4  10  21  36  52  76 113 155 199 246 293 344
#     4  11  23  40  60  87 120 154 194 239 289 348
#     4  10  21  36  55  80 108 139 183 234 282 341
#     4   9  19  35  56  85 117 153 197 241 288 343
#     4  11  22  36  53  70  95 130 172 223 279 336
#     4   9  19  37  59  84 117 152 189 233 280 335
#     4  11  23  40  64  91 120 154 191 234 285 343
#     4  10  19  33  55  80 106 141 185 235 284 334
#
# _framework density 18.362501000000002
#
# number of rings (size 3 to 8) (size 9 to 14) (size 15 to 20)
#    0.000    1.875    1.250    4.125    0.000    7.000 
#    0.000    2.500    0.000    0.375    0.000    2.625 
#    0.000    0.000    0.000    0.000    0.000    0.000 
#
# Total GULP energy -356281.384375 kJ/mol
# GULP energy per Si atom -5566.896631 kJ/mol
# Density = 1.832071 g / cm^3
# Si number density = 18.362501 Si / 1000 Ang^3
#
#
#
# Elastic Constant Matrix: (Units=GPa)
#
#
# Indices 1 2 3 4 5 6 
#
# 1 97.5773 32.8635 45.5600 0.0000 0.0000 0.0000
# 2 32.8635 75.3413 51.8182 0.0000 0.0000 0.0000
# 3 45.5600 51.8182 107.1328 0.0000 0.0000 0.0000
# 4 0.0000 0.0000 0.0000 25.9802 0.0000 0.0000
# 5 0.0000 0.0000 0.0000 0.0000 30.7629 0.0000
# 6 0.0000 0.0000 0.0000 0.0000 0.0000 45.5519
#
#
#
# Elastic Compliance Matrix: (Units=1/GPa)
#
#
# Indices 1 2 3 4 5 6 
#
# 1 0.013180 -0.002838 -0.004232 0.000000 0.000000 0.000000
# 2 -0.002838 0.020501 -0.008709 0.000000 0.000000 0.000000
# 3 -0.004232 -0.008709 0.015346 0.000000 0.000000 0.000000
# 4 0.000000 0.000000 0.000000 0.038491 0.000000 0.000000
# 5 0.000000 0.000000 0.000000 0.000000 0.032507 0.000000
# 6 0.000000 0.000000 0.000000 0.000000 0.000000 0.021953
#
#
# Mechanical properties :
#
#
# Convention : Reuss Voigt Hill
#
# Bulk Modulus (GPa) = 57.24559 60.05940 58.65249
# Shear Modulus (GPa) = 27.87694 30.44629 29.16161
#
# Velocity S-wave (km/s) = 3.90056 4.07636 3.98943
# Velocity P-wave (km/s) = 7.17836 7.41176 7.29599
#
# Compressibility (1/GPa) = 0.01746860
#
# Stress axis : x y z
#
# Youngs Moduli (GPa) = 75.87061 48.77878 65.16201
#
# Poissons Ratio (x) = 0.13845 0.27579
# Poissons Ratio (y) = 0.21534 0.56748
# Poissons Ratio (z) = 0.32111 0.42480
#
# Static dielectric constant tensor:
#      x y z
#    x 1.724280 0.000000 0.000000 
#    y 0.000000 1.731090 0.000000 
#    z 0.000000 0.000000 1.707730 
# 
# From -- ./inp_files/5320.got.cif
#   From: 2010.05.17/outbox.cif.g08.bks.cpg/sg49_3_cif.got.tgz:5320.got - 2010.06.03 21:02:19.
