data_PCOD9393195
_publ_section_title
;
Structure prediction by ZEFSAII (Michael W. Deem and Ramdas Pophale) SiO2 
 PCOD9393195
Probable space group: P C C M
;
_chemical_formula_sum "Si O2"
_cell_formula_units_Z 64
_cell_length_a 22.445633
_cell_length_b 9.065283
_cell_length_c 17.009407
_cell_angle_alpha 90.000000
_cell_angle_beta 90.000000
_cell_angle_gamma 90.000000
_cell_volume 3461.006358
_symmetry_space_group_name_H-M "P C C M"
_symmetry_group_IT_number 49
_symmetry_cell_setting 'orthorhombic'
loop_
_space_group_symop_operation_xyz
x,y,z
-x,-y,z
x,-y,1/2-z
-x,y,1/2-z
-x,-y,-z
x,y,-z
-x,y,1/2+z
x,-y,1/2+z
loop_
_atom_site_type_symbol
_atom_site_label
_atom_site_fract_x
_atom_site_fract_y
_atom_site_fract_z
Si Si1 0.652872 0.598889 0.173423
Si Si2 0.002074 0.329534 0.595875
Si Si3 0.629689 0.307157 0.090129
Si Si4 0.880226 0.823590 0.093698
Si Si5 0.753219 0.816829 0.161987
Si Si6 0.429511 0.169430 0.262712
Si Si7 0.251719 0.157575 0.349598
Si Si8 0.878390 0.173917 0.093163
O O1 0.671649 0.500000 0.250000
O O2 0.627210 0.479054 0.113644
O O3 0.706928 0.691752 0.136712
O O4 0.605425 0.717894 0.205738
O O5 0.002794 0.317494 0.500000
O O6 0.941101 0.251704 0.621141
O O7 0.000000 0.500000 0.616929
O O8 0.063263 0.256138 0.624526
O O9 0.587693 0.218773 0.149753
O O10 0.696471 0.248798 0.108768
O O11 0.615063 0.283065 0.000000
O O12 0.820750 0.776957 0.139319
O O13 0.887023 0.999063 0.104065
O O14 0.872182 0.795081 0.000000
O O15 0.743311 0.828246 0.255700
O O16 0.742964 0.983020 0.129481
O O17 0.500000 0.179085 0.250000
O O18 0.410013 0.000000 0.250000
O O19 0.185623 0.211478 0.371204
O O20 0.874487 0.202670 0.000000
#
# Coordination Sequence:
#
# PCOD9393195 Si02
#       8
#     8   8   8   8   8   8   8   8
#     4  10  20  36  57  84 120 159 191 227 286 356
#     4   9  17  30  46  67  95 133 179 230 292 351
#     4  11  23  38  60  93 128 158 199 246 290 342
#     4   9  18  31  49  72  99 134 183 239 285 340
#     4  10  19  34  56  81 110 151 194 233 288 358
#     4  10  21  42  69  92 118 165 206 238 287 348
#     4  10  19  34  57  83 113 147 193 237 291 348
#     4   9  17  30  49  72 100 137 179 231 291 343
#
# _framework density 18.491731999999999
#
# number of rings (size 3 to 8) (size 9 to 14) (size 15 to 20)
#    0.000    2.250    2.500    1.500    0.000    5.750 
#    0.000    6.250    0.000    3.750    0.000    0.000 
#    0.000    0.000    0.000    0.000    0.000    0.000 
#
# Total GULP energy -357063.898605 kJ/mol
# GULP energy per Si atom -5579.123416 kJ/mol
# Density = 1.844964 g / cm^3
# Si number density = 18.491732 Si / 1000 Ang^3
#
#
#
# Elastic Constant Matrix: (Units=GPa)
#
#
# Indices 1 2 3 4 5 6 
#
# 1 104.8582 58.2812 37.1610 0.0000 0.0000 0.0000
# 2 58.2812 92.4617 37.8861 0.0000 0.0000 0.0000
# 3 37.1610 37.8861 58.3796 0.0000 0.0000 0.0000
# 4 0.0000 0.0000 0.0000 11.3101 0.0000 0.0000
# 5 0.0000 0.0000 0.0000 0.0000 19.4602 0.0000
# 6 0.0000 0.0000 0.0000 0.0000 0.0000 -13.5825
#
#
#
# Elastic Compliance Matrix: (Units=1/GPa)
#
#
# Indices 1 2 3 4 5 6 
#
# 1 0.015623 -0.007864 -0.004841 0.000000 0.000000 0.000000
# 2 -0.007864 0.018691 -0.007124 0.000000 0.000000 0.000000
# 3 -0.004841 -0.007124 0.024834 0.000000 0.000000 0.000000
# 4 0.000000 0.000000 0.000000 0.088417 0.000000 0.000000
# 5 0.000000 0.000000 0.000000 0.000000 0.051387 0.000000
# 6 0.000000 0.000000 0.000000 0.000000 0.000000 -0.073624
#
#
# Mechanical properties :
#
#
# Convention : Reuss Voigt Hill
#
# Bulk Modulus (GPa) = 51.30908 58.03957 54.67432
# Shear Modulus (GPa) = 29.15714 11.59564 20.37639
#
# Velocity S-wave (km/s) = 3.97516 2.50686 3.32312
# Velocity P-wave (km/s) = 6.99117 6.31142 6.65997
#
# Compressibility (1/GPa) = 0.01948973
#
# Stress axis : x y z
#
# Youngs Moduli (GPa) = 64.00664 53.50070 40.26687
#
# Poissons Ratio (x) = 0.42073 0.19495
# Poissons Ratio (y) = 0.50335 0.28687
# Poissons Ratio (z) = 0.30988 0.38115
#
# Static dielectric constant tensor:
#      x y z
#    x 1.632440 0.000000 0.000000 
#    y 0.000000 1.642860 0.000000 
#    z 0.000000 0.000000 1.643640 
# 
# From -- ./inp_files/21209.got.cif
#   From: 2010.05.17/outbox.cif.g08.bks.cpg/sg49_11_cif.got.tgz:21209.got - 2010.06.03 21:02:19.
