data_PCOD9393212
_publ_section_title
;
Structure prediction by ZEFSAII (Michael W. Deem and Ramdas Pophale) SiO2 
 PCOD9393212
Probable space group: P C C M
;
_chemical_formula_sum "Si O2"
_cell_formula_units_Z 64
_cell_length_a 7.700645
_cell_length_b 12.928683
_cell_length_c 30.102807
_cell_angle_alpha 90.000000
_cell_angle_beta 90.000000
_cell_angle_gamma 90.000000
_cell_volume 2997.011325
_symmetry_space_group_name_H-M "P C C M"
_symmetry_group_IT_number 49
_symmetry_cell_setting 'orthorhombic'
loop_
_space_group_symop_operation_xyz
x,y,z
-x,-y,z
x,-y,1/2-z
-x,y,1/2-z
-x,-y,-z
x,y,-z
-x,y,1/2+z
x,-y,1/2+z
loop_
_atom_site_type_symbol
_atom_site_label
_atom_site_fract_x
_atom_site_fract_y
_atom_site_fract_z
Si Si1 0.225702 0.598320 0.855455
Si Si2 0.703382 0.978943 0.356217
Si Si3 0.815793 0.370659 0.361545
Si Si4 0.273865 0.733237 0.451178
Si Si5 0.190835 0.817460 0.696677
Si Si6 0.292335 0.021073 0.951129
Si Si7 0.612413 0.606789 0.549108
Si Si8 0.224759 0.785254 0.796338
O O1 0.275733 0.478351 0.849990
O O2 0.276992 0.621475 0.906477
O O3 0.289250 0.677919 0.817907
O O4 0.017956 0.610390 0.851960
O O5 0.716665 0.875283 0.328741
O O6 0.500000 0.000000 0.361324
O O7 0.784034 0.073610 0.328073
O O8 0.778099 0.969193 0.406178
O O9 0.805570 0.336011 0.412584
O O10 0.740981 0.274948 0.334095
O O11 0.202437 0.707801 0.500000
O O12 0.261401 0.856034 0.444578
O O13 0.475513 0.700531 0.451367
O O14 0.273145 0.809285 0.745505
O O15 0.985647 0.794491 0.702038
O O16 0.500000 0.000000 0.953074
O O17 0.223147 0.990337 0.000000
O O18 0.500000 0.500000 0.552701
O O19 0.698638 0.603183 0.500000
#
# Coordination Sequence:
#
# PCOD9393212 Si02
#       8
#     8   8   8   8   8   8   8   8
#     4  10  22  36  56  83 117 146 188 238 284 332
#     4  11  22  36  61  89 115 145 186 236 285 332
#     4  10  20  37  57  84 111 149 190 237 286 330
#     4  10  19  34  57  81 111 150 192 228 275 340
#     4  10  21  41  61  80 111 149 194 235 282 342
#     4   9  19  34  54  83 113 147 186 224 273 337
#     4  10  20  34  54  81 111 149 188 225 271 336
#     4  10  23  39  59  84 111 151 189 233 288 342
#
# _framework density 21.354607000000001
#
# number of rings (size 3 to 8) (size 9 to 14) (size 15 to 20)
#    0.000    2.000    2.500    0.750    3.500    3.000 
#    0.000    3.750    0.000    2.250    0.000    0.000 
#    0.000    0.000    0.000    0.000    0.000    0.000 
#
# Total GULP energy -357048.902122 kJ/mol
# GULP energy per Si atom -5578.889096 kJ/mol
# Density = 2.130600 g / cm^3
# Si number density = 21.354607 Si / 1000 Ang^3
#
#
#
# Elastic Constant Matrix: (Units=GPa)
#
#
# Indices 1 2 3 4 5 6 
#
# 1 15.9964 -17.5944 -9.1638 0.0000 0.0000 0.0000
# 2 -17.5944 71.9870 40.1118 0.0000 0.0000 0.0000
# 3 -9.1638 40.1118 156.2921 0.0000 0.0000 0.0000
# 4 0.0000 0.0000 0.0000 19.0793 0.0000 0.0000
# 5 0.0000 0.0000 0.0000 0.0000 15.9841 0.0000
# 6 0.0000 0.0000 0.0000 0.0000 0.0000 14.9003
#
#
#
# Elastic Compliance Matrix: (Units=1/GPa)
#
#
# Indices 1 2 3 4 5 6 
#
# 1 0.085521 0.021130 -0.000409 0.000000 0.000000 0.000000
# 2 0.021130 0.021430 -0.004261 0.000000 0.000000 0.000000
# 3 -0.000409 -0.004261 0.007468 0.000000 0.000000 0.000000
# 4 0.000000 0.000000 0.000000 0.052413 0.000000 0.000000
# 5 0.000000 0.000000 0.000000 0.000000 0.062562 0.000000
# 6 0.000000 0.000000 0.000000 0.000000 0.000000 0.067113
#
#
# Mechanical properties :
#
#
# Convention : Reuss Voigt Hill
#
# Bulk Modulus (GPa) = 6.78705 30.10919 18.44812
# Shear Modulus (GPa) = 15.98980 25.38752 20.68866
#
# Velocity S-wave (km/s) = 2.73934 3.45172 3.11596
# Velocity P-wave (km/s) = 3.63187 5.47869 4.64793
#
# Compressibility (1/GPa) = 0.14733937
#
# Stress axis : x y z
#
# Youngs Moduli (GPa) = 11.69305 46.66341 133.90636
#
# Poissons Ratio (x) = -0.98599 0.05471
# Poissons Ratio (y) = -0.24707 0.57058
# Poissons Ratio (z) = 0.00478 0.19884
#
# Static dielectric constant tensor:
#      x y z
#    x 1.791580 0.000000 0.000000 
#    y 0.000000 1.793620 0.000000 
#    z 0.000000 0.000000 1.813550 
# 
# From -- ./inp_files/26461.got.cif
#   From: 2010.05.17/outbox.cif.g08.bks.cpg/sg49_14_cif.got.tgz:26461.got - 2010.06.03 21:02:19.
