data_PCOD9393978
_publ_section_title
;
Structure prediction by ZEFSAII (Michael W. Deem and Ramdas Pophale) SiO2 
 PCOD9393978
Probable space group: P C C M
;
_chemical_formula_sum "Si O2"
_cell_formula_units_Z 48
_cell_length_a 15.475145
_cell_length_b 19.362333
_cell_length_c 8.705006
_cell_angle_alpha 90.000000
_cell_angle_beta 90.000000
_cell_angle_gamma 90.000000
_cell_volume 2608.323696
_symmetry_space_group_name_H-M "P C C M"
_symmetry_group_IT_number 49
_symmetry_cell_setting 'orthorhombic'
loop_
_space_group_symop_operation_xyz
x,y,z
-x,-y,z
x,-y,1/2-z
-x,y,1/2-z
-x,-y,-z
x,y,-z
-x,y,1/2+z
x,-y,1/2+z
loop_
_atom_site_type_symbol
_atom_site_label
_atom_site_fract_x
_atom_site_fract_y
_atom_site_fract_z
Si Si1 0.250131 0.323010 0.314920
Si Si2 0.905543 0.575341 0.315680
Si Si3 0.095271 0.925094 0.816607
Si Si4 0.593400 0.076046 0.684059
Si Si5 0.243449 0.170149 0.183597
Si Si6 0.405357 0.424772 0.315618
O O1 0.250119 0.314063 0.500000
O O2 0.165985 0.368227 0.273910
O O3 0.249156 0.248994 0.236088
O O4 0.334402 0.367903 0.273498
O O5 0.881739 0.500000 0.250000
O O6 0.910191 0.570628 0.500000
O O7 0.000000 0.592762 0.250000
O O8 0.163516 0.868328 0.763196
O O9 0.000000 0.910300 0.750000
O O10 0.121682 0.000000 0.750000
O O11 0.090969 0.929101 0.000000
O O12 0.500000 0.096766 0.750000
O O13 0.587701 0.071444 0.500000
O O14 0.668930 0.129133 0.725455
O O15 0.613296 0.000000 0.750000
O O16 0.232974 0.165850 0.000000
O O17 0.380838 0.500000 0.250000
O O18 0.500000 0.408005 0.250000
O O19 0.409803 0.429453 0.500000
#
# Coordination Sequence:
#
# PCOD9393978 Si02
#       6
#     8   8   8   8   8   8
#     4  10  23  39  55  79 113 151 186 226 279 335
#     4  10  20  36  58  83 109 141 182 226 274 325
#     4  11  22  39  63  88 116 149 189 235 281 332
#     4  10  21  37  59  85 111 144 186 231 278 329
#     4  11  24  39  57  84 116 152 191 231 282 338
#     4  10  20  36  58  83 110 143 186 233 283 337
#
# _framework density 18.402623999999999
#
# number of rings (size 3 to 8) (size 9 to 14) (size 15 to 20)
#    0.000    1.667    0.000    6.500    0.000    8.000 
#    0.000    5.000    0.000    0.000    0.000    0.000 
#    0.000    0.000    0.000    0.000    0.000    0.000 
#
# Total GULP energy -268309.040262 kJ/mol
# GULP energy per Si atom -5589.771672 kJ/mol
# Density = 1.836074 g / cm^3
# Si number density = 18.402624 Si / 1000 Ang^3
#
#
#
# Elastic Constant Matrix: (Units=GPa)
#
#
# Indices 1 2 3 4 5 6 
#
# 1 123.1070 119.5085 66.0280 0.0000 0.0000 0.0000
# 2 119.5085 154.4558 72.2396 0.0000 0.0000 0.0000
# 3 66.0280 72.2396 90.9251 0.0000 0.0000 0.0000
# 4 0.0000 0.0000 0.0000 33.6919 0.0000 0.0000
# 5 0.0000 0.0000 0.0000 0.0000 34.5923 0.0000
# 6 0.0000 0.0000 0.0000 0.0000 0.0000 -28.5551
#
#
#
# Elastic Compliance Matrix: (Units=1/GPa)
#
#
# Indices 1 2 3 4 5 6 
#
# 1 0.034672 -0.023951 -0.006149 0.000000 0.000000 0.000000
# 2 -0.023951 0.026848 -0.003938 0.000000 0.000000 0.000000
# 3 -0.006149 -0.003938 0.018592 0.000000 0.000000 0.000000
# 4 0.000000 0.000000 0.000000 0.029681 0.000000 0.000000
# 5 0.000000 0.000000 0.000000 0.000000 0.028908 0.000000
# 6 0.000000 0.000000 0.000000 0.000000 0.000000 -0.035020
#
#
# Mechanical properties :
#
#
# Convention : Reuss Voigt Hill
#
# Bulk Modulus (GPa) = 83.08401 98.22667 90.65534
# Shear Modulus (GPa) = 28.44626 15.32661 21.88643
#
# Velocity S-wave (km/s) = 3.93590 2.88904 3.45238
# Velocity P-wave (km/s) = 8.11794 8.03872 8.07843
#
# Compressibility (1/GPa) = 0.01203601
#
# Stress axis : x y z
#
# Youngs Moduli (GPa) = 28.84134 37.24639 53.78683
#
# Poissons Ratio (x) = 0.89211 0.33074
# Poissons Ratio (y) = 0.69079 0.21180
# Poissons Ratio (z) = 0.17735 0.14667
#
# Static dielectric constant tensor:
#      x y z
#    x 1.622650 0.000000 0.000000 
#    y 0.000000 1.594240 0.000000 
#    z 0.000000 0.000000 1.620260 
# 
# From -- ./inp_files/3729.got.cif
#   From: 2010.05.17/outbox.cif.g08.bks.cpg/sg49_2_cif.got.tgz:3729.got - 2010.06.03 21:02:19.
