data_PCOD9393714
_publ_section_title
;
Structure prediction by ZEFSAII (Michael W. Deem and Ramdas Pophale) SiO2 
 PCOD9393714
Probable space group: P C C M
;
_chemical_formula_sum "Si O2"
_cell_formula_units_Z 64
_cell_length_a 10.016977
_cell_length_b 15.554041
_cell_length_c 19.347865
_cell_angle_alpha 90.000000
_cell_angle_beta 90.000000
_cell_angle_gamma 90.000000
_cell_volume 3014.483870
_symmetry_space_group_name_H-M "P C C M"
_symmetry_group_IT_number 49
_symmetry_cell_setting 'orthorhombic'
loop_
_space_group_symop_operation_xyz
x,y,z
-x,-y,z
x,-y,1/2-z
-x,y,1/2-z
-x,-y,-z
x,y,-z
-x,y,1/2+z
x,-y,1/2+z
loop_
_atom_site_type_symbol
_atom_site_label
_atom_site_fract_x
_atom_site_fract_y
_atom_site_fract_z
Si Si1 0.268745 0.079308 0.922494
Si Si2 0.276881 0.489979 0.332380
Si Si3 0.872531 0.940565 0.339364
Si Si4 0.912260 0.344821 0.183264
Si Si5 0.276294 0.190123 0.730575
Si Si6 0.472632 0.630510 0.334107
Si Si7 0.019861 0.795147 0.419609
Si Si8 0.525508 0.814670 0.139314
O O1 0.162571 0.157413 0.911385
O O2 0.415145 0.118808 0.913967
O O3 0.239423 0.003753 0.869093
O O4 0.243849 0.047441 0.000000
O O5 0.266359 0.500000 0.250000
O O6 0.150381 0.430757 0.350720
O O7 0.330841 0.585071 0.350406
O O8 0.404718 0.431684 0.350402
O O9 0.831195 0.885838 0.272481
O O10 0.914048 0.867477 0.394974
O O11 0.000000 0.000000 0.329911
O O12 0.795248 0.280302 0.212194
O O13 0.000000 0.368118 0.250000
O O14 0.996283 0.286392 0.130021
O O15 0.363294 0.188694 0.799306
O O16 0.382218 0.165602 0.671139
O O17 0.500000 0.647614 0.250000
O O18 0.483567 0.715140 0.379615
O O19 0.002298 0.773355 0.500000
#
# Coordination Sequence:
#
# PCOD9393714 Si02
#       8
#     8   8   8   8   8   8   8   8
#     4  10  21  37  56  78 104 145 195 232 274 332
#     4   9  17  29  51  82 111 143 180 219 273 329
#     4   9  19  37  57  76 106 144 188 238 278 333
#     4  11  20  33  54  87 120 144 183 239 278 324
#     4  10  20  34  55  81 109 143 183 223 294 341
#     4   9  15  30  54  77 108 146 179 218 273 334
#     4   9  19  36  58  79 107 152 193 229 283 341
#     4  11  19  34  56  80 112 145 176 233 284 339
#
# _framework density 21.230830999999998
#
# number of rings (size 3 to 8) (size 9 to 14) (size 15 to 20)
#    0.000    2.250    2.500    2.625    0.000    2.750 
#    0.000    9.375    0.000    0.750    0.000    5.250 
#    0.000    1.000    0.000    1.375    0.000    0.000 
#
# Total GULP energy -356860.608265 kJ/mol
# GULP energy per Si atom -5575.947004 kJ/mol
# Density = 2.118251 g / cm^3
# Si number density = 21.230831 Si / 1000 Ang^3
#
#
#
# Elastic Constant Matrix: (Units=GPa)
#
#
# Indices 1 2 3 4 5 6 
#
# 1 55.8610 10.5802 9.8378 0.0000 0.0000 0.0000
# 2 10.5802 75.2994 8.3841 0.0000 0.0000 0.0000
# 3 9.8378 8.3841 36.9495 0.0000 0.0000 0.0000
# 4 0.0000 0.0000 0.0000 10.5340 0.0000 0.0000
# 5 0.0000 0.0000 0.0000 0.0000 22.5524 0.0000
# 6 0.0000 0.0000 0.0000 0.0000 0.0000 31.6195
#
#
#
# Elastic Compliance Matrix: (Units=1/GPa)
#
#
# Indices 1 2 3 4 5 6 
#
# 1 0.019123 -0.002175 -0.004598 0.000000 0.000000 0.000000
# 2 -0.002175 0.013872 -0.002569 0.000000 0.000000 0.000000
# 3 -0.004598 -0.002569 0.028871 0.000000 0.000000 0.000000
# 4 0.000000 0.000000 0.000000 0.094930 0.000000 0.000000
# 5 0.000000 0.000000 0.000000 0.000000 0.044341 0.000000
# 6 0.000000 0.000000 0.000000 0.000000 0.000000 0.031626
#
#
# Mechanical properties :
#
#
# Convention : Reuss Voigt Hill
#
# Bulk Modulus (GPa) = 23.15726 25.07934 24.11830
# Shear Modulus (GPa) = 18.80820 22.22837 20.51828
#
# Velocity S-wave (km/s) = 2.97962 3.23923 3.11213
# Velocity P-wave (km/s) = 4.77164 5.08217 4.92935
#
# Compressibility (1/GPa) = 0.04318300
#
# Stress axis : x y z
#
# Youngs Moduli (GPa) = 52.29218 72.08812 34.63683
#
# Poissons Ratio (x) = 0.15679 0.15926
# Poissons Ratio (y) = 0.11374 0.08897
# Poissons Ratio (z) = 0.24044 0.18516
#
# Static dielectric constant tensor:
#      x y z
#    x 1.841230 0.000000 0.000000 
#    y 0.000000 1.816530 0.000000 
#    z 0.000000 0.000000 1.754080 
# 
# From -- ./inp_files/22561.got.cif
#   From: 2010.05.17/outbox.cif.g08.bks.cpg/sg49_12_cif.got.tgz:22561.got - 2010.06.03 21:02:19.
