data_PCOD9393293
_publ_section_title
;
Structure prediction by ZEFSAII (Michael W. Deem and Ramdas Pophale) SiO2 
 PCOD9393293
Probable space group: P C C M
;
_chemical_formula_sum "Si O2"
_cell_formula_units_Z 64
_cell_length_a 15.280583
_cell_length_b 12.554864
_cell_length_c 16.346755
_cell_angle_alpha 90.000000
_cell_angle_beta 90.000000
_cell_angle_gamma 90.000000
_cell_volume 3136.053698
_symmetry_space_group_name_H-M "P C C M"
_symmetry_group_IT_number 49
_symmetry_cell_setting 'orthorhombic'
loop_
_space_group_symop_operation_xyz
x,y,z
-x,-y,z
x,-y,1/2-z
-x,y,1/2-z
-x,-y,-z
x,y,-z
-x,y,1/2+z
x,-y,1/2+z
loop_
_atom_site_type_symbol
_atom_site_label
_atom_site_fract_x
_atom_site_fract_y
_atom_site_fract_z
Si Si1 0.988750 0.121700 0.653214
Si Si2 0.285660 0.111940 0.406563
Si Si3 0.356023 0.738937 0.595775
Si Si4 0.149014 0.280803 0.366323
Si Si5 0.904884 0.514034 0.907433
Si Si6 0.231425 0.614749 0.708454
Si Si7 0.196873 0.904487 0.405748
Si Si8 0.520591 0.121528 0.099554
O O1 0.888073 0.146955 0.634364
O O2 0.000000 0.115834 0.750000
O O3 0.060975 0.208842 0.626945
O O4 0.000000 0.000000 0.619951
O O5 0.303467 0.074673 0.500000
O O6 0.224967 0.213596 0.407690
O O7 0.380333 0.139873 0.371017
O O8 0.229616 0.016165 0.367093
O O9 0.364008 0.701664 0.500000
O O10 0.316765 0.655925 0.660612
O O11 0.281077 0.829496 0.595211
O O12 0.446315 0.794356 0.623920
O O13 0.134011 0.395532 0.405766
O O14 0.187683 0.307447 0.275795
O O15 0.842838 0.591658 0.858603
O O16 0.000000 0.500000 0.867439
O O17 0.915920 0.552749 0.000000
O O18 0.248728 0.500000 0.750000
O O19 0.171096 0.923964 0.500000
O O20 0.500000 0.000000 0.123348
O O21 0.517649 0.125904 0.000000
#
# Coordination Sequence:
#
# PCOD9393293 Si02
#       8
#     8   8   8   8   8   8   8   8
#     4  11  23  36  50  78 120 165 199 227 273 350
#     4  10  19  35  57  87 124 157 191 236 288 354
#     4  10  19  35  62  91 117 153 198 246 299 352
#     4  11  23  38  59  82 117 163 201 233 294 355
#     4  10  23  41  62  86 110 144 200 261 304 343
#     4  10  23  41  60  82 116 158 205 255 303 340
#     4  10  20  33  54  85 120 156 194 242 290 340
#     4   9  16  31  59  92 124 154 190 235 292 355
#
# _framework density 20.407813999999998
#
# number of rings (size 3 to 8) (size 9 to 14) (size 15 to 20)
#    0.000    1.875    2.500    1.500    3.500    3.000 
#    0.000    0.625    0.000    6.000    0.000   11.375 
#    0.000    0.000    0.000    0.000    0.000    0.000 
#
# Total GULP energy -357063.916794 kJ/mol
# GULP energy per Si atom -5579.123700 kJ/mol
# Density = 2.036137 g / cm^3
# Si number density = 20.407814 Si / 1000 Ang^3
#
#
#
# Elastic Constant Matrix: (Units=GPa)
#
#
# Indices 1 2 3 4 5 6 
#
# 1 166.8198 41.3426 32.3299 0.0000 0.0000 0.0000
# 2 41.3426 69.6759 19.6552 0.0000 0.0000 0.0000
# 3 32.3299 19.6552 52.5501 0.0000 0.0000 0.0000
# 4 0.0000 0.0000 0.0000 38.1226 0.0000 0.0000
# 5 0.0000 0.0000 0.0000 0.0000 -10.4977 0.0000
# 6 0.0000 0.0000 0.0000 0.0000 0.0000 30.0404
#
#
#
# Elastic Compliance Matrix: (Units=1/GPa)
#
#
# Indices 1 2 3 4 5 6 
#
# 1 0.007507 -0.003523 -0.003301 0.000000 0.000000 0.000000
# 2 -0.003523 0.017699 -0.004452 0.000000 0.000000 0.000000
# 3 -0.003301 -0.004452 0.022725 0.000000 0.000000 0.000000
# 4 0.000000 0.000000 0.000000 0.026231 0.000000 0.000000
# 5 0.000000 0.000000 0.000000 0.000000 -0.095259 0.000000
# 6 0.000000 0.000000 0.000000 0.000000 0.000000 0.033288
#
#
# Mechanical properties :
#
#
# Convention : Reuss Voigt Hill
#
# Bulk Modulus (GPa) = 39.40301 52.85568 46.12935
# Shear Modulus (GPa) = 115.72841 24.58095 70.15468
#
# Velocity S-wave (km/s) = 7.53863 3.47434 5.86950
# Velocity P-wave (km/s) = 9.75317 6.48465 8.28176
#
# Compressibility (1/GPa) = 0.02537877
#
# Stress axis : x y z
#
# Youngs Moduli (GPa) = 133.20188 56.50125 44.00357
#
# Poissons Ratio (x) = 0.19908 0.14525
# Poissons Ratio (y) = 0.46932 0.19591
# Poissons Ratio (z) = 0.43968 0.25155
#
# Static dielectric constant tensor:
#      x y z
#    x 1.733300 0.000000 0.000000 
#    y 0.000000 1.741300 0.000000 
#    z 0.000000 0.000000 1.781770 
# 
# From -- ./inp_files/17926.got.cif
#   From: 2010.05.17/outbox.cif.g08.bks.cpg/sg49_9_cif.got.tgz:17926.got - 2010.06.03 21:02:19.
