data_PCOD9393440
_publ_section_title
;
Structure prediction by ZEFSAII (Michael W. Deem and Ramdas Pophale) SiO2 
 PCOD9393440
Probable space group: P C C M
;
_chemical_formula_sum "Si O2"
_cell_formula_units_Z 38
_cell_length_a 18.525788
_cell_length_b 12.551779
_cell_length_c 9.380711
_cell_angle_alpha 90.000000
_cell_angle_beta 90.000000
_cell_angle_gamma 90.000000
_cell_volume 2181.311708
_symmetry_space_group_name_H-M "P C C M"
_symmetry_group_IT_number 49
_symmetry_cell_setting 'orthorhombic'
loop_
_space_group_symop_operation_xyz
x,y,z
-x,-y,z
x,-y,1/2-z
-x,y,1/2-z
-x,-y,-z
x,y,-z
-x,y,1/2+z
x,-y,1/2+z
loop_
_atom_site_type_symbol
_atom_site_label
_atom_site_fract_x
_atom_site_fract_y
_atom_site_fract_z
Si Si1 0.114336 0.000000 0.750000
Si Si2 0.382656 0.901179 0.334691
Si Si3 0.238077 0.161630 0.332238
Si Si4 0.428355 0.339764 0.832569
Si Si5 0.000000 0.000000 0.500000
Si Si6 0.719042 0.398729 0.830705
O O1 0.166862 0.901113 0.787061
O O2 0.061630 0.976568 0.621049
O O3 0.373742 0.929250 0.500000
O O4 0.305254 0.878715 0.261389
O O5 0.424342 0.789325 0.327692
O O6 0.415741 0.000000 0.250000
O O7 0.252363 0.141526 0.500000
O O8 0.236205 0.289444 0.313811
O O9 0.500000 0.374488 0.750000
O O10 0.357779 0.378846 0.747575
O O11 0.427179 0.371160 0.000000
O O12 0.752147 0.500000 0.750000
O O13 0.709251 0.417693 0.000000
#
# Coordination Sequence:
#
# PCOD9393440 Si02
#       6
#     4   8   8   8   2   8
#     4  11  20  38  54  90 121 154 180 212 265 316
#     4  10  20  31  48  75 104 140 188 229 274 332
#     4  10  20  34  57  81 113 150 183 227 274 319
#     4  10  21  36  52  73 103 143 184 234 291 340
#     4  10  24  34  56  86 130 150 182 210 248 332
#     4  10  21  38  57  83 110 140 189 240 280 329
#
# _framework density 17.420708999999999
#
# number of rings (size 3 to 8) (size 9 to 14) (size 15 to 20)
#    0.000    1.895    2.105    1.895    1.474    4.211 
#    0.000    4.211    0.000    0.000    0.000    4.421 
#    0.000    0.000    0.000    0.000    0.000    0.000 
#
# Total GULP energy -211556.639294 kJ/mol
# GULP energy per Si atom -5567.279981 kJ/mol
# Density = 1.738106 g / cm^3
# Si number density = 17.420709 Si / 1000 Ang^3
#
#
#
# Elastic Constant Matrix: (Units=GPa)
#
#
# Indices 1 2 3 4 5 6 
#
# 1 65.5771 21.0160 36.6411 0.0000 0.0000 0.0000
# 2 21.0160 109.1504 54.2696 0.0000 0.0000 0.0000
# 3 36.6411 54.2696 166.9520 0.0000 0.0000 0.0000
# 4 0.0000 0.0000 0.0000 36.3200 0.0000 0.0000
# 5 0.0000 0.0000 0.0000 0.0000 77.3853 0.0000
# 6 0.0000 0.0000 0.0000 0.0000 0.0000 0.8905
#
#
#
# Elastic Compliance Matrix: (Units=1/GPa)
#
#
# Indices 1 2 3 4 5 6 
#
# 1 0.017659 -0.001757 -0.003304 0.000000 0.000000 0.000000
# 2 -0.001757 0.011103 -0.003223 0.000000 0.000000 0.000000
# 3 -0.003304 -0.003223 0.007763 0.000000 0.000000 0.000000
# 4 0.000000 0.000000 0.000000 0.027533 0.000000 0.000000
# 5 0.000000 0.000000 0.000000 0.000000 0.012922 0.000000
# 6 0.000000 0.000000 0.000000 0.000000 0.000000 1.122948
#
#
# Mechanical properties :
#
#
# Convention : Reuss Voigt Hill
#
# Bulk Modulus (GPa) = 50.11451 62.83699 56.47575
# Shear Modulus (GPa) = 4.08781 38.23602 21.16191
#
# Velocity S-wave (km/s) = 1.53350 4.69002 3.48912
# Velocity P-wave (km/s) = 5.65377 8.09178 6.98005
#
# Compressibility (1/GPa) = 0.01995430
#
# Stress axis : x y z
#
# Youngs Moduli (GPa) = 56.62942 90.06846 128.81993
#
# Poissons Ratio (x) = 0.15826 0.42567
# Poissons Ratio (y) = 0.09950 0.41524
# Poissons Ratio (z) = 0.18713 0.29033
#
# Static dielectric constant tensor:
#      x y z
#    x 1.555250 0.000000 0.000000 
#    y 0.000000 1.651060 0.000000 
#    z 0.000000 0.000000 1.578460 
# 
# From -- ./inp_files/4677.got.cif
#   From: 2010.05.17/outbox.cif.g08.bks.cpg/sg49_3_cif.got.tgz:4677.got - 2010.06.03 21:02:19.
