data_PCOD9393856
_publ_section_title
;
Structure prediction by ZEFSAII (Michael W. Deem and Ramdas Pophale) SiO2 
 PCOD9393856
Probable space group: P C C M
;
_chemical_formula_sum "Si O2"
_cell_formula_units_Z 40
_cell_length_a 24.597280
_cell_length_b 9.104153
_cell_length_c 9.840242
_cell_angle_alpha 90.000000
_cell_angle_beta 90.000000
_cell_angle_gamma 90.000000
_cell_volume 2203.598214
_symmetry_space_group_name_H-M "P C C M"
_symmetry_group_IT_number 49
_symmetry_cell_setting 'orthorhombic'
loop_
_space_group_symop_operation_xyz
x,y,z
-x,-y,z
x,-y,1/2-z
-x,y,1/2-z
-x,-y,-z
x,y,-z
-x,y,1/2+z
x,-y,1/2+z
loop_
_atom_site_type_symbol
_atom_site_label
_atom_site_fract_x
_atom_site_fract_y
_atom_site_fract_z
Si Si1 0.652804 0.140848 0.657911
Si Si2 0.550193 0.651282 0.834941
Si Si3 0.223433 0.145034 0.159756
Si Si4 0.120035 0.675344 0.260638
Si Si5 0.924518 0.156235 0.000000
Si Si6 0.054476 0.185640 0.000000
O O1 0.651442 0.096390 0.500000
O O2 0.605489 0.258029 0.678637
O O3 0.714351 0.194744 0.685727
O O4 0.643056 0.000000 0.750000
O O5 0.557388 0.500000 0.750000
O O6 0.500000 0.723184 0.750000
O O7 0.539747 0.634541 0.000000
O O8 0.179275 0.267306 0.195166
O O9 0.213528 0.000000 0.250000
O O10 0.218588 0.108407 0.000000
O O11 0.119205 0.500000 0.250000
O O12 0.102699 0.764300 0.127270
O O13 0.076717 0.728046 0.371380
O O14 0.989555 0.179472 0.000000
O O15 0.920085 0.979057 0.000000
#
# Coordination Sequence:
#
# PCOD9393856 Si02
#       6
#     8   8   8   8   4   4
#     4   9  20  37  58  85 114 150 194 243 289 341
#     4  10  20  35  56  82 116 156 198 242 294 351
#     4  10  21  40  63  85 115 155 199 240 290 356
#     4  12  25  39  61  91 123 153 191 247 302 348
#     4  11  25  41  67  87 117 155 204 233 294 357
#     4  11  23  45  63  89 115 159 198 243 282 361
#
# _framework density 18.15213
#
# number of rings (size 3 to 8) (size 9 to 14) (size 15 to 20)
#    0.000    1.600    1.000    4.200    1.400    6.800 
#    0.000    2.000    0.000    0.000    0.000    0.000 
#    0.000    0.000    0.000    0.000    0.000    0.000 
#
# Total GULP energy -223169.139436 kJ/mol
# GULP energy per Si atom -5579.228486 kJ/mol
# Density = 1.811082 g / cm^3
# Si number density = 18.152130 Si / 1000 Ang^3
#
#
#
# Elastic Constant Matrix: (Units=GPa)
#
#
# Indices 1 2 3 4 5 6 
#
# 1 112.0107 64.0206 46.2042 0.0000 0.0000 0.0000
# 2 64.0206 109.2872 48.8023 0.0000 0.0000 0.0000
# 3 46.2042 48.8023 122.1879 0.0000 0.0000 0.0000
# 4 0.0000 0.0000 0.0000 27.3305 0.0000 0.0000
# 5 0.0000 0.0000 0.0000 0.0000 31.1423 0.0000
# 6 0.0000 0.0000 0.0000 0.0000 0.0000 -46.0960
#
#
#
# Elastic Compliance Matrix: (Units=1/GPa)
#
#
# Indices 1 2 3 4 5 6 
#
# 1 0.014002 -0.007105 -0.002457 0.000000 0.000000 0.000000
# 2 -0.007105 0.014742 -0.003201 0.000000 0.000000 0.000000
# 3 -0.002457 -0.003201 0.010392 0.000000 0.000000 0.000000
# 4 0.000000 0.000000 0.000000 0.036589 0.000000 0.000000
# 5 0.000000 0.000000 0.000000 0.000000 0.032111 0.000000
# 6 0.000000 0.000000 0.000000 0.000000 0.000000 -0.021694
#
#
# Mechanical properties :
#
#
# Convention : Reuss Voigt Hill
#
# Bulk Modulus (GPa) = 73.48041 73.50446 73.49244
# Shear Modulus (GPa) = 43.02715 14.77260 28.89987
#
# Velocity S-wave (km/s) = 4.87392 2.85585 3.99443
# Velocity P-wave (km/s) = 8.49951 7.17328 7.86440
#
# Compressibility (1/GPa) = 0.01360907
#
# Stress axis : x y z
#
# Youngs Moduli (GPa) = 71.41643 67.83292 96.23033
#
# Poissons Ratio (x) = 0.48199 0.23643
# Poissons Ratio (y) = 0.50745 0.30805
# Poissons Ratio (z) = 0.17546 0.21715
#
# Static dielectric constant tensor:
#      x y z
#    x 1.640040 0.000000 0.000000 
#    y 0.000000 1.587070 0.000000 
#    z 0.000000 0.000000 1.572440 
# 
# From -- ./inp_files/6678.got.cif
#   From: 2010.05.17/outbox.cif.g08.bks.cpg/sg49_4_cif.got.tgz:6678.got - 2010.06.03 21:02:19.
