data_PCOD9393513
_publ_section_title
;
Structure prediction by ZEFSAII (Michael W. Deem and Ramdas Pophale) SiO2 
 PCOD9393513
Probable space group: P C C M
;
_chemical_formula_sum "Si O2"
_cell_formula_units_Z 48
_cell_length_a 15.578693
_cell_length_b 9.628591
_cell_length_c 14.266350
_cell_angle_alpha 90.000000
_cell_angle_beta 90.000000
_cell_angle_gamma 90.000000
_cell_volume 2139.964815
_symmetry_space_group_name_H-M "P C C M"
_symmetry_group_IT_number 49
_symmetry_cell_setting 'orthorhombic'
loop_
_space_group_symop_operation_xyz
x,y,z
-x,-y,z
x,-y,1/2-z
-x,y,1/2-z
-x,-y,-z
x,y,-z
-x,y,1/2+z
x,-y,1/2+z
loop_
_atom_site_type_symbol
_atom_site_label
_atom_site_fract_x
_atom_site_fract_y
_atom_site_fract_z
Si Si1 0.713298 0.427215 0.112931
Si Si2 0.736877 0.251338 0.615536
Si Si3 0.526364 0.351013 0.142238
Si Si4 0.576956 0.910680 0.103905
Si Si5 0.105040 0.367061 0.612544
Si Si6 0.924890 0.302938 0.387340
O O1 0.710897 0.589783 0.144351
O O2 0.628158 0.343747 0.135823
O O3 0.798576 0.348938 0.148316
O O4 0.719811 0.435222 0.000000
O O5 0.733522 0.249499 0.500000
O O6 0.668085 0.135370 0.647534
O O7 0.836655 0.230344 0.643745
O O8 0.500000 0.500000 0.104181
O O9 0.500000 0.345446 0.250000
O O10 0.471322 0.234953 0.094117
O O11 0.500000 0.000000 0.149040
O O12 0.593922 0.972579 0.000000
O O13 0.105991 0.347532 0.500000
O O14 0.090001 0.531922 0.628224
O O15 0.022628 0.281623 0.647752
O O16 0.927325 0.282920 0.500000
#
# Coordination Sequence:
#
# PCOD9393513 Si02
#       6
#     8   8   8   8   8   8
#     4   9  15  25  44  66  89 119 155 196 237 280
#     4   8  13  22  39  63  90 120 151 187 234 279
#     4  11  22  33  46  66  92 123 161 194 240 286
#     4  10  20  33  49  69  92 121 160 200 237 284
#     4   7  10  16  30  57  88 114 143 181 227 277
#     4   7   9  15  29  54  89 117 140 177 225 280
#
# _framework density 22.430274000000001
#
# number of rings (size 3 to 8) (size 9 to 14) (size 15 to 20)
#    0.000    3.333    1.667    3.500    0.000    1.000 
#    0.000    0.000    0.000    0.000    0.000    2.333 
#    0.000    8.000    0.000    3.000    3.000    3.833 
#
# Total GULP energy -267332.459619 kJ/mol
# GULP energy per Si atom -5569.426242 kJ/mol
# Density = 2.237922 g / cm^3
# Si number density = 22.430274 Si / 1000 Ang^3
#
#
#
# Elastic Constant Matrix: (Units=GPa)
#
#
# Indices 1 2 3 4 5 6 
#
# 1 250.2616 19.4050 4.2998 0.0000 0.0000 0.0000
# 2 19.4050 26.5323 2.4014 0.0000 0.0000 0.0000
# 3 4.2998 2.4014 68.2651 0.0000 0.0000 0.0000
# 4 0.0000 0.0000 0.0000 3.5516 0.0000 0.0000
# 5 0.0000 0.0000 0.0000 0.0000 -13.9239 0.0000
# 6 0.0000 0.0000 0.0000 0.0000 0.0000 36.4250
#
#
#
# Elastic Compliance Matrix: (Units=1/GPa)
#
#
# Indices 1 2 3 4 5 6 
#
# 1 0.004238 -0.003085 -0.000158 0.000000 0.000000 0.000000
# 2 -0.003085 0.040056 -0.001215 0.000000 0.000000 0.000000
# 3 -0.000158 -0.001215 0.014701 0.000000 0.000000 0.000000
# 4 0.000000 0.000000 0.000000 0.281560 0.000000 0.000000
# 5 0.000000 0.000000 0.000000 0.000000 -0.071819 0.000000
# 6 0.000000 0.000000 0.000000 0.000000 0.000000 0.027454
#
#
# Mechanical properties :
#
#
# Convention : Reuss Voigt Hill
#
# Bulk Modulus (GPa) = 19.96846 44.14127 32.05487
# Shear Modulus (GPa) = 15.53765 26.47409 21.00587
#
# Velocity S-wave (km/s) = 2.63479 3.43925 3.06354
# Velocity P-wave (km/s) = 4.26356 5.95763 5.18031
#
# Compressibility (1/GPa) = 0.05007896
#
# Stress axis : x y z
#
# Youngs Moduli (GPa) = 235.97421 24.96498 68.02038
#
# Poissons Ratio (x) = 0.07702 0.01077
# Poissons Ratio (y) = 0.72799 0.08263
# Poissons Ratio (z) = 0.03738 0.03033
#
# Static dielectric constant tensor:
#      x y z
#    x 1.919450 0.000000 0.000000 
#    y 0.000000 1.720810 0.000000 
#    z 0.000000 0.000000 2.034840 
# 
# From -- ./inp_files/20746.got.cif
#   From: 2010.05.17/outbox.cif.g08.bks.cpg/sg49_11_cif.got.tgz:20746.got - 2010.06.03 21:02:19.
