data_PCOD9393136
_publ_section_title
;
Structure prediction by ZEFSAII (Michael W. Deem and Ramdas Pophale) SiO2 
 PCOD9393136
Probable space group: P C C M
;
_chemical_formula_sum "Si O2"
_cell_formula_units_Z 64
_cell_length_a 23.851221
_cell_length_b 19.485983
_cell_length_c 8.788162
_cell_angle_alpha 90.000000
_cell_angle_beta 90.000000
_cell_angle_gamma 90.000000
_cell_volume 4084.425603
_symmetry_space_group_name_H-M "P C C M"
_symmetry_group_IT_number 49
_symmetry_cell_setting 'orthorhombic'
loop_
_space_group_symop_operation_xyz
x,y,z
-x,-y,z
x,-y,1/2-z
-x,y,1/2-z
-x,-y,-z
x,y,-z
-x,y,1/2+z
x,-y,1/2+z
loop_
_atom_site_type_symbol
_atom_site_label
_atom_site_fract_x
_atom_site_fract_y
_atom_site_fract_z
Si Si1 0.060773 0.574854 0.818397
Si Si2 0.222875 0.781734 0.818883
Si Si3 0.559614 0.787277 0.818547
Si Si4 0.837989 0.656404 0.819246
Si Si5 0.660306 0.298704 0.819744
Si Si6 0.723098 0.575643 0.182051
Si Si7 0.260917 0.927707 0.817314
Si Si8 0.393266 0.073254 0.317229
O O1 0.075488 0.500000 0.750000
O O2 0.108139 0.627897 0.767256
O O3 0.000000 0.593005 0.750000
O O4 0.057319 0.569962 0.000000
O O5 0.180189 0.732349 0.732338
O O6 0.284955 0.749513 0.797891
O O7 0.227000 0.860501 0.767060
O O8 0.211113 0.779547 0.000000
O O9 0.500000 0.766116 0.750000
O O10 0.608189 0.735989 0.763332
O O11 0.574611 0.862613 0.753526
O O12 0.557331 0.789721 0.000000
O O13 0.784403 0.607879 0.782658
O O14 0.847215 0.653797 0.000000
O O15 0.678058 0.372267 0.753589
O O16 0.649568 0.302702 0.000000
O O17 0.718716 0.500000 0.250000
O O18 0.717187 0.574222 0.000000
O O19 0.326945 0.918946 0.778399
O O20 0.241817 0.000000 0.750000
O O21 0.258157 0.930478 0.000000
O O22 0.398723 0.073704 0.500000
O O23 0.411716 0.000000 0.250000
#
# Coordination Sequence:
#
# PCOD9393136 Si02
#       8
#     8   8   8   8   8   8   8   8
#     4  11  21  34  51  71 100 139 178 214 249 289
#     4   9  17  31  49  70  98 131 163 201 248 293
#     4  12  24  37  53  72  94 124 160 200 242 293
#     4  10  20  32  48  74 104 134 171 210 246 288
#     4  10  19  35  54  72  97 125 156 198 245 294
#     4  10  20  33  51  77 103 130 162 199 244 292
#     4   9  17  29  46  69  97 129 162 197 240 293
#     4  10  19  34  51  72  97 126 160 199 241 288
#
# _framework density 15.669278
#
# number of rings (size 3 to 8) (size 9 to 14) (size 15 to 20)
#    0.000    1.875    1.250    4.500    0.000    4.250 
#    0.000    1.250    0.000    0.375    0.000    2.625 
#    0.000    0.500    0.000    5.250    0.000    2.875 
#
# Total GULP energy -357334.724405 kJ/mol
# GULP energy per Si atom -5583.355069 kJ/mol
# Density = 1.563361 g / cm^3
# Si number density = 15.669278 Si / 1000 Ang^3
#
#
#
# Elastic Constant Matrix: (Units=GPa)
#
#
# Indices 1 2 3 4 5 6 
#
# 1 70.9139 41.4133 47.5459 0.0000 0.0000 0.0000
# 2 41.4133 110.8655 46.9471 0.0000 0.0000 0.0000
# 3 47.5459 46.9471 88.9320 0.0000 0.0000 0.0000
# 4 0.0000 0.0000 0.0000 30.9856 0.0000 0.0000
# 5 0.0000 0.0000 0.0000 0.0000 18.5807 0.0000
# 6 0.0000 0.0000 0.0000 0.0000 0.0000 19.9019
#
#
#
# Elastic Compliance Matrix: (Units=1/GPa)
#
#
# Indices 1 2 3 4 5 6 
#
# 1 0.023583 -0.004469 -0.010249 0.000000 0.000000 0.000000
# 2 -0.004469 0.012464 -0.004190 0.000000 0.000000 0.000000
# 3 -0.010249 -0.004190 0.018936 0.000000 0.000000 0.000000
# 4 0.000000 0.000000 0.000000 0.032273 0.000000 0.000000
# 5 0.000000 0.000000 0.000000 0.000000 0.053819 0.000000
# 6 0.000000 0.000000 0.000000 0.000000 0.000000 0.050246
#
#
# Mechanical properties :
#
#
# Convention : Reuss Voigt Hill
#
# Bulk Modulus (GPa) = 58.25465 60.28045 59.26755
# Shear Modulus (GPa) = 21.28916 22.88066 22.08491
#
# Velocity S-wave (km/s) = 3.68999 3.82543 3.75832
# Velocity P-wave (km/s) = 7.44400 7.62010 7.53256
#
# Compressibility (1/GPa) = 0.01716601
#
# Stress axis : x y z
#
# Youngs Moduli (GPa) = 42.40260 80.23214 52.80945
#
# Poissons Ratio (x) = 0.35859 0.54125
# Poissons Ratio (y) = 0.18951 0.22128
# Poissons Ratio (z) = 0.43459 0.33618
#
# Static dielectric constant tensor:
#      x y z
#    x 1.503670 0.000000 0.000000 
#    y 0.000000 1.515940 0.000000 
#    z 0.000000 0.000000 1.520670 
# 
# From -- ./inp_files/5332.got.cif
#   From: 2010.05.17/outbox.cif.g08.bks.cpg/sg49_3_cif.got.tgz:5332.got - 2010.06.03 21:02:19.
