data_PCOD9393842
_publ_section_title
;
Structure prediction by ZEFSAII (Michael W. Deem and Ramdas Pophale) SiO2 
 PCOD9393842
Probable space group: P C C M
;
_chemical_formula_sum "Si O2"
_cell_formula_units_Z 48
_cell_length_a 31.641908
_cell_length_b 9.291421
_cell_length_c 8.678593
_cell_angle_alpha 90.000000
_cell_angle_beta 90.000000
_cell_angle_gamma 90.000000
_cell_volume 2551.491488
_symmetry_space_group_name_H-M "P C C M"
_symmetry_group_IT_number 49
_symmetry_cell_setting 'orthorhombic'
loop_
_space_group_symop_operation_xyz
x,y,z
-x,-y,z
x,-y,1/2-z
-x,y,1/2-z
-x,-y,-z
x,y,-z
-x,y,1/2+z
x,-y,1/2+z
loop_
_atom_site_type_symbol
_atom_site_label
_atom_site_fract_x
_atom_site_fract_y
_atom_site_fract_z
Si Si1 0.871924 0.339421 0.685011
Si Si2 0.290188 0.339298 0.685880
Si Si3 0.372428 0.160240 0.685967
Si Si4 0.045353 0.159924 0.815303
Si Si5 0.793219 0.839014 0.314776
Si Si6 0.454782 0.660647 0.185278
O O1 0.869333 0.500000 0.750000
O O2 0.868909 0.342691 0.500000
O O3 0.916456 0.265138 0.727455
O O4 0.833974 0.243919 0.751343
O O5 0.288690 0.500000 0.750000
O O6 0.290779 0.346695 0.500000
O O7 0.332482 0.256079 0.736720
O O8 0.248821 0.248761 0.731492
O O9 0.371569 0.154193 0.500000
O O10 0.416119 0.237324 0.731759
O O11 0.369503 0.000000 0.750000
O O12 0.000000 0.207487 0.750000
O O13 0.053587 0.000000 0.750000
O O14 0.042840 0.151163 0.000000
O O15 0.795031 0.843947 0.500000
O O16 0.791716 0.000000 0.250000
O O17 0.447626 0.500000 0.250000
O O18 0.500000 0.710594 0.250000
O O19 0.456762 0.653706 0.000000
#
# Coordination Sequence:
#
# PCOD9393842 Si02
#       6
#     8   8   8   8   8   8
#     4  11  24  40  59  85 117 153 192 235 284 337
#     4  10  22  39  59  85 114 146 186 230 278 332
#     4  10  22  38  56  81 112 146 185 228 276 330
#     4  10  21  37  59  85 113 148 189 234 283 336
#     4  11  23  39  61  87 116 150 189 233 281 335
#     4  10  20  35  56  81 109 143 184 228 276 330
#
# _framework density 18.812525999999998
#
# number of rings (size 3 to 8) (size 9 to 14) (size 15 to 20)
#    0.000    1.667    0.000    5.000    0.000    9.333 
#    0.000    3.333    0.000    0.000    0.000    0.000 
#    0.000    0.000    0.000    0.000    0.000    0.000 
#
# Total GULP energy -268336.243006 kJ/mol
# GULP energy per Si atom -5590.338396 kJ/mol
# Density = 1.876971 g / cm^3
# Si number density = 18.812526 Si / 1000 Ang^3
#
#
#
# Elastic Constant Matrix: (Units=GPa)
#
#
# Indices 1 2 3 4 5 6 
#
# 1 198.9387 138.2817 56.1018 0.0000 0.0000 0.0000
# 2 138.2817 184.6952 47.1140 0.0000 0.0000 0.0000
# 3 56.1018 47.1140 43.6196 0.0000 0.0000 0.0000
# 4 0.0000 0.0000 0.0000 37.8450 0.0000 0.0000
# 5 0.0000 0.0000 0.0000 0.0000 26.4202 0.0000
# 6 0.0000 0.0000 0.0000 0.0000 0.0000 40.7496
#
#
#
# Elastic Compliance Matrix: (Units=1/GPa)
#
#
# Indices 1 2 3 4 5 6 
#
# 1 0.012243 -0.007108 -0.008069 0.000000 0.000000 0.000000
# 2 -0.007108 0.011600 -0.003387 0.000000 0.000000 0.000000
# 3 -0.008069 -0.003387 0.036962 0.000000 0.000000 0.000000
# 4 0.000000 0.000000 0.000000 0.026424 0.000000 0.000000
# 5 0.000000 0.000000 0.000000 0.000000 0.037850 0.000000
# 6 0.000000 0.000000 0.000000 0.000000 0.000000 0.024540
#
#
# Mechanical properties :
#
#
# Convention : Reuss Voigt Hill
#
# Bulk Modulus (GPa) = 42.23578 101.13871 71.68725
# Shear Modulus (GPa) = 25.68845 33.38670 29.53758
#
# Velocity S-wave (km/s) = 3.69927 4.21730 3.96675
# Velocity P-wave (km/s) = 6.38324 8.80864 7.69214
#
# Compressibility (1/GPa) = 0.02367661
#
# Stress axis : x y z
#
# Youngs Moduli (GPa) = 81.68005 86.20549 27.05455
#
# Poissons Ratio (x) = 0.61275 0.21830
# Poissons Ratio (y) = 0.58058 0.09165
# Poissons Ratio (z) = 0.65907 0.29202
#
# Static dielectric constant tensor:
#      x y z
#    x 1.645790 0.000000 0.000000 
#    y 0.000000 1.601930 0.000000 
#    z 0.000000 0.000000 1.638330 
# 
# From -- ./inp_files/2042.got.cif
#   From: 2010.05.17/outbox.cif.g08.bks.cpg/sg49_2_cif.got.tgz:2042.got - 2010.06.03 21:02:19.
