data_PCOD9393470
_publ_section_title
;
Structure prediction by ZEFSAII (Michael W. Deem and Ramdas Pophale) SiO2 
 PCOD9393470
Probable space group: P C C M
;
_chemical_formula_sum "Si O2"
_cell_formula_units_Z 32
_cell_length_a 19.024283
_cell_length_b 7.088981
_cell_length_c 10.627079
_cell_angle_alpha 90.000000
_cell_angle_beta 90.000000
_cell_angle_gamma 90.000000
_cell_volume 1433.197425
_symmetry_space_group_name_H-M "P C C M"
_symmetry_group_IT_number 49
_symmetry_cell_setting 'orthorhombic'
loop_
_space_group_symop_operation_xyz
x,y,z
-x,-y,z
x,-y,1/2-z
-x,y,1/2-z
-x,-y,-z
x,y,-z
-x,y,1/2+z
x,-y,1/2+z
loop_
_atom_site_type_symbol
_atom_site_label
_atom_site_fract_x
_atom_site_fract_y
_atom_site_fract_z
Si Si1 0.537044 0.295257 0.865911
Si Si2 0.907692 0.771587 0.000000
Si Si3 0.929825 0.771269 0.500000
Si Si4 0.690373 0.828956 0.649104
Si Si5 0.160030 0.771051 0.761263
O O1 0.500000 0.500000 0.872885
O O2 0.500000 0.198827 0.750000
O O3 0.620542 0.297903 0.846423
O O4 0.524882 0.202337 0.000000
O O5 0.865933 0.710447 0.124291
O O6 0.989064 0.714161 0.000000
O O7 0.917074 0.000712 0.000000
O O8 0.892652 0.710553 0.628735
O O9 0.699679 0.887901 0.500000
O O10 0.761129 0.726051 0.694704
O O11 0.680115 0.000000 0.750000
O O12 0.159131 0.000000 0.750000
#
# Coordination Sequence:
#
# PCOD9393470 Si02
#       5
#     8   4   4   8   8
#     4   9  19  37  57  76  98 128 165 209 259 310
#     4   9  16  22  36  56  84 126 174 212 251 286
#     4   9  14  24  36  54  84 126 172 212 249 292
#     4  10  20  32  49  72 101 137 171 211 260 309
#     4   9  16  25  37  58  89 127 169 212 249 296
#
# _framework density 22.327698000000002
#
# number of rings (size 3 to 8) (size 9 to 14) (size 15 to 20)
#    0.000    2.750    1.250    0.750    5.250    4.500 
#    0.000    2.500    0.000    0.000    0.000    0.000 
#    0.000    0.000    0.000   27.000    0.000   12.000 
#
# Total GULP energy -178451.415048 kJ/mol
# GULP energy per Si atom -5576.606720 kJ/mol
# Density = 2.227688 g / cm^3
# Si number density = 22.327698 Si / 1000 Ang^3
#
#
#
# Elastic Constant Matrix: (Units=GPa)
#
#
# Indices 1 2 3 4 5 6 
#
# 1 207.4743 28.1416 135.1127 0.0000 0.0000 0.0000
# 2 28.1416 90.7025 18.0938 0.0000 0.0000 0.0000
# 3 135.1127 18.0938 256.9753 0.0000 0.0000 0.0000
# 4 0.0000 0.0000 0.0000 -19.2623 0.0000 0.0000
# 5 0.0000 0.0000 0.0000 0.0000 43.7190 0.0000
# 6 0.0000 0.0000 0.0000 0.0000 0.0000 45.8473
#
#
#
# Elastic Compliance Matrix: (Units=1/GPa)
#
#
# Indices 1 2 3 4 5 6 
#
# 1 0.007544 -0.001571 -0.003856 0.000000 0.000000 0.000000
# 2 -0.001571 0.011509 0.000016 0.000000 0.000000 0.000000
# 3 -0.003856 0.000016 0.005918 0.000000 0.000000 0.000000
# 4 0.000000 0.000000 0.000000 -0.051915 0.000000 0.000000
# 5 0.000000 0.000000 0.000000 0.000000 0.022873 0.000000
# 6 0.000000 0.000000 0.000000 0.000000 0.000000 0.021812
#
#
# Mechanical properties :
#
#
# Convention : Reuss Voigt Hill
#
# Bulk Modulus (GPa) = 70.68028 101.98315 86.33171
# Shear Modulus (GPa) = 150.23848 38.98104 94.60976
#
# Velocity S-wave (km/s) = 8.21182 4.18288 6.51654
# Velocity P-wave (km/s) = 11.02890 8.31285 9.76576
#
# Compressibility (1/GPa) = 0.01414822
#
# Stress axis : x y z
#
# Youngs Moduli (GPa) = 132.55427 86.88510 168.98570
#
# Poissons Ratio (x) = 0.13654 0.65159
# Poissons Ratio (y) = 0.20830 -0.00268
# Poissons Ratio (z) = 0.51111 -0.00138
#
# Static dielectric constant tensor:
#      x y z
#    x 1.787860 0.000000 0.000000 
#    y 0.000000 1.794180 0.000000 
#    z 0.000000 0.000000 1.834700 
# 
# From -- ./inp_files/8088.got.cif
#   From: 2010.05.17/outbox.cif.g08.bks.cpg/sg49_5_cif.got.tgz:8088.got - 2010.06.03 21:02:19.
