data_PCOD9393011
_publ_section_title
;
Structure prediction by ZEFSAII (Michael W. Deem and Ramdas Pophale) SiO2 
 PCOD9393011
Probable space group: P C C M
;
_chemical_formula_sum "Si O2"
_cell_formula_units_Z 56
_cell_length_a 18.725489
_cell_length_b 19.740645
_cell_length_c 8.783881
_cell_angle_alpha 90.000000
_cell_angle_beta 90.000000
_cell_angle_gamma 90.000000
_cell_volume 3246.989991
_symmetry_space_group_name_H-M "P C C M"
_symmetry_group_IT_number 49
_symmetry_cell_setting 'orthorhombic'
loop_
_space_group_symop_operation_xyz
x,y,z
-x,-y,z
x,-y,1/2-z
-x,y,1/2-z
-x,-y,-z
x,y,-z
-x,y,1/2+z
x,-y,1/2+z
loop_
_atom_site_type_symbol
_atom_site_label
_atom_site_fract_x
_atom_site_fract_y
_atom_site_fract_z
Si Si1 0.424423 0.646741 0.183809
Si Si2 0.798266 0.290961 0.183501
Si Si3 0.921887 0.204064 0.681228
Si Si4 0.152884 0.927976 0.817827
Si Si5 0.322599 0.071318 0.317682
Si Si6 0.350230 0.782247 0.815272
Si Si7 0.720753 0.573009 0.316943
O O1 0.500000 0.625568 0.250000
O O2 0.404329 0.723477 0.234860
O O3 0.358080 0.599322 0.230259
O O4 0.427163 0.646436 0.000000
O O5 0.867476 0.262165 0.264447
O O6 0.729340 0.244505 0.222238
O O7 0.775883 0.367355 0.224977
O O8 0.807137 0.286985 0.000000
O O9 0.925407 0.201282 0.500000
O O10 0.889614 0.133872 0.745295
O O11 0.000000 0.214709 0.750000
O O12 0.237747 0.921320 0.783826
O O13 0.129357 0.000000 0.750000
O O14 0.144652 0.926992 0.000000
O O15 0.329444 0.067919 0.500000
O O16 0.359428 0.140694 0.261695
O O17 0.347487 0.000000 0.250000
O O18 0.353242 0.783515 0.000000
O O19 0.736745 0.500000 0.250000
O O20 0.720453 0.569450 0.500000
#
# Coordination Sequence:
#
# PCOD9393011 Si02
#       7
#     8   8   8   8   8   8   8
#     4   9  18  32  50  74 104 139 173 204 244 296
#     4   9  17  35  56  74  98 132 170 209 254 303
#     4  12  24  36  52  75 102 136 174 214 259 308
#     4  10  19  33  51  72 101 135 171 214 263 312
#     4   9  16  27  46  69  94 125 161 209 257 302
#     4   8  14  29  51  69  92 131 170 204 253 303
#     4   9  19  34  56  81 108 139 169 202 248 302
#
# _framework density 17.246741
#
# number of rings (size 3 to 8) (size 9 to 14) (size 15 to 20)
#    0.000    2.571    1.429    3.429    0.000    2.286 
#    0.000    5.714    0.000    0.857    0.000    6.000 
#    0.000    0.000    0.000    0.000    0.000    0.000 
#
# Total GULP energy -312264.233160 kJ/mol
# GULP energy per Si atom -5576.147021 kJ/mol
# Density = 1.720749 g / cm^3
# Si number density = 17.246741 Si / 1000 Ang^3
#
#
#
# Elastic Constant Matrix: (Units=GPa)
#
#
# Indices 1 2 3 4 5 6 
#
# 1 40.0095 25.8445 20.6799 0.0000 0.0000 0.0000
# 2 25.8445 139.5176 27.6911 0.0000 0.0000 0.0000
# 3 20.6799 27.6911 34.6984 0.0000 0.0000 0.0000
# 4 0.0000 0.0000 0.0000 28.4453 0.0000 0.0000
# 5 0.0000 0.0000 0.0000 0.0000 3.8638 0.0000
# 6 0.0000 0.0000 0.0000 0.0000 0.0000 14.6876
#
#
#
# Elastic Compliance Matrix: (Units=1/GPa)
#
#
# Indices 1 2 3 4 5 6 
#
# 1 0.037118 -0.002953 -0.019765 0.000000 0.000000 0.000000
# 2 -0.002953 0.008751 -0.005224 0.000000 0.000000 0.000000
# 3 -0.019765 -0.005224 0.044769 0.000000 0.000000 0.000000
# 4 0.000000 0.000000 0.000000 0.035155 0.000000 0.000000
# 5 0.000000 0.000000 0.000000 0.000000 0.258813 0.000000
# 6 0.000000 0.000000 0.000000 0.000000 0.000000 0.068085
#
#
# Mechanical properties :
#
#
# Convention : Reuss Voigt Hill
#
# Bulk Modulus (GPa) = 28.77420 40.29514 34.53467
# Shear Modulus (GPa) = 9.61243 18.73333 14.17288
#
# Velocity S-wave (km/s) = 2.36338 3.29932 2.86977
# Velocity P-wave (km/s) = 4.91605 6.15863 5.57208
#
# Compressibility (1/GPa) = 0.03475335
#
# Stress axis : x y z
#
# Youngs Moduli (GPa) = 26.94136 114.26706 22.33695
#
# Poissons Ratio (x) = 0.33741 0.44150
# Poissons Ratio (y) = 0.07955 0.11669
# Poissons Ratio (z) = 0.53250 0.59696
#
# Static dielectric constant tensor:
#      x y z
#    x 1.564980 0.000000 0.000000 
#    y 0.000000 1.599590 0.000000 
#    z 0.000000 0.000000 1.578950 
# 
# From -- ./inp_files/4041.got.cif
#   From: 2010.05.17/outbox.cif.g08.bks.cpg/sg49_3_cif.got.tgz:4041.got - 2010.06.03 21:02:19.
