data_PCOD9393696
_publ_section_title
;
Structure prediction by ZEFSAII (Michael W. Deem and Ramdas Pophale) SiO2 
 PCOD9393696
Probable space group: P C C M
;
_chemical_formula_sum "Si O2"
_cell_formula_units_Z 34
_cell_length_a 12.455134
_cell_length_b 13.620375
_cell_length_c 9.362187
_cell_angle_alpha 90.000000
_cell_angle_beta 90.000000
_cell_angle_gamma 90.000000
_cell_volume 1588.235067
_symmetry_space_group_name_H-M "P C C M"
_symmetry_group_IT_number 49
_symmetry_cell_setting 'orthorhombic'
loop_
_space_group_symop_operation_xyz
x,y,z
-x,-y,z
x,-y,1/2-z
-x,y,1/2-z
-x,-y,-z
x,y,-z
-x,y,1/2+z
x,-y,1/2+z
loop_
_atom_site_type_symbol
_atom_site_label
_atom_site_fract_x
_atom_site_fract_y
_atom_site_fract_z
Si Si1 0.397972 0.699344 0.669623
Si Si2 0.159836 0.662069 0.659028
Si Si3 0.099297 0.150179 0.336500
Si Si4 0.344237 0.902675 0.832194
Si Si5 0.000000 0.500000 0.250000
O O1 0.500000 0.654106 0.750000
O O2 0.417897 0.710933 0.500000
O O3 0.285563 0.641523 0.687230
O O4 0.379281 0.805212 0.746270
O O5 0.156298 0.706930 0.500000
O O6 0.121376 0.741756 0.772711
O O7 0.080874 0.570272 0.664677
O O8 0.067484 0.157093 0.500000
O O9 0.214075 0.097810 0.328498
O O10 0.000000 0.107547 0.250000
O O11 0.380729 0.000000 0.750000
O O12 0.376450 0.899423 0.000000
#
# Coordination Sequence:
#
# PCOD9393696 Si02
#       5
#     8   8   8   8   2
#     4  10  21  40  63  86 117 158 200 246 295 350
#     4  10  22  38  59  89 122 154 193 241 296 351
#     4  10  20  34  54  79 115 157 198 241 293 351
#     4  10  21  36  55  84 117 155 200 249 296 345
#     4  12  22  36  66  98 124 152 190 238 298 352
#
# _framework density 21.407409000000001
#
# number of rings (size 3 to 8) (size 9 to 14) (size 15 to 20)
#    0.000    1.882    1.176    2.471    0.000    5.647 
#    0.000    5.294    0.000    2.824    0.000    0.000 
#    0.000    0.000    0.000    0.000    0.000    0.000 
#
# Total GULP energy -189898.351542 kJ/mol
# GULP energy per Si atom -5585.245634 kJ/mol
# Density = 2.135869 g / cm^3
# Si number density = 21.407409 Si / 1000 Ang^3
#
#
#
# Elastic Constant Matrix: (Units=GPa)
#
#
# Indices 1 2 3 4 5 6 
#
# 1 172.3678 27.0561 66.8295 0.0000 0.0000 0.0000
# 2 27.0561 57.4233 28.6826 0.0000 0.0000 0.0000
# 3 66.8295 28.6826 165.4212 0.0000 0.0000 0.0000
# 4 0.0000 0.0000 0.0000 -3.1849 0.0000 0.0000
# 5 0.0000 0.0000 0.0000 0.0000 38.8145 0.0000
# 6 0.0000 0.0000 0.0000 0.0000 0.0000 -9.8803
#
#
#
# Elastic Compliance Matrix: (Units=1/GPa)
#
#
# Indices 1 2 3 4 5 6 
#
# 1 0.007102 -0.002094 -0.002506 0.000000 0.000000 0.000000
# 2 -0.002094 0.019683 -0.002567 0.000000 0.000000 0.000000
# 3 -0.002506 -0.002567 0.007503 0.000000 0.000000 0.000000
# 4 0.000000 0.000000 0.000000 -0.313977 0.000000 0.000000
# 5 0.000000 0.000000 0.000000 0.000000 0.025764 0.000000
# 6 0.000000 0.000000 0.000000 0.000000 0.000000 -0.101211
#
#
# Mechanical properties :
#
#
# Convention : Reuss Voigt Hill
#
# Bulk Modulus (GPa) = 50.11641 71.14986 60.63313
# Shear Modulus (GPa) = -14.96329 23.32613 4.18142
#
# Velocity S-wave (km/s) = -2.64669 3.30453 1.39911
# Velocity P-wave (km/s) = 3.75788 6.91868 5.56731
#
# Compressibility (1/GPa) = 0.01995354
#
# Stress axis : x y z
#
# Youngs Moduli (GPa) = 140.80706 50.80399 133.28643
#
# Poissons Ratio (x) = 0.10641 0.33401
# Poissons Ratio (y) = 0.29492 0.34212
# Poissons Ratio (z) = 0.35286 0.13040
#
# Static dielectric constant tensor:
#      x y z
#    x 1.829950 0.000000 0.000000 
#    y 0.000000 1.756200 0.000000 
#    z 0.000000 0.000000 1.741650 
# 
# From -- ./inp_files/3347.got.cif
#   From: 2010.05.17/outbox.cif.g08.bks.cpg/sg49_2_cif.got.tgz:3347.got - 2010.06.03 21:02:19.
