data_PCOD9393801
_publ_section_title
;
Structure prediction by ZEFSAII (Michael W. Deem and Ramdas Pophale) SiO2 
 PCOD9393801
Probable space group: P C C M
;
_chemical_formula_sum "Si O2"
_cell_formula_units_Z 48
_cell_length_a 29.975304
_cell_length_b 9.265958
_cell_length_c 9.590479
_cell_angle_alpha 90.000000
_cell_angle_beta 90.000000
_cell_angle_gamma 90.000000
_cell_volume 2663.754659
_symmetry_space_group_name_H-M "P C C M"
_symmetry_group_IT_number 49
_symmetry_cell_setting 'orthorhombic'
loop_
_space_group_symop_operation_xyz
x,y,z
-x,-y,z
x,-y,1/2-z
-x,y,1/2-z
-x,-y,-z
x,y,-z
-x,y,1/2+z
x,-y,1/2+z
loop_
_atom_site_type_symbol
_atom_site_label
_atom_site_fract_x
_atom_site_fract_y
_atom_site_fract_z
Si Si1 0.542481 0.848457 0.168846
Si Si2 0.625716 0.642800 0.161804
Si Si3 0.942853 0.684910 0.000000
Si Si4 0.887283 0.327097 0.765195
Si Si5 0.271347 0.347364 0.168647
Si Si6 0.042982 0.664155 0.000000
Si Si7 0.798595 0.849858 0.332386
O O1 0.500000 0.779821 0.250000
O O2 0.587428 0.758349 0.189757
O O3 0.547940 0.000000 0.250000
O O4 0.535096 0.863487 0.000000
O O5 0.618465 0.500000 0.250000
O O6 0.676515 0.694589 0.184433
O O7 0.622677 0.602569 0.000000
O O8 0.910659 0.723107 0.874737
O O9 0.953570 0.511843 0.000000
O O10 0.994159 0.734620 0.000000
O O11 0.878616 0.500000 0.750000
O O12 0.842892 0.246611 0.810990
O O13 0.927255 0.296502 0.870175
O O14 0.265578 0.500000 0.250000
O O15 0.240570 0.234521 0.250396
O O16 0.261751 0.357975 0.000000
O O17 0.790504 0.867112 0.500000
O O18 0.804653 0.000000 0.250000
#
# Coordination Sequence:
#
# PCOD9393801 Si02
#       7
#     8   8   4   8   8   4   8
#     4  10  20  35  54  80 114 154 200 241 285 336
#     4   9  20  37  58  86 117 149 187 235 287 343
#     4   9  18  28  59  87 117 141 185 229 282 325
#     4  10  20  35  59  86 115 146 186 230 284 339
#     4  10  21  40  65  90 117 149 190 237 290 348
#     4   9  16  34  51  89 117 147 179 233 274 335
#     4  12  26  42  59  82 116 153 194 240 290 345
#
# _framework density 18.019677000000001
#
# number of rings (size 3 to 8) (size 9 to 14) (size 15 to 20)
#    0.000    2.000    0.833    3.000    2.333    5.000 
#    0.000    3.333    0.000    3.000    0.000    0.000 
#    0.000    0.000    0.000    0.000    0.000    0.000 
#
# Total GULP energy -267279.861447 kJ/mol
# GULP energy per Si atom -5568.330447 kJ/mol
# Density = 1.797866 g / cm^3
# Si number density = 18.019677 Si / 1000 Ang^3
#
#
#
# Elastic Constant Matrix: (Units=GPa)
#
#
# Indices 1 2 3 4 5 6 
#
# 1 115.0999 55.4745 68.6250 0.0000 0.0000 0.0000
# 2 55.4745 57.6707 43.7831 0.0000 0.0000 0.0000
# 3 68.6250 43.7831 161.6459 0.0000 0.0000 0.0000
# 4 0.0000 0.0000 0.0000 32.6877 0.0000 0.0000
# 5 0.0000 0.0000 0.0000 0.0000 37.7944 0.0000
# 6 0.0000 0.0000 0.0000 0.0000 0.0000 -50.0044
#
#
#
# Elastic Compliance Matrix: (Units=1/GPa)
#
#
# Indices 1 2 3 4 5 6 
#
# 1 0.017773 -0.014311 -0.003669 0.000000 0.000000 0.000000
# 2 -0.014311 0.033351 -0.002958 0.000000 0.000000 0.000000
# 3 -0.003669 -0.002958 0.008545 0.000000 0.000000 0.000000
# 4 0.000000 0.000000 0.000000 0.030593 0.000000 0.000000
# 5 0.000000 0.000000 0.000000 0.000000 0.026459 0.000000
# 6 0.000000 0.000000 0.000000 0.000000 0.000000 -0.019998
#
#
# Mechanical properties :
#
#
# Convention : Reuss Voigt Hill
#
# Bulk Modulus (GPa) = 56.19922 74.46464 65.33193
# Shear Modulus (GPa) = 34.59498 15.19779 24.89639
#
# Velocity S-wave (km/s) = 4.38636 2.90729 3.72105
# Velocity P-wave (km/s) = 7.54380 7.25834 7.40245
#
# Compressibility (1/GPa) = 0.01779384
#
# Stress axis : x y z
#
# Youngs Moduli (GPa) = 56.26512 29.98394 117.02356
#
# Poissons Ratio (x) = 0.42909 0.42938
# Poissons Ratio (y) = 0.80519 0.34616
# Poissons Ratio (z) = 0.20645 0.08869
#
# Static dielectric constant tensor:
#      x y z
#    x 1.628130 0.000000 0.000000 
#    y 0.000000 1.620320 0.000000 
#    z 0.000000 0.000000 1.597650 
# 
# From -- ./inp_files/2174.got.cif
#   From: 2010.05.17/outbox.cif.g08.bks.cpg/sg49_2_cif.got.tgz:2174.got - 2010.06.03 21:02:19.
