data_PCOD9393528
_publ_section_title
;
Structure prediction by ZEFSAII (Michael W. Deem and Ramdas Pophale) SiO2 
 PCOD9393528
Probable space group: P C C M
;
_chemical_formula_sum "Si O2"
_cell_formula_units_Z 64
_cell_length_a 15.132595
_cell_length_b 28.203418
_cell_length_c 8.886125
_cell_angle_alpha 90.000000
_cell_angle_beta 90.000000
_cell_angle_gamma 90.000000
_cell_volume 3792.517306
_symmetry_space_group_name_H-M "P C C M"
_symmetry_group_IT_number 49
_symmetry_cell_setting 'orthorhombic'
loop_
_space_group_symop_operation_xyz
x,y,z
-x,-y,z
x,-y,1/2-z
-x,y,1/2-z
-x,-y,-z
x,y,-z
-x,y,1/2+z
x,-y,1/2+z
loop_
_atom_site_type_symbol
_atom_site_label
_atom_site_fract_x
_atom_site_fract_y
_atom_site_fract_z
Si Si1 0.901449 0.047049 0.680082
Si Si2 0.276034 0.548691 0.679086
Si Si3 0.906886 0.574882 0.323760
Si Si4 0.594342 0.736772 0.678863
Si Si5 0.097579 0.847534 0.680639
Si Si6 0.093372 0.310796 0.324233
Si Si7 0.224492 0.761472 0.319544
Si Si8 0.594627 0.624219 0.679407
O O1 0.906369 0.041859 0.500000
O O2 0.866129 0.099603 0.716263
O O3 0.000000 0.048424 0.750000
O O4 0.857747 0.000000 0.750000
O O5 0.311959 0.500000 0.750000
O O6 0.280757 0.547278 0.500000
O O7 0.175443 0.554136 0.734373
O O8 0.330487 0.592840 0.744027
O O9 0.903354 0.561821 0.500000
O O10 0.899659 0.632285 0.313807
O O11 0.000000 0.561240 0.250000
O O12 0.500000 0.749930 0.750000
O O13 0.592239 0.743830 0.500000
O O14 0.677801 0.762660 0.751571
O O15 0.607622 0.680296 0.707066
O O16 0.087616 0.845208 0.500000
O O17 0.164512 0.806350 0.727145
O O18 0.000000 0.841459 0.750000
O O19 0.093783 0.297857 0.500000
O O20 0.172844 0.284627 0.241079
O O21 0.000000 0.296687 0.250000
O O22 0.229113 0.759956 0.500000
O O23 0.500000 0.611240 0.750000
O O24 0.594784 0.616623 0.500000
#
# Coordination Sequence:
#
# PCOD9393528 Si02
#       8
#     8   8   8   8   8   8   8   8
#     4   9  15  25  40  59  85 121 167 212 253 292
#     4  12  25  40  58  80 105 132 162 197 240 288
#     4  10  21  38  57  77 101 130 166 205 243 284
#     4  10  21  37  57  79 102 129 162 201 242 288
#     4   9  19  31  43  64  97 135 172 211 251 293
#     4  10  20  33  50  73 101 132 166 203 241 285
#     4  11  21  32  48  71 101 135 168 203 246 294
#     4  10  21  39  61  84 107 130 159 195 238 288
#
# _framework density 16.875335
#
# number of rings (size 3 to 8) (size 9 to 14) (size 15 to 20)
#    0.000    1.875    0.000    4.875    0.000    9.000 
#    0.000    2.500    0.000    0.000    0.000    0.000 
#    0.000    0.500    0.000    5.750    0.000    1.750 
#
# Total GULP energy -357419.450632 kJ/mol
# GULP energy per Si atom -5584.678916 kJ/mol
# Density = 1.683693 g / cm^3
# Si number density = 16.875335 Si / 1000 Ang^3
#
#
#
# Elastic Constant Matrix: (Units=GPa)
#
#
# Indices 1 2 3 4 5 6 
#
# 1 104.1370 41.9142 42.9809 0.0000 0.0000 0.0000
# 2 41.9142 54.9841 42.7608 0.0000 0.0000 0.0000
# 3 42.9809 42.7608 84.9420 0.0000 0.0000 0.0000
# 4 0.0000 0.0000 0.0000 36.2634 0.0000 0.0000
# 5 0.0000 0.0000 0.0000 0.0000 30.8336 0.0000
# 6 0.0000 0.0000 0.0000 0.0000 0.0000 10.0807
#
#
#
# Elastic Compliance Matrix: (Units=1/GPa)
#
#
# Indices 1 2 3 4 5 6 
#
# 1 0.014265 -0.008646 -0.002866 0.000000 0.000000 0.000000
# 2 -0.008646 0.035128 -0.013309 0.000000 0.000000 0.000000
# 3 -0.002866 -0.013309 0.019923 0.000000 0.000000 0.000000
# 4 0.000000 0.000000 0.000000 0.027576 0.000000 0.000000
# 5 0.000000 0.000000 0.000000 0.000000 0.032432 0.000000
# 6 0.000000 0.000000 0.000000 0.000000 0.000000 0.099199
#
#
# Mechanical properties :
#
#
# Convention : Reuss Voigt Hill
#
# Bulk Modulus (GPa) = 50.82641 55.48609 53.15625
# Shear Modulus (GPa) = 17.56089 23.19604 20.37846
#
# Velocity S-wave (km/s) = 3.22937 3.71152 3.47881
# Velocity P-wave (km/s) = 6.63997 7.16370 6.90680
#
# Compressibility (1/GPa) = 0.01967481
#
# Stress axis : x y z
#
# Youngs Moduli (GPa) = 70.09967 28.46726 50.19327
#
# Poissons Ratio (x) = 0.24612 0.14386
# Poissons Ratio (y) = 0.60605 0.66803
# Poissons Ratio (z) = 0.20091 0.37888
#
# Static dielectric constant tensor:
#      x y z
#    x 1.550060 0.000000 0.000000 
#    y 0.000000 1.605490 0.000000 
#    z 0.000000 0.000000 1.552590 
# 
# From -- ./inp_files/4526.got.cif
#   From: 2010.05.17/outbox.cif.g08.bks.cpg/sg49_3_cif.got.tgz:4526.got - 2010.06.03 21:02:19.
