data_PCOD9393963
_publ_section_title
;
Structure prediction by ZEFSAII (Michael W. Deem and Ramdas Pophale) SiO2 
 PCOD9393963
Probable space group: P C C M
;
_chemical_formula_sum "Si O2"
_cell_formula_units_Z 48
_cell_length_a 32.193728
_cell_length_b 9.282027
_cell_length_c 8.617945
_cell_angle_alpha 90.000000
_cell_angle_beta 90.000000
_cell_angle_gamma 90.000000
_cell_volume 2575.240631
_symmetry_space_group_name_H-M "P C C M"
_symmetry_group_IT_number 49
_symmetry_cell_setting 'orthorhombic'
loop_
_space_group_symop_operation_xyz
x,y,z
-x,-y,z
x,-y,1/2-z
-x,y,1/2-z
-x,-y,-z
x,y,-z
-x,y,1/2+z
x,-y,1/2+z
loop_
_atom_site_type_symbol
_atom_site_label
_atom_site_fract_x
_atom_site_fract_y
_atom_site_fract_z
Si Si1 0.866386 0.837488 0.312892
Si Si2 0.544563 0.161610 0.686612
Si Si3 0.374576 0.339173 0.812953
Si Si4 0.042292 0.163709 0.685649
Si Si5 0.785374 0.338563 0.186763
Si Si6 0.707125 0.838316 0.813325
O O1 0.865622 0.845987 0.500000
O O2 0.912201 0.778257 0.268642
O O3 0.828235 0.738404 0.262593
O O4 0.861704 0.000000 0.250000
O O5 0.500000 0.212234 0.750000
O O6 0.543063 0.156145 0.500000
O O7 0.582703 0.262074 0.736135
O O8 0.551098 0.000000 0.750000
O O9 0.371522 0.500000 0.750000
O O10 0.334855 0.244676 0.764733
O O11 0.374565 0.344236 0.000000
O O12 0.039499 0.159589 0.500000
O O13 0.000000 0.233068 0.750000
O O14 0.042899 0.000000 0.750000
O O15 0.783187 0.500000 0.250000
O O16 0.746759 0.246892 0.249264
O O17 0.784134 0.340660 0.000000
O O18 0.706883 0.000000 0.750000
O O19 0.708794 0.841083 0.000000
#
# Coordination Sequence:
#
# PCOD9393963 Si02
#       6
#     8   8   8   8   8   8
#     4   9  19  33  51  75 105 137 174 217 264 316
#     4  10  20  36  57  83 111 145 186 229 273 321
#     4  10  23  39  57  82 114 148 184 223 271 324
#     4   9  15  25  42  68  99 131 166 210 259 309
#     4  11  23  39  57  80 109 143 180 223 271 324
#     4  11  23  40  61  86 112 143 181 224 271 323
#
# _framework density 18.639033999999999
#
# number of rings (size 3 to 8) (size 9 to 14) (size 15 to 20)
#    0.000    2.000    0.000    4.500    0.000    7.667 
#    0.000    1.667    0.000    0.500    0.000    3.500 
#    0.000    0.000    0.000    0.000    0.000    0.000 
#
# Total GULP energy -267968.278680 kJ/mol
# GULP energy per Si atom -5582.672473 kJ/mol
# Density = 1.859661 g / cm^3
# Si number density = 18.639034 Si / 1000 Ang^3
#
#
#
# Elastic Constant Matrix: (Units=GPa)
#
#
# Indices 1 2 3 4 5 6 
#
# 1 226.4842 113.6717 51.3680 0.0000 0.0000 0.0000
# 2 113.6717 129.9035 31.7170 0.0000 0.0000 0.0000
# 3 51.3680 31.7170 46.7091 0.0000 0.0000 0.0000
# 4 0.0000 0.0000 0.0000 27.4690 0.0000 0.0000
# 5 0.0000 0.0000 0.0000 0.0000 29.8709 0.0000
# 6 0.0000 0.0000 0.0000 0.0000 0.0000 35.1539
#
#
#
# Elastic Compliance Matrix: (Units=1/GPa)
#
#
# Indices 1 2 3 4 5 6 
#
# 1 0.008873 -0.006451 -0.005377 0.000000 0.000000 0.000000
# 2 -0.006451 0.013918 -0.002356 0.000000 0.000000 0.000000
# 3 -0.005377 -0.002356 0.028923 0.000000 0.000000 0.000000
# 4 0.000000 0.000000 0.000000 0.036405 0.000000 0.000000
# 5 0.000000 0.000000 0.000000 0.000000 0.033477 0.000000
# 6 0.000000 0.000000 0.000000 0.000000 0.000000 0.028446
#
#
# Mechanical properties :
#
#
# Convention : Reuss Voigt Hill
#
# Bulk Modulus (GPa) = 42.83699 88.51225 65.67462
# Shear Modulus (GPa) = 26.85381 32.25476 29.55428
#
# Velocity S-wave (km/s) = 3.79981 4.16443 3.98629
# Velocity P-wave (km/s) = 6.50259 8.40916 7.51657
#
# Compressibility (1/GPa) = 0.02334431
#
# Stress axis : x y z
#
# Youngs Moduli (GPa) = 112.70515 71.84703 34.57492
#
# Poissons Ratio (x) = 0.46350 0.18591
# Poissons Ratio (y) = 0.72708 0.08147
# Poissons Ratio (z) = 0.60603 0.16931
#
# Static dielectric constant tensor:
#      x y z
#    x 1.677970 0.000000 0.000000 
#    y 0.000000 1.591770 0.000000 
#    z 0.000000 0.000000 1.634070 
# 
# From -- ./inp_files/2095.got.cif
#   From: 2010.05.17/outbox.cif.g08.bks.cpg/sg49_2_cif.got.tgz:2095.got - 2010.06.03 21:02:19.
