data_PCOD9393401
_publ_section_title
;
Structure prediction by ZEFSAII (Michael W. Deem and Ramdas Pophale) SiO2 
 PCOD9393401
Probable space group: P C C M
;
_chemical_formula_sum "Si O2"
_cell_formula_units_Z 40
_cell_length_a 10.208320
_cell_length_b 8.411918
_cell_length_c 23.228606
_cell_angle_alpha 90.000000
_cell_angle_beta 90.000000
_cell_angle_gamma 90.000000
_cell_volume 1994.676419
_symmetry_space_group_name_H-M "P C C M"
_symmetry_group_IT_number 49
_symmetry_cell_setting 'orthorhombic'
loop_
_space_group_symop_operation_xyz
x,y,z
-x,-y,z
x,-y,1/2-z
-x,y,1/2-z
-x,-y,-z
x,y,-z
-x,y,1/2+z
x,-y,1/2+z
loop_
_atom_site_type_symbol
_atom_site_label
_atom_site_fract_x
_atom_site_fract_y
_atom_site_fract_z
Si Si1 0.996011 0.306786 0.121309
Si Si2 0.276402 0.332898 0.671334
Si Si3 0.910154 0.343645 0.500000
Si Si4 0.239512 0.708746 0.305334
Si Si5 0.465016 0.180832 0.117402
Si Si6 0.604202 0.642291 0.000000
O O1 0.052704 0.255824 0.059359
O O2 0.094555 0.253576 0.171518
O O3 0.000000 0.500000 0.122486
O O4 0.845456 0.268731 0.133861
O O5 0.269848 0.525551 0.675295
O O6 0.255475 0.279209 0.737157
O O7 0.412275 0.274792 0.644885
O O8 0.758924 0.397726 0.500000
O O9 0.000000 0.500000 0.500000
O O10 0.346120 0.812818 0.337718
O O11 0.422137 0.261137 0.058068
O O12 0.500000 0.000000 0.106284
O O13 0.500000 0.500000 0.000000
#
# Coordination Sequence:
#
# PCOD9393401 Si02
#       6
#     8   8   4   8   8   4
#     4   9  18  33  59  92 125 151 202 267 316 358
#     4  10  21  36  63  93 121 161 210 258 309 364
#     4  10  20  35  63  98 121 147 195 262 323 362
#     4  10  19  38  62  91 123 161 210 260 306 361
#     4  12  26  41  59  88 130 167 203 251 308 369
#     4  12  25  43  71  92 120 160 208 258 307 369
#
# _framework density 20.053377000000001
#
# number of rings (size 3 to 8) (size 9 to 14) (size 15 to 20)
#    0.000    1.600    2.000    3.300    5.600    5.600 
#    0.000    1.000    0.000    3.600    0.000    0.000 
#    0.000    0.000    0.000    0.000    0.000    0.000 
#
# Total GULP energy -223475.386848 kJ/mol
# GULP energy per Si atom -5586.884671 kJ/mol
# Density = 2.000773 g / cm^3
# Si number density = 20.053377 Si / 1000 Ang^3
#
#
#
# Elastic Constant Matrix: (Units=GPa)
#
#
# Indices 1 2 3 4 5 6 
#
# 1 130.2599 11.3164 39.1230 0.0000 0.0000 0.0000
# 2 11.3164 28.0147 11.9820 0.0000 0.0000 0.0000
# 3 39.1230 11.9820 94.2103 0.0000 0.0000 0.0000
# 4 0.0000 0.0000 0.0000 -10.0741 0.0000 0.0000
# 5 0.0000 0.0000 0.0000 0.0000 37.0746 0.0000
# 6 0.0000 0.0000 0.0000 0.0000 0.0000 5.4806
#
#
#
# Elastic Compliance Matrix: (Units=1/GPa)
#
#
# Indices 1 2 3 4 5 6 
#
# 1 0.008889 -0.002128 -0.003421 0.000000 0.000000 0.000000
# 2 -0.002128 0.038258 -0.003982 0.000000 0.000000 0.000000
# 3 -0.003421 -0.003982 0.012542 0.000000 0.000000 0.000000
# 4 0.000000 0.000000 0.000000 -0.099265 0.000000 0.000000
# 5 0.000000 0.000000 0.000000 0.000000 0.026973 0.000000
# 6 0.000000 0.000000 0.000000 0.000000 0.000000 0.182462
#
#
# Mechanical properties :
#
#
# Convention : Reuss Voigt Hill
#
# Bulk Modulus (GPa) = 24.61382 41.92529 33.26956
# Shear Modulus (GPa) = 24.69578 19.16712 21.93145
#
# Velocity S-wave (km/s) = 3.51308 3.09496 3.31063
# Velocity P-wave (km/s) = 5.36251 5.80723 5.58930
#
# Compressibility (1/GPa) = 0.04062758
#
# Stress axis : x y z
#
# Youngs Moduli (GPa) = 112.49560 26.13812 79.73454
#
# Poissons Ratio (x) = 0.05561 0.27276
# Poissons Ratio (y) = 0.23935 0.31753
# Poissons Ratio (z) = 0.38483 0.10409
#
# Static dielectric constant tensor:
#      x y z
#    x 1.695420 0.000000 0.000000 
#    y 0.000000 1.691620 0.000000 
#    z 0.000000 0.000000 1.712260 
# 
# From -- ./inp_files/24367.got.cif
#   From: 2010.05.17/outbox.cif.g08.bks.cpg/sg49_13_cif.got.tgz:24367.got - 2010.06.03 21:02:19.
