data_PCOD9393997
_publ_section_title
;
Structure prediction by ZEFSAII (Michael W. Deem and Ramdas Pophale) SiO2 
 PCOD9393997
Probable space group: P C C M
;
_chemical_formula_sum "Si O2"
_cell_formula_units_Z 56
_cell_length_a 10.411048
_cell_length_b 16.628569
_cell_length_c 15.498223
_cell_angle_alpha 90.000000
_cell_angle_beta 90.000000
_cell_angle_gamma 90.000000
_cell_volume 2683.065230
_symmetry_space_group_name_H-M "P C C M"
_symmetry_group_IT_number 49
_symmetry_cell_setting 'orthorhombic'
loop_
_space_group_symop_operation_xyz
x,y,z
-x,-y,z
x,-y,1/2-z
-x,y,1/2-z
-x,-y,-z
x,y,-z
-x,y,1/2+z
x,-y,1/2+z
loop_
_atom_site_type_symbol
_atom_site_label
_atom_site_fract_x
_atom_site_fract_y
_atom_site_fract_z
Si Si1 0.988644 0.232415 0.145804
Si Si2 0.241903 0.344964 0.338759
Si Si3 0.513389 0.752024 0.353866
Si Si4 0.889000 0.942407 0.398289
Si Si5 0.853364 0.505049 0.099518
Si Si6 0.400659 0.932740 0.895916
Si Si7 0.242822 0.316958 0.866566
O O1 0.127193 0.257082 0.110388
O O2 0.000000 0.226128 0.250000
O O3 0.886327 0.302419 0.125486
O O4 0.936322 0.148685 0.111475
O O5 0.367671 0.304826 0.379089
O O6 0.231511 0.439818 0.351180
O O7 0.243607 0.325019 0.237391
O O8 0.500000 0.748140 0.250000
O O9 0.548792 0.843526 0.375732
O O10 0.380264 0.718812 0.392185
O O11 0.878520 0.962266 0.500000
O O12 0.744271 0.947090 0.361909
O O13 0.000000 0.000000 0.360937
O O14 0.795226 0.594065 0.102873
O O15 0.000000 0.500000 0.133801
O O16 0.858505 0.478837 0.000000
O O17 0.500000 0.000000 0.864167
O O18 0.395029 0.938593 0.000000
#
# Coordination Sequence:
#
# PCOD9393997 Si02
#       7
#     8   8   8   8   8   8   8
#     4  10  20  36  59  87 113 148 195 237 281 338
#     4  10  20  39  61  81 114 152 188 232 286 342
#     4  10  22  40  60  87 116 149 193 236 287 342
#     4  10  22  39  59  85 117 153 192 235 286 341
#     4  11  23  37  57  87 117 148 192 239 285 338
#     4  10  22  40  60  83 115 155 193 232 286 347
#     4  10  22  37  59  86 115 149 189 236 284 341
#
# _framework density 20.871649999999999
#
# number of rings (size 3 to 8) (size 9 to 14) (size 15 to 20)
#    0.000    1.857    2.857    0.429    2.000    4.000 
#    0.000    4.286    0.000    0.000    0.000    0.000 
#    0.000    0.000    0.000    0.000    0.000    0.000 
#
# Total GULP energy -312826.054407 kJ/mol
# GULP energy per Si atom -5586.179543 kJ/mol
# Density = 2.082415 g / cm^3
# Si number density = 20.871650 Si / 1000 Ang^3
#
#
#
# Elastic Constant Matrix: (Units=GPa)
#
#
# Indices 1 2 3 4 5 6 
#
# 1 201.5120 84.7440 19.3292 0.0000 0.0000 0.0000
# 2 84.7440 121.6750 -4.2390 0.0000 0.0000 0.0000
# 3 19.3292 -4.2390 21.7272 0.0000 0.0000 0.0000
# 4 0.0000 0.0000 0.0000 31.6809 0.0000 0.0000
# 5 0.0000 0.0000 0.0000 0.0000 6.4678 0.0000
# 6 0.0000 0.0000 0.0000 0.0000 0.0000 38.1770
#
#
#
# Elastic Compliance Matrix: (Units=1/GPa)
#
#
# Indices 1 2 3 4 5 6 
#
# 1 0.008369 -0.006130 -0.008642 0.000000 0.000000 0.000000
# 2 -0.006130 0.012765 0.007944 0.000000 0.000000 0.000000
# 3 -0.008642 0.007944 0.055263 0.000000 0.000000 0.000000
# 4 0.000000 0.000000 0.000000 0.031565 0.000000 0.000000
# 5 0.000000 0.000000 0.000000 0.000000 0.154613 0.000000
# 6 0.000000 0.000000 0.000000 0.000000 0.000000 0.026194
#
#
# Mechanical properties :
#
#
# Convention : Reuss Voigt Hill
#
# Bulk Modulus (GPa) = 15.93836 60.50918 38.22377
# Shear Modulus (GPa) = 15.46369 31.60382 23.53375
#
# Velocity S-wave (km/s) = 2.72489 3.89549 3.36154
# Velocity P-wave (km/s) = 4.18963 7.02048 5.78101
#
# Compressibility (1/GPa) = 0.06274172
#
# Stress axis : x y z
#
# Youngs Moduli (GPa) = 119.48318 78.33984 18.09529
#
# Poissons Ratio (x) = 0.48024 0.15637
# Poissons Ratio (y) = 0.73245 -0.14375
# Poissons Ratio (z) = 1.03253 -0.62234
#
# Static dielectric constant tensor:
#      x y z
#    x 1.763790 0.000000 0.000000 
#    y 0.000000 1.697320 0.000000 
#    z 0.000000 0.000000 1.789610 
# 
# From -- ./inp_files/19884.got.cif
#   From: 2010.05.17/outbox.cif.g08.bks.cpg/sg49_10_cif.got.tgz:19884.got - 2010.06.03 21:02:19.
