data_PCOD9393485
_publ_section_title
;
Structure prediction by ZEFSAII (Michael W. Deem and Ramdas Pophale) SiO2 
 PCOD9393485
Probable space group: P C C M
;
_chemical_formula_sum "Si O2"
_cell_formula_units_Z 40
_cell_length_a 13.886676
_cell_length_b 19.181226
_cell_length_c 8.772688
_cell_angle_alpha 90.000000
_cell_angle_beta 90.000000
_cell_angle_gamma 90.000000
_cell_volume 2336.723623
_symmetry_space_group_name_H-M "P C C M"
_symmetry_group_IT_number 49
_symmetry_cell_setting 'orthorhombic'
loop_
_space_group_symop_operation_xyz
x,y,z
-x,-y,z
x,-y,1/2-z
-x,y,1/2-z
-x,-y,-z
x,y,-z
-x,y,1/2+z
x,-y,1/2+z
loop_
_atom_site_type_symbol
_atom_site_label
_atom_site_fract_x
_atom_site_fract_y
_atom_site_fract_z
Si Si1 0.793602 0.282328 0.317082
Si Si2 0.103074 0.851047 0.816851
Si Si3 0.893066 0.572829 0.817504
Si Si4 0.396271 0.781957 0.183280
Si Si5 0.701140 0.074246 0.817432
O O1 0.792603 0.274525 0.500000
O O2 0.865201 0.224409 0.247051
O O3 0.829969 0.359653 0.279269
O O4 0.688839 0.265654 0.249521
O O5 0.190106 0.903026 0.772788
O O6 0.000000 0.871205 0.750000
O O7 0.098878 0.847864 0.000000
O O8 0.855341 0.500000 0.750000
O O9 0.000000 0.582754 0.750000
O O10 0.899816 0.567204 0.000000
O O11 0.500000 0.764419 0.250000
O O12 0.367033 0.861344 0.228018
O O13 0.396037 0.777928 0.000000
O O14 0.674520 0.000000 0.750000
O O15 0.698887 0.069875 0.000000
#
# Coordination Sequence:
#
# PCOD9393485 Si02
#       5
#     8   8   8   8   8
#     4  10  20  34  53  77 103 134 170 210 253 299
#     4  10  20  33  49  72 100 134 173 210 251 300
#     4  10  20  32  50  77 109 142 174 205 243 290
#     4  10  21  37  56  78 101 129 166 209 256 306
#     4   9  20  35  50  71  99 130 166 207 253 302
#
# _framework density 17.117985000000001
#
# number of rings (size 3 to 8) (size 9 to 14) (size 15 to 20)
#    0.000    2.200    0.000    4.800    0.000   10.400 
#    0.000    4.000    0.000    0.600    0.000    4.200 
#    0.000    0.000    0.000    0.000    0.000    0.000 
#
# Total GULP energy -223282.988554 kJ/mol
# GULP energy per Si atom -5582.074714 kJ/mol
# Density = 1.707902 g / cm^3
# Si number density = 17.117985 Si / 1000 Ang^3
#
#
#
# Elastic Constant Matrix: (Units=GPa)
#
#
# Indices 1 2 3 4 5 6 
#
# 1 61.0984 14.8485 17.0504 0.0000 0.0000 0.0000
# 2 14.8485 101.6409 29.6426 0.0000 0.0000 0.0000
# 3 17.0504 29.6426 47.9881 0.0000 0.0000 0.0000
# 4 0.0000 0.0000 0.0000 27.1259 0.0000 0.0000
# 5 0.0000 0.0000 0.0000 0.0000 5857.5320 0.0000
# 6 0.0000 0.0000 0.0000 0.0000 0.0000 7.1677
#
#
#
# Elastic Compliance Matrix: (Units=1/GPa)
#
#
# Indices 1 2 3 4 5 6 
#
# 1 0.018243 -0.000945 -0.005898 0.000000 0.000000 0.000000
# 2 -0.000945 0.012049 -0.007107 0.000000 0.000000 0.000000
# 3 -0.005898 -0.007107 0.027324 0.000000 0.000000 0.000000
# 4 0.000000 0.000000 0.000000 0.036865 0.000000 0.000000
# 5 0.000000 0.000000 0.000000 0.000000 0.000171 0.000000
# 6 0.000000 0.000000 0.000000 0.000000 0.000000 0.139514
#
#
# Mechanical properties :
#
#
# Convention : Reuss Voigt Hill
#
# Bulk Modulus (GPa) = 33.65201 37.09005 35.37103
# Shear Modulus (GPa) = 18.38427 1188.31085 603.34756
#
# Velocity S-wave (km/s) = 3.28071 26.37604 18.79439
# Velocity P-wave (km/s) = 5.83543 30.81085 22.17387
#
# Compressibility (1/GPa) = 0.02971591
#
# Stress axis : x y z
#
# Youngs Moduli (GPa) = 54.81672 82.99200 36.59745
#
# Poissons Ratio (x) = 0.07842 0.21585
# Poissons Ratio (y) = 0.05180 0.26011
# Poissons Ratio (z) = 0.32331 0.58984
#
# Static dielectric constant tensor:
#      x y z
#    x 1.561930 0.000000 0.000000 
#    y 0.000000 1.570780 0.000000 
#    z 0.000000 0.000000 1.573020 
# 
# From -- ./inp_files/2686.got.cif
#   From: 2010.05.17/outbox.cif.g08.bks.cpg/sg49_2_cif.got.tgz:2686.got - 2010.06.03 21:02:19.
