data_PCOD9393624
_publ_section_title
;
Structure prediction by ZEFSAII (Michael W. Deem and Ramdas Pophale) SiO2 
 PCOD9393624
Probable space group: P C C M
;
_chemical_formula_sum "Si O2"
_cell_formula_units_Z 48
_cell_length_a 30.055032
_cell_length_b 10.500449
_cell_length_c 8.583269
_cell_angle_alpha 90.000000
_cell_angle_beta 90.000000
_cell_angle_gamma 90.000000
_cell_volume 2708.805286
_symmetry_space_group_name_H-M "P C C M"
_symmetry_group_IT_number 49
_symmetry_cell_setting 'orthorhombic'
loop_
_space_group_symop_operation_xyz
x,y,z
-x,-y,z
x,-y,1/2-z
-x,y,1/2-z
-x,-y,-z
x,y,-z
-x,y,1/2+z
x,-y,1/2+z
loop_
_atom_site_type_symbol
_atom_site_label
_atom_site_fract_x
_atom_site_fract_y
_atom_site_fract_z
Si Si1 0.215556 0.138264 0.687746
Si Si2 0.383497 0.361276 0.687886
Si Si3 0.281039 0.638716 0.188237
Si Si4 0.049900 0.362030 0.186108
Si Si5 0.450389 0.139078 0.312502
Si Si6 0.887652 0.139609 0.187249
O O1 0.216959 0.134919 0.500000
O O2 0.248053 0.250291 0.742024
O O3 0.164086 0.160480 0.733240
O O4 0.229100 0.000000 0.750000
O O5 0.396927 0.500000 0.750000
O O6 0.384176 0.365081 0.500000
O O7 0.332283 0.337951 0.737089
O O8 0.416356 0.248975 0.738259
O O9 0.267787 0.500000 0.250000
O O10 0.280118 0.635961 0.000000
O O11 0.064778 0.500000 0.250000
O O12 0.081697 0.249904 0.244184
O O13 0.000000 0.341072 0.250000
O O14 0.048656 0.366017 0.000000
O O15 0.500000 0.164907 0.250000
O O16 0.451626 0.134979 0.500000
O O17 0.437013 0.000000 0.250000
O O18 0.900614 0.000000 0.250000
O O19 0.890513 0.140269 0.000000
#
# Coordination Sequence:
#
# PCOD9393624 Si02
#       6
#     8   8   8   8   8   8
#     4   9  19  34  53  76 105 136 170 210 253 300
#     4   9  19  34  52  73 100 131 167 207 251 299
#     4   9  18  34  52  74 102 133 168 209 251 298
#     4  11  22  38  58  81 108 140 175 216 261 309
#     4  10  20  34  51  73  99 130 165 206 250 299
#     4  10  20  36  55  79 108 140 176 216 259 307
#
# _framework density 17.719989000000002
#
# number of rings (size 3 to 8) (size 9 to 14) (size 15 to 20)
#    0.000    2.333    0.000    3.500    0.000    4.667 
#    0.000    5.000    0.000    0.000    0.000    0.000 
#    0.000    0.000    0.000    0.000    0.000    0.000 
#
# Total GULP energy -267887.154375 kJ/mol
# GULP energy per Si atom -5580.982383 kJ/mol
# Density = 1.767966 g / cm^3
# Si number density = 17.719989 Si / 1000 Ang^3
#
#
#
# Elastic Constant Matrix: (Units=GPa)
#
#
# Indices 1 2 3 4 5 6 
#
# 1 93.9096 126.7687 34.1884 0.0000 0.0000 0.0000
# 2 126.7687 209.0951 48.8848 0.0000 0.0000 0.0000
# 3 34.1884 48.8848 56.3546 0.0000 0.0000 0.0000
# 4 0.0000 0.0000 0.0000 34.1359 0.0000 0.0000
# 5 0.0000 0.0000 0.0000 0.0000 20.1868 0.0000
# 6 0.0000 0.0000 0.0000 0.0000 0.0000 44.7510
#
#
#
# Elastic Compliance Matrix: (Units=1/GPa)
#
#
# Indices 1 2 3 4 5 6 
#
# 1 0.060269 -0.035112 -0.006105 0.000000 0.000000 0.000000
# 2 -0.035112 0.026455 -0.001647 0.000000 0.000000 0.000000
# 3 -0.006105 -0.001647 0.022877 0.000000 0.000000 0.000000
# 4 0.000000 0.000000 0.000000 0.029295 0.000000 0.000000
# 5 0.000000 0.000000 0.000000 0.000000 0.049537 0.000000
# 6 0.000000 0.000000 0.000000 0.000000 0.000000 0.022346
#
#
# Mechanical properties :
#
#
# Convention : Reuss Voigt Hill
#
# Bulk Modulus (GPa) = 41.88885 86.56036 64.22460
# Shear Modulus (GPa) = 16.42213 29.78255 23.10234
#
# Velocity S-wave (km/s) = 3.04757 4.10412 3.61466
# Velocity P-wave (km/s) = 6.00618 8.45065 7.33102
#
# Compressibility (1/GPa) = 0.02387270
#
# Stress axis : x y z
#
# Youngs Moduli (GPa) = 16.59215 37.79959 43.71121
#
# Poissons Ratio (x) = 1.32723 0.26687
# Poissons Ratio (y) = 0.58259 0.07200
# Poissons Ratio (z) = 0.10130 0.06226
#
# Static dielectric constant tensor:
#      x y z
#    x 1.597780 0.000000 0.000000 
#    y 0.000000 1.575160 0.000000 
#    z 0.000000 0.000000 1.602790 
# 
# From -- ./inp_files/2031.got.cif
#   From: 2010.05.17/outbox.cif.g08.bks.cpg/sg49_2_cif.got.tgz:2031.got - 2010.06.03 21:02:19.
