data_PCOD9393237
_publ_section_title
;
Structure prediction by ZEFSAII (Michael W. Deem and Ramdas Pophale) SiO2 
 PCOD9393237
Probable space group: P C C M
;
_chemical_formula_sum "Si O2"
_cell_formula_units_Z 40
_cell_length_a 21.790206
_cell_length_b 5.244463
_cell_length_c 16.952423
_cell_angle_alpha 90.000000
_cell_angle_beta 90.000000
_cell_angle_gamma 90.000000
_cell_volume 1937.287794
_symmetry_space_group_name_H-M "P C C M"
_symmetry_group_IT_number 49
_symmetry_cell_setting 'orthorhombic'
loop_
_space_group_symop_operation_xyz
x,y,z
-x,-y,z
x,-y,1/2-z
-x,y,1/2-z
-x,-y,-z
x,y,-z
-x,y,1/2+z
x,-y,1/2+z
loop_
_atom_site_type_symbol
_atom_site_label
_atom_site_fract_x
_atom_site_fract_y
_atom_site_fract_z
Si Si1 0.934925 0.615599 0.595889
Si Si2 0.472668 0.257101 0.660234
Si Si3 0.137677 0.115452 0.096116
Si Si4 0.333370 0.449846 0.660898
Si Si5 0.276875 0.948139 0.406213
O O1 0.940026 0.635821 0.500000
O O2 0.886934 0.394389 0.615576
O O3 0.000000 0.500000 0.623637
O O4 0.908286 0.888678 0.623047
O O5 0.500000 0.500000 0.616829
O O6 0.500000 0.254360 0.750000
O O7 0.400950 0.319764 0.664324
O O8 0.500000 0.000000 0.624537
O O9 0.207616 0.094547 0.124087
O O10 0.138495 0.097542 0.000000
O O11 0.313547 0.500000 0.750000
O O12 0.323901 0.727270 0.621862
O O13 0.294536 0.232812 0.618533
O O14 0.275771 0.933167 0.500000
#
# Coordination Sequence:
#
# PCOD9393237 Si02
#       5
#     8   8   8   8   8
#     4   9  15  24  43  71 103 141 193 245 282 329
#     4  10  19  34  59  89 110 140 184 245 292 348
#     4   9  17  30  46  69 108 157 188 220 293 364
#     4  12  23  39  65  95 114 149 210 255 284 347
#     4  11  24  40  59  85 129 169 193 232 305 376
#
# _framework density 20.647421000000001
#
# number of rings (size 3 to 8) (size 9 to 14) (size 15 to 20)
#    0.000    1.800    2.000    4.200    2.800    5.600 
#    0.000    0.000    0.000   12.000    0.000    0.000 
#    0.000   56.000    0.000    0.000    0.000    0.000 
#
# Total GULP energy -222892.923310 kJ/mol
# GULP energy per Si atom -5572.323083 kJ/mol
# Density = 2.060043 g / cm^3
# Si number density = 20.647421 Si / 1000 Ang^3
#
#
#
# Elastic Constant Matrix: (Units=GPa)
#
#
# Indices 1 2 3 4 5 6 
#
# 1 27.6058 -29.9791 -4.0774 0.0000 0.0000 0.0000
# 2 -29.9791 112.0139 5.0497 0.0000 0.0000 0.0000
# 3 -4.0774 5.0497 24.5193 0.0000 0.0000 0.0000
# 4 0.0000 0.0000 0.0000 4.2363 0.0000 0.0000
# 5 0.0000 0.0000 0.0000 0.0000 12.8573 0.0000
# 6 0.0000 0.0000 0.0000 0.0000 0.0000 -33.0968
#
#
#
# Elastic Compliance Matrix: (Units=1/GPa)
#
#
# Indices 1 2 3 4 5 6 
#
# 1 0.051877 0.013622 0.005821 0.000000 0.000000 0.000000
# 2 0.013622 0.012588 -0.000327 0.000000 0.000000 0.000000
# 3 0.005821 -0.000327 0.041820 0.000000 0.000000 0.000000
# 4 0.000000 0.000000 0.000000 0.236053 0.000000 0.000000
# 5 0.000000 0.000000 0.000000 0.000000 0.077777 0.000000
# 6 0.000000 0.000000 0.000000 0.000000 0.000000 -0.030214
#
#
# Mechanical properties :
#
#
# Convention : Reuss Voigt Hill
#
# Bulk Modulus (GPa) = 6.91964 11.79172 9.35568
# Shear Modulus (GPa) = 12.50500 9.67575 11.09037
#
# Velocity S-wave (km/s) = 2.46365 2.16711 2.32012
# Velocity P-wave (km/s) = 3.38399 3.46196 3.42320
#
# Compressibility (1/GPa) = 0.14451625
#
# Stress axis : x y z
#
# Youngs Moduli (GPa) = 19.27638 79.44139 23.91219
#
# Poissons Ratio (x) = -1.08213 -0.13920
# Poissons Ratio (y) = -0.26258 0.00783
# Poissons Ratio (z) = -0.11221 0.02600
#
# Static dielectric constant tensor:
#      x y z
#    x 1.997190 0.000000 0.000000 
#    y 0.000000 1.691360 0.000000 
#    z 0.000000 0.000000 1.674480 
# 
# From -- ./inp_files/18074.got.cif
#   From: 2010.05.17/outbox.cif.g08.bks.cpg/sg49_10_cif.got.tgz:18074.got - 2010.06.03 21:02:19.
