data_PCOD9393580
_publ_section_title
;
Structure prediction by ZEFSAII (Michael W. Deem and Ramdas Pophale) SiO2 
 PCOD9393580
Probable space group: P C C M
;
_chemical_formula_sum "Si O2"
_cell_formula_units_Z 40
_cell_length_a 9.670389
_cell_length_b 26.814089
_cell_length_c 8.682303
_cell_angle_alpha 90.000000
_cell_angle_beta 90.000000
_cell_angle_gamma 90.000000
_cell_volume 2251.344361
_symmetry_space_group_name_H-M "P C C M"
_symmetry_group_IT_number 49
_symmetry_cell_setting 'orthorhombic'
loop_
_space_group_symop_operation_xyz
x,y,z
-x,-y,z
x,-y,1/2-z
-x,y,1/2-z
-x,-y,-z
x,y,-z
-x,y,1/2+z
x,-y,1/2+z
loop_
_atom_site_type_symbol
_atom_site_label
_atom_site_fract_x
_atom_site_fract_y
_atom_site_fract_z
Si Si1 0.344040 0.140621 0.314813
Si Si2 0.344743 0.353773 0.815633
Si Si3 0.655850 0.748701 0.315933
Si Si4 0.845898 0.553163 0.815037
Si Si5 0.154412 0.053372 0.815712
O O1 0.500000 0.137359 0.250000
O O2 0.347768 0.135708 0.500000
O O3 0.286819 0.196373 0.278179
O O4 0.251610 0.097715 0.241542
O O5 0.500000 0.358775 0.750000
O O6 0.281768 0.301560 0.754621
O O7 0.252841 0.401171 0.770587
O O8 0.352873 0.351402 0.000000
O O9 0.500000 0.749700 0.250000
O O10 0.651118 0.743843 0.500000
O O11 0.796013 0.500000 0.750000
O O12 0.000000 0.561007 0.750000
O O13 0.852265 0.550410 0.000000
O O14 0.000000 0.060919 0.750000
O O15 0.203496 0.000000 0.750000
O O16 0.149753 0.051321 0.000000
#
# Coordination Sequence:
#
# PCOD9393580 Si02
#       5
#     8   8   8   8   8
#     4  10  20  35  55  82 110 139 177 218 261 310
#     4  10  20  33  52  78 105 134 171 211 254 303
#     4   9  17  30  51  76 105 138 170 208 256 305
#     4  10  21  36  54  75 100 134 171 210 256 307
#     4  11  22  38  58  79 106 141 177 217 264 315
#
# _framework density 17.767163
#
# number of rings (size 3 to 8) (size 9 to 14) (size 15 to 20)
#    0.000    2.000    0.000    6.600    0.000    6.400 
#    0.000    5.000    0.000    2.400    0.000    0.000 
#    0.000    0.000    0.000    0.000    0.000    0.000 
#
# Total GULP energy -223174.462047 kJ/mol
# GULP energy per Si atom -5579.361551 kJ/mol
# Density = 1.772672 g / cm^3
# Si number density = 17.767163 Si / 1000 Ang^3
#
#
#
# Elastic Constant Matrix: (Units=GPa)
#
#
# Indices 1 2 3 4 5 6 
#
# 1 48.1045 80.9460 33.4153 0.0000 0.0000 0.0000
# 2 80.9460 220.4616 79.1793 0.0000 0.0000 0.0000
# 3 33.4153 79.1793 102.5302 0.0000 0.0000 0.0000
# 4 0.0000 0.0000 0.0000 34.2799 0.0000 0.0000
# 5 0.0000 0.0000 0.0000 0.0000 15.4174 0.0000
# 6 0.0000 0.0000 0.0000 0.0000 0.0000 -97.4889
#
#
#
# Elastic Compliance Matrix: (Units=1/GPa)
#
#
# Indices 1 2 3 4 5 6 
#
# 1 0.055159 -0.019091 -0.003233 0.000000 0.000000 0.000000
# 2 -0.019091 0.012885 -0.003728 0.000000 0.000000 0.000000
# 3 -0.003233 -0.003728 0.013686 0.000000 0.000000 0.000000
# 4 0.000000 0.000000 0.000000 0.029172 0.000000 0.000000
# 5 0.000000 0.000000 0.000000 0.000000 0.064862 0.000000
# 6 0.000000 0.000000 0.000000 0.000000 0.000000 -0.010258
#
#
# Mechanical properties :
#
#
# Convention : Reuss Voigt Hill
#
# Bulk Modulus (GPa) = 33.75625 84.24193 58.99909
# Shear Modulus (GPa) = 21.97932 2.27874 12.12903
#
# Velocity S-wave (km/s) = 3.52102 1.13373 2.61562
# Velocity P-wave (km/s) = 5.96411 7.01649 6.51160
#
# Compressibility (1/GPa) = 0.02962414
#
# Stress axis : x y z
#
# Youngs Moduli (GPa) = 18.12928 77.61201 73.06666
#
# Poissons Ratio (x) = 1.48172 0.23626
# Poissons Ratio (y) = 0.34611 0.27241
# Poissons Ratio (z) = 0.05862 0.28935
#
# Static dielectric constant tensor:
#      x y z
#    x 1.570710 0.000000 0.000000 
#    y 0.000000 1.641360 0.000000 
#    z 0.000000 0.000000 1.591190 
# 
# From -- ./inp_files/1689.got.cif
#   From: 2010.05.17/outbox.cif.g08.bks.cpg/sg49_1_cif.got.tgz:1689.got - 2010.06.03 21:02:19.
