data_PCOD9393163
_publ_section_title
;
Structure prediction by ZEFSAII (Michael W. Deem and Ramdas Pophale) SiO2 
 PCOD9393163
Probable space group: P C C M
;
_chemical_formula_sum "Si O2"
_cell_formula_units_Z 64
_cell_length_a 15.710639
_cell_length_b 25.277739
_cell_length_c 8.638686
_cell_angle_alpha 90.000000
_cell_angle_beta 90.000000
_cell_angle_gamma 90.000000
_cell_volume 3430.676466
_symmetry_space_group_name_H-M "P C C M"
_symmetry_group_IT_number 49
_symmetry_cell_setting 'orthorhombic'
loop_
_space_group_symop_operation_xyz
x,y,z
-x,-y,z
x,-y,1/2-z
-x,y,1/2-z
-x,-y,-z
x,y,-z
-x,y,1/2+z
x,-y,1/2+z
loop_
_atom_site_type_symbol
_atom_site_label
_atom_site_fract_x
_atom_site_fract_y
_atom_site_fract_z
Si Si1 0.088378 0.674020 0.185309
Si Si2 0.088678 0.094783 0.817528
Si Si3 0.132159 0.206443 0.684474
Si Si4 0.592834 0.441567 0.185615
Si Si5 0.410358 0.141666 0.314099
Si Si6 0.732573 0.943423 0.684995
Si Si7 0.721267 0.348515 0.187465
Si Si8 0.313515 0.765060 0.315784
O O1 0.095173 0.736245 0.228785
O O2 0.178775 0.648655 0.233864
O O3 0.000000 0.651981 0.250000
O O4 0.084998 0.671581 0.000000
O O5 0.094292 0.157086 0.774957
O O6 0.173017 0.069448 0.745237
O O7 0.000000 0.073842 0.750000
O O8 0.089996 0.087665 0.000000
O O9 0.122090 0.198391 0.500000
O O10 0.231408 0.211230 0.727205
O O11 0.611523 0.500000 0.250000
O O12 0.500000 0.425770 0.250000
O O13 0.665243 0.399336 0.228452
O O14 0.587885 0.444131 0.000000
O O15 0.500000 0.121677 0.250000
O O16 0.411946 0.145837 0.500000
O O17 0.334195 0.101959 0.268340
O O18 0.390915 0.198596 0.238824
O O19 0.734965 0.944865 0.500000
O O20 0.705454 0.000000 0.750000
O O21 0.682516 0.295805 0.263453
O O22 0.719517 0.341979 0.000000
O O23 0.301701 0.768536 0.500000
#
# Coordination Sequence:
#
# PCOD9393163 Si02
#       8
#     8   8   8   8   8   8   8   8
#     4   9  18  31  49  75 110 150 191 233 279 331
#     4  12  24  38  60  88 118 152 193 237 288 350
#     4  10  19  34  54  79 115 154 191 233 285 340
#     4  10  20  36  59  84 113 149 191 241 294 346
#     4  11  24  42  65  89 119 153 190 236 291 349
#     4  11  25  45  67  88 115 150 189 241 294 347
#     4   9  20  37  55  79 117 160 194 235 290 345
#     4  11  21  34  57  87 119 154 193 235 285 343
#
# _framework density 18.655214000000001
#
# number of rings (size 3 to 8) (size 9 to 14) (size 15 to 20)
#    0.000    1.625    1.250    5.250    0.000    7.000 
#    0.000    3.750    0.000    0.375    0.000    2.625 
#    0.000    0.000    0.000    0.000    0.000    0.000 
#
# Total GULP energy -357536.784210 kJ/mol
# GULP energy per Si atom -5586.512253 kJ/mol
# Density = 1.861275 g / cm^3
# Si number density = 18.655214 Si / 1000 Ang^3
#
#
#
# Elastic Constant Matrix: (Units=GPa)
#
#
# Indices 1 2 3 4 5 6 
#
# 1 125.4753 63.8704 33.7652 0.0000 0.0000 0.0000
# 2 63.8704 86.6217 25.4115 0.0000 0.0000 0.0000
# 3 33.7652 25.4115 44.0824 0.0000 0.0000 0.0000
# 4 0.0000 0.0000 0.0000 33.8098 0.0000 0.0000
# 5 0.0000 0.0000 0.0000 0.0000 29.6927 0.0000
# 6 0.0000 0.0000 0.0000 0.0000 0.0000 -8.5241
#
#
#
# Elastic Compliance Matrix: (Units=1/GPa)
#
#
# Indices 1 2 3 4 5 6 
#
# 1 0.013848 -0.008544 -0.005682 0.000000 0.000000 0.000000
# 2 -0.008544 0.019165 -0.004504 0.000000 0.000000 0.000000
# 3 -0.005682 -0.004504 0.029633 0.000000 0.000000 0.000000
# 4 0.000000 0.000000 0.000000 0.029577 0.000000 0.000000
# 5 0.000000 0.000000 0.000000 0.000000 0.033678 0.000000
# 6 0.000000 0.000000 0.000000 0.000000 0.000000 -0.117314
#
#
# Mechanical properties :
#
#
# Convention : Reuss Voigt Hill
#
# Bulk Modulus (GPa) = 39.70215 55.80818 47.75516
# Shear Modulus (GPa) = 91.84209 19.87118 55.85664
#
# Velocity S-wave (km/s) = 7.02412 3.26725 5.47783
# Velocity P-wave (km/s) = 9.33341 6.64934 8.10328
#
# Compressibility (1/GPa) = 0.02518756
#
# Stress axis : x y z
#
# Youngs Moduli (GPa) = 72.21456 52.17718 33.74629
#
# Poissons Ratio (x) = 0.44579 0.19173
# Poissons Ratio (y) = 0.61699 0.15199
# Poissons Ratio (z) = 0.41029 0.23500
#
# Static dielectric constant tensor:
#      x y z
#    x 1.687020 0.000000 0.000000 
#    y 0.000000 1.641570 0.000000 
#    z 0.000000 0.000000 1.622900 
# 
# From -- ./inp_files/4321.got.cif
#   From: 2010.05.17/outbox.cif.g08.bks.cpg/sg49_3_cif.got.tgz:4321.got - 2010.06.03 21:02:19.
