data_PCOD9393232
_publ_section_title
;
Structure prediction by ZEFSAII (Michael W. Deem and Ramdas Pophale) SiO2 
 PCOD9393232
Probable space group: P C C M
;
_chemical_formula_sum "Si O2"
_cell_formula_units_Z 60
_cell_length_a 16.294603
_cell_length_b 21.809997
_cell_length_c 9.242683
_cell_angle_alpha 90.000000
_cell_angle_beta 90.000000
_cell_angle_gamma 90.000000
_cell_volume 3284.713140
_symmetry_space_group_name_H-M "P C C M"
_symmetry_group_IT_number 49
_symmetry_cell_setting 'orthorhombic'
loop_
_space_group_symop_operation_xyz
x,y,z
-x,-y,z
x,-y,1/2-z
-x,y,1/2-z
-x,-y,-z
x,y,-z
-x,y,1/2+z
x,-y,1/2+z
loop_
_atom_site_type_symbol
_atom_site_label
_atom_site_fract_x
_atom_site_fract_y
_atom_site_fract_z
Si Si1 0.585658 0.147246 0.327540
Si Si2 0.000000 0.649219 0.750000
Si Si3 0.857153 0.562596 0.165345
Si Si4 0.585216 0.292249 0.327434
Si Si5 0.916642 0.127907 0.672347
Si Si6 0.742799 0.934754 0.174642
Si Si7 0.120304 0.751560 0.840593
Si Si8 0.739677 0.655889 0.671683
O O1 0.500000 0.129928 0.250000
O O2 0.574708 0.139255 0.500000
O O3 0.600616 0.219556 0.301050
O O4 0.666241 0.108954 0.283252
O O5 0.062187 0.605321 0.666208
O O6 0.056015 0.695655 0.840619
O O7 0.874104 0.500000 0.250000
O O8 0.789002 0.601092 0.252299
O O9 0.832570 0.550691 0.000000
O O10 0.500000 0.306896 0.250000
O O11 0.581850 0.301420 0.500000
O O12 0.655630 0.331682 0.253255
O O13 0.927099 0.124937 0.500000
O O14 0.832349 0.093041 0.712258
O O15 0.902835 0.198039 0.723260
O O16 0.000000 0.105563 0.750000
O O17 0.733079 0.000000 0.250000
O O18 0.740815 0.940569 0.000000
O O19 0.205988 0.717841 0.811166
O O20 0.121055 0.780737 0.000000
O O21 0.730574 0.645172 0.500000
#
# Coordination Sequence:
#
# PCOD9393232 Si02
#       8
#     8   4   8   8   8   8   8   8
#     4   9  19  36  58  86 117 147 181 223 280 344
#     4  10  21  34  56  84 113 144 188 228 278 334
#     4  11  23  38  56  79 112 154 195 236 279 326
#     4  10  19  34  58  87 118 149 182 225 279 336
#     4  11  23  38  57  80 109 144 186 237 289 340
#     4  10  23  41  58  79 108 146 190 234 281 338
#     4  10  20  34  54  82 113 144 182 228 280 337
#     4  10  21  36  55  82 114 148 189 233 278 333
#
# _framework density 18.266435000000001
#
# number of rings (size 3 to 8) (size 9 to 14) (size 15 to 20)
#    0.000    1.867    0.667    3.000    0.000    8.533 
#    0.000    2.667    0.000    0.400    0.000    2.800 
#    0.000    0.000    0.000    0.000    0.000    0.000 
#
# Total GULP energy -334900.016750 kJ/mol
# GULP energy per Si atom -5581.666946 kJ/mol
# Density = 1.822486 g / cm^3
# Si number density = 18.266435 Si / 1000 Ang^3
#
#
#
# Elastic Constant Matrix: (Units=GPa)
#
#
# Indices 1 2 3 4 5 6 
#
# 1 121.5484 35.5725 40.0178 0.0000 0.0000 0.0000
# 2 35.5725 46.9007 18.4390 0.0000 0.0000 0.0000
# 3 40.0178 18.4390 74.6850 0.0000 0.0000 0.0000
# 4 0.0000 0.0000 0.0000 17.0601 0.0000 0.0000
# 5 0.0000 0.0000 0.0000 0.0000 13.4842 0.0000
# 6 0.0000 0.0000 0.0000 0.0000 0.0000 18.5725
#
#
#
# Elastic Compliance Matrix: (Units=1/GPa)
#
#
# Indices 1 2 3 4 5 6 
#
# 1 0.011832 -0.007178 -0.004567 0.000000 0.000000 0.000000
# 2 -0.007178 0.027969 -0.003059 0.000000 0.000000 0.000000
# 3 -0.004567 -0.003059 0.016592 0.000000 0.000000 0.000000
# 4 0.000000 0.000000 0.000000 0.058616 0.000000 0.000000
# 5 0.000000 0.000000 0.000000 0.000000 0.074161 0.000000
# 6 0.000000 0.000000 0.000000 0.000000 0.000000 0.053843
#
#
# Mechanical properties :
#
#
# Convention : Reuss Voigt Hill
#
# Bulk Modulus (GPa) = 37.33674 47.91032 42.62353
# Shear Modulus (GPa) = 17.75886 19.76369 18.76127
#
# Velocity S-wave (km/s) = 3.12141 3.29290 3.20830
# Velocity P-wave (km/s) = 5.78580 6.38303 6.09174
#
# Compressibility (1/GPa) = 0.02678327
#
# Stress axis : x y z
#
# Youngs Moduli (GPa) = 84.51855 35.75426 60.26954
#
# Poissons Ratio (x) = 0.25665 0.27528
# Poissons Ratio (y) = 0.60669 0.18436
# Poissons Ratio (z) = 0.38603 0.10937
#
# Static dielectric constant tensor:
#      x y z
#    x 1.644960 0.000000 0.000000 
#    y 0.000000 1.601400 0.000000 
#    z 0.000000 0.000000 1.622330 
# 
# From -- ./inp_files/4247.got.cif
#   From: 2010.05.17/outbox.cif.g08.bks.cpg/sg49_3_cif.got.tgz:4247.got - 2010.06.03 21:02:19.
