data_PCOD9393324
_publ_section_title
;
Structure prediction by ZEFSAII (Michael W. Deem and Ramdas Pophale) SiO2 
 PCOD9393324
Probable space group: P C C M
;
_chemical_formula_sum "Si O2"
_cell_formula_units_Z 48
_cell_length_a 8.979582
_cell_length_b 16.903965
_cell_length_c 17.026214
_cell_angle_alpha 90.000000
_cell_angle_beta 90.000000
_cell_angle_gamma 90.000000
_cell_volume 2584.418215
_symmetry_space_group_name_H-M "P C C M"
_symmetry_group_IT_number 49
_symmetry_cell_setting 'orthorhombic'
loop_
_space_group_symop_operation_xyz
x,y,z
-x,-y,z
x,-y,1/2-z
-x,y,1/2-z
-x,-y,-z
x,y,-z
-x,y,1/2+z
x,-y,1/2+z
loop_
_atom_site_type_symbol
_atom_site_label
_atom_site_fract_x
_atom_site_fract_y
_atom_site_fract_z
Si Si1 0.402744 0.579639 0.406566
Si Si2 0.605093 0.296008 0.820073
Si Si3 0.207395 0.836427 0.093137
Si Si4 0.676009 0.999076 0.158610
Si Si5 0.074319 0.916238 0.405872
Si Si6 0.830568 0.591531 0.227468
O O1 0.500000 0.500000 0.385047
O O2 0.379011 0.577420 0.500000
O O3 0.504304 0.653701 0.380139
O O4 0.246572 0.590368 0.359325
O O5 0.500000 0.264256 0.750000
O O6 0.698023 0.227866 0.861573
O O7 0.718942 0.356875 0.779627
O O8 0.034206 0.845638 0.119296
O O9 0.272598 0.923134 0.111782
O O10 0.211861 0.821792 0.000000
O O11 0.758070 0.922321 0.123518
O O12 0.500000 0.000000 0.153448
O O13 0.719207 0.000000 0.250000
O O14 0.073680 0.916871 0.500000
O O15 0.000000 0.000000 0.379335
O O16 0.823525 0.500000 0.250000
O O17 0.000000 0.616999 0.250000
#
# Coordination Sequence:
#
# PCOD9393324 Si02
#       6
#     8   8   8   8   8   8
#     4  10  19  35  61  90 119 158 206 251 300 364
#     4  10  21  36  62  86 122 160 200 246 304 363
#     4  10  21  38  58  84 117 152 191 244 299 352
#     4  10  21  35  57  84 113 146 197 242 287 353
#     4   8  16  33  54  76 105 144 184 224 279 341
#     4  10  20  38  59  87 120 160 202 249 302 363
#
# _framework density 18.572845999999998
#
# number of rings (size 3 to 8) (size 9 to 14) (size 15 to 20)
#    0.000    2.333    1.667    2.000    2.333    4.333 
#    3.000    3.333    0.000    2.000    0.000    0.000 
#    0.000    0.000    0.000    0.000    0.000    0.000 
#
# Total GULP energy -267303.948100 kJ/mol
# GULP energy per Si atom -5568.832252 kJ/mol
# Density = 1.853057 g / cm^3
# Si number density = 18.572846 Si / 1000 Ang^3
#
#
#
# Elastic Constant Matrix: (Units=GPa)
#
#
# Indices 1 2 3 4 5 6 
#
# 1 123.4486 37.6098 66.4241 0.0000 0.0000 0.0000
# 2 37.6098 61.1665 31.8115 0.0000 0.0000 0.0000
# 3 66.4241 31.8115 72.2179 0.0000 0.0000 0.0000
# 4 0.0000 0.0000 0.0000 20.7093 0.0000 0.0000
# 5 0.0000 0.0000 0.0000 0.0000 22.3569 0.0000
# 6 0.0000 0.0000 0.0000 0.0000 0.0000 40.3775
#
#
#
# Elastic Compliance Matrix: (Units=1/GPa)
#
#
# Indices 1 2 3 4 5 6 
#
# 1 0.016427 -0.002909 -0.013828 0.000000 0.000000 0.000000
# 2 -0.002909 0.021722 -0.006893 0.000000 0.000000 0.000000
# 3 -0.013828 -0.006893 0.029602 0.000000 0.000000 0.000000
# 4 0.000000 0.000000 0.000000 0.048287 0.000000 0.000000
# 5 0.000000 0.000000 0.000000 0.000000 0.044729 0.000000
# 6 0.000000 0.000000 0.000000 0.000000 0.000000 0.024766
#
#
# Mechanical properties :
#
#
# Convention : Reuss Voigt Hill
#
# Bulk Modulus (GPa) = 48.80023 58.72487 53.76255
# Shear Modulus (GPa) = 20.86602 24.75458 22.81030
#
# Velocity S-wave (km/s) = 3.35546 3.65477 3.50830
# Velocity P-wave (km/s) = 6.42994 7.03541 6.73948
#
# Compressibility (1/GPa) = 0.02049171
#
# Stress axis : x y z
#
# Youngs Moduli (GPa) = 60.87465 46.03544 33.78184
#
# Poissons Ratio (x) = 0.13392 0.46713
# Poissons Ratio (y) = 0.17709 0.23285
# Poissons Ratio (z) = 0.84177 0.31731
#
# Static dielectric constant tensor:
#      x y z
#    x 1.719160 0.000000 0.000000 
#    y 0.000000 1.625110 0.000000 
#    z 0.000000 0.000000 1.637650 
# 
# From -- ./inp_files/16347.got.cif
#   From: 2010.05.17/outbox.cif.g08.bks.cpg/sg49_9_cif.got.tgz:16347.got - 2010.06.03 21:02:19.
