data_PCOD9393375
_publ_section_title
;
Structure prediction by ZEFSAII (Michael W. Deem and Ramdas Pophale) SiO2 
 PCOD9393375
Probable space group: P C C M
;
_chemical_formula_sum "Si O2"
_cell_formula_units_Z 48
_cell_length_a 15.731814
_cell_length_b 8.464809
_cell_length_c 17.622106
_cell_angle_alpha 90.000000
_cell_angle_beta 90.000000
_cell_angle_gamma 90.000000
_cell_volume 2346.679478
_symmetry_space_group_name_H-M "P C C M"
_symmetry_group_IT_number 49
_symmetry_cell_setting 'orthorhombic'
loop_
_space_group_symop_operation_xyz
x,y,z
-x,-y,z
x,-y,1/2-z
-x,y,1/2-z
-x,-y,-z
x,y,-z
-x,y,1/2+z
x,-y,1/2+z
loop_
_atom_site_type_symbol
_atom_site_label
_atom_site_fract_x
_atom_site_fract_y
_atom_site_fract_z
Si Si1 0.154524 0.246563 0.910883
Si Si2 0.969659 0.815600 0.411872
Si Si3 0.508983 0.691205 0.084755
Si Si4 0.354226 0.273186 0.679171
Si Si5 0.814448 0.924142 0.333010
Si Si6 0.676642 0.626619 0.149158
O O1 0.225552 0.335599 0.863585
O O2 0.056090 0.274933 0.889730
O O3 0.176885 0.063956 0.893984
O O4 0.163171 0.279992 0.000000
O O5 0.948625 0.779468 0.500000
O O6 0.888915 0.802761 0.357076
O O7 0.000000 0.000000 0.409614
O O8 0.500000 0.500000 0.094053
O O9 0.446500 0.769832 0.145979
O O10 0.609547 0.716073 0.095505
O O11 0.481971 0.734114 0.000000
O O12 0.278950 0.149952 0.666146
O O13 0.353563 0.318698 0.767649
O O14 0.331503 0.439121 0.639193
O O15 0.830585 0.000000 0.250000
#
# Coordination Sequence:
#
# PCOD9393375 Si02
#       6
#     8   8   8   8   8   8
#     4  10  20  36  58  82 112 148 188 231 279 336
#     4   8  17  33  53  78 107 143 186 226 269 328
#     4   9  18  33  56  82 107 143 187 225 270 333
#     4  10  21  35  56  83 113 142 186 233 281 323
#     4  11  20  35  55  84 110 147 186 234 279 334
#     4  10  19  37  57  81 111 148 184 228 278 338
#
# _framework density 20.454433999999999
#
# number of rings (size 3 to 8) (size 9 to 14) (size 15 to 20)
#    0.000    2.333    1.667    2.500    0.000    7.000 
#    0.000    1.667    0.000    6.000    0.000    0.000 
#    0.000    0.000    0.000    0.000    0.000    0.000 
#
# Total GULP energy -267511.339312 kJ/mol
# GULP energy per Si atom -5573.152902 kJ/mol
# Density = 2.040788 g / cm^3
# Si number density = 20.454434 Si / 1000 Ang^3
#
#
#
# Elastic Constant Matrix: (Units=GPa)
#
#
# Indices 1 2 3 4 5 6 
#
# 1 105.0294 9.5225 37.5752 0.0000 0.0000 0.0000
# 2 9.5225 3.2697 -3.2419 0.0000 0.0000 0.0000
# 3 37.5752 -3.2419 58.0130 0.0000 0.0000 0.0000
# 4 0.0000 0.0000 0.0000 11.2090 0.0000 0.0000
# 5 0.0000 0.0000 0.0000 0.0000 36.7856 0.0000
# 6 0.0000 0.0000 0.0000 0.0000 0.0000 19.4438
#
#
#
# Elastic Compliance Matrix: (Units=1/GPa)
#
#
# Indices 1 2 3 4 5 6 
#
# 1 0.027059 -0.101825 -0.023216 0.000000 0.000000 0.000000
# 2 -0.101825 0.706953 0.105459 0.000000 0.000000 0.000000
# 3 -0.023216 0.105459 0.038168 0.000000 0.000000 0.000000
# 4 0.000000 0.000000 0.000000 0.089214 0.000000 0.000000
# 5 0.000000 0.000000 0.000000 0.000000 0.027185 0.000000
# 6 0.000000 0.000000 0.000000 0.000000 0.000000 0.051430
#
#
# Mechanical properties :
#
#
# Convention : Reuss Voigt Hill
#
# Bulk Modulus (GPa) = 1.36423 28.22486 14.79454
# Shear Modulus (GPa) = 4.08659 21.65142 12.86901
#
# Velocity S-wave (km/s) = 1.41500 3.25702 2.51102
# Velocity P-wave (km/s) = 1.82704 5.28896 3.95671
#
# Compressibility (1/GPa) = 0.73301525
#
# Stress axis : x y z
#
# Youngs Moduli (GPa) = 36.95622 1.41452 26.19980
#
# Poissons Ratio (x) = 0.14403 0.60827
# Poissons Ratio (y) = 3.76306 -2.76300
# Poissons Ratio (z) = 0.85799 -0.14917
#
# Static dielectric constant tensor:
#      x y z
#    x 1.778360 0.000000 0.000000 
#    y 0.000000 1.797430 0.000000 
#    z 0.000000 0.000000 1.722640 
# 
# From -- ./inp_files/17694.got.cif
#   From: 2010.05.17/outbox.cif.g08.bks.cpg/sg49_9_cif.got.tgz:17694.got - 2010.06.03 21:02:19.
