data_PCOD9393766
_publ_section_title
;
Structure prediction by ZEFSAII (Michael W. Deem and Ramdas Pophale) SiO2 
 PCOD9393766
Probable space group: P C C M
;
_chemical_formula_sum "Si O2"
_cell_formula_units_Z 64
_cell_length_a 5.473324
_cell_length_b 17.910849
_cell_length_c 29.051249
_cell_angle_alpha 90.000000
_cell_angle_beta 90.000000
_cell_angle_gamma 90.000000
_cell_volume 2847.948547
_symmetry_space_group_name_H-M "P C C M"
_symmetry_group_IT_number 49
_symmetry_cell_setting 'orthorhombic'
loop_
_space_group_symop_operation_xyz
x,y,z
-x,-y,z
x,-y,1/2-z
-x,y,1/2-z
-x,-y,-z
x,y,-z
-x,y,1/2+z
x,-y,1/2+z
loop_
_atom_site_type_symbol
_atom_site_label
_atom_site_fract_x
_atom_site_fract_y
_atom_site_fract_z
Si Si1 0.252888 0.031494 0.198690
Si Si2 0.264987 0.207040 0.804619
Si Si3 0.400025 0.347426 0.053384
Si Si4 0.748582 0.349893 0.765314
Si Si5 0.088877 0.583853 0.944075
Si Si6 0.747913 0.963305 0.555121
Si Si7 0.711118 0.213704 0.948021
Si Si8 0.230378 0.256792 0.651023
O O1 0.276049 0.119920 0.206206
O O2 0.500000 0.000000 0.175967
O O3 0.250032 0.000000 0.250000
O O4 0.000000 0.000000 0.177368
O O5 0.261997 0.269470 0.763564
O O6 0.501061 0.223616 0.836707
O O7 0.000751 0.215444 0.827350
O O8 0.640048 0.391284 0.072063
O O9 0.453693 0.258650 0.052660
O O10 0.141968 0.368862 0.074319
O O11 0.384862 0.370901 0.000000
O O12 0.500000 0.388534 0.750000
O O13 0.759420 0.333108 0.819577
O O14 0.000000 0.386296 0.750000
O O15 0.000000 0.500000 0.935013
O O16 0.104448 0.592655 0.000000
O O17 0.750344 0.977080 0.500000
O O18 0.722726 0.874240 0.560050
O O19 0.500000 0.000000 0.573097
O O20 0.000000 0.000000 0.572437
O O21 0.821585 0.250279 0.902763
O O22 0.810857 0.228491 0.000000
#
# Coordination Sequence:
#
# PCOD9393766 Si02
#       8
#     8   8   8   8   8   8   8   8
#     4  10  21  28  47  70  96 125 139 176 249 318
#     4  10  20  35  50  68  95 122 153 192 252 327
#     4   9  18  30  48  73  99 135 173 211 262 306
#     4   8  16  28  51  65  88 116 147 187 240 310
#     4   9  16  28  47  74 106 135 167 206 249 309
#     4   9  19  36  56  69  83 116 164 224 288 320
#     4  10  22  40  58  76 103 137 184 239 277 321
#     4  10  21  34  54  72  94 125 166 205 258 318
#
# _framework density 22.472317
#
# number of rings (size 3 to 8) (size 9 to 14) (size 15 to 20)
#    0.000    2.625    0.000    1.125   10.500    4.500 
#    0.000   11.875    0.000    0.000    0.000    0.000 
#    0.000    0.000    0.000    0.000    0.000   84.375 
#
# Total GULP energy -356348.405792 kJ/mol
# GULP energy per Si atom -5567.943841 kJ/mol
# Density = 2.242117 g / cm^3
# Si number density = 22.472317 Si / 1000 Ang^3
#
#
#
# Elastic Constant Matrix: (Units=GPa)
#
#
# Indices 1 2 3 4 5 6 
#
# 1 203.0615 46.8965 23.7253 0.0000 0.0000 0.0000
# 2 46.8965 62.8160 6.7526 0.0000 0.0000 0.0000
# 3 23.7253 6.7526 101.2115 0.0000 0.0000 0.0000
# 4 0.0000 0.0000 0.0000 0.8289 0.0000 0.0000
# 5 0.0000 0.0000 0.0000 0.0000 -8.6149 0.0000
# 6 0.0000 0.0000 0.0000 0.0000 0.0000 20.6801
#
#
#
# Elastic Compliance Matrix: (Units=1/GPa)
#
#
# Indices 1 2 3 4 5 6 
#
# 1 0.006076 -0.004415 -0.001130 0.000000 0.000000 0.000000
# 2 -0.004415 0.019242 -0.000249 0.000000 0.000000 0.000000
# 3 -0.001130 -0.000249 0.010162 0.000000 0.000000 0.000000
# 4 0.000000 0.000000 0.000000 1.206481 0.000000 0.000000
# 5 0.000000 0.000000 0.000000 0.000000 -0.116078 0.000000
# 6 0.000000 0.000000 0.000000 0.000000 0.000000 0.048356
#
#
# Mechanical properties :
#
#
# Convention : Reuss Voigt Hill
#
# Bulk Modulus (GPa) = 41.85306 57.98198 49.91752
# Shear Modulus (GPa) = 4.18834 21.89311 13.04073
#
# Velocity S-wave (km/s) = 1.36668 3.12465 2.41156
# Velocity P-wave (km/s) = 4.59947 6.23501 5.47862
#
# Compressibility (1/GPa) = 0.02389312
#
# Stress axis : x y z
#
# Youngs Moduli (GPa) = 164.57588 51.96891 98.40826
#
# Poissons Ratio (x) = 0.22944 0.11118
# Poissons Ratio (y) = 0.72658 0.02449
# Poissons Ratio (z) = 0.18594 0.01293
#
# Static dielectric constant tensor:
#      x y z
#    x 1.971380 0.000000 0.000000 
#    y 0.000000 1.911040 0.000000 
#    z 0.000000 0.000000 1.933550 
# 
# From -- ./inp_files/25925.got.cif
#   From: 2010.05.17/outbox.cif.g08.bks.cpg/sg49_13_cif.got.tgz:25925.got - 2010.06.03 21:02:19.
