data_PCOD9393770
_publ_section_title
;
Structure prediction by ZEFSAII (Michael W. Deem and Ramdas Pophale) SiO2 
 PCOD9393770
Probable space group: P C C M
;
_chemical_formula_sum "Si O2"
_cell_formula_units_Z 64
_cell_length_a 16.737246
_cell_length_b 23.178651
_cell_length_c 8.166924
_cell_angle_alpha 90.000000
_cell_angle_beta 90.000000
_cell_angle_gamma 90.000000
_cell_volume 3168.331899
_symmetry_space_group_name_H-M "P C C M"
_symmetry_group_IT_number 49
_symmetry_cell_setting 'orthorhombic'
loop_
_space_group_symop_operation_xyz
x,y,z
-x,-y,z
x,-y,1/2-z
-x,y,1/2-z
-x,-y,-z
x,y,-z
-x,y,1/2+z
x,-y,1/2+z
loop_
_atom_site_type_symbol
_atom_site_label
_atom_site_fract_x
_atom_site_fract_y
_atom_site_fract_z
Si Si1 0.587959 0.149159 0.302007
Si Si2 0.085450 0.223144 0.802603
Si Si3 0.611304 0.719322 0.190570
Si Si4 0.205202 0.684564 0.692050
Si Si5 0.755109 0.562449 0.190641
Si Si6 0.911310 0.909300 0.197585
Si Si7 0.269429 0.936889 0.697600
Si Si8 0.415749 0.405723 0.312299
O O1 0.500000 0.126815 0.250000
O O2 0.591001 0.150207 0.500000
O O3 0.593016 0.216412 0.247298
O O4 0.665335 0.111426 0.247283
O O5 0.149566 0.267069 0.733014
O O6 0.091704 0.157351 0.745318
O O7 0.000000 0.245571 0.750000
O O8 0.092477 0.219872 0.000000
O O9 0.706259 0.710251 0.191378
O O10 0.582072 0.663901 0.290476
O O11 0.584493 0.714093 0.000000
O O12 0.181836 0.678694 0.500000
O O13 0.206972 0.620521 0.766902
O O14 0.780379 0.500000 0.250000
O O15 0.660053 0.570800 0.214656
O O16 0.771543 0.564428 0.000000
O O17 0.824030 0.932349 0.254461
O O18 0.000000 0.931735 0.250000
O O19 0.911361 0.912800 0.000000
O O20 0.266822 0.932708 0.500000
O O21 0.298647 0.000000 0.750000
O O22 0.500000 0.428367 0.250000
O O23 0.403148 0.420550 0.500000
#
# Coordination Sequence:
#
# PCOD9393770 Si02
#       8
#     8   8   8   8   8   8   8   8
#     4  10  21  36  55  77 103 136 177 221 269 317
#     4   9  16  29  50  77 105 132 160 196 243 300
#     4   9  17  32  53  76 100 129 165 208 257 311
#     4   8  15  29  51  73  97 130 164 198 246 303
#     4  10  20  35  52  71  94 127 170 212 252 296
#     4   9  18  33  55  81 109 137 168 206 256 314
#     4  10  22  39  56  76 103 140 181 221 262 312
#     4  11  21  33  49  72 101 131 162 201 248 301
#
# _framework density 20.199904
#
# number of rings (size 3 to 8) (size 9 to 14) (size 15 to 20)
#    0.000    2.500    0.000    3.375    0.000    6.250 
#    0.000    6.875    0.000    4.875    0.000    2.625 
#    0.000    0.000    0.000    0.000    0.000    0.000 
#
# Total GULP energy -356622.326582 kJ/mol
# GULP energy per Si atom -5572.223853 kJ/mol
# Density = 2.015393 g / cm^3
# Si number density = 20.199904 Si / 1000 Ang^3
#
#
#
# Elastic Constant Matrix: (Units=GPa)
#
#
# Indices 1 2 3 4 5 6 
#
# 1 66.7028 39.8850 5.4794 0.0000 0.0000 0.0000
# 2 39.8850 104.1189 4.8510 0.0000 0.0000 0.0000
# 3 5.4794 4.8510 10.8772 0.0000 0.0000 0.0000
# 4 0.0000 0.0000 0.0000 21.7471 0.0000 0.0000
# 5 0.0000 0.0000 0.0000 0.0000 16.7358 0.0000
# 6 0.0000 0.0000 0.0000 0.0000 0.0000 10.7112
#
#
#
# Elastic Compliance Matrix: (Units=1/GPa)
#
#
# Indices 1 2 3 4 5 6 
#
# 1 0.019923 -0.007316 -0.006773 0.000000 0.000000 0.000000
# 2 -0.007316 0.012495 -0.001887 0.000000 0.000000 0.000000
# 3 -0.006773 -0.001887 0.096189 0.000000 0.000000 0.000000
# 4 0.000000 0.000000 0.000000 0.045983 0.000000 0.000000
# 5 0.000000 0.000000 0.000000 0.000000 0.059752 0.000000
# 6 0.000000 0.000000 0.000000 0.000000 0.000000 0.093360
#
#
# Mechanical properties :
#
#
# Convention : Reuss Voigt Hill
#
# Bulk Modulus (GPa) = 10.34620 31.34774 20.84697
# Shear Modulus (GPa) = 12.75923 18.60441 15.68182
#
# Velocity S-wave (km/s) = 2.51599 3.03811 2.78929
# Velocity P-wave (km/s) = 3.68419 5.27819 4.55152
#
# Compressibility (1/GPa) = 0.09665380
#
# Stress axis : x y z
#
# Youngs Moduli (GPa) = 50.19289 80.03186 10.39623
#
# Poissons Ratio (x) = 0.58555 0.07042
# Poissons Ratio (y) = 0.36723 0.01962
# Poissons Ratio (z) = 0.33997 0.15101
#
# Static dielectric constant tensor:
#      x y z
#    x 1.723350 0.000000 0.000000 
#    y 0.000000 1.761200 0.000000 
#    z 0.000000 0.000000 1.723850 
# 
# From -- ./inp_files/4428.got.cif
#   From: 2010.05.17/outbox.cif.g08.bks.cpg/sg49_3_cif.got.tgz:4428.got - 2010.06.03 21:02:19.
