data_PCOD9393160
_publ_section_title
;
Structure prediction by ZEFSAII (Michael W. Deem and Ramdas Pophale) SiO2 
 PCOD9393160
Probable space group: P C C M
;
_chemical_formula_sum "Si O2"
_cell_formula_units_Z 64
_cell_length_a 9.459900
_cell_length_b 11.887269
_cell_length_c 30.670485
_cell_angle_alpha 90.000000
_cell_angle_beta 90.000000
_cell_angle_gamma 90.000000
_cell_volume 3448.968912
_symmetry_space_group_name_H-M "P C C M"
_symmetry_group_IT_number 49
_symmetry_cell_setting 'orthorhombic'
loop_
_space_group_symop_operation_xyz
x,y,z
-x,-y,z
x,-y,1/2-z
-x,y,1/2-z
-x,-y,-z
x,y,-z
-x,y,1/2+z
x,-y,1/2+z
loop_
_atom_site_type_symbol
_atom_site_label
_atom_site_fract_x
_atom_site_fract_y
_atom_site_fract_z
Si Si1 0.152254 0.716470 0.688754
Si Si2 0.354749 0.644638 0.087388
Si Si3 0.348297 0.277435 0.947951
Si Si4 0.829104 0.283021 0.790789
Si Si5 0.148908 0.525974 0.551031
Si Si6 0.671511 0.119008 0.369729
Si Si7 0.338853 0.491682 0.321742
Si Si8 0.344632 0.142689 0.357617
O O1 0.166663 0.746280 0.739933
O O2 0.212045 0.814692 0.658053
O O3 0.249394 0.606940 0.678390
O O4 0.982514 0.700286 0.686397
O O5 0.506521 0.659951 0.065214
O O6 0.247257 0.582251 0.055966
O O7 0.354932 0.565505 0.130334
O O8 0.311793 0.768508 0.103857
O O9 0.226128 0.362811 0.932690
O O10 0.334188 0.166170 0.918996
O O11 0.344393 0.259620 0.000000
O O12 0.748065 0.401128 0.794280
O O13 0.740593 0.189669 0.816641
O O14 0.127213 0.548754 0.500000
O O15 0.000000 0.500000 0.573019
O O16 0.514692 0.147766 0.350852
O O17 0.691046 0.985579 0.368195
O O18 0.500000 0.500000 0.305470
#
# Coordination Sequence:
#
# PCOD9393160 Si02
#       8
#     8   8   8   8   8   8   8   8
#     4  11  22  37  57  81 113 149 186 229 278 337
#     4  10  19  34  54  78 108 142 180 221 274 328
#     4  10  20  36  58  83 112 145 183 230 284 340
#     4  10  23  38  54  82 114 147 186 229 280 332
#     4  10  20  32  49  77 109 138 173 218 267 324
#     4  10  21  39  59  80 108 144 188 233 282 331
#     4  11  21  34  55  83 114 146 183 226 274 331
#     4   9  21  39  56  79 109 141 185 235 273 330
#
# _framework density 18.556270000000001
#
# number of rings (size 3 to 8) (size 9 to 14) (size 15 to 20)
#    0.000    1.875    0.000    5.250    0.000    9.500 
#    0.000    8.125    0.000    0.000    0.000    4.375 
#    0.000    0.000    0.000    0.000    0.000    0.000 
#
# Total GULP energy -357081.293834 kJ/mol
# GULP energy per Si atom -5579.395216 kJ/mol
# Density = 1.851404 g / cm^3
# Si number density = 18.556270 Si / 1000 Ang^3
#
#
#
# Elastic Constant Matrix: (Units=GPa)
#
#
# Indices 1 2 3 4 5 6 
#
# 1 106.7411 58.0460 35.2323 0.0000 0.0000 0.0000
# 2 58.0460 121.3674 29.5095 0.0000 0.0000 0.0000
# 3 35.2323 29.5095 69.9009 0.0000 0.0000 0.0000
# 4 0.0000 0.0000 0.0000 13.4695 0.0000 0.0000
# 5 0.0000 0.0000 0.0000 0.0000 17.7070 0.0000
# 6 0.0000 0.0000 0.0000 0.0000 0.0000 12.1064
#
#
#
# Elastic Compliance Matrix: (Units=1/GPa)
#
#
# Indices 1 2 3 4 5 6 
#
# 1 0.013914 -0.005516 -0.004685 0.000000 0.000000 0.000000
# 2 -0.005516 0.011368 -0.002019 0.000000 0.000000 0.000000
# 3 -0.004685 -0.002019 0.017520 0.000000 0.000000 0.000000
# 4 0.000000 0.000000 0.000000 0.074242 0.000000 0.000000
# 5 0.000000 0.000000 0.000000 0.000000 0.056475 0.000000
# 6 0.000000 0.000000 0.000000 0.000000 0.000000 0.082601
#
#
# Mechanical properties :
#
#
# Convention : Reuss Voigt Hill
#
# Bulk Modulus (GPa) = 54.45720 60.39834 57.42777
# Shear Modulus (GPa) = 17.44106 20.33802 18.88954
#
# Velocity S-wave (km/s) = 3.06911 3.31421 3.19401
# Velocity P-wave (km/s) = 6.47843 6.87493 6.67962
#
# Compressibility (1/GPa) = 0.01836304
#
# Stress axis : x y z
#
# Youngs Moduli (GPa) = 71.86919 87.96349 57.07879
#
# Poissons Ratio (x) = 0.48518 0.26740
# Poissons Ratio (y) = 0.39640 0.11525
# Poissons Ratio (z) = 0.33669 0.17762
#
# Static dielectric constant tensor:
#      x y z
#    x 1.671880 0.000000 0.000000 
#    y 0.000000 1.618840 0.000000 
#    z 0.000000 0.000000 1.660990 
# 
# From -- ./inp_files/26451.got.cif
#   From: 2010.05.17/outbox.cif.g08.bks.cpg/sg49_14_cif.got.tgz:26451.got - 2010.06.03 21:02:19.
