data_PCOD9393217
_publ_section_title
;
Structure prediction by ZEFSAII (Michael W. Deem and Ramdas Pophale) SiO2 
 PCOD9393217
Probable space group: P C C M
;
_chemical_formula_sum "Si O2"
_cell_formula_units_Z 40
_cell_length_a 7.708989
_cell_length_b 8.093582
_cell_length_c 26.442427
_cell_angle_alpha 90.000000
_cell_angle_beta 90.000000
_cell_angle_gamma 90.000000
_cell_volume 1649.831196
_symmetry_space_group_name_H-M "P C C M"
_symmetry_group_IT_number 49
_symmetry_cell_setting 'orthorhombic'
loop_
_space_group_symop_operation_xyz
x,y,z
-x,-y,z
x,-y,1/2-z
-x,y,1/2-z
-x,-y,-z
x,y,-z
-x,y,1/2+z
x,-y,1/2+z
loop_
_atom_site_type_symbol
_atom_site_label
_atom_site_fract_x
_atom_site_fract_y
_atom_site_fract_z
Si Si1 0.200234 0.864637 0.842827
Si Si2 0.799258 0.511634 0.667277
Si Si3 0.698621 0.567888 0.056451
Si Si4 0.143946 0.188214 0.795436
Si Si5 0.297131 0.035675 0.945653
O O1 0.280497 0.691914 0.823577
O O2 0.994647 0.823372 0.841809
O O3 0.239823 0.014937 0.804639
O O4 0.239615 0.925949 0.898636
O O5 0.789473 0.497841 0.606729
O O6 0.735538 0.346638 0.695728
O O7 0.000000 0.500000 0.684626
O O8 0.500000 0.500000 0.059265
O O9 0.713569 0.766548 0.060642
O O10 0.762361 0.520368 0.000000
O O11 0.000000 0.192125 0.750000
O O12 0.500000 0.000000 0.948871
O O13 0.216368 0.989794 0.000000
#
# Coordination Sequence:
#
# PCOD9393217 Si02
#       5
#     8   8   8   8   8
#     4  10  19  34  57  84 115 150 192 241 297 354
#     4  10  21  35  57  88 118 154 198 245 302 354
#     4  10  20  36  57  84 122 164 204 243 294 364
#     4  10  21  38  59  84 114 147 197 249 302 358
#     4  10  20  35  57  85 118 159 202 240 290 360
#
# _framework density 24.244903999999998
#
# number of rings (size 3 to 8) (size 9 to 14) (size 15 to 20)
#    0.000    2.000    2.000    2.400    0.000    7.200 
#    0.000    5.000    0.000    2.400    0.000    5.600 
#    0.000    0.000    0.000    0.000    0.000    0.000 
#
# Total GULP energy -222828.501321 kJ/mol
# GULP energy per Si atom -5570.712533 kJ/mol
# Density = 2.418972 g / cm^3
# Si number density = 24.244904 Si / 1000 Ang^3
#
#
#
# Elastic Constant Matrix: (Units=GPa)
#
#
# Indices 1 2 3 4 5 6 
#
# 1 29.7942 -0.7945 22.1625 0.0000 0.0000 0.0000
# 2 -0.7945 237.0212 79.2647 0.0000 0.0000 0.0000
# 3 22.1625 79.2647 164.1879 0.0000 0.0000 0.0000
# 4 0.0000 0.0000 0.0000 32.9500 0.0000 0.0000
# 5 0.0000 0.0000 0.0000 0.0000 38.1447 0.0000
# 6 0.0000 0.0000 0.0000 0.0000 0.0000 16.8865
#
#
#
# Elastic Compliance Matrix: (Units=1/GPa)
#
#
# Indices 1 2 3 4 5 6 
#
# 1 0.038259 0.002212 -0.006232 0.000000 0.000000 0.000000
# 2 0.002212 0.005159 -0.002789 0.000000 0.000000 0.000000
# 3 -0.006232 -0.002789 0.008278 0.000000 0.000000 0.000000
# 4 0.000000 0.000000 0.000000 0.030349 0.000000 0.000000
# 5 0.000000 0.000000 0.000000 0.000000 0.026216 0.000000
# 6 0.000000 0.000000 0.000000 0.000000 0.000000 0.059219
#
#
# Mechanical properties :
#
#
# Convention : Reuss Voigt Hill
#
# Bulk Modulus (GPa) = 26.26208 70.25210 48.25709
# Shear Modulus (GPa) = 25.80096 39.62095 32.71096
#
# Velocity S-wave (km/s) = 3.26572 4.04691 3.67712
# Velocity P-wave (km/s) = 5.00753 7.13271 6.16242
#
# Compressibility (1/GPa) = 0.03807772
#
# Stress axis : x y z
#
# Youngs Moduli (GPa) = 26.13798 193.82582 120.79542
#
# Poissons Ratio (x) = -0.42883 0.75284
# Poissons Ratio (y) = -0.05783 0.33694
# Poissons Ratio (z) = 0.16290 0.54065
#
# Static dielectric constant tensor:
#      x y z
#    x 1.930820 0.000000 0.000000 
#    y 0.000000 2.291130 0.000000 
#    z 0.000000 0.000000 1.987430 
# 
# From -- ./inp_files/24361.got.cif
#   From: 2010.05.17/outbox.cif.g08.bks.cpg/sg49_13_cif.got.tgz:24361.got - 2010.06.03 21:02:19.
