data_PCOD9393009
_publ_section_title
;
Structure prediction by ZEFSAII (Michael W. Deem and Ramdas Pophale) SiO2 
 PCOD9393009
Probable space group: P C C M
;
_chemical_formula_sum "Si O2"
_cell_formula_units_Z 58
_cell_length_a 17.659514
_cell_length_b 19.024880
_cell_length_c 8.932244
_cell_angle_alpha 90.000000
_cell_angle_beta 90.000000
_cell_angle_gamma 90.000000
_cell_volume 3000.967220
_symmetry_space_group_name_H-M "P C C M"
_symmetry_group_IT_number 49
_symmetry_cell_setting 'orthorhombic'
loop_
_space_group_symop_operation_xyz
x,y,z
-x,-y,z
x,-y,1/2-z
-x,y,1/2-z
-x,-y,-z
x,y,-z
-x,y,1/2+z
x,-y,1/2+z
loop_
_atom_site_type_symbol
_atom_site_label
_atom_site_fract_x
_atom_site_fract_y
_atom_site_fract_z
Si Si1 0.500000 0.500000 0.750000
Si Si2 0.371523 0.925348 0.325722
Si Si3 0.235950 0.573325 0.823705
Si Si4 0.616288 0.614532 0.831335
Si Si5 0.188433 0.072716 0.825591
Si Si6 0.358915 0.228937 0.819987
Si Si7 0.919282 0.815530 0.322721
Si Si8 0.191329 0.715735 0.321465
O O1 0.551531 0.556250 0.837169
O O2 0.394644 0.929663 0.500000
O O3 0.279554 0.922423 0.318879
O O4 0.391000 0.846521 0.262784
O O5 0.394539 0.000000 0.250000
O O6 0.214366 0.500000 0.750000
O O7 0.324969 0.586037 0.790445
O O8 0.199330 0.636499 0.732207
O O9 0.221135 0.575836 0.000000
O O10 0.598677 0.696415 0.791192
O O11 0.651115 0.618026 0.000000
O O12 0.143767 0.129804 0.732308
O O13 0.166919 0.000000 0.750000
O O14 0.167295 0.077404 0.000000
O O15 0.270931 0.245168 0.775563
O O16 0.357810 0.220084 0.000000
O O17 0.925784 0.814540 0.500000
O O18 0.882939 0.744966 0.257822
O O19 0.000000 0.831241 0.250000
O O20 0.185494 0.723659 0.500000
#
# Coordination Sequence:
#
# PCOD9393009 Si02
#       8
#     2   8   8   8   8   8   8   8
#     4  12  22  32  56  86 124 152 196 228 270 320
#     4   9  16  28  48  74 102 134 171 220 278 332
#     4  11  21  35  56  84 111 141 182 223 266 318
#     4  10  21  35  53  77 112 155 189 223 267 322
#     4  10  19  33  50  72 101 136 177 224 279 337
#     4   8  15  31  52  73 101 140 180 216 269 329
#     4  12  24  37  53  75 102 139 184 228 279 340
#     4  10  19  36  57  77 105 139 176 227 278 325
#
# _framework density 19.327102
#
# number of rings (size 3 to 8) (size 9 to 14) (size 15 to 20)
#    0.000    1.931    2.069    4.345    0.000    1.379 
#    0.000    2.069    0.000    0.414    0.000    3.379 
#    0.000    3.310    0.000    0.000    0.000    0.000 
#
# Total GULP energy -323117.233357 kJ/mol
# GULP energy per Si atom -5570.986782 kJ/mol
# Density = 1.928311 g / cm^3
# Si number density = 19.327102 Si / 1000 Ang^3
#
#
#
# Elastic Constant Matrix: (Units=GPa)
#
#
# Indices 1 2 3 4 5 6 
#
# 1 15.5986 1.6202 9.5849 0.0000 0.0000 0.0000
# 2 1.6202 144.0381 22.1404 0.0000 0.0000 0.0000
# 3 9.5849 22.1404 91.6488 0.0000 0.0000 0.0000
# 4 0.0000 0.0000 0.0000 27.1812 0.0000 0.0000
# 5 0.0000 0.0000 0.0000 0.0000 -3.1487 0.0000
# 6 0.0000 0.0000 0.0000 0.0000 0.0000 17.6663
#
#
#
# Elastic Compliance Matrix: (Units=1/GPa)
#
#
# Indices 1 2 3 4 5 6 
#
# 1 0.068527 0.000344 -0.007250 0.000000 0.000000 0.000000
# 2 0.000344 0.007212 -0.001778 0.000000 0.000000 0.000000
# 3 -0.007250 -0.001778 0.012099 0.000000 0.000000 0.000000
# 4 0.000000 0.000000 0.000000 0.036790 0.000000 0.000000
# 5 0.000000 0.000000 0.000000 0.000000 -0.317595 0.000000
# 6 0.000000 0.000000 0.000000 0.000000 0.000000 0.056605
#
#
# Mechanical properties :
#
#
# Convention : Reuss Voigt Hill
#
# Bulk Modulus (GPa) = 14.19052 35.33075 24.76064
# Shear Modulus (GPa) = -52.35470 22.86910 -14.74280
#
# Velocity S-wave (km/s) = -5.21033 3.44359 -2.76489
# Velocity P-wave (km/s) = 5.37015 5.84219 1.62676
#
# Compressibility (1/GPa) = 0.07046956
#
# Stress axis : x y z
#
# Youngs Moduli (GPa) = 14.59269 138.65633 82.65144
#
# Poissons Ratio (x) = -0.04764 0.59921
# Poissons Ratio (y) = -0.00501 0.14697
# Poissons Ratio (z) = 0.10579 0.24656
#
# Static dielectric constant tensor:
#      x y z
#    x 1.691080 0.000000 0.000000 
#    y 0.000000 1.726300 0.000000 
#    z 0.000000 0.000000 1.678760 
# 
# From -- ./inp_files/5125.got.cif
#   From: 2010.05.17/outbox.cif.g08.bks.cpg/sg49_3_cif.got.tgz:5125.got - 2010.06.03 21:02:19.
