data_PCOD9393033
_publ_section_title
;
Structure prediction by ZEFSAII (Michael W. Deem and Ramdas Pophale) SiO2 
 PCOD9393033
Probable space group: P C C M
;
_chemical_formula_sum "Si O2"
_cell_formula_units_Z 58
_cell_length_a 17.664762
_cell_length_b 18.998291
_cell_length_c 8.128894
_cell_angle_alpha 90.000000
_cell_angle_beta 90.000000
_cell_angle_gamma 90.000000
_cell_volume 2728.059175
_symmetry_space_group_name_H-M "P C C M"
_symmetry_group_IT_number 49
_symmetry_cell_setting 'orthorhombic'
loop_
_space_group_symop_operation_xyz
x,y,z
-x,-y,z
x,-y,1/2-z
-x,y,1/2-z
-x,-y,-z
x,y,-z
-x,y,1/2+z
x,-y,1/2+z
loop_
_atom_site_type_symbol
_atom_site_label
_atom_site_fract_x
_atom_site_fract_y
_atom_site_fract_z
Si Si1 0.587131 0.424627 0.195852
Si Si2 0.082343 0.169803 0.308965
Si Si3 0.220287 0.920297 0.695606
Si Si4 0.181729 0.294644 0.701698
Si Si5 0.083504 0.419818 0.695869
Si Si6 0.353514 0.728078 0.800192
Si Si7 0.500000 0.000000 0.750000
Si Si8 0.389331 0.122046 0.802920
O O1 0.621705 0.500000 0.250000
O O2 0.500000 0.425711 0.250000
O O3 0.619458 0.349614 0.254376
O O4 0.591887 0.423548 0.000000
O O5 0.073726 0.183434 0.500000
O O6 0.147958 0.113836 0.279734
O O7 0.117958 0.240847 0.235373
O O8 0.000000 0.148642 0.250000
O O9 0.211604 0.913510 0.500000
O O10 0.301245 0.887708 0.741019
O O11 0.224321 0.000000 0.750000
O O12 0.183814 0.293689 0.500000
O O13 0.152280 0.370935 0.754633
O O14 0.265154 0.270415 0.752993
O O15 0.091826 0.500000 0.750000
O O16 0.083642 0.417869 0.500000
O O17 0.000000 0.394396 0.750000
O O18 0.401009 0.795026 0.733789
O O19 0.356985 0.731811 0.000000
O O20 0.437414 0.062092 0.706670
O O21 0.400789 0.108089 0.000000
#
# Coordination Sequence:
#
# PCOD9393033 Si02
#       8
#     8   8   8   8   8   8   2   8
#     4  10  21  38  62  89 122 163 206 257 312 373
#     4  11  22  39  63  90 121 161 205 256 310 370
#     4  11  23  42  65  92 124 162 204 252 308 367
#     4   9  19  36  58  83 115 157 200 245 305 366
#     4  10  19  33  52  78 113 154 200 249 302 357
#     4  10  22  41  64  90 124 165 206 254 316 377
#     4  12  26  48  68 102 134 172 208 250 318 380
#     4  11  25  43  66  97 131 167 212 260 310 377
#
# _framework density 21.260535999999998
#
# number of rings (size 3 to 8) (size 9 to 14) (size 15 to 20)
#    0.000    1.655    2.069    3.103    0.966    3.586 
#    0.000    4.828    0.000    0.000    0.000    0.000 
#    0.000    0.000    0.000    0.000    0.000    0.000 
#
# Total GULP energy -323293.178925 kJ/mol
# GULP energy per Si atom -5574.020326 kJ/mol
# Density = 2.121215 g / cm^3
# Si number density = 21.260536 Si / 1000 Ang^3
#
#
#
# Elastic Constant Matrix: (Units=GPa)
#
#
# Indices 1 2 3 4 5 6 
#
# 1 101.9970 44.8065 5.3383 0.0000 0.0000 0.0000
# 2 44.8065 150.6653 2.7053 0.0000 0.0000 0.0000
# 3 5.3383 2.7053 18.3688 0.0000 0.0000 0.0000
# 4 0.0000 0.0000 0.0000 18.4367 0.0000 0.0000
# 5 0.0000 0.0000 0.0000 0.0000 5.3548 0.0000
# 6 0.0000 0.0000 0.0000 0.0000 0.0000 39.2633
#
#
#
# Elastic Compliance Matrix: (Units=1/GPa)
#
#
# Indices 1 2 3 4 5 6 
#
# 1 0.011422 -0.003346 -0.002827 0.000000 0.000000 0.000000
# 2 -0.003346 0.007635 -0.000152 0.000000 0.000000 0.000000
# 3 -0.002827 -0.000152 0.055284 0.000000 0.000000 0.000000
# 4 0.000000 0.000000 0.000000 0.054240 0.000000 0.000000
# 5 0.000000 0.000000 0.000000 0.000000 0.186748 0.000000
# 6 0.000000 0.000000 0.000000 0.000000 0.000000 0.025469
#
#
# Mechanical properties :
#
#
# Convention : Reuss Voigt Hill
#
# Bulk Modulus (GPa) = 16.20969 41.85905 29.03437
# Shear Modulus (GPa) = 13.36857 27.15637 20.26247
#
# Velocity S-wave (km/s) = 2.51030 3.57783 3.09051
# Velocity P-wave (km/s) = 4.00537 6.06623 5.14015
#
# Compressibility (1/GPa) = 0.06169151
#
# Stress axis : x y z
#
# Youngs Moduli (GPa) = 87.54992 130.97495 18.08845
#
# Poissons Ratio (x) = 0.43825 0.05113
# Poissons Ratio (y) = 0.29295 0.00275
# Poissons Ratio (z) = 0.24747 0.01991
#
# Static dielectric constant tensor:
#      x y z
#    x 1.807220 0.000000 0.000000 
#    y 0.000000 1.802510 0.000000 
#    z 0.000000 0.000000 1.798270 
# 
# From -- ./inp_files/5069.got.cif
#   From: 2010.05.17/outbox.cif.g08.bks.cpg/sg49_3_cif.got.tgz:5069.got - 2010.06.03 21:02:19.
