data_PCOD9393791
_publ_section_title
;
Structure prediction by ZEFSAII (Michael W. Deem and Ramdas Pophale) SiO2 
 PCOD9393791
Probable space group: P C C M
;
_chemical_formula_sum "Si O2"
_cell_formula_units_Z 40
_cell_length_a 25.819969
_cell_length_b 9.813471
_cell_length_c 8.583814
_cell_angle_alpha 90.000000
_cell_angle_beta 90.000000
_cell_angle_gamma 90.000000
_cell_volume 2174.996981
_symmetry_space_group_name_H-M "P C C M"
_symmetry_group_IT_number 49
_symmetry_cell_setting 'orthorhombic'
loop_
_space_group_symop_operation_xyz
x,y,z
-x,-y,z
x,-y,1/2-z
-x,y,1/2-z
-x,-y,-z
x,y,-z
-x,y,1/2+z
x,-y,1/2+z
loop_
_atom_site_type_symbol
_atom_site_label
_atom_site_fract_x
_atom_site_fract_y
_atom_site_fract_z
Si Si1 0.941861 0.147814 0.686570
Si Si2 0.765843 0.847842 0.187650
Si Si3 0.854852 0.346635 0.186160
Si Si4 0.555117 0.346907 0.687348
Si Si5 0.352928 0.150072 0.812549
O O1 0.942390 0.144199 0.500000
O O2 0.904146 0.265041 0.746990
O O3 0.000000 0.168212 0.750000
O O4 0.924032 0.000000 0.750000
O O5 0.804993 0.738769 0.257992
O O6 0.706229 0.815738 0.232578
O O7 0.777372 0.000000 0.250000
O O8 0.770185 0.847955 0.000000
O O9 0.853270 0.500000 0.250000
O O10 0.857191 0.348576 0.000000
O O11 0.560960 0.500000 0.750000
O O12 0.500000 0.293808 0.750000
O O13 0.553425 0.349859 0.500000
O O14 0.603556 0.255996 0.739692
O O15 0.364541 0.000000 0.750000
O O16 0.353973 0.146412 0.000000
#
# Coordination Sequence:
#
# PCOD9393791 Si02
#       5
#     8   8   8   8   8
#     4  11  22  40  64  91 119 153 193 235 279 331
#     4  10  20  38  60  84 112 147 187 231 278 333
#     4  12  25  41  59  85 117 152 190 234 283 335
#     4  10  20  35  53  77 106 142 182 224 271 328
#     4   9  20  36  56  81 110 141 181 226 275 327
#
# _framework density 18.390830999999999
#
# number of rings (size 3 to 8) (size 9 to 14) (size 15 to 20)
#    0.000    1.600    0.000    6.600    0.000    4.000 
#    0.000    6.000    0.000    0.000    0.000    0.000 
#    0.000    0.000    0.000    0.000    0.000    0.000 
#
# Total GULP energy -223547.591631 kJ/mol
# GULP energy per Si atom -5588.689791 kJ/mol
# Density = 1.834897 g / cm^3
# Si number density = 18.390831 Si / 1000 Ang^3
#
#
#
# Elastic Constant Matrix: (Units=GPa)
#
#
# Indices 1 2 3 4 5 6 
#
# 1 136.0886 113.8488 57.6006 0.0000 0.0000 0.0000
# 2 113.8488 150.2369 62.1944 0.0000 0.0000 0.0000
# 3 57.6006 62.1944 127.5104 0.0000 0.0000 0.0000
# 4 0.0000 0.0000 0.0000 33.2119 0.0000 0.0000
# 5 0.0000 0.0000 0.0000 0.0000 37.8315 0.0000
# 6 0.0000 0.0000 0.0000 0.0000 0.0000 73.8041
#
#
#
# Elastic Compliance Matrix: (Units=1/GPa)
#
#
# Indices 1 2 3 4 5 6 
#
# 1 0.020518 -0.014675 -0.002111 0.000000 0.000000 0.000000
# 2 -0.014675 0.018836 -0.002558 0.000000 0.000000 0.000000
# 3 -0.002111 -0.002558 0.010044 0.000000 0.000000 0.000000
# 4 0.000000 0.000000 0.000000 0.030110 0.000000 0.000000
# 5 0.000000 0.000000 0.000000 0.000000 0.026433 0.000000
# 6 0.000000 0.000000 0.000000 0.000000 0.000000 0.013549
#
#
# Mechanical properties :
#
#
# Convention : Reuss Voigt Hill
#
# Bulk Modulus (GPa) = 93.37180 97.90263 95.63722
# Shear Modulus (GPa) = 30.91237 40.98229 35.94733
#
# Velocity S-wave (km/s) = 4.10427 4.72572 4.42592
# Velocity P-wave (km/s) = 8.56395 9.11738 8.84499
#
# Compressibility (1/GPa) = 0.01070987
#
# Stress axis : x y z
#
# Youngs Moduli (GPa) = 48.73728 53.09100 99.56280
#
# Poissons Ratio (x) = 0.77909 0.21018
# Poissons Ratio (y) = 0.71520 0.25470
# Poissons Ratio (z) = 0.10289 0.13582
#
# Static dielectric constant tensor:
#      x y z
#    x 1.639490 0.000000 0.000000 
#    y 0.000000 1.591700 0.000000 
#    z 0.000000 0.000000 1.617760 
# 
# From -- ./inp_files/1673.got.cif
#   From: 2010.05.17/outbox.cif.g08.bks.cpg/sg49_1_cif.got.tgz:1673.got - 2010.06.03 21:02:19.
