data_PCOD9393455
_publ_section_title
;
Structure prediction by ZEFSAII (Michael W. Deem and Ramdas Pophale) SiO2 
 PCOD9393455
Probable space group: P C C M
;
_chemical_formula_sum "Si O2"
_cell_formula_units_Z 64
_cell_length_a 28.910381
_cell_length_b 15.073025
_cell_length_c 8.696389
_cell_angle_alpha 90.000000
_cell_angle_beta 90.000000
_cell_angle_gamma 90.000000
_cell_volume 3789.598437
_symmetry_space_group_name_H-M "P C C M"
_symmetry_group_IT_number 49
_symmetry_cell_setting 'orthorhombic'
loop_
_space_group_symop_operation_xyz
x,y,z
-x,-y,z
x,-y,1/2-z
-x,y,1/2-z
-x,-y,-z
x,y,-z
-x,y,1/2+z
x,-y,1/2+z
loop_
_atom_site_type_symbol
_atom_site_label
_atom_site_fract_x
_atom_site_fract_y
_atom_site_fract_z
Si Si1 0.232771 0.404372 0.183755
Si Si2 0.812241 0.094916 0.815687
Si Si3 0.084392 0.094363 0.816289
Si Si4 0.952449 0.272940 0.815794
Si Si5 0.267300 0.783527 0.684391
Si Si6 0.130833 0.403981 0.684427
Si Si7 0.649851 0.100173 0.184619
Si Si8 0.546536 0.900186 0.316711
O O1 0.246839 0.500000 0.250000
O O2 0.265099 0.320926 0.223106
O O3 0.181375 0.383871 0.247535
O O4 0.229805 0.411513 0.000000
O O5 0.863559 0.108183 0.748476
O O6 0.777356 0.169629 0.758695
O O7 0.795602 0.000000 0.750000
O O8 0.814383 0.092037 0.000000
O O9 0.054709 0.176336 0.757133
O O10 0.068155 0.000000 0.750000
O O11 0.085588 0.090890 0.000000
O O12 0.907944 0.332237 0.774739
O O13 0.000000 0.311871 0.750000
O O14 0.954788 0.266411 0.000000
O O15 0.264676 0.792402 0.500000
O O16 0.311781 0.835367 0.746234
O O17 0.117322 0.500000 0.750000
O O18 0.134500 0.408179 0.500000
O O19 0.597803 0.134505 0.221294
O O20 0.654978 0.000000 0.250000
O O21 0.654555 0.095634 0.000000
O O22 0.500000 0.856415 0.250000
O O23 0.542256 0.904348 0.500000
O O24 0.547328 0.000000 0.250000
#
# Coordination Sequence:
#
# PCOD9393455 Si02
#       8
#     8   8   8   8   8   8   8   8
#     4  10  21  36  56  78 100 127 162 201 243 291
#     4  11  21  34  52  74 101 133 167 203 241 287
#     4  11  22  38  58  78 101 130 165 205 242 285
#     4  11  24  40  57  80 105 132 163 198 241 288
#     4  11  22  34  49  72 101 134 168 205 250 298
#     4  10  21  37  59  82 105 130 159 195 238 289
#     4  10  20  32  46  68 100 138 176 215 255 299
#     4   9  16  26  42  63  89 126 172 215 256 295
#
# _framework density 16.888334
#
# number of rings (size 3 to 8) (size 9 to 14) (size 15 to 20)
#    0.000    1.625    0.000    7.500    0.000    8.000 
#    0.000    2.500    0.000    0.000    0.000    0.000 
#    0.000    0.500    0.000    5.500    0.000    4.000 
#
# Total GULP energy -357439.496504 kJ/mol
# GULP energy per Si atom -5584.992133 kJ/mol
# Density = 1.684990 g / cm^3
# Si number density = 16.888334 Si / 1000 Ang^3
#
#
#
# Elastic Constant Matrix: (Units=GPa)
#
#
# Indices 1 2 3 4 5 6 
#
# 1 66.6478 57.2848 35.5556 0.0000 0.0000 0.0000
# 2 57.2848 95.4106 42.6572 0.0000 0.0000 0.0000
# 3 35.5556 42.6572 91.7082 0.0000 0.0000 0.0000
# 4 0.0000 0.0000 0.0000 4.2097 0.0000 0.0000
# 5 0.0000 0.0000 0.0000 0.0000 28.1830 0.0000
# 6 0.0000 0.0000 0.0000 0.0000 0.0000 15.3085
#
#
#
# Elastic Compliance Matrix: (Units=1/GPa)
#
#
# Indices 1 2 3 4 5 6 
#
# 1 0.032370 -0.017454 -0.004432 0.000000 0.000000 0.000000
# 2 -0.017454 0.022644 -0.003766 0.000000 0.000000 0.000000
# 3 -0.004432 -0.003766 0.014374 0.000000 0.000000 0.000000
# 4 0.000000 0.000000 0.000000 0.237547 0.000000 0.000000
# 5 0.000000 0.000000 0.000000 0.000000 0.035482 0.000000
# 6 0.000000 0.000000 0.000000 0.000000 0.000000 0.065323
#
#
# Mechanical properties :
#
#
# Convention : Reuss Voigt Hill
#
# Bulk Modulus (GPa) = 55.29193 58.30688 56.79940
# Shear Modulus (GPa) = 10.75102 17.42484 14.08793
#
# Velocity S-wave (km/s) = 2.52582 3.21560 2.89135
# Velocity P-wave (km/s) = 6.42784 6.95605 6.69716
#
# Compressibility (1/GPa) = 0.01808582
#
# Stress axis : x y z
#
# Youngs Moduli (GPa) = 30.89238 44.16166 69.57072
#
# Poissons Ratio (x) = 0.77080 0.30831
# Poissons Ratio (y) = 0.53920 0.26198
# Poissons Ratio (z) = 0.13690 0.16630
#
# Static dielectric constant tensor:
#      x y z
#    x 1.591660 0.000000 0.000000 
#    y 0.000000 1.569040 0.000000 
#    z 0.000000 0.000000 1.562440 
# 
# From -- ./inp_files/7072.got.cif
#   From: 2010.05.17/outbox.cif.g08.bks.cpg/sg49_4_cif.got.tgz:7072.got - 2010.06.03 21:02:19.
