data_PCOD9393947
_publ_section_title
;
Structure prediction by ZEFSAII (Michael W. Deem and Ramdas Pophale) SiO2 
 PCOD9393947
Probable space group: P C C M
;
_chemical_formula_sum "Si O2"
_cell_formula_units_Z 56
_cell_length_a 13.918014
_cell_length_b 18.935265
_cell_length_c 11.355569
_cell_angle_alpha 90.000000
_cell_angle_beta 90.000000
_cell_angle_gamma 90.000000
_cell_volume 2992.661228
_symmetry_space_group_name_H-M "P C C M"
_symmetry_group_IT_number 49
_symmetry_cell_setting 'orthorhombic'
loop_
_space_group_symop_operation_xyz
x,y,z
-x,-y,z
x,-y,1/2-z
-x,y,1/2-z
-x,-y,-z
x,y,-z
-x,y,1/2+z
x,-y,1/2+z
loop_
_atom_site_type_symbol
_atom_site_label
_atom_site_fract_x
_atom_site_fract_y
_atom_site_fract_z
Si Si1 0.463529 0.267238 0.369198
Si Si2 0.933305 0.697382 0.635497
Si Si3 0.965012 0.918393 0.874930
Si Si4 0.747172 0.794804 0.367563
Si Si5 0.537768 0.893276 0.124075
Si Si6 0.108476 0.468783 0.370188
Si Si7 0.251949 0.923891 0.310324
O O1 0.500000 0.304333 0.250000
O O2 0.477022 0.299432 0.500000
O O3 0.351128 0.249116 0.353385
O O4 0.518380 0.191152 0.372881
O O5 0.972882 0.707704 0.500000
O O6 0.839739 0.746042 0.647565
O O7 0.901592 0.615369 0.640661
O O8 0.000000 0.709977 0.750000
O O9 0.850139 0.918444 0.873969
O O10 0.000000 0.886989 0.750000
O O11 0.000038 0.886841 0.000000
O O12 0.000000 0.000000 0.874148
O O13 0.746351 0.822672 0.500000
O O14 0.748185 0.861099 0.283497
O O15 0.500000 0.920145 0.250000
O O16 0.649490 0.911800 0.121565
O O17 0.491611 0.917752 0.000000
O O18 0.153564 0.500000 0.250000
O O19 0.151666 0.485265 0.500000
O O20 0.000000 0.500000 0.373509
O O21 0.254666 0.000000 0.250000
#
# Coordination Sequence:
#
# PCOD9393947 Si02
#       7
#     8   8   8   8   8   8   8
#     4   9  16  34  57  76 102 135 170 218 283 345
#     4  10  20  36  55  81 118 156 193 224 264 321
#     4  10  21  41  59  74  95 127 169 216 267 331
#     4  10  22  38  56  79 110 147 186 230 281 342
#     4  10  20  37  58  82 105 127 165 223 295 353
#     4   9  15  26  51  82 114 152 183 216 261 311
#     4  12  23  38  58  83 103 136 182 242 290 340
#
# _framework density 18.712441999999999
#
# number of rings (size 3 to 8) (size 9 to 14) (size 15 to 20)
#    0.000    2.000    5.714    0.429    0.000    2.571 
#    0.000    4.286    0.000    0.000    0.000    0.000 
#    0.000    0.571    0.000    7.143    0.000    0.000 
#
# Total GULP energy -311948.683634 kJ/mol
# GULP energy per Si atom -5570.512208 kJ/mol
# Density = 1.866985 g / cm^3
# Si number density = 18.712442 Si / 1000 Ang^3
#
#
#
# Elastic Constant Matrix: (Units=GPa)
#
#
# Indices 1 2 3 4 5 6 
#
# 1 75.8548 -1.1575 52.9378 0.0000 0.0000 0.0000
# 2 -1.1575 46.5030 28.2692 0.0000 0.0000 0.0000
# 3 52.9378 28.2692 229.0586 0.0000 0.0000 0.0000
# 4 0.0000 0.0000 0.0000 18.9136 0.0000 0.0000
# 5 0.0000 0.0000 0.0000 0.0000 50.0189 0.0000
# 6 0.0000 0.0000 0.0000 0.0000 0.0000 -1.6934
#
#
#
# Elastic Compliance Matrix: (Units=1/GPa)
#
#
# Indices 1 2 3 4 5 6 
#
# 1 0.016065 0.002872 -0.004067 0.000000 0.000000 0.000000
# 2 0.002872 0.023762 -0.003596 0.000000 0.000000 0.000000
# 3 -0.004067 -0.003596 0.005750 0.000000 0.000000 0.000000
# 4 0.000000 0.000000 0.000000 0.052872 0.000000 0.000000
# 5 0.000000 0.000000 0.000000 0.000000 0.019992 0.000000
# 6 0.000000 0.000000 0.000000 0.000000 0.000000 -0.590515
#
#
# Mechanical properties :
#
#
# Convention : Reuss Voigt Hill
#
# Bulk Modulus (GPa) = 27.78232 56.83504 42.30868
# Shear Modulus (GPa) = -11.09896 31.53895 10.22000
#
# Velocity S-wave (km/s) = -2.43807 4.10988 2.33954
# Velocity P-wave (km/s) = 2.63697 7.27738 5.47329
#
# Compressibility (1/GPa) = 0.03599412
#
# Stress axis : x y z
#
# Youngs Moduli (GPa) = 62.24519 42.08447 173.92628
#
# Poissons Ratio (x) = -0.12089 0.70743
# Poissons Ratio (y) = -0.17880 0.62551
# Poissons Ratio (z) = 0.25318 0.15135
#
# Static dielectric constant tensor:
#      x y z
#    x 1.653410 0.000000 0.000000 
#    y 0.000000 1.606440 0.000000 
#    z 0.000000 0.000000 1.727350 
# 
# From -- ./inp_files/8922.got.cif
#   From: 2010.05.17/outbox.cif.g08.bks.cpg/sg49_5_cif.got.tgz:8922.got - 2010.06.03 21:02:19.
