data_PCOD9393541
_publ_section_title
;
Structure prediction by ZEFSAII (Michael W. Deem and Ramdas Pophale) SiO2 
 PCOD9393541
Probable space group: P C C M
;
_chemical_formula_sum "Si O2"
_cell_formula_units_Z 64
_cell_length_a 17.665996
_cell_length_b 21.138892
_cell_length_c 8.922963
_cell_angle_alpha 90.000000
_cell_angle_beta 90.000000
_cell_angle_gamma 90.000000
_cell_volume 3332.187569
_symmetry_space_group_name_H-M "P C C M"
_symmetry_group_IT_number 49
_symmetry_cell_setting 'orthorhombic'
loop_
_space_group_symop_operation_xyz
x,y,z
-x,-y,z
x,-y,1/2-z
-x,y,1/2-z
-x,-y,-z
x,y,-z
-x,y,1/2+z
x,-y,1/2+z
loop_
_atom_site_type_symbol
_atom_site_label
_atom_site_fract_x
_atom_site_fract_y
_atom_site_fract_z
Si Si1 0.758066 0.935978 0.179405
Si Si2 0.710195 0.795917 0.821098
Si Si3 0.374618 0.566911 0.179156
Si Si4 0.920661 0.089259 0.826790
Si Si5 0.788489 0.438079 0.325674
Si Si6 0.930825 0.349711 0.326546
Si Si7 0.420763 0.291111 0.680273
Si Si8 0.131847 0.768542 0.171238
O O1 0.713818 0.871008 0.219882
O O2 0.844272 0.931115 0.241185
O O3 0.724975 0.000000 0.250000
O O4 0.760255 0.940165 0.000000
O O5 0.646936 0.752823 0.742408
O O6 0.793244 0.772351 0.772461
O O7 0.701319 0.790894 0.000000
O O8 0.402361 0.500000 0.250000
O O9 0.288080 0.574272 0.234845
O O10 0.411211 0.634280 0.222604
O O11 0.378679 0.560936 0.000000
O O12 0.912253 0.165293 0.825408
O O13 0.000000 0.071784 0.750000
O O14 0.918544 0.067608 0.000000
O O15 0.823064 0.500000 0.250000
O O16 0.768959 0.449012 0.500000
O O17 0.850704 0.384407 0.317277
O O18 0.947430 0.337592 0.500000
O O19 0.919859 0.286453 0.232654
O O20 0.000000 0.386569 0.250000
O O21 0.500000 0.269109 0.750000
O O22 0.421571 0.287745 0.500000
O O23 0.155491 0.756691 0.000000
#
# Coordination Sequence:
#
# PCOD9393541 Si02
#       8
#     8   8   8   8   8   8   8   8
#     4  10  21  37  58  84 113 148 191 237 285 337
#     4  10  21  38  61  87 116 150 188 231 279 334
#     4  10  21  37  59  86 115 150 189 228 272 326
#     4  10  20  33  50  75 109 147 187 232 281 333
#     4  10  21  36  54  74  97 131 175 223 274 328
#     4  11  23  35  49  71  99 134 177 229 286 338
#     4  11  24  40  61  90 122 155 189 227 275 330
#     4  10  20  34  54  78 105 140 182 227 275 330
#
# _framework density 19.206600999999999
#
# number of rings (size 3 to 8) (size 9 to 14) (size 15 to 20)
#    0.000    1.750    0.000    4.875    0.000   10.750 
#    0.000    3.750    0.000    0.375    0.000    2.625 
#    0.000    0.000    0.000    0.000    0.000    0.000 
#
# Total GULP energy -357329.288661 kJ/mol
# GULP energy per Si atom -5583.270135 kJ/mol
# Density = 1.916289 g / cm^3
# Si number density = 19.206601 Si / 1000 Ang^3
#
#
#
# Elastic Constant Matrix: (Units=GPa)
#
#
# Indices 1 2 3 4 5 6 
#
# 1 77.4486 42.2382 22.3691 0.0000 0.0000 0.0000
# 2 42.2382 99.0633 44.1590 0.0000 0.0000 0.0000
# 3 22.3691 44.1590 67.5123 0.0000 0.0000 0.0000
# 4 0.0000 0.0000 0.0000 34.8296 0.0000 0.0000
# 5 0.0000 0.0000 0.0000 0.0000 21.8747 0.0000
# 6 0.0000 0.0000 0.0000 0.0000 0.0000 -15.4101
#
#
#
# Elastic Compliance Matrix: (Units=1/GPa)
#
#
# Indices 1 2 3 4 5 6 
#
# 1 0.016898 -0.006647 -0.001251 0.000000 0.000000 0.000000
# 2 -0.006647 0.016864 -0.008828 0.000000 0.000000 0.000000
# 3 -0.001251 -0.008828 0.021001 0.000000 0.000000 0.000000
# 4 0.000000 0.000000 0.000000 0.028711 0.000000 0.000000
# 5 0.000000 0.000000 0.000000 0.000000 0.045715 0.000000
# 6 0.000000 0.000000 0.000000 0.000000 0.000000 -0.064892
#
#
# Mechanical properties :
#
#
# Convention : Reuss Voigt Hill
#
# Bulk Modulus (GPa) = 46.92537 51.28410 49.10473
# Shear Modulus (GPa) = 47.68543 17.27603 32.48073
#
# Velocity S-wave (km/s) = 4.98814 3.00239 4.11679
# Velocity P-wave (km/s) = 7.59344 6.22723 6.94402
#
# Compressibility (1/GPa) = 0.02131043
#
# Stress axis : x y z
#
# Youngs Moduli (GPa) = 59.17714 59.29751 47.61676
#
# Poissons Ratio (x) = 0.39417 0.05957
# Poissons Ratio (y) = 0.39337 0.42037
# Poissons Ratio (z) = 0.07403 0.52349
#
# Static dielectric constant tensor:
#      x y z
#    x 1.646760 0.000000 0.000000 
#    y 0.000000 1.721160 0.000000 
#    z 0.000000 0.000000 1.654380 
# 
# From -- ./inp_files/5279.got.cif
#   From: 2010.05.17/outbox.cif.g08.bks.cpg/sg49_3_cif.got.tgz:5279.got - 2010.06.03 21:02:19.
