data_PCOD9393610
_publ_section_title
;
Structure prediction by ZEFSAII (Michael W. Deem and Ramdas Pophale) SiO2 
 PCOD9393610
Probable space group: P C C M
;
_chemical_formula_sum "Si O2"
_cell_formula_units_Z 64
_cell_length_a 21.532033
_cell_length_b 17.974693
_cell_length_c 8.042567
_cell_angle_alpha 90.000000
_cell_angle_beta 90.000000
_cell_angle_gamma 90.000000
_cell_volume 3112.728240
_symmetry_space_group_name_H-M "P C C M"
_symmetry_group_IT_number 49
_symmetry_cell_setting 'orthorhombic'
loop_
_space_group_symop_operation_xyz
x,y,z
-x,-y,z
x,-y,1/2-z
-x,y,1/2-z
-x,-y,-z
x,y,-z
-x,y,1/2+z
x,-y,1/2+z
loop_
_atom_site_type_symbol
_atom_site_label
_atom_site_fract_x
_atom_site_fract_y
_atom_site_fract_z
Si Si1 0.068574 0.622190 0.700538
Si Si2 0.433650 0.753195 0.299643
Si Si3 0.585732 0.081379 0.686585
Si Si4 0.285865 0.119214 0.310458
Si Si5 0.297119 0.286396 0.201885
Si Si6 0.067299 0.207299 0.800440
Si Si7 0.154635 0.076870 0.199255
Si Si8 0.794371 0.418974 0.700396
O O1 0.069448 0.620495 0.500000
O O2 0.072295 0.708044 0.760496
O O3 0.133693 0.587305 0.760363
O O4 0.000000 0.592953 0.750000
O O5 0.500000 0.720183 0.250000
O O6 0.430613 0.757052 0.500000
O O7 0.431890 0.838923 0.231985
O O8 0.370268 0.711180 0.247538
O O9 0.561939 0.084763 0.500000
O O10 0.660451 0.086863 0.694279
O O11 0.568368 0.000000 0.750000
O O12 0.307372 0.111562 0.500000
O O13 0.275796 0.205823 0.265866
O O14 0.221438 0.078978 0.283445
O O15 0.251281 0.352452 0.258004
O O16 0.294867 0.284984 0.000000
O O17 0.118319 0.149711 0.741579
O O18 0.000000 0.178847 0.750000
O O19 0.071677 0.210946 0.000000
O O20 0.122412 0.000000 0.250000
O O21 0.161247 0.080351 0.000000
O O22 0.770273 0.500000 0.750000
O O23 0.796252 0.413821 0.500000
#
# Coordination Sequence:
#
# PCOD9393610 Si02
#       8
#     8   8   8   8   8   8   8   8
#     4   9  18  34  55  79 106 141 177 214 257 308
#     4   9  19  34  54  78 105 139 180 224 272 321
#     4  10  20  34  50  72 105 144 180 219 268 319
#     4  11  21  33  52  77 101 131 174 222 265 314
#     4   9  19  38  59  79 107 144 178 216 266 320
#     4   9  19  35  54  71  92 126 169 214 263 314
#     4  11  22  35  49  68  97 133 172 219 273 325
#     4  10  21  37  58  83 114 145 177 214 259 311
#
# _framework density 20.560742000000001
#
# number of rings (size 3 to 8) (size 9 to 14) (size 15 to 20)
#    0.000    2.250    0.000    3.750    0.000    7.250 
#    0.000    6.250    0.000    0.375    0.000    2.625 
#    0.000    0.000    0.000    0.000    0.000    0.000 
#
# Total GULP energy -357019.627569 kJ/mol
# GULP energy per Si atom -5578.431681 kJ/mol
# Density = 2.051395 g / cm^3
# Si number density = 20.560742 Si / 1000 Ang^3
#
#
#
# Elastic Constant Matrix: (Units=GPa)
#
#
# Indices 1 2 3 4 5 6 
#
# 1 115.1390 53.5748 6.7124 0.0000 0.0000 0.0000
# 2 53.5748 97.2483 7.5347 0.0000 0.0000 0.0000
# 3 6.7124 7.5347 24.6314 0.0000 0.0000 0.0000
# 4 0.0000 0.0000 0.0000 20.9501 0.0000 0.0000
# 5 0.0000 0.0000 0.0000 0.0000 21.8020 0.0000
# 6 0.0000 0.0000 0.0000 0.0000 0.0000 -8.2708
#
#
#
# Elastic Compliance Matrix: (Units=1/GPa)
#
#
# Indices 1 2 3 4 5 6 
#
# 1 0.011716 -0.006358 -0.001248 0.000000 0.000000 0.000000
# 2 -0.006358 0.013983 -0.002545 0.000000 0.000000 0.000000
# 3 -0.001248 -0.002545 0.041717 0.000000 0.000000 0.000000
# 4 0.000000 0.000000 0.000000 0.047732 0.000000 0.000000
# 5 0.000000 0.000000 0.000000 0.000000 0.045867 0.000000
# 6 0.000000 0.000000 0.000000 0.000000 0.000000 -0.120907
#
#
# Mechanical properties :
#
#
# Convention : Reuss Voigt Hill
#
# Bulk Modulus (GPa) = 21.22468 41.40694 31.31581
# Shear Modulus (GPa) = 65.69016 18.17606 41.93311
#
# Velocity S-wave (km/s) = 5.65850 2.97647 4.52095
# Velocity P-wave (km/s) = 7.28264 5.65642 6.52043
#
# Compressibility (1/GPa) = 0.04711495
#
# Stress axis : x y z
#
# Youngs Moduli (GPa) = 85.35137 71.51684 23.97103
#
# Poissons Ratio (x) = 0.45470 0.02992
# Poissons Ratio (y) = 0.54265 0.06100
# Poissons Ratio (z) = 0.10652 0.18198
#
# Static dielectric constant tensor:
#      x y z
#    x 1.749640 0.000000 0.000000 
#    y 0.000000 1.732460 0.000000 
#    z 0.000000 0.000000 1.756180 
# 
# From -- ./inp_files/5970.got.cif
#   From: 2010.05.17/outbox.cif.g08.bks.cpg/sg49_3_cif.got.tgz:5970.got - 2010.06.03 21:02:19.
