data_PCOD9393724
_publ_section_title
;
Structure prediction by ZEFSAII (Michael W. Deem and Ramdas Pophale) SiO2 
 PCOD9393724
Probable space group: P C C M
;
_chemical_formula_sum "Si O2"
_cell_formula_units_Z 64
_cell_length_a 25.226531
_cell_length_b 15.702545
_cell_length_c 8.673298
_cell_angle_alpha 90.000000
_cell_angle_beta 90.000000
_cell_angle_gamma 90.000000
_cell_volume 3435.673207
_symmetry_space_group_name_H-M "P C C M"
_symmetry_group_IT_number 49
_symmetry_cell_setting 'orthorhombic'
loop_
_space_group_symop_operation_xyz
x,y,z
-x,-y,z
x,-y,1/2-z
-x,y,1/2-z
-x,-y,-z
x,y,-z
-x,y,1/2+z
x,-y,1/2+z
loop_
_atom_site_type_symbol
_atom_site_label
_atom_site_fract_x
_atom_site_fract_y
_atom_site_fract_z
Si Si1 0.711477 0.643773 0.314372
Si Si2 0.143782 0.221114 0.315421
Si Si3 0.638842 0.909183 0.815199
Si Si4 0.405310 0.411821 0.315454
Si Si5 0.443369 0.226689 0.314683
Si Si6 0.059025 0.091631 0.184067
Si Si7 0.256163 0.178293 0.817256
Si Si8 0.828856 0.411357 0.184235
O O1 0.711083 0.659747 0.500000
O O2 0.657025 0.597632 0.273560
O O3 0.715799 0.732601 0.225751
O O4 0.766142 0.595799 0.277541
O O5 0.137968 0.219624 0.500000
O O6 0.097783 0.166418 0.238140
O O7 0.200439 0.180099 0.270549
O O8 0.146195 0.320818 0.264744
O O9 0.602422 0.834902 0.746526
O O10 0.700391 0.891818 0.773020
O O11 0.621814 0.000000 0.750000
O O12 0.635016 0.907349 0.000000
O O13 0.426768 0.500000 0.250000
O O14 0.408707 0.415027 0.500000
O O15 0.432572 0.324241 0.263278
O O16 0.500000 0.198837 0.250000
O O17 0.443117 0.224978 0.500000
O O18 0.000000 0.105608 0.250000
O O19 0.077400 0.000000 0.250000
O O20 0.056939 0.086935 0.000000
O O21 0.246073 0.173853 0.000000
O O22 0.850229 0.500000 0.250000
O O23 0.833338 0.414104 0.000000
#
# Coordination Sequence:
#
# PCOD9393724 Si02
#       8
#     8   8   8   8   8   8   8   8
#     4   9  17  32  51  76 110 149 188 228 281 337
#     4  10  21  37  57  85 122 162 201 244 291 343
#     4  11  24  41  63  89 115 146 186 231 286 347
#     4  10  21  35  56  83 112 147 185 229 282 340
#     4  11  24  43  64  84 111 145 185 235 287 341
#     4  11  22  39  63  90 120 156 199 247 298 349
#     4  10  20  34  55  85 117 151 190 233 283 341
#     4   9  18  30  49  77 114 155 195 238 284 336
#
# _framework density 18.628083
#
# number of rings (size 3 to 8) (size 9 to 14) (size 15 to 20)
#    0.000    1.875    1.250    4.125    0.000    6.500 
#    0.000    3.750    0.000    0.375    0.000    2.625 
#    0.000    0.000    0.000    0.000    0.000    0.000 
#
# Total GULP energy -357299.381688 kJ/mol
# GULP energy per Si atom -5582.802839 kJ/mol
# Density = 1.858568 g / cm^3
# Si number density = 18.628083 Si / 1000 Ang^3
#
#
#
# Elastic Constant Matrix: (Units=GPa)
#
#
# Indices 1 2 3 4 5 6 
#
# 1 74.6380 53.9162 32.0228 0.0000 0.0000 0.0000
# 2 53.9162 121.4256 39.6828 0.0000 0.0000 0.0000
# 3 32.0228 39.6828 57.4572 0.0000 0.0000 0.0000
# 4 0.0000 0.0000 0.0000 27.2685 0.0000 0.0000
# 5 0.0000 0.0000 0.0000 0.0000 27.1813 0.0000
# 6 0.0000 0.0000 0.0000 0.0000 0.0000 -13.5705
#
#
#
# Elastic Compliance Matrix: (Units=1/GPa)
#
#
# Indices 1 2 3 4 5 6 
#
# 1 0.021723 -0.007347 -0.007032 0.000000 0.000000 0.000000
# 2 -0.007347 0.013121 -0.004967 0.000000 0.000000 0.000000
# 3 -0.007032 -0.004967 0.024754 0.000000 0.000000 0.000000
# 4 0.000000 0.000000 0.000000 0.036672 0.000000 0.000000
# 5 0.000000 0.000000 0.000000 0.000000 0.036790 0.000000
# 6 0.000000 0.000000 0.000000 0.000000 0.000000 -0.073689
#
#
# Mechanical properties :
#
#
# Convention : Reuss Voigt Hill
#
# Bulk Modulus (GPa) = 47.83700 56.08493 51.96097
# Shear Modulus (GPa) = 47.60407 16.70246 32.15326
#
# Velocity S-wave (km/s) = 5.06068 2.99762 4.15910
# Velocity P-wave (km/s) = 7.73842 6.49262 7.14273
#
# Compressibility (1/GPa) = 0.02090432
#
# Stress axis : x y z
#
# Youngs Moduli (GPa) = 46.03514 76.21256 40.39702
#
# Poissons Ratio (x) = 0.55995 0.28409
# Poissons Ratio (y) = 0.33823 0.20067
# Poissons Ratio (z) = 0.32374 0.37857
#
# Static dielectric constant tensor:
#      x y z
#    x 1.629820 0.000000 0.000000 
#    y 0.000000 1.650200 0.000000 
#    z 0.000000 0.000000 1.632070 
# 
# From -- ./inp_files/6550.got.cif
#   From: 2010.05.17/outbox.cif.g08.bks.cpg/sg49_4_cif.got.tgz:6550.got - 2010.06.03 21:02:19.
