data_PCOD9393374
_publ_section_title
;
Structure prediction by ZEFSAII (Michael W. Deem and Ramdas Pophale) SiO2 
 PCOD9393374
Probable space group: P C C M
;
_chemical_formula_sum "Si O2"
_cell_formula_units_Z 40
_cell_length_a 5.186998
_cell_length_b 13.067219
_cell_length_c 26.930852
_cell_angle_alpha 90.000000
_cell_angle_beta 90.000000
_cell_angle_gamma 90.000000
_cell_volume 1825.363422
_symmetry_space_group_name_H-M "P C C M"
_symmetry_group_IT_number 49
_symmetry_cell_setting 'orthorhombic'
loop_
_space_group_symop_operation_xyz
x,y,z
-x,-y,z
x,-y,1/2-z
-x,y,1/2-z
-x,-y,-z
x,y,-z
-x,y,1/2+z
x,-y,1/2+z
loop_
_atom_site_type_symbol
_atom_site_label
_atom_site_fract_x
_atom_site_fract_y
_atom_site_fract_z
Si Si1 0.257745 0.048433 0.693903
Si Si2 0.925616 0.232754 0.940091
Si Si3 0.407998 0.710995 0.194419
Si Si4 0.922842 0.618932 0.143092
Si Si5 0.575161 0.883561 0.059490
O O1 0.327743 0.167894 0.694281
O O2 0.500000 0.000000 0.667298
O O3 0.253686 0.000000 0.750000
O O4 0.000000 0.000000 0.671573
O O5 0.648609 0.192224 0.921917
O O6 0.012285 0.332442 0.910563
O O7 0.139700 0.148603 0.925266
O O8 0.922733 0.245293 0.000000
O O9 0.500000 0.688756 0.250000
O O10 0.640899 0.662130 0.160590
O O11 0.136509 0.661450 0.180878
O O12 0.000000 0.500000 0.140862
O O13 0.500000 0.000000 0.066379
O O14 0.573883 0.868364 0.000000
#
# Coordination Sequence:
#
# PCOD9393374 Si02
#       5
#     8   8   8   8   8
#     4  10  19  36  67  98 128 170 202 259 326 396
#     4  10  21  41  67  94 131 175 219 275 335 391
#     4  12  25  45  72  97 134 178 219 274 340 405
#     4  12  28  46  66  97 133 173 238 293 328 393
#     4   9  17  33  63  95 129 168 206 257 329 404
#
# _framework density 21.913444999999999
#
# number of rings (size 3 to 8) (size 9 to 14) (size 15 to 20)
#    0.000    1.400    2.000    4.200    2.800    5.200 
#    0.000   10.000    0.000    6.000    0.000    0.000 
#    0.000    0.000    0.000    0.000    0.000    0.000 
#
# Total GULP energy -223106.949214 kJ/mol
# GULP energy per Si atom -5577.673730 kJ/mol
# Density = 2.186357 g / cm^3
# Si number density = 21.913445 Si / 1000 Ang^3
#
#
#
# Elastic Constant Matrix: (Units=GPa)
#
#
# Indices 1 2 3 4 5 6 
#
# 1 142.4664 22.8229 17.8847 0.0000 0.0000 0.0000
# 2 22.8229 142.8607 17.1861 0.0000 0.0000 0.0000
# 3 17.8847 17.1861 65.6532 0.0000 0.0000 0.0000
# 4 0.0000 0.0000 0.0000 32.6905 0.0000 0.0000
# 5 0.0000 0.0000 0.0000 0.0000 25.0916 0.0000
# 6 0.0000 0.0000 0.0000 0.0000 0.0000 33.4048
#
#
#
# Elastic Compliance Matrix: (Units=1/GPa)
#
#
# Indices 1 2 3 4 5 6 
#
# 1 0.007396 -0.000970 -0.001761 0.000000 0.000000 0.000000
# 2 -0.000970 0.007355 -0.001661 0.000000 0.000000 0.000000
# 3 -0.001761 -0.001661 0.016146 0.000000 0.000000 0.000000
# 4 0.000000 0.000000 0.000000 0.030590 0.000000 0.000000
# 5 0.000000 0.000000 0.000000 0.000000 0.039854 0.000000
# 6 0.000000 0.000000 0.000000 0.000000 0.000000 0.029936
#
#
# Mechanical properties :
#
#
# Convention : Reuss Voigt Hill
#
# Bulk Modulus (GPa) = 45.22208 51.86310 48.54259
# Shear Modulus (GPa) = 33.91441 37.77650 35.84545
#
# Velocity S-wave (km/s) = 3.93829 4.15649 4.04886
# Velocity P-wave (km/s) = 6.43130 6.83768 6.63760
#
# Compressibility (1/GPa) = 0.02211309
#
# Stress axis : x y z
#
# Youngs Moduli (GPa) = 135.21579 135.97006 61.93466
#
# Poissons Ratio (x) = 0.13185 0.10906
# Poissons Ratio (y) = 0.13111 0.10288
# Poissons Ratio (z) = 0.23809 0.22586
#
# Static dielectric constant tensor:
#      x y z
#    x 1.825760 0.000000 0.000000 
#    y 0.000000 2.559250 0.000000 
#    z 0.000000 0.000000 -0.653530 
# 
# From -- ./inp_files/23751.got.cif
#   From: 2010.05.17/outbox.cif.g08.bks.cpg/sg49_12_cif.got.tgz:23751.got - 2010.06.03 21:02:19.
