data_PCOD9393684
_publ_section_title
;
Structure prediction by ZEFSAII (Michael W. Deem and Ramdas Pophale) SiO2 
 PCOD9393684
Probable space group: P C C M
;
_chemical_formula_sum "Si O2"
_cell_formula_units_Z 64
_cell_length_a 15.709818
_cell_length_b 24.256936
_cell_length_c 8.615034
_cell_angle_alpha 90.000000
_cell_angle_beta 90.000000
_cell_angle_gamma 90.000000
_cell_volume 3282.948665
_symmetry_space_group_name_H-M "P C C M"
_symmetry_group_IT_number 49
_symmetry_cell_setting 'orthorhombic'
loop_
_space_group_symop_operation_xyz
x,y,z
-x,-y,z
x,-y,1/2-z
-x,y,1/2-z
-x,-y,-z
x,y,-z
-x,y,1/2+z
x,-y,1/2+z
loop_
_atom_site_type_symbol
_atom_site_label
_atom_site_fract_x
_atom_site_fract_y
_atom_site_fract_z
Si Si1 0.182888 0.331856 0.815426
Si Si2 0.641999 0.321711 0.819939
Si Si3 0.087261 0.228802 0.182240
Si Si4 0.590821 0.796461 0.186600
Si Si5 0.093685 0.442295 0.183719
Si Si6 0.906689 0.937790 0.313424
Si Si7 0.596142 0.442165 0.313978
Si Si8 0.767919 0.146842 0.688160
O O1 0.258240 0.312682 0.706976
O O2 0.102077 0.293125 0.788521
O O3 0.158284 0.393915 0.780530
O O4 0.206125 0.326247 0.000000
O O5 0.601062 0.266974 0.745019
O O6 0.627555 0.381723 0.741109
O O7 0.617312 0.325232 0.000000
O O8 0.171222 0.197569 0.235403
O O9 0.000000 0.208464 0.250000
O O10 0.082773 0.220212 0.000000
O O11 0.500000 0.816985 0.250000
O O12 0.671883 0.834896 0.234754
O O13 0.590255 0.795214 0.000000
O O14 0.123676 0.500000 0.250000
O O15 0.000000 0.430917 0.250000
O O16 0.085410 0.446268 0.000000
O O17 0.909980 0.936885 0.500000
O O18 0.823460 0.903871 0.255833
O O19 0.000000 0.918047 0.250000
O O20 0.898423 0.000000 0.250000
O O21 0.636112 0.500000 0.250000
O O22 0.500000 0.443068 0.250000
O O23 0.598888 0.444181 0.500000
O O24 0.766638 0.141308 0.500000
#
# Coordination Sequence:
#
# PCOD9393684 Si02
#       8
#     8   8   8   8   8   8   8   8
#     4  10  21  38  54  74 106 146 185 236 297 352
#     4  12  24  38  58  84 113 149 195 245 303 368
#     4  10  20  35  55  81 115 154 194 237 299 358
#     4  11  23  42  65  90 124 163 208 261 316 372
#     4  10  20  34  54  73  99 134 180 232 286 350
#     4  11  22  38  63  96 137 179 222 261 305 361
#     4  11  22  39  60  82 109 139 179 232 296 368
#     4  10  21  39  62  89 126 167 208 258 310 360
#
# _framework density 19.494668999999998
#
# number of rings (size 3 to 8) (size 9 to 14) (size 15 to 20)
#    0.000    1.375    1.250    6.375    0.000    4.500 
#    0.000    1.250    0.000    0.375    0.000    2.625 
#    0.000    0.000    0.000    0.000    0.000    0.000 
#
# Total GULP energy -357037.701832 kJ/mol
# GULP energy per Si atom -5578.714091 kJ/mol
# Density = 1.945030 g / cm^3
# Si number density = 19.494669 Si / 1000 Ang^3
#
#
#
# Elastic Constant Matrix: (Units=GPa)
#
#
# Indices 1 2 3 4 5 6 
#
# 1 136.4918 55.1568 47.0851 0.0000 0.0000 0.0000
# 2 55.1568 86.1389 43.3677 0.0000 0.0000 0.0000
# 3 47.0851 43.3677 73.9391 0.0000 0.0000 0.0000
# 4 0.0000 0.0000 0.0000 182.2377 0.0000 0.0000
# 5 0.0000 0.0000 0.0000 0.0000 29.0548 0.0000
# 6 0.0000 0.0000 0.0000 0.0000 0.0000 7.2162
#
#
#
# Elastic Compliance Matrix: (Units=1/GPa)
#
#
# Indices 1 2 3 4 5 6 
#
# 1 0.010637 -0.004826 -0.003943 0.000000 0.000000 0.000000
# 2 -0.004826 0.018663 -0.007873 0.000000 0.000000 0.000000
# 3 -0.003943 -0.007873 0.020654 0.000000 0.000000 0.000000
# 4 0.000000 0.000000 0.000000 0.005487 0.000000 0.000000
# 5 0.000000 0.000000 0.000000 0.000000 0.034418 0.000000
# 6 0.000000 0.000000 0.000000 0.000000 0.000000 0.138576
#
#
# Mechanical properties :
#
#
# Convention : Reuss Voigt Hill
#
# Bulk Modulus (GPa) = 59.99179 65.30990 62.65085
# Shear Modulus (GPa) = 18.70724 53.76575 36.23650
#
# Velocity S-wave (km/s) = 3.10111 5.25734 4.31605
# Velocity P-wave (km/s) = 6.60778 8.39208 7.55280
#
# Compressibility (1/GPa) = 0.01666895
#
# Stress axis : x y z
#
# Youngs Moduli (GPa) = 94.01301 53.58134 48.41740
#
# Poissons Ratio (x) = 0.25857 0.19092
# Poissons Ratio (y) = 0.45369 0.38121
# Poissons Ratio (z) = 0.37071 0.42187
#
# Static dielectric constant tensor:
#      x y z
#    x 1.721290 0.000000 0.000000 
#    y 0.000000 1.699950 0.000000 
#    z 0.000000 0.000000 1.681450 
# 
# From -- ./inp_files/4361.got.cif
#   From: 2010.05.17/outbox.cif.g08.bks.cpg/sg49_3_cif.got.tgz:4361.got - 2010.06.03 21:02:19.
