data_PCOD9393850
_publ_section_title
;
Structure prediction by ZEFSAII (Michael W. Deem and Ramdas Pophale) SiO2 
 PCOD9393850
Probable space group: P C C M
;
_chemical_formula_sum "Si O2"
_cell_formula_units_Z 48
_cell_length_a 8.336171
_cell_length_b 18.011775
_cell_length_c 15.126164
_cell_angle_alpha 90.000000
_cell_angle_beta 90.000000
_cell_angle_gamma 90.000000
_cell_volume 2271.181974
_symmetry_space_group_name_H-M "P C C M"
_symmetry_group_IT_number 49
_symmetry_cell_setting 'orthorhombic'
loop_
_space_group_symop_operation_xyz
x,y,z
-x,-y,z
x,-y,1/2-z
-x,y,1/2-z
-x,-y,-z
x,y,-z
-x,y,1/2+z
x,-y,1/2+z
loop_
_atom_site_type_symbol
_atom_site_label
_atom_site_fract_x
_atom_site_fract_y
_atom_site_fract_z
Si Si1 0.697962 0.858914 0.597230
Si Si2 0.804237 0.584830 0.750185
Si Si3 0.821778 0.297402 0.102927
Si Si4 0.623374 0.844658 0.832983
Si Si5 0.791202 0.302185 0.397510
Si Si6 0.187215 0.983991 0.393938
O O1 0.776879 0.861720 0.500000
O O2 0.765995 0.783252 0.638152
O O3 0.508837 0.850977 0.590743
O O4 0.729647 0.939660 0.636270
O O5 0.748282 0.500000 0.750000
O O6 0.761616 0.636487 0.666006
O O7 0.749007 0.626469 0.838798
O O8 0.000000 0.583256 0.750000
O O9 0.015006 0.296994 0.103601
O O10 0.769385 0.305410 0.000000
O O11 0.500000 0.845519 0.750000
O O12 0.718156 0.769130 0.849119
O O13 0.743497 0.913547 0.842562
O O14 0.740533 0.305850 0.500000
O O15 0.215034 0.972425 0.500000
O O16 0.000000 0.000000 0.381081
#
# Coordination Sequence:
#
# PCOD9393850 Si02
#       6
#     8   8   8   8   8   8
#     4  10  20  35  56  81 111 150 196 243 293 351
#     4   9  18  33  55  86 120 151 191 248 308 364
#     4   9  18  34  58  87 119 157 200 248 305 369
#     4  12  24  37  55  83 119 157 198 249 305 361
#     4  10  20  36  59  85 116 158 206 250 298 363
#     4  10  21  39  62  85 113 152 199 249 299 359
#
# _framework density 21.134371000000002
#
# number of rings (size 3 to 8) (size 9 to 14) (size 15 to 20)
#    0.000    2.000    0.000    4.000    0.000    6.000 
#    0.000    6.667    0.000    4.500    0.000    7.000 
#    0.000    0.000    0.000    0.000    0.000    0.000 
#
# Total GULP energy -267837.649413 kJ/mol
# GULP energy per Si atom -5579.951029 kJ/mol
# Density = 2.108627 g / cm^3
# Si number density = 21.134371 Si / 1000 Ang^3
#
#
#
# Elastic Constant Matrix: (Units=GPa)
#
#
# Indices 1 2 3 4 5 6 
#
# 1 37.2469 39.1519 29.8703 0.0000 0.0000 0.0000
# 2 39.1519 224.5981 79.1932 0.0000 0.0000 0.0000
# 3 29.8703 79.1932 152.1656 0.0000 0.0000 0.0000
# 4 0.0000 0.0000 0.0000 42.3560 0.0000 0.0000
# 5 0.0000 0.0000 0.0000 0.0000 26.7192 0.0000
# 6 0.0000 0.0000 0.0000 0.0000 0.0000 -50.4967
#
#
#
# Elastic Compliance Matrix: (Units=1/GPa)
#
#
# Indices 1 2 3 4 5 6 
#
# 1 0.035280 -0.004541 -0.004562 0.000000 0.000000 0.000000
# 2 -0.004541 0.006038 -0.002251 0.000000 0.000000 0.000000
# 3 -0.004562 -0.002251 0.008639 0.000000 0.000000 0.000000
# 4 0.000000 0.000000 0.000000 0.023609 0.000000 0.000000
# 5 0.000000 0.000000 0.000000 0.000000 0.037426 0.000000
# 6 0.000000 0.000000 0.000000 0.000000 0.000000 -0.019803
#
#
# Mechanical properties :
#
#
# Convention : Reuss Voigt Hill
#
# Bulk Modulus (GPa) = 36.69977 78.93793 57.81885
# Shear Modulus (GPa) = 40.65697 21.43537 31.04617
#
# Velocity S-wave (km/s) = 4.39080 3.18817 3.83690
# Velocity P-wave (km/s) = 6.56568 7.14032 6.85902
#
# Compressibility (1/GPa) = 0.02724813
#
# Stress axis : x y z
#
# Youngs Moduli (GPa) = 28.34454 165.62633 115.75830
#
# Poissons Ratio (x) = 0.75219 0.52808
# Poissons Ratio (y) = 0.12873 0.26054
# Poissons Ratio (z) = 0.12931 0.37278
#
# Static dielectric constant tensor:
#      x y z
#    x 1.751970 0.000000 0.000000 
#    y 0.000000 1.748880 0.000000 
#    z 0.000000 0.000000 1.908210 
# 
# From -- ./inp_files/11798.got.cif
#   From: 2010.05.17/outbox.cif.g08.bks.cpg/sg49_6_cif.got.tgz:11798.got - 2010.06.03 21:02:19.
