data_PCOD9393581
_publ_section_title
;
Structure prediction by ZEFSAII (Michael W. Deem and Ramdas Pophale) SiO2 
 PCOD9393581
Probable space group: P C C M
;
_chemical_formula_sum "Si O2"
_cell_formula_units_Z 58
_cell_length_a 16.995101
_cell_length_b 18.742667
_cell_length_c 9.284412
_cell_angle_alpha 90.000000
_cell_angle_beta 90.000000
_cell_angle_gamma 90.000000
_cell_volume 2957.396423
_symmetry_space_group_name_H-M "P C C M"
_symmetry_group_IT_number 49
_symmetry_cell_setting 'orthorhombic'
loop_
_space_group_symop_operation_xyz
x,y,z
-x,-y,z
x,-y,1/2-z
-x,y,1/2-z
-x,-y,-z
x,y,-z
-x,y,1/2+z
x,-y,1/2+z
loop_
_atom_site_type_symbol
_atom_site_label
_atom_site_fract_x
_atom_site_fract_y
_atom_site_fract_z
Si Si1 0.585955 0.428846 0.176570
Si Si2 0.073296 0.172779 0.164792
Si Si3 0.221458 0.931323 0.664487
Si Si4 0.167225 0.285102 0.669147
Si Si5 0.080744 0.427290 0.670462
Si Si6 0.345821 0.725780 0.826427
Si Si7 0.500000 0.000000 0.750000
Si Si8 0.374579 0.118590 0.666087
O O1 0.623366 0.500000 0.250000
O O2 0.500000 0.425608 0.250000
O O3 0.624061 0.352434 0.217183
O O4 0.583030 0.435492 0.000000
O O5 0.150950 0.124578 0.169010
O O6 0.100536 0.244153 0.244088
O O7 0.000000 0.140460 0.250000
O O8 0.050986 0.185679 0.000000
O O9 0.239033 0.949791 0.500000
O O10 0.301313 0.904629 0.737460
O O11 0.194094 0.000000 0.750000
O O12 0.162022 0.265816 0.500000
O O13 0.148196 0.368351 0.683141
O O14 0.254960 0.266356 0.720866
O O15 0.103558 0.500000 0.750000
O O16 0.065844 0.437968 0.500000
O O17 0.000000 0.403969 0.750000
O O18 0.392906 0.798806 0.788671
O O19 0.345662 0.722313 0.000000
O O20 0.441425 0.057480 0.674839
O O21 0.349039 0.122278 0.500000
#
# Coordination Sequence:
#
# PCOD9393581 Si02
#       8
#     8   8   8   8   8   8   2   8
#     4  10  20  37  60  86 119 158 205 252 308 371
#     4  11  24  40  61  91 121 157 203 253 304 366
#     4  11  24  42  65  92 124 160 203 252 306 363
#     4  10  20  37  60  85 114 154 200 248 301 364
#     4  10  20  33  52  78 111 151 195 243 295 350
#     4   9  20  38  61  86 118 163 201 243 308 372
#     4  12  26  36  68 110 130 160 218 248 310 372
#     4  11  23  42  65  92 131 170 207 255 312 370
#
# _framework density 19.611844999999999
#
# number of rings (size 3 to 8) (size 9 to 14) (size 15 to 20)
#    0.000    1.655    2.069    3.103    0.966    5.241 
#    0.000    4.138    0.000    0.000    0.000    0.000 
#    0.000    0.000    0.000    0.000    0.000    0.000 
#
# Total GULP energy -323328.957893 kJ/mol
# GULP energy per Si atom -5574.637205 kJ/mol
# Density = 1.956721 g / cm^3
# Si number density = 19.611845 Si / 1000 Ang^3
#
#
#
# Elastic Constant Matrix: (Units=GPa)
#
#
# Indices 1 2 3 4 5 6 
#
# 1 62.6865 27.7790 36.6381 0.0000 0.0000 0.0000
# 2 27.7790 122.8459 43.0562 0.0000 0.0000 0.0000
# 3 36.6381 43.0562 111.3048 0.0000 0.0000 0.0000
# 4 0.0000 0.0000 0.0000 17.9754 0.0000 0.0000
# 5 0.0000 0.0000 0.0000 0.0000 16.2727 0.0000
# 6 0.0000 0.0000 0.0000 0.0000 0.0000 22.7405
#
#
#
# Elastic Compliance Matrix: (Units=1/GPa)
#
#
# Indices 1 2 3 4 5 6 
#
# 1 0.020457 -0.002621 -0.005720 0.000000 0.000000 0.000000
# 2 -0.002621 0.009753 -0.002910 0.000000 0.000000 0.000000
# 3 -0.005720 -0.002910 0.011993 0.000000 0.000000 0.000000
# 4 0.000000 0.000000 0.000000 0.055632 0.000000 0.000000
# 5 0.000000 0.000000 0.000000 0.000000 0.061453 0.000000
# 6 0.000000 0.000000 0.000000 0.000000 0.000000 0.043974
#
#
# Mechanical properties :
#
#
# Convention : Reuss Voigt Hill
#
# Bulk Modulus (GPa) = 50.75938 56.86487 53.81213
# Shear Modulus (GPa) = 21.52110 24.02198 22.77154
#
# Velocity S-wave (km/s) = 3.31622 3.50361 3.41121
# Velocity P-wave (km/s) = 6.37192 6.73982 6.55845
#
# Compressibility (1/GPa) = 0.01970079
#
# Stress axis : x y z
#
# Youngs Moduli (GPa) = 48.88296 102.53364 83.38338
#
# Poissons Ratio (x) = 0.26876 0.47694
# Poissons Ratio (y) = 0.12813 0.24264
# Poissons Ratio (z) = 0.27960 0.29836
#
# Static dielectric constant tensor:
#      x y z
#    x 1.696630 0.000000 0.000000 
#    y 0.000000 1.740310 0.000000 
#    z 0.000000 0.000000 1.670630 
# 
# From -- ./inp_files/5070.got.cif
#   From: 2010.05.17/outbox.cif.g08.bks.cpg/sg49_3_cif.got.tgz:5070.got - 2010.06.03 21:02:19.
