data_PCOD9393059
_publ_section_title
;
Structure prediction by ZEFSAII (Michael W. Deem and Ramdas Pophale) SiO2 
 PCOD9393059
Probable space group: P C C M
;
_chemical_formula_sum "Si O2"
_cell_formula_units_Z 64
_cell_length_a 21.065905
_cell_length_b 20.175375
_cell_length_c 8.867779
_cell_angle_alpha 90.000000
_cell_angle_beta 90.000000
_cell_angle_gamma 90.000000
_cell_volume 3768.917216
_symmetry_space_group_name_H-M "P C C M"
_symmetry_group_IT_number 49
_symmetry_cell_setting 'orthorhombic'
loop_
_space_group_symop_operation_xyz
x,y,z
-x,-y,z
x,-y,1/2-z
-x,y,1/2-z
-x,-y,-z
x,y,-z
-x,y,1/2+z
x,-y,1/2+z
loop_
_atom_site_type_symbol
_atom_site_label
_atom_site_fract_x
_atom_site_fract_y
_atom_site_fract_z
Si Si1 0.766023 0.569705 0.819723
Si Si2 0.616693 0.569176 0.819262
Si Si3 0.315011 0.210899 0.317912
Si Si4 0.735112 0.069128 0.181159
Si Si5 0.115764 0.069156 0.318696
Si Si6 0.189516 0.704069 0.181582
Si Si7 0.933675 0.788612 0.317951
Si Si8 0.566824 0.711777 0.181102
O O1 0.787482 0.500000 0.750000
O O2 0.691220 0.577564 0.777887
O O3 0.803156 0.632529 0.755945
O O4 0.769986 0.567452 0.000000
O O5 0.593752 0.500000 0.750000
O O6 0.580643 0.635502 0.770949
O O7 0.613175 0.564340 0.000000
O O8 0.322027 0.213243 0.500000
O O9 0.302685 0.134759 0.272606
O O10 0.251627 0.252467 0.279405
O O11 0.375474 0.243835 0.240885
O O12 0.809635 0.077065 0.222681
O O13 0.712284 0.000000 0.250000
O O14 0.732810 0.065168 0.000000
O O15 0.112391 0.065198 0.500000
O O16 0.079984 0.135496 0.269239
O O17 0.092576 0.000000 0.250000
O O18 0.126104 0.743327 0.226576
O O19 0.188889 0.697239 0.000000
O O20 0.936581 0.788263 0.500000
O O21 0.000000 0.765727 0.250000
O O22 0.500000 0.733202 0.250000
O O23 0.565104 0.713732 0.000000
#
# Coordination Sequence:
#
# PCOD9393059 Si02
#       8
#     8   8   8   8   8   8   8   8
#     4  10  19  33  53  81 110 137 173 218 265 314
#     4   9  19  33  50  74 106 140 175 213 252 303
#     4  10  19  34  57  80 104 139 178 219 267 315
#     4   9  17  31  52  79 107 136 173 216 265 315
#     4   9  17  31  49  72 104 141 179 218 257 311
#     4  10  19  34  56  79 105 140 178 220 268 315
#     4  10  21  36  52  74 107 144 182 221 266 317
#     4  11  23  38  53  77 109 142 180 220 263 313
#
# _framework density 16.981003999999999
#
# number of rings (size 3 to 8) (size 9 to 14) (size 15 to 20)
#    0.000    2.250    2.500    0.750    0.000    3.500 
#    0.000    2.500    0.000    0.750    0.000    5.250 
#    0.000    0.000    0.000    0.000    0.000    0.000 
#
# Total GULP energy -357127.997262 kJ/mol
# GULP energy per Si atom -5580.124957 kJ/mol
# Density = 1.694235 g / cm^3
# Si number density = 16.981004 Si / 1000 Ang^3
#
#
#
# Elastic Constant Matrix: (Units=GPa)
#
#
# Indices 1 2 3 4 5 6 
#
# 1 113.4568 67.6069 35.5357 0.0000 0.0000 0.0000
# 2 67.6069 135.3766 37.9212 0.0000 0.0000 0.0000
# 3 35.5357 37.9212 20.4809 0.0000 0.0000 0.0000
# 4 0.0000 0.0000 0.0000 31.7233 0.0000 0.0000
# 5 0.0000 0.0000 0.0000 0.0000 -105.0011 0.0000
# 6 0.0000 0.0000 0.0000 0.0000 0.0000 20.5904
#
#
#
# Elastic Compliance Matrix: (Units=1/GPa)
#
#
# Indices 1 2 3 4 5 6 
#
# 1 0.019324 -0.000537 -0.032533 0.000000 0.000000 0.000000
# 2 -0.000537 0.015361 -0.027509 0.000000 0.000000 0.000000
# 3 -0.032533 -0.027509 0.156207 0.000000 0.000000 0.000000
# 4 0.000000 0.000000 0.000000 0.031523 0.000000 0.000000
# 5 0.000000 0.000000 0.000000 0.000000 -0.009524 0.000000
# 6 0.000000 0.000000 0.000000 0.000000 0.000000 0.048566
#
#
# Mechanical properties :
#
#
# Convention : Reuss Voigt Hill
#
# Bulk Modulus (GPa) = 14.34048 61.27133 37.80591
# Shear Modulus (GPa) = 12.31951 -1.98747 5.16602
#
# Velocity S-wave (km/s) = 2.69641 -1.08303 1.74609
# Velocity P-wave (km/s) = 4.26116 5.88189 5.13586
#
# Compressibility (1/GPa) = 0.06973267
#
# Stress axis : x y z
#
# Youngs Moduli (GPa) = 51.74984 65.10085 6.40175
#
# Poissons Ratio (x) = 0.03497 0.20827
# Poissons Ratio (y) = 0.02780 0.17611
# Poissons Ratio (z) = 1.68359 1.79086
#
# Static dielectric constant tensor:
#      x y z
#    x 1.562720 0.000000 0.000000 
#    y 0.000000 1.568530 0.000000 
#    z 0.000000 0.000000 1.569090 
# 
# From -- ./inp_files/5258.got.cif
#   From: 2010.05.17/outbox.cif.g08.bks.cpg/sg49_3_cif.got.tgz:5258.got - 2010.06.03 21:02:19.
