data_PCOD9393907
_publ_section_title
;
Structure prediction by ZEFSAII (Michael W. Deem and Ramdas Pophale) SiO2 
 PCOD9393907
Probable space group: P C C M
;
_chemical_formula_sum "Si O2"
_cell_formula_units_Z 64
_cell_length_a 8.917258
_cell_length_b 24.542714
_cell_length_c 15.297370
_cell_angle_alpha 90.000000
_cell_angle_beta 90.000000
_cell_angle_gamma 90.000000
_cell_volume 3347.886220
_symmetry_space_group_name_H-M "P C C M"
_symmetry_group_IT_number 49
_symmetry_cell_setting 'orthorhombic'
loop_
_space_group_symop_operation_xyz
x,y,z
-x,-y,z
x,-y,1/2-z
-x,y,1/2-z
-x,-y,-z
x,y,-z
-x,y,1/2+z
x,-y,1/2+z
loop_
_atom_site_type_symbol
_atom_site_label
_atom_site_fract_x
_atom_site_fract_y
_atom_site_fract_z
Si Si1 0.889610 0.851161 0.665500
Si Si2 0.322113 0.064655 0.753394
Si Si3 0.494366 0.564672 0.901681
Si Si4 0.166817 0.319749 0.752114
Si Si5 0.738208 0.435773 0.250017
Si Si6 0.304858 0.252119 0.396476
Si Si7 0.801398 0.864400 0.096261
Si Si8 0.336804 0.748393 0.603569
O O1 0.777167 0.901397 0.683779
O O2 0.787240 0.800052 0.639179
O O3 0.000000 0.842637 0.750000
O O4 0.018820 0.862921 0.595682
O O5 0.500000 0.076486 0.750000
O O6 0.258075 0.088156 0.843234
O O7 0.300812 0.000000 0.750000
O O8 0.500000 0.500000 0.913898
O O9 0.349315 0.574182 0.841459
O O10 0.629138 0.574188 0.833504
O O11 0.498935 0.589765 0.000000
O O12 0.154253 0.384717 0.757952
O O13 0.248985 0.301594 0.663368
O O14 0.262296 0.295878 0.832983
O O15 0.000000 0.295581 0.750000
O O16 0.784504 0.500000 0.250000
O O17 0.276219 0.258910 0.500000
O O18 0.484234 0.247083 0.384161
O O19 0.738849 0.806036 0.127970
O O20 0.739389 0.871437 0.000000
O O21 0.308142 0.737870 0.500000
#
# Coordination Sequence:
#
# PCOD9393907 Si02
#       8
#     8   8   8   8   8   8   8   8
#     4  10  20  35  59  87 117 155 191 235 290 346
#     4  10  21  38  58  82 116 159 200 238 282 335
#     4   8  15  31  56  82 107 137 177 228 276 320
#     4  12  25  39  57  83 119 156 187 234 290 345
#     4   9  20  36  55  83 112 146 190 231 278 344
#     4  11  23  39  61  88 115 150 195 241 286 342
#     4  10  20  37  60  86 116 149 187 238 292 345
#     4  10  23  41  63  87 113 147 193 243 292 344
#
# _framework density 19.116540000000001
#
# number of rings (size 3 to 8) (size 9 to 14) (size 15 to 20)
#    0.000    2.000    0.000    4.875    3.500    5.000 
#    0.000    3.750    0.000    0.000    0.000    5.250 
#    0.000    0.000    0.000    0.000    0.000    0.000 
#
# Total GULP energy -356613.552133 kJ/mol
# GULP energy per Si atom -5572.086752 kJ/mol
# Density = 1.907303 g / cm^3
# Si number density = 19.116540 Si / 1000 Ang^3
#
#
#
# Elastic Constant Matrix: (Units=GPa)
#
#
# Indices 1 2 3 4 5 6 
#
# 1 122.7809 62.8496 44.4618 0.0000 0.0000 0.0000
# 2 62.8496 130.8175 41.9413 0.0000 0.0000 0.0000
# 3 44.4618 41.9413 114.8191 0.0000 0.0000 0.0000
# 4 0.0000 0.0000 0.0000 16.9105 0.0000 0.0000
# 5 0.0000 0.0000 0.0000 0.0000 11.4118 0.0000
# 6 0.0000 0.0000 0.0000 0.0000 0.0000 1.9538
#
#
#
# Elastic Compliance Matrix: (Units=1/GPa)
#
#
# Indices 1 2 3 4 5 6 
#
# 1 0.011527 -0.004652 -0.002764 0.000000 0.000000 0.000000
# 2 -0.004652 0.010535 -0.002047 0.000000 0.000000 0.000000
# 3 -0.002764 -0.002047 0.010528 0.000000 0.000000 0.000000
# 4 0.000000 0.000000 0.000000 0.059135 0.000000 0.000000
# 5 0.000000 0.000000 0.000000 0.000000 0.087629 0.000000
# 6 0.000000 0.000000 0.000000 0.000000 0.000000 0.511812
#
#
# Mechanical properties :
#
#
# Convention : Reuss Voigt Hill
#
# Bulk Modulus (GPa) = 73.18780 74.10252 73.64516
# Shear Modulus (GPa) = 6.99648 20.66622 13.83135
#
# Velocity S-wave (km/s) = 1.91516 3.29152 2.69277
# Velocity P-wave (km/s) = 6.57713 7.30022 6.94809
#
# Compressibility (1/GPa) = 0.01366348
#
# Stress axis : x y z
#
# Youngs Moduli (GPa) = 86.75505 94.91852 94.98849
#
# Poissons Ratio (x) = 0.44152 0.26259
# Poissons Ratio (y) = 0.40355 0.19445
# Poissons Ratio (z) = 0.23982 0.19431
#
# Static dielectric constant tensor:
#      x y z
#    x 1.663870 0.000000 0.000000 
#    y 0.000000 1.649570 0.000000 
#    z 0.000000 0.000000 1.709570 
# 
# From -- ./inp_files/12137.got.cif
#   From: 2010.05.17/outbox.cif.g08.bks.cpg/sg49_7_cif.got.tgz:12137.got - 2010.06.03 21:02:19.
