data_PCOD9393045
_publ_section_title
;
Structure prediction by ZEFSAII (Michael W. Deem and Ramdas Pophale) SiO2 
 PCOD9393045
Probable space group: P C C M
;
_chemical_formula_sum "Si O2"
_cell_formula_units_Z 48
_cell_length_a 32.751281
_cell_length_b 9.573851
_cell_length_c 8.639518
_cell_angle_alpha 90.000000
_cell_angle_beta 90.000000
_cell_angle_gamma 90.000000
_cell_volume 2708.971707
_symmetry_space_group_name_H-M "P C C M"
_symmetry_group_IT_number 49
_symmetry_cell_setting 'orthorhombic'
loop_
_space_group_symop_operation_xyz
x,y,z
-x,-y,z
x,-y,1/2-z
-x,y,1/2-z
-x,-y,-z
x,y,-z
-x,y,1/2+z
x,-y,1/2+z
loop_
_atom_site_type_symbol
_atom_site_label
_atom_site_fract_x
_atom_site_fract_y
_atom_site_fract_z
Si Si1 0.293798 0.342547 0.686124
Si Si2 0.958552 0.841674 0.184952
Si Si3 0.868518 0.842635 0.814426
Si Si4 0.456438 0.156601 0.185013
Si Si5 0.204597 0.657744 0.813966
Si Si6 0.383214 0.341759 0.313285
O O1 0.293783 0.500000 0.750000
O O2 0.293811 0.347684 0.500000
O O3 0.249604 0.283068 0.733082
O O4 0.338042 0.282937 0.731731
O O5 0.913794 0.784171 0.227612
O O6 0.000000 0.774081 0.250000
O O7 0.957876 0.000000 0.250000
O O8 0.961590 0.846999 0.000000
O O9 0.832144 0.749668 0.749664
O O10 0.865363 0.000000 0.750000
O O11 0.866332 0.847978 0.000000
O O12 0.500000 0.208534 0.250000
O O13 0.419442 0.251395 0.242951
O O14 0.451073 0.000000 0.250000
O O15 0.457963 0.152627 0.000000
O O16 0.201604 0.500000 0.750000
O O17 0.202731 0.653672 0.000000
O O18 0.385752 0.500000 0.250000
O O19 0.386180 0.343480 0.500000
#
# Coordination Sequence:
#
# PCOD9393045 Si02
#       6
#     8   8   8   8   8   8
#     4   8  16  30  50  74 101 131 166 205 248 295
#     4   9  16  26  43  66  93 123 159 199 244 294
#     4  10  20  33  49  73 102 132 165 207 253 298
#     4  11  22  38  57  78 104 138 174 209 251 302
#     4  10  19  33  53  76 101 134 171 207 247 299
#     4  10  19  34  55  81 108 134 167 211 255 297
#
# _framework density 17.718900999999999
#
# number of rings (size 3 to 8) (size 9 to 14) (size 15 to 20)
#    0.000    2.333    0.000    4.500    0.000    3.667 
#    0.000    2.500    0.000    0.500    0.000    3.500 
#    0.000    0.000    0.000    0.000    0.000    0.000 
#
# Total GULP energy -267429.540176 kJ/mol
# GULP energy per Si atom -5571.448754 kJ/mol
# Density = 1.767857 g / cm^3
# Si number density = 17.718901 Si / 1000 Ang^3
#
#
#
# Elastic Constant Matrix: (Units=GPa)
#
#
# Indices 1 2 3 4 5 6 
#
# 1 240.8321 67.1777 70.2904 0.0000 0.0000 0.0000
# 2 67.1777 38.1722 23.5342 0.0000 0.0000 0.0000
# 3 70.2904 23.5342 85.4316 0.0000 0.0000 0.0000
# 4 0.0000 0.0000 0.0000 25.0520 0.0000 0.0000
# 5 0.0000 0.0000 0.0000 0.0000 27.2868 0.0000
# 6 0.0000 0.0000 0.0000 0.0000 0.0000 30.0455
#
#
#
# Elastic Compliance Matrix: (Units=1/GPa)
#
#
# Indices 1 2 3 4 5 6 
#
# 1 0.009021 -0.013611 -0.003673 0.000000 0.000000 0.000000
# 2 -0.013611 0.052094 -0.003152 0.000000 0.000000 0.000000
# 3 -0.003673 -0.003152 0.015595 0.000000 0.000000 0.000000
# 4 0.000000 0.000000 0.000000 0.039917 0.000000 0.000000
# 5 0.000000 0.000000 0.000000 0.000000 0.036648 0.000000
# 6 0.000000 0.000000 0.000000 0.000000 0.000000 0.033283
#
#
# Mechanical properties :
#
#
# Convention : Reuss Voigt Hill
#
# Bulk Modulus (GPa) = 27.90249 76.27119 52.08684
# Shear Modulus (GPa) = 20.88774 30.03910 25.46342
#
# Velocity S-wave (km/s) = 3.43715 4.12189 3.79499
# Velocity P-wave (km/s) = 5.61547 8.11122 6.97586
#
# Compressibility (1/GPa) = 0.03583910
#
# Stress axis : x y z
#
# Youngs Moduli (GPa) = 110.85393 19.19607 64.12262
#
# Poissons Ratio (x) = 0.26128 0.23549
# Poissons Ratio (y) = 1.50886 0.20209
# Poissons Ratio (z) = 0.40712 0.06050
#
# Static dielectric constant tensor:
#      x y z
#    x 1.673330 0.000000 0.000000 
#    y 0.000000 1.559440 0.000000 
#    z 0.000000 0.000000 1.594430 
# 
# From -- ./inp_files/6879.got.cif
#   From: 2010.05.17/outbox.cif.g08.bks.cpg/sg49_4_cif.got.tgz:6879.got - 2010.06.03 21:02:19.
