data_PCOD9393990
_publ_section_title
;
Structure prediction by ZEFSAII (Michael W. Deem and Ramdas Pophale) SiO2 
 PCOD9393990
Probable space group: P C C M
;
_chemical_formula_sum "Si O2"
_cell_formula_units_Z 40
_cell_length_a 10.918715
_cell_length_b 8.573340
_cell_length_c 19.611055
_cell_angle_alpha 90.000000
_cell_angle_beta 90.000000
_cell_angle_gamma 90.000000
_cell_volume 1835.788036
_symmetry_space_group_name_H-M "P C C M"
_symmetry_group_IT_number 49
_symmetry_cell_setting 'orthorhombic'
loop_
_space_group_symop_operation_xyz
x,y,z
-x,-y,z
x,-y,1/2-z
-x,y,1/2-z
-x,-y,-z
x,y,-z
-x,y,1/2+z
x,-y,1/2+z
loop_
_atom_site_type_symbol
_atom_site_label
_atom_site_fract_x
_atom_site_fract_y
_atom_site_fract_z
Si Si1 0.826908 0.476730 0.325041
Si Si2 0.665492 0.082836 0.420823
Si Si3 0.066627 0.240616 0.923989
Si Si4 0.792138 0.225634 0.919727
Si Si5 0.561463 0.664485 0.176756
O O1 0.874605 0.500000 0.250000
O O2 0.918498 0.371444 0.367919
O O3 0.790666 0.627291 0.369785
O O4 0.702014 0.381695 0.312191
O O5 0.626248 0.088742 0.500000
O O6 0.805606 0.148491 0.419830
O O7 0.576895 0.189947 0.375085
O O8 0.692315 0.904190 0.400031
O O9 0.933247 0.162905 0.915811
O O10 0.064450 0.310694 0.000000
O O11 0.772002 0.265626 0.000000
O O12 0.500000 0.500000 0.151483
O O13 0.500000 0.701889 0.250000
#
# Coordination Sequence:
#
# PCOD9393990 Si02
#       5
#     8   8   8   8   8
#     4  11  21  35  59  86 120 165 217 259 295 368
#     4   9  19  36  62  94 123 158 207 257 310 377
#     4   9  18  34  58  87 125 170 202 237 305 381
#     4  10  20  36  58  91 131 160 193 253 318 375
#     4  10  20  41  65  81 114 164 212 260 322 378
#
# _framework density 21.789009
#
# number of rings (size 3 to 8) (size 9 to 14) (size 15 to 20)
#    0.000    2.200    2.000    1.800    0.000    6.800 
#    0.000    6.000    0.000    7.200    0.000    0.000 
#    0.000    0.000    0.000    0.000    0.000    6.000 
#
# Total GULP energy -223073.105685 kJ/mol
# GULP energy per Si atom -5576.827642 kJ/mol
# Density = 2.173942 g / cm^3
# Si number density = 21.789009 Si / 1000 Ang^3
#
#
#
# Elastic Constant Matrix: (Units=GPa)
#
#
# Indices 1 2 3 4 5 6 
#
# 1 131.1048 39.8891 54.3541 0.0000 0.0000 0.0000
# 2 39.8891 114.0373 93.7073 0.0000 0.0000 0.0000
# 3 54.3541 93.7073 140.0086 0.0000 0.0000 0.0000
# 4 0.0000 0.0000 0.0000 -197.9422 0.0000 0.0000
# 5 0.0000 0.0000 0.0000 0.0000 82.7792 0.0000
# 6 0.0000 0.0000 0.0000 0.0000 0.0000 35.6159
#
#
#
# Elastic Compliance Matrix: (Units=1/GPa)
#
#
# Indices 1 2 3 4 5 6 
#
# 1 0.009111 -0.000623 -0.003120 0.000000 0.000000 0.000000
# 2 -0.000623 0.019528 -0.012828 0.000000 0.000000 0.000000
# 3 -0.003120 -0.012828 0.016940 0.000000 0.000000 0.000000
# 4 0.000000 0.000000 0.000000 -0.005052 0.000000 0.000000
# 5 0.000000 0.000000 0.000000 0.000000 0.012080 0.000000
# 6 0.000000 0.000000 0.000000 0.000000 0.000000 0.028077
#
#
# Mechanical properties :
#
#
# Convention : Reuss Voigt Hill
#
# Bulk Modulus (GPa) = 80.41279 84.56130 82.48704
# Shear Modulus (GPa) = 42.38285 -2.76274 19.81005
#
# Velocity S-wave (km/s) = 4.41517 -1.12726 3.01853
# Velocity P-wave (km/s) = 7.93580 6.09911 7.07729
#
# Compressibility (1/GPa) = 0.01243583
#
# Stress axis : x y z
#
# Youngs Moduli (GPa) = 109.76345 51.20737 59.03328
#
# Poissons Ratio (x) = 0.03191 0.18417
# Poissons Ratio (y) = 0.06840 0.75730
# Poissons Ratio (z) = 0.34244 0.65691
#
# Static dielectric constant tensor:
#      x y z
#    x 1.827330 0.000000 0.000000 
#    y 0.000000 1.837850 0.000000 
#    z 0.000000 0.000000 1.901110 
# 
# From -- ./inp_files/16029.got.cif
#   From: 2010.05.17/outbox.cif.g08.bks.cpg/sg49_9_cif.got.tgz:16029.got - 2010.06.03 21:02:19.
