data_PCOD9393054
_publ_section_title
;
Structure prediction by ZEFSAII (Michael W. Deem and Ramdas Pophale) SiO2 
 PCOD9393054
Probable space group: P C C M
;
_chemical_formula_sum "Si O2"
_cell_formula_units_Z 52
_cell_length_a 28.059123
_cell_length_b 11.111870
_cell_length_c 9.168659
_cell_angle_alpha 90.000000
_cell_angle_beta 90.000000
_cell_angle_gamma 90.000000
_cell_volume 2858.690020
_symmetry_space_group_name_H-M "P C C M"
_symmetry_group_IT_number 49
_symmetry_cell_setting 'orthorhombic'
loop_
_space_group_symop_operation_xyz
x,y,z
-x,-y,z
x,-y,1/2-z
-x,y,1/2-z
-x,-y,-z
x,y,-z
-x,y,1/2+z
x,-y,1/2+z
loop_
_atom_site_type_symbol
_atom_site_label
_atom_site_fract_x
_atom_site_fract_y
_atom_site_fract_z
Si Si1 0.220423 0.371628 0.173859
Si Si2 0.454457 0.337836 0.161748
Si Si3 0.389765 0.873582 0.675976
Si Si4 0.108473 0.628637 0.327129
Si Si5 0.370278 0.500000 0.750000
Si Si6 0.052295 0.124442 0.177839
Si Si7 0.691490 0.272511 0.168772
O O1 0.228384 0.500000 0.250000
O O2 0.164615 0.344470 0.196966
O O3 0.257689 0.285080 0.252957
O O4 0.229514 0.377531 0.000000
O O5 0.500000 0.377786 0.250000
O O6 0.432286 0.215312 0.222330
O O7 0.408616 0.425183 0.156349
O O8 0.471972 0.317326 0.000000
O O9 0.388094 0.877677 0.500000
O O10 0.341407 0.817343 0.739908
O O11 0.397339 0.000000 0.750000
O O12 0.096902 0.500000 0.250000
O O13 0.101422 0.609548 0.500000
O O14 0.079827 0.750427 0.287249
O O15 0.336259 0.598633 0.823662
O O16 0.000000 0.135793 0.250000
O O17 0.072400 0.000000 0.250000
O O18 0.050157 0.112276 0.000000
O O19 0.695851 0.237607 0.000000
#
# Coordination Sequence:
#
# PCOD9393054 Si02
#       7
#     8   8   8   8   4   8   8
#     4  10  19  33  53  79 112 147 184 227 274 326
#     4  10  22  37  54  78 106 137 169 211 260 314
#     4  10  22  40  58  77 103 135 177 222 268 319
#     4   9  20  36  55  81 115 152 192 239 290 342
#     4  10  21  34  54  80 112 138 175 210 258 316
#     4  10  20  36  57  83 113 150 195 240 289 342
#     4  11  21  34  56  82 109 142 179 219 270 323
#
# _framework density 18.190151
#
# number of rings (size 3 to 8) (size 9 to 14) (size 15 to 20)
#    0.000    2.000    0.769    3.000    0.000    8.000 
#    0.000    3.846    0.000    1.846    0.000    0.000 
#    0.000    0.000    0.000    0.000    0.000    0.000 
#
# Total GULP energy -289756.280502 kJ/mol
# GULP energy per Si atom -5572.236164 kJ/mol
# Density = 1.814875 g / cm^3
# Si number density = 18.190151 Si / 1000 Ang^3
#
#
#
# Elastic Constant Matrix: (Units=GPa)
#
#
# Indices 1 2 3 4 5 6 
#
# 1 83.3391 54.0765 44.0856 0.0000 0.0000 0.0000
# 2 54.0765 132.8167 45.3364 0.0000 0.0000 0.0000
# 3 44.0856 45.3364 84.2325 0.0000 0.0000 0.0000
# 4 0.0000 0.0000 0.0000 51.3940 0.0000 0.0000
# 5 0.0000 0.0000 0.0000 0.0000 10.1123 0.0000
# 6 0.0000 0.0000 0.0000 0.0000 0.0000 387.6834
#
#
#
# Elastic Compliance Matrix: (Units=1/GPa)
#
#
# Indices 1 2 3 4 5 6 
#
# 1 0.019316 -0.005407 -0.007199 0.000000 0.000000 0.000000
# 2 -0.005407 0.010737 -0.002949 0.000000 0.000000 0.000000
# 3 -0.007199 -0.002949 0.017227 0.000000 0.000000 0.000000
# 4 0.000000 0.000000 0.000000 0.019458 0.000000 0.000000
# 5 0.000000 0.000000 0.000000 0.000000 0.098889 0.000000
# 6 0.000000 0.000000 0.000000 0.000000 0.000000 0.002579
#
#
# Mechanical properties :
#
#
# Convention : Reuss Voigt Hill
#
# Bulk Modulus (GPa) = 61.84542 65.26504 63.55523
# Shear Modulus (GPa) = 24.42500 100.29726 62.36113
#
# Velocity S-wave (km/s) = 3.66834 7.43357 5.86151
# Velocity P-wave (km/s) = 7.21218 10.47065 8.99027
#
# Compressibility (1/GPa) = 0.01616935
#
# Stress axis : x y z
#
# Youngs Moduli (GPa) = 51.77019 93.13265 58.04743
#
# Poissons Ratio (x) = 0.50358 0.41791
# Poissons Ratio (y) = 0.27993 0.17119
# Poissons Ratio (z) = 0.37272 0.27467
#
# Static dielectric constant tensor:
#      x y z
#    x 1.651360 0.000000 0.000000 
#    y 0.000000 1.687360 0.000000 
#    z 0.000000 0.000000 1.642630 
# 
# From -- ./inp_files/6720.got.cif
#   From: 2010.05.17/outbox.cif.g08.bks.cpg/sg49_4_cif.got.tgz:6720.got - 2010.06.03 21:02:19.
