data_PCOD9393955
_publ_section_title
;
Structure prediction by ZEFSAII (Michael W. Deem and Ramdas Pophale) SiO2 
 PCOD9393955
Probable space group: P C C M
;
_chemical_formula_sum "Si O2"
_cell_formula_units_Z 40
_cell_length_a 26.203816
_cell_length_b 9.746947
_cell_length_c 8.658694
_cell_angle_alpha 90.000000
_cell_angle_beta 90.000000
_cell_angle_gamma 90.000000
_cell_volume 2211.492840
_symmetry_space_group_name_H-M "P C C M"
_symmetry_group_IT_number 49
_symmetry_cell_setting 'orthorhombic'
loop_
_space_group_symop_operation_xyz
x,y,z
-x,-y,z
x,-y,1/2-z
-x,y,1/2-z
-x,-y,-z
x,y,-z
-x,y,1/2+z
x,-y,1/2+z
loop_
_atom_site_type_symbol
_atom_site_label
_atom_site_fract_x
_atom_site_fract_y
_atom_site_fract_z
Si Si1 0.054113 0.653121 0.314817
Si Si2 0.741986 0.152861 0.814303
Si Si3 0.351456 0.653174 0.186192
Si Si4 0.443826 0.150475 0.685823
Si Si5 0.147787 0.847957 0.314511
O O1 0.061165 0.500000 0.250000
O O2 0.051130 0.647215 0.500000
O O3 0.101683 0.747941 0.270503
O O4 0.000000 0.705334 0.250000
O O5 0.697922 0.258187 0.766034
O O6 0.797482 0.196407 0.752514
O O7 0.731803 0.000000 0.750000
O O8 0.743253 0.145593 0.000000
O O9 0.350739 0.500000 0.250000
O O10 0.401940 0.737666 0.232901
O O11 0.351214 0.647038 0.000000
O O12 0.500000 0.183277 0.750000
O O13 0.445757 0.143409 0.500000
O O14 0.429738 0.000000 0.750000
O O15 0.151225 0.853460 0.500000
O O16 0.138047 0.000000 0.250000
#
# Coordination Sequence:
#
# PCOD9393955 Si02
#       5
#     8   8   8   8   8
#     4  10  21  36  55  78 106 140 178 216 261 313
#     4  10  20  36  57  80 105 138 177 218 263 314
#     4  10  23  38  54  79 110 142 178 218 264 314
#     4  10  20  36  57  82 108 139 179 220 263 314
#     4  10  21  36  55  81 108 138 175 218 265 313
#
# _framework density 18.087330000000001
#
# number of rings (size 3 to 8) (size 9 to 14) (size 15 to 20)
#    0.000    2.000    0.000    5.400    0.000    8.000 
#    0.000    8.000    0.000    0.000    0.000    0.000 
#    0.000    0.000    0.000    0.000    0.000    0.000 
#
# Total GULP energy -223396.379532 kJ/mol
# GULP energy per Si atom -5584.909488 kJ/mol
# Density = 1.804616 g / cm^3
# Si number density = 18.087330 Si / 1000 Ang^3
#
#
#
# Elastic Constant Matrix: (Units=GPa)
#
#
# Indices 1 2 3 4 5 6 
#
# 1 179.8079 132.4700 51.3075 0.0000 0.0000 0.0000
# 2 132.4700 126.0378 40.5129 0.0000 0.0000 0.0000
# 3 51.3075 40.5129 53.0828 0.0000 0.0000 0.0000
# 4 0.0000 0.0000 0.0000 27.1282 0.0000 0.0000
# 5 0.0000 0.0000 0.0000 0.0000 28.7285 0.0000
# 6 0.0000 0.0000 0.0000 0.0000 0.0000 -772.7735
#
#
#
# Elastic Compliance Matrix: (Units=1/GPa)
#
#
# Indices 1 2 3 4 5 6 
#
# 1 0.025856 -0.025365 -0.005633 0.000000 0.000000 0.000000
# 2 -0.025365 0.035396 -0.002498 0.000000 0.000000 0.000000
# 3 -0.005633 -0.002498 0.026189 0.000000 0.000000 0.000000
# 4 0.000000 0.000000 0.000000 0.036862 0.000000 0.000000
# 5 0.000000 0.000000 0.000000 0.000000 0.034809 0.000000
# 6 0.000000 0.000000 0.000000 0.000000 0.000000 -0.001294
#
#
# Mechanical properties :
#
#
# Convention : Reuss Voigt Hill
#
# Bulk Modulus (GPa) = 48.89876 89.72324 69.31100
# Shear Modulus (GPa) = 21.58662 -134.40748 -56.41043
#
# Velocity S-wave (km/s) = 3.45841 -8.62969 -5.59066
# Velocity P-wave (km/s) = 6.56056 7.04146 1.80849
#
# Compressibility (1/GPa) = 0.02045042
#
# Stress axis : x y z
#
# Youngs Moduli (GPa) = 38.67635 28.25163 38.18365
#
# Poissons Ratio (x) = 0.71659 0.21507
# Poissons Ratio (y) = 0.98101 0.09539
# Poissons Ratio (z) = 0.21785 0.07058
#
# Static dielectric constant tensor:
#      x y z
#    x 1.619420 0.000000 0.000000 
#    y 0.000000 1.585460 0.000000 
#    z 0.000000 0.000000 1.613430 
# 
# From -- ./inp_files/1911.got.cif
#   From: 2010.05.17/outbox.cif.g08.bks.cpg/sg49_1_cif.got.tgz:1911.got - 2010.06.03 21:02:19.
