data_PCOD9393725
_publ_section_title
;
Structure prediction by ZEFSAII (Michael W. Deem and Ramdas Pophale) SiO2 
 PCOD9393725
Probable space group: P C C M
;
_chemical_formula_sum "Si O2"
_cell_formula_units_Z 64
_cell_length_a 14.539049
_cell_length_b 27.065483
_cell_length_c 8.573083
_cell_angle_alpha 90.000000
_cell_angle_beta 90.000000
_cell_angle_gamma 90.000000
_cell_volume 3373.562887
_symmetry_space_group_name_H-M "P C C M"
_symmetry_group_IT_number 49
_symmetry_cell_setting 'orthorhombic'
loop_
_space_group_symop_operation_xyz
x,y,z
-x,-y,z
x,-y,1/2-z
-x,y,1/2-z
-x,-y,-z
x,y,-z
-x,y,1/2+z
x,-y,1/2+z
loop_
_atom_site_type_symbol
_atom_site_label
_atom_site_fract_x
_atom_site_fract_y
_atom_site_fract_z
Si Si1 0.603862 0.591680 0.187820
Si Si2 0.602862 0.809369 0.811932
Si Si3 0.396067 0.701055 0.312263
Si Si4 0.896001 0.244381 0.311659
Si Si5 0.786737 0.854072 0.810946
Si Si6 0.104375 0.354497 0.187756
Si Si7 0.896926 0.053052 0.814418
Si Si8 0.214552 0.551502 0.814917
O O1 0.500000 0.584460 0.250000
O O2 0.637964 0.647137 0.235873
O O3 0.680197 0.556086 0.256953
O O4 0.602469 0.588540 0.000000
O O5 0.500000 0.816809 0.750000
O O6 0.639896 0.754665 0.763333
O O7 0.680128 0.848220 0.764291
O O8 0.597892 0.809227 0.000000
O O9 0.500000 0.701713 0.250000
O O10 0.394110 0.700610 0.500000
O O11 0.897266 0.243888 0.500000
O O12 0.839088 0.196319 0.261727
O O13 0.860245 0.299286 0.266518
O O14 0.000000 0.240235 0.250000
O O15 0.834519 0.901885 0.741234
O O16 0.791459 0.856505 0.000000
O O17 0.160872 0.400631 0.252146
O O18 0.000000 0.357473 0.250000
O O19 0.105324 0.356866 0.000000
O O20 0.000000 0.060923 0.750000
O O21 0.864776 0.000000 0.750000
O O22 0.900789 0.050989 0.000000
O O23 0.175401 0.500000 0.750000
O O24 0.211533 0.551017 0.000000
#
# Coordination Sequence:
#
# PCOD9393725 Si02
#       8
#     8   8   8   8   8   8   8   8
#     4  10  20  36  59  85 115 148 185 229 282 341
#     4   9  18  32  51  76 113 155 196 237 281 330
#     4   8  15  28  49  74 104 141 181 222 269 324
#     4   9  19  34  56  83 117 152 184 223 277 340
#     4  10  20  34  55  85 119 158 197 237 285 337
#     4  10  21  40  64  88 115 149 185 230 284 342
#     4  11  22  38  60  86 118 155 196 242 290 342
#     4  12  26  43  61  84 110 142 188 237 287 344
#
# _framework density 18.971041
#
# number of rings (size 3 to 8) (size 9 to 14) (size 15 to 20)
#    0.000    2.125    0.000    3.750    1.750    3.500 
#    0.000    2.500    0.000    0.375    0.000    2.625 
#    0.000    0.000    0.000    0.000    0.000    0.000 
#
# Total GULP energy -357108.988481 kJ/mol
# GULP energy per Si atom -5579.827945 kJ/mol
# Density = 1.892786 g / cm^3
# Si number density = 18.971041 Si / 1000 Ang^3
#
#
#
# Elastic Constant Matrix: (Units=GPa)
#
#
# Indices 1 2 3 4 5 6 
#
# 1 86.2466 84.2779 32.1435 0.0000 0.0000 0.0000
# 2 84.2779 169.0923 52.6521 0.0000 0.0000 0.0000
# 3 32.1435 52.6521 71.8115 0.0000 0.0000 0.0000
# 4 0.0000 0.0000 0.0000 28.0403 0.0000 0.0000
# 5 0.0000 0.0000 0.0000 0.0000 24.4131 0.0000
# 6 0.0000 0.0000 0.0000 0.0000 0.0000 33.2105
#
#
#
# Elastic Compliance Matrix: (Units=1/GPa)
#
#
# Indices 1 2 3 4 5 6 
#
# 1 0.022929 -0.010668 -0.002442 0.000000 0.000000 0.000000
# 2 -0.010668 0.012627 -0.004483 0.000000 0.000000 0.000000
# 3 -0.002442 -0.004483 0.018305 0.000000 0.000000 0.000000
# 4 0.000000 0.000000 0.000000 0.035663 0.000000 0.000000
# 5 0.000000 0.000000 0.000000 0.000000 0.040962 0.000000
# 6 0.000000 0.000000 0.000000 0.000000 0.000000 0.030111
#
#
# Mechanical properties :
#
#
# Convention : Reuss Voigt Hill
#
# Bulk Modulus (GPa) = 53.54416 73.92193 63.73304
# Shear Modulus (GPa) = 24.75169 27.67125 26.21147
#
# Velocity S-wave (km/s) = 3.61599 3.82331 3.72110
# Velocity P-wave (km/s) = 6.76161 7.65118 7.22011
#
# Compressibility (1/GPa) = 0.01867617
#
# Stress axis : x y z
#
# Youngs Moduli (GPa) = 43.61302 79.19651 54.62950
#
# Poissons Ratio (x) = 0.84485 0.13338
# Poissons Ratio (y) = 0.46526 0.24490
# Poissons Ratio (z) = 0.10648 0.35503
#
# Static dielectric constant tensor:
#      x y z
#    x 1.657400 0.000000 0.000000 
#    y 0.000000 1.683240 0.000000 
#    z 0.000000 0.000000 1.645240 
# 
# From -- ./inp_files/4296.got.cif
#   From: 2010.05.17/outbox.cif.g08.bks.cpg/sg49_3_cif.got.tgz:4296.got - 2010.06.03 21:02:19.
