data_PCOD9393555
_publ_section_title
;
Structure prediction by ZEFSAII (Michael W. Deem and Ramdas Pophale) SiO2 
 PCOD9393555
Probable space group: P C C M
;
_chemical_formula_sum "Si O2"
_cell_formula_units_Z 40
_cell_length_a 9.359421
_cell_length_b 12.618717
_cell_length_c 14.356806
_cell_angle_alpha 90.000000
_cell_angle_beta 90.000000
_cell_angle_gamma 90.000000
_cell_volume 1695.594563
_symmetry_space_group_name_H-M "P C C M"
_symmetry_group_IT_number 49
_symmetry_cell_setting 'orthorhombic'
loop_
_space_group_symop_operation_xyz
x,y,z
-x,-y,z
x,-y,1/2-z
-x,y,1/2-z
-x,-y,-z
x,y,-z
-x,y,1/2+z
x,-y,1/2+z
loop_
_atom_site_type_symbol
_atom_site_label
_atom_site_fract_x
_atom_site_fract_y
_atom_site_fract_z
Si Si1 0.087631 0.759265 0.611987
Si Si2 0.581434 0.601162 0.602997
Si Si3 0.828265 0.978555 0.892518
Si Si4 0.844582 0.528011 0.141843
Si Si5 0.759296 0.791369 0.385040
O O1 0.077719 0.772026 0.500000
O O2 0.172687 0.861337 0.649975
O O3 0.172753 0.652790 0.631552
O O4 0.920834 0.754292 0.644109
O O5 0.500000 0.500000 0.647883
O O6 0.515378 0.619710 0.500000
O O7 0.734227 0.546384 0.592716
O O8 0.630153 0.713798 0.646067
O O9 0.753163 0.084761 0.856453
O O10 0.781163 0.970119 0.000000
O O11 0.000000 0.000000 0.892455
O O12 0.837525 0.500000 0.250000
O O13 0.000000 0.500000 0.106135
O O14 0.756377 0.788285 0.500000
#
# Coordination Sequence:
#
# PCOD9393555 Si02
#       5
#     8   8   8   8   8
#     4   9  15  26  48  73  97 128 168 211 256 304
#     4  10  20  33  51  74  99 132 171 209 256 315
#     4   7  11  20  39  70  98 123 158 201 255 305
#     4  11  22  33  47  70 100 136 167 211 259 309
#     4   8  13  24  44  71 101 128 159 206 256 302
#
# _framework density 23.590544999999999
#
# number of rings (size 3 to 8) (size 9 to 14) (size 15 to 20)
#    0.000    3.000    2.000    3.000    0.000    1.200 
#    0.000    0.000    0.000    2.400    0.000    7.000 
#    0.000    3.200    0.000    0.200    0.000    0.000 
#
# Total GULP energy -222850.234405 kJ/mol
# GULP energy per Si atom -5571.255860 kJ/mol
# Density = 2.353685 g / cm^3
# Si number density = 23.590545 Si / 1000 Ang^3
#
#
#
# Elastic Constant Matrix: (Units=GPa)
#
#
# Indices 1 2 3 4 5 6 
#
# 1 28.1181 13.1207 3.5158 0.0000 0.0000 0.0000
# 2 13.1207 215.1567 1.4937 0.0000 0.0000 0.0000
# 3 3.5158 1.4937 69.4653 0.0000 0.0000 0.0000
# 4 0.0000 0.0000 0.0000 -22.0650 0.0000 0.0000
# 5 0.0000 0.0000 0.0000 0.0000 6.3577 0.0000
# 6 0.0000 0.0000 0.0000 0.0000 0.0000 48.6614
#
#
#
# Elastic Compliance Matrix: (Units=1/GPa)
#
#
# Indices 1 2 3 4 5 6 
#
# 1 0.036834 -0.002234 -0.001816 0.000000 0.000000 0.000000
# 2 -0.002234 0.004784 0.000010 0.000000 0.000000 0.000000
# 3 -0.001816 0.000010 0.014487 0.000000 0.000000 0.000000
# 4 0.000000 0.000000 0.000000 -0.045321 0.000000 0.000000
# 5 0.000000 0.000000 0.000000 0.000000 0.157290 0.000000
# 6 0.000000 0.000000 0.000000 0.000000 0.000000 0.020550
#
#
# Mechanical properties :
#
#
# Convention : Reuss Voigt Hill
#
# Bulk Modulus (GPa) = 20.82218 38.77783 29.80001
# Shear Modulus (GPa) = 23.50592 26.23147 24.86869
#
# Velocity S-wave (km/s) = 3.16002 3.33821 3.25034
# Velocity P-wave (km/s) = 4.70744 5.59747 5.17164
#
# Compressibility (1/GPa) = 0.04802571
#
# Stress axis : x y z
#
# Youngs Moduli (GPa) = 27.14909 209.03385 69.02558
#
# Poissons Ratio (x) = 0.46690 0.12536
# Poissons Ratio (y) = 0.06064 -0.00070
# Poissons Ratio (z) = 0.04931 -0.00213
#
# Static dielectric constant tensor:
#      x y z
#    x 1.619940 0.000000 0.000000 
#    y 0.000000 1.977440 0.000000 
#    z 0.000000 0.000000 2.009750 
# 
# From -- ./inp_files/16010.got.cif
#   From: 2010.05.17/outbox.cif.g08.bks.cpg/sg49_9_cif.got.tgz:16010.got - 2010.06.03 21:02:19.
