data_PCOD9393514
_publ_section_title
;
Structure prediction by ZEFSAII (Michael W. Deem and Ramdas Pophale) SiO2 
 PCOD9393514
Probable space group: P C C M
;
_chemical_formula_sum "Si O2"
_cell_formula_units_Z 56
_cell_length_a 20.059485
_cell_length_b 15.386582
_cell_length_c 9.072260
_cell_angle_alpha 90.000000
_cell_angle_beta 90.000000
_cell_angle_gamma 90.000000
_cell_volume 2800.125023
_symmetry_space_group_name_H-M "P C C M"
_symmetry_group_IT_number 49
_symmetry_cell_setting 'orthorhombic'
loop_
_space_group_symop_operation_xyz
x,y,z
-x,-y,z
x,-y,1/2-z
-x,y,1/2-z
-x,-y,-z
x,y,-z
-x,y,1/2+z
x,-y,1/2+z
loop_
_atom_site_type_symbol
_atom_site_label
_atom_site_fract_x
_atom_site_fract_y
_atom_site_fract_z
Si Si1 0.310125 0.274303 0.175055
Si Si2 0.935909 0.815903 0.838233
Si Si3 0.932749 0.390276 0.666613
Si Si4 0.790323 0.590433 0.678189
Si Si5 0.158349 0.916138 0.164302
Si Si6 0.570019 0.590401 0.825908
Si Si7 0.681964 0.088907 0.830659
O O1 0.251487 0.327390 0.259032
O O2 0.374805 0.335614 0.191641
O O3 0.326579 0.179417 0.242755
O O4 0.294007 0.266302 0.000000
O O5 0.940766 0.713013 0.849897
O O6 0.868400 0.835034 0.752747
O O7 0.000000 0.848746 0.750000
O O8 0.933373 0.855016 0.000000
O O9 0.925845 0.427183 0.500000
O O10 0.866441 0.404393 0.762881
O O11 0.000000 0.416258 0.750000
O O12 0.763552 0.500000 0.750000
O O13 0.787391 0.588027 0.500000
O O14 0.237736 0.919522 0.160816
O O15 0.133072 0.000000 0.250000
O O16 0.132236 0.913213 0.000000
O O17 0.591457 0.500000 0.750000
O O18 0.500000 0.614632 0.750000
O O19 0.560079 0.575823 0.000000
O O20 0.658021 0.000000 0.750000
O O21 0.657175 0.094109 0.000000
#
# Coordination Sequence:
#
# PCOD9393514 Si02
#       7
#     8   8   8   8   8   8   8
#     4  11  23  39  61  91 125 161 201 247 299 355
#     4  10  20  33  50  70  94 125 165 216 274 336
#     4  10  21  38  58  79 105 141 186 237 291 351
#     4  12  25  40  59  85 117 154 197 246 301 359
#     4  10  20  33  49  70  97 129 170 218 275 339
#     4  10  21  37  61  92 128 168 207 247 292 348
#     4  10  21  37  59  86 116 153 194 241 293 348
#
# _framework density 19.999106999999999
#
# number of rings (size 3 to 8) (size 9 to 14) (size 15 to 20)
#    0.000    1.571    0.000    5.571    0.000    9.714 
#    0.000    2.857    0.000    0.429    0.000    3.000 
#    0.000    0.000    0.000    0.000    0.000    0.000 
#
# Total GULP energy -312664.013841 kJ/mol
# GULP energy per Si atom -5583.285961 kJ/mol
# Density = 1.995359 g / cm^3
# Si number density = 19.999107 Si / 1000 Ang^3
#
#
#
# Elastic Constant Matrix: (Units=GPa)
#
#
# Indices 1 2 3 4 5 6 
#
# 1 64.6342 38.7271 52.7095 0.0000 0.0000 0.0000
# 2 38.7271 123.1144 78.6956 0.0000 0.0000 0.0000
# 3 52.7095 78.6956 205.4365 0.0000 0.0000 0.0000
# 4 0.0000 0.0000 0.0000 17.4792 0.0000 0.0000
# 5 0.0000 0.0000 0.0000 0.0000 49.2903 0.0000
# 6 0.0000 0.0000 0.0000 0.0000 0.0000 21.8478
#
#
#
# Elastic Compliance Matrix: (Units=1/GPa)
#
#
# Indices 1 2 3 4 5 6 
#
# 1 0.021090 -0.004205 -0.003800 0.000000 0.000000 0.000000
# 2 -0.004205 0.011595 -0.003363 0.000000 0.000000 0.000000
# 3 -0.003800 -0.003363 0.007131 0.000000 0.000000 0.000000
# 4 0.000000 0.000000 0.000000 0.057211 0.000000 0.000000
# 5 0.000000 0.000000 0.000000 0.000000 0.020288 0.000000
# 6 0.000000 0.000000 0.000000 0.000000 0.000000 0.045771
#
#
# Mechanical properties :
#
#
# Convention : Reuss Voigt Hill
#
# Bulk Modulus (GPa) = 58.54837 81.49438 70.02138
# Shear Modulus (GPa) = 26.10755 32.59365 29.35060
#
# Velocity S-wave (km/s) = 3.61700 4.04140 3.83508
# Velocity P-wave (km/s) = 6.83978 7.91295 7.39586
#
# Compressibility (1/GPa) = 0.01707989
#
# Stress axis : x y z
#
# Youngs Moduli (GPa) = 47.41475 86.24656 140.23492
#
# Poissons Ratio (x) = 0.36266 0.53296
# Poissons Ratio (y) = 0.19938 0.47156
# Poissons Ratio (z) = 0.18020 0.29002
#
# Static dielectric constant tensor:
#      x y z
#    x 1.692890 0.000000 0.000000 
#    y 0.000000 1.759960 0.000000 
#    z 0.000000 0.000000 1.775640 
# 
# From -- ./inp_files/4044.got.cif
#   From: 2010.05.17/outbox.cif.g08.bks.cpg/sg49_3_cif.got.tgz:4044.got - 2010.06.03 21:02:19.
