data_PCOD9393271
_publ_section_title
;
Structure prediction by ZEFSAII (Michael W. Deem and Ramdas Pophale) SiO2 
 PCOD9393271
Probable space group: P C C M
;
_chemical_formula_sum "Si O2"
_cell_formula_units_Z 64
_cell_length_a 25.740624
_cell_length_b 14.829162
_cell_length_c 8.752878
_cell_angle_alpha 90.000000
_cell_angle_beta 90.000000
_cell_angle_gamma 90.000000
_cell_volume 3341.077545
_symmetry_space_group_name_H-M "P C C M"
_symmetry_group_IT_number 49
_symmetry_cell_setting 'orthorhombic'
loop_
_space_group_symop_operation_xyz
x,y,z
-x,-y,z
x,-y,1/2-z
-x,y,1/2-z
-x,-y,-z
x,y,-z
-x,y,1/2+z
x,-y,1/2+z
loop_
_atom_site_type_symbol
_atom_site_label
_atom_site_fract_x
_atom_site_fract_y
_atom_site_fract_z
Si Si1 0.558507 0.590210 0.817537
Si Si2 0.253883 0.224085 0.683725
Si Si3 0.155596 0.900068 0.184324
Si Si4 0.055537 0.214041 0.316027
Si Si5 0.781418 0.593856 0.818057
Si Si6 0.649276 0.097545 0.182369
Si Si7 0.102169 0.594494 0.183809
Si Si8 0.442088 0.790208 0.317131
O O1 0.584188 0.500000 0.750000
O O2 0.500000 0.592152 0.750000
O O3 0.579626 0.689488 0.778905
O O4 0.555879 0.581772 0.000000
O O5 0.251707 0.238011 0.500000
O O6 0.203776 0.163979 0.727619
O O7 0.250937 0.319705 0.766220
O O8 0.304997 0.167380 0.721374
O O9 0.102176 0.851677 0.233543
O O10 0.160699 0.000000 0.250000
O O11 0.155517 0.905398 0.000000
O O12 0.053657 0.211617 0.500000
O O13 0.070042 0.316829 0.271635
O O14 0.000000 0.188187 0.250000
O O15 0.760739 0.500000 0.750000
O O16 0.839364 0.605331 0.747873
O O17 0.785047 0.587703 0.000000
O O18 0.595786 0.135491 0.249306
O O19 0.661355 0.000000 0.250000
O O20 0.645928 0.091403 0.000000
O O21 0.081572 0.500000 0.250000
O O22 0.104595 0.589574 0.000000
O O23 0.500000 0.797805 0.250000
O O24 0.444755 0.797015 0.500000
#
# Coordination Sequence:
#
# PCOD9393271 Si02
#       8
#     8   8   8   8   8   8   8   8
#     4   9  16  27  48  78 111 149 188 233 279 328
#     4  10  21  41  64  87 120 153 190 239 291 348
#     4  10  21  39  60  83 111 146 189 240 294 348
#     4  10  22  38  56  78 114 153 190 242 293 347
#     4  11  21  34  59  91 121 155 194 236 285 346
#     4  11  24  41  64  90 119 155 193 244 300 351
#     4  10  19  35  56  81 115 152 191 236 288 346
#     4  10  21  38  60  87 122 160 203 248 292 351
#
# _framework density 19.155498000000001
#
# number of rings (size 3 to 8) (size 9 to 14) (size 15 to 20)
#    0.000    1.875    1.250    4.125    0.000    5.250 
#    0.000    4.375    0.000    1.500    0.000    0.000 
#    0.000    0.000    0.000    0.000    0.000    0.000 
#
# Total GULP energy -357445.444244 kJ/mol
# GULP energy per Si atom -5585.085066 kJ/mol
# Density = 1.911190 g / cm^3
# Si number density = 19.155498 Si / 1000 Ang^3
#
#
#
# Elastic Constant Matrix: (Units=GPa)
#
#
# Indices 1 2 3 4 5 6 
#
# 1 82.4132 50.9961 33.0245 0.0000 0.0000 0.0000
# 2 50.9961 128.1322 43.4770 0.0000 0.0000 0.0000
# 3 33.0245 43.4770 53.8619 0.0000 0.0000 0.0000
# 4 0.0000 0.0000 0.0000 37.3411 0.0000 0.0000
# 5 0.0000 0.0000 0.0000 0.0000 19.7285 0.0000
# 6 0.0000 0.0000 0.0000 0.0000 0.0000 16.9343
#
#
#
# Elastic Compliance Matrix: (Units=1/GPa)
#
#
# Indices 1 2 3 4 5 6 
#
# 1 0.017922 -0.004688 -0.007204 0.000000 0.000000 0.000000
# 2 -0.004688 0.011975 -0.006791 0.000000 0.000000 0.000000
# 3 -0.007204 -0.006791 0.028465 0.000000 0.000000 0.000000
# 4 0.000000 0.000000 0.000000 0.026780 0.000000 0.000000
# 5 0.000000 0.000000 0.000000 0.000000 0.050688 0.000000
# 6 0.000000 0.000000 0.000000 0.000000 0.000000 0.059052
#
#
# Mechanical properties :
#
#
# Convention : Reuss Voigt Hill
#
# Bulk Modulus (GPa) = 47.63257 57.71139 52.67198
# Shear Modulus (GPa) = 20.89884 23.92808 22.41346
#
# Velocity S-wave (km/s) = 3.30663 3.53816 3.42435
# Velocity P-wave (km/s) = 6.28479 6.84724 6.57204
#
# Compressibility (1/GPa) = 0.02099404
#
# Stress axis : x y z
#
# Youngs Moduli (GPa) = 55.79767 83.50854 35.13081
#
# Poissons Ratio (x) = 0.39152 0.25308
# Poissons Ratio (y) = 0.26160 0.23859
# Poissons Ratio (z) = 0.40197 0.56714
#
# Static dielectric constant tensor:
#      x y z
#    x 1.651030 0.000000 0.000000 
#    y 0.000000 1.679930 0.000000 
#    z 0.000000 0.000000 1.642020 
# 
# From -- ./inp_files/6544.got.cif
#   From: 2010.05.17/outbox.cif.g08.bks.cpg/sg49_4_cif.got.tgz:6544.got - 2010.06.03 21:02:19.
