data_PCOD9393670
_publ_section_title
;
Structure prediction by ZEFSAII (Michael W. Deem and Ramdas Pophale) SiO2 
 PCOD9393670
Probable space group: P C C M
;
_chemical_formula_sum "Si O2"
_cell_formula_units_Z 48
_cell_length_a 7.158391
_cell_length_b 18.147814
_cell_length_c 15.198423
_cell_angle_alpha 90.000000
_cell_angle_beta 90.000000
_cell_angle_gamma 90.000000
_cell_volume 1974.414189
_symmetry_space_group_name_H-M "P C C M"
_symmetry_group_IT_number 49
_symmetry_cell_setting 'orthorhombic'
loop_
_space_group_symop_operation_xyz
x,y,z
-x,-y,z
x,-y,1/2-z
-x,y,1/2-z
-x,-y,-z
x,y,-z
-x,y,1/2+z
x,-y,1/2+z
loop_
_atom_site_type_symbol
_atom_site_label
_atom_site_fract_x
_atom_site_fract_y
_atom_site_fract_z
Si Si1 0.227570 0.414343 0.241504
Si Si2 0.414971 0.838191 0.847598
Si Si3 0.716541 0.983963 0.606739
Si Si4 0.149890 0.299158 0.900035
Si Si5 0.182632 0.862993 0.401439
Si Si6 0.711067 0.323143 0.903303
O O1 0.276922 0.500000 0.250000
O O2 0.255145 0.360264 0.157532
O O3 0.328866 0.376910 0.323640
O O4 0.000000 0.412387 0.250000
O O5 0.500000 0.837179 0.750000
O O6 0.257506 0.901028 0.858436
O O7 0.591734 0.858597 0.907710
O O8 0.347929 0.758892 0.877535
O O9 0.728446 0.983107 0.500000
O O10 0.500000 0.000000 0.633789
O O11 0.838373 0.054503 0.636600
O O12 0.141711 0.216478 0.858531
O O13 0.935970 0.322836 0.907535
O O14 0.224578 0.292423 0.000000
O O15 0.098237 0.861905 0.500000
O O16 0.640600 0.343660 0.000000
#
# Coordination Sequence:
#
# PCOD9393670 Si02
#       6
#     8   8   8   8   8   8
#     4   9  18  33  53  77 104 135 173 215 259 313
#     4  11  20  30  48  73 100 135 176 218 258 302
#     4   8  15  28  45  67  96 128 167 212 248 290
#     4   9  18  33  54  79 107 138 172 214 264 317
#     4   9  17  31  50  71  98 134 173 209 251 308
#     4  10  20  34  53  79 109 137 170 217 268 313
#
# _framework density 24.311005999999999
#
# number of rings (size 3 to 8) (size 9 to 14) (size 15 to 20)
#    0.000    2.667    0.000    3.500    0.000    3.667 
#    0.000    4.167    0.000    8.500    0.000   17.500 
#    0.000    0.000    0.000    0.000    0.000    0.333 
#
# Total GULP energy -267906.479813 kJ/mol
# GULP energy per Si atom -5581.384996 kJ/mol
# Density = 2.425567 g / cm^3
# Si number density = 24.311006 Si / 1000 Ang^3
#
#
#
# Elastic Constant Matrix: (Units=GPa)
#
#
# Indices 1 2 3 4 5 6 
#
# 1 62.1967 -5.7232 -0.5330 0.0000 0.0000 0.0000
# 2 -5.7232 197.3600 66.4059 0.0000 0.0000 0.0000
# 3 -0.5330 66.4059 132.9820 0.0000 0.0000 0.0000
# 4 0.0000 0.0000 0.0000 17.4042 0.0000 0.0000
# 5 0.0000 0.0000 0.0000 0.0000 6.3620 0.0000
# 6 0.0000 0.0000 0.0000 0.0000 0.0000 10.8557
#
#
#
# Elastic Compliance Matrix: (Units=1/GPa)
#
#
# Indices 1 2 3 4 5 6 
#
# 1 0.016126 0.000536 -0.000203 0.000000 0.000000 0.000000
# 2 0.000536 0.006108 -0.003048 0.000000 0.000000 0.000000
# 3 -0.000203 -0.003048 0.009041 0.000000 0.000000 0.000000
# 4 0.000000 0.000000 0.000000 0.057457 0.000000 0.000000
# 5 0.000000 0.000000 0.000000 0.000000 0.157184 0.000000
# 6 0.000000 0.000000 0.000000 0.000000 0.000000 0.092118
#
#
# Mechanical properties :
#
#
# Convention : Reuss Voigt Hill
#
# Bulk Modulus (GPa) = 38.69282 56.98201 47.83742
# Shear Modulus (GPa) = 14.20139 29.08364 21.64252
#
# Velocity S-wave (km/s) = 2.41955 3.46253 2.98692
# Velocity P-wave (km/s) = 4.87401 6.28293 5.62277
#
# Compressibility (1/GPa) = 0.02584459
#
# Stress axis : x y z
#
# Youngs Moduli (GPa) = 62.01320 163.72079 110.60709
#
# Poissons Ratio (x) = -0.08774 0.02245
# Poissons Ratio (y) = -0.03323 0.33712
# Poissons Ratio (z) = 0.01259 0.49901
#
# Static dielectric constant tensor:
#      x y z
#    x 2.009210 0.000000 0.000000 
#    y 0.000000 1.986680 0.000000 
#    z 0.000000 0.000000 1.957340 
# 
# From -- ./inp_files/17178.got.cif
#   From: 2010.05.17/outbox.cif.g08.bks.cpg/sg49_9_cif.got.tgz:17178.got - 2010.06.03 21:02:19.
