data_PCOD9393935
_publ_section_title
;
Structure prediction by ZEFSAII (Michael W. Deem and Ramdas Pophale) SiO2 
 PCOD9393935
Probable space group: P C C M
;
_chemical_formula_sum "Si O2"
_cell_formula_units_Z 64
_cell_length_a 18.531823
_cell_length_b 5.046705
_cell_length_c 34.425132
_cell_angle_alpha 90.000000
_cell_angle_beta 90.000000
_cell_angle_gamma 90.000000
_cell_volume 3219.598208
_symmetry_space_group_name_H-M "P C C M"
_symmetry_group_IT_number 49
_symmetry_cell_setting 'orthorhombic'
loop_
_space_group_symop_operation_xyz
x,y,z
-x,-y,z
x,-y,1/2-z
-x,y,1/2-z
-x,-y,-z
x,y,-z
-x,y,1/2+z
x,-y,1/2+z
loop_
_atom_site_type_symbol
_atom_site_label
_atom_site_fract_x
_atom_site_fract_y
_atom_site_fract_z
Si Si1 0.051515 0.758985 0.130405
Si Si2 0.217581 0.290175 0.836129
Si Si3 0.637217 0.406748 0.293963
Si Si4 0.790268 0.786010 0.387024
Si Si5 0.085614 0.467486 0.294125
Si Si6 0.344881 0.010539 0.919692
Si Si7 0.582758 0.514168 0.545737
Si Si8 0.581475 0.917374 0.336848
O O1 0.081439 0.775503 0.175140
O O2 0.000000 0.500000 0.127032
O O3 0.124168 0.769025 0.105031
O O4 0.000000 0.000000 0.121912
O O5 0.278905 0.373182 0.805710
O O6 0.221590 0.992331 0.851336
O O7 0.138600 0.345195 0.818699
O O8 0.229609 0.492566 0.872150
O O9 0.629117 0.500000 0.250000
O O10 0.597805 0.621846 0.321729
O O11 0.604757 0.119680 0.303001
O O12 0.737762 0.908722 0.419325
O O13 0.113110 0.500000 0.250000
O O14 0.000000 0.500000 0.290066
O O15 0.389395 0.808301 0.946295
O O16 0.372677 0.970067 0.875604
O O17 0.365525 0.304828 0.932758
O O18 0.500000 0.500000 0.560214
O O19 0.582840 0.453978 0.500000
O O20 0.500000 0.000000 0.346200
#
# Coordination Sequence:
#
# PCOD9393935 Si02
#       8
#     8   8   8   8   8   8   8   8
#     4  10  20  36  54  78 112 148 186 244 302 351
#     4  11  20  38  53  76 108 145 192 248 304 350
#     4  12  24  40  57  78 110 151 201 262 316 359
#     4  11  21  36  60  81 113 148 195 242 287 341
#     4   9  18  32  49  73 100 138 186 233 292 362
#     4  12  22  41  64  91 122 159 201 241 286 353
#     4  11  24  41  64  96 132 163 189 229 292 361
#     4  12  25  41  60  83 108 148 203 254 303 357
#
# _framework density 19.878257999999999
#
# number of rings (size 3 to 8) (size 9 to 14) (size 15 to 20)
#    0.000    1.000    2.500    6.375    0.000    2.500 
#    0.000   18.750    0.000    0.000    0.000    0.000 
#    0.000   10.000    0.000    0.000    0.000    0.000 
#
# Total GULP energy -356851.698877 kJ/mol
# GULP energy per Si atom -5575.807795 kJ/mol
# Density = 1.983301 g / cm^3
# Si number density = 19.878258 Si / 1000 Ang^3
#
#
#
# Elastic Constant Matrix: (Units=GPa)
#
#
# Indices 1 2 3 4 5 6 
#
# 1 125.5232 14.0545 13.2602 0.0000 0.0000 0.0000
# 2 14.0545 74.3166 -1.7094 0.0000 0.0000 0.0000
# 3 13.2602 -1.7094 31.0643 0.0000 0.0000 0.0000
# 4 0.0000 0.0000 0.0000 23.4939 0.0000 0.0000
# 5 0.0000 0.0000 0.0000 0.0000 22.4758 0.0000
# 6 0.0000 0.0000 0.0000 0.0000 0.0000 23.3678
#
#
#
# Elastic Compliance Matrix: (Units=1/GPa)
#
#
# Indices 1 2 3 4 5 6 
#
# 1 0.008553 -0.001704 -0.003745 0.000000 0.000000 0.000000
# 2 -0.001704 0.013812 0.001487 0.000000 0.000000 0.000000
# 3 -0.003745 0.001487 0.033872 0.000000 0.000000 0.000000
# 4 0.000000 0.000000 0.000000 0.042564 0.000000 0.000000
# 5 0.000000 0.000000 0.000000 0.000000 0.044492 0.000000
# 6 0.000000 0.000000 0.000000 0.000000 0.000000 0.042794
#
#
# Mechanical properties :
#
#
# Convention : Reuss Voigt Hill
#
# Bulk Modulus (GPa) = 20.69759 31.34609 26.02184
# Shear Modulus (GPa) = 23.79655 27.55408 25.67531
#
# Velocity S-wave (km/s) = 3.46369 3.72713 3.59782
# Velocity P-wave (km/s) = 5.14110 5.85878 5.51163
#
# Compressibility (1/GPa) = 0.04831480
#
# Stress axis : x y z
#
# Youngs Moduli (GPa) = 116.91800 72.39896 29.52324
#
# Poissons Ratio (x) = 0.12334 0.11056
# Poissons Ratio (y) = 0.19919 -0.04391
# Poissons Ratio (z) = 0.43783 -0.10768
#
# Static dielectric constant tensor:
#      x y z
#    x 1.766640 0.000000 0.000000 
#    y 0.000000 1.707640 0.000000 
#    z 0.000000 0.000000 1.707090 
# 
# From -- ./inp_files/26902.got.cif
#   From: 2010.05.17/outbox.cif.g08.bks.cpg/sg49_14_cif.got.tgz:26902.got - 2010.06.03 21:02:19.
