data_PCOD9393606
_publ_section_title
;
Structure prediction by ZEFSAII (Michael W. Deem and Ramdas Pophale) SiO2 
 PCOD9393606
Probable space group: P C C M
;
_chemical_formula_sum "Si O2"
_cell_formula_units_Z 32
_cell_length_a 13.078070
_cell_length_b 11.332965
_cell_length_c 10.855588
_cell_angle_alpha 90.000000
_cell_angle_beta 90.000000
_cell_angle_gamma 90.000000
_cell_volume 1608.942625
_symmetry_space_group_name_H-M "P C C M"
_symmetry_group_IT_number 49
_symmetry_cell_setting 'orthorhombic'
loop_
_space_group_symop_operation_xyz
x,y,z
-x,-y,z
x,-y,1/2-z
-x,y,1/2-z
-x,-y,-z
x,y,-z
-x,y,1/2+z
x,-y,1/2+z
loop_
_atom_site_type_symbol
_atom_site_label
_atom_site_fract_x
_atom_site_fract_y
_atom_site_fract_z
Si Si1 0.886570 0.442516 0.368132
Si Si2 0.403482 0.154144 0.000000
Si Si3 0.644455 0.125802 0.000000
Si Si4 0.302375 0.128674 0.765592
Si Si5 0.080089 0.838199 0.642460
O O1 0.834236 0.500000 0.250000
O O2 0.836066 0.465323 0.500000
O O3 0.903032 0.303293 0.353711
O O4 0.000000 0.500000 0.373587
O O5 0.360853 0.202197 0.129564
O O6 0.524886 0.157574 0.000000
O O7 0.359231 0.018491 0.000000
O O8 0.697120 0.172260 0.874920
O O9 0.189680 0.110419 0.820310
O O10 0.355153 0.000000 0.750000
O O11 0.052500 0.868406 0.500000
O O12 0.000000 0.867858 0.750000
#
# Coordination Sequence:
#
# PCOD9393606 Si02
#       5
#     8   4   4   8   8
#     4   9  16  30  49  70  91 121 158 212 254 287
#     4   9  16  34  53  71  97 126 167 211 258 289
#     4   9  18  30  55  75  91 130 165 213 256 283
#     4  10  20  34  48  73 105 132 170 204 239 302
#     4  11  22  34  50  70 102 142 168 206 249 293
#
# _framework density 19.888839000000001
#
# number of rings (size 3 to 8) (size 9 to 14) (size 15 to 20)
#    0.000    2.250    3.750    0.750    1.750    3.500 
#    0.000    1.250    0.000    0.000    0.000    0.000 
#    0.000    6.000    0.000    0.000    0.000    0.000 
#
# Total GULP energy -178155.824357 kJ/mol
# GULP energy per Si atom -5567.369511 kJ/mol
# Density = 1.984357 g / cm^3
# Si number density = 19.888839 Si / 1000 Ang^3
#
#
#
# Elastic Constant Matrix: (Units=GPa)
#
#
# Indices 1 2 3 4 5 6 
#
# 1 52.6896 -12.1232 35.3648 0.0000 0.0000 0.0000
# 2 -12.1232 49.9259 8.0655 0.0000 0.0000 0.0000
# 3 35.3648 8.0655 251.2872 0.0000 0.0000 0.0000
# 4 0.0000 0.0000 0.0000 16.4655 0.0000 0.0000
# 5 0.0000 0.0000 0.0000 0.0000 28.8219 0.0000
# 6 0.0000 0.0000 0.0000 0.0000 0.0000 -7.7989
#
#
#
# Elastic Compliance Matrix: (Units=1/GPa)
#
#
# Indices 1 2 3 4 5 6 
#
# 1 0.022638 0.006043 -0.003380 0.000000 0.000000 0.000000
# 2 0.006043 0.021747 -0.001548 0.000000 0.000000 0.000000
# 3 -0.003380 -0.001548 0.004505 0.000000 0.000000 0.000000
# 4 0.000000 0.000000 0.000000 0.060733 0.000000 0.000000
# 5 0.000000 0.000000 0.000000 0.000000 0.034696 0.000000
# 6 0.000000 0.000000 0.000000 0.000000 0.000000 -0.128223
#
#
# Mechanical properties :
#
#
# Convention : Reuss Voigt Hill
#
# Bulk Modulus (GPa) = 19.56197 46.27966 32.92081
# Shear Modulus (GPa) = 161.77808 29.00407 95.39107
#
# Velocity S-wave (km/s) = 9.02872 3.82292 6.93298
# Velocity P-wave (km/s) = 10.88794 6.54263 8.98202
#
# Compressibility (1/GPa) = 0.05111960
#
# Stress axis : x y z
#
# Youngs Moduli (GPa) = 44.17327 45.98286 221.98118
#
# Poissons Ratio (x) = -0.27788 0.75028
# Poissons Ratio (y) = -0.26694 0.34374
# Poissons Ratio (z) = 0.14930 0.07120
#
# Static dielectric constant tensor:
#      x y z
#    x 1.695430 0.000000 0.000000 
#    y 0.000000 1.706810 0.000000 
#    z 0.000000 0.000000 1.865420 
# 
# From -- ./inp_files/8553.got.cif
#   From: 2010.05.17/outbox.cif.g08.bks.cpg/sg49_5_cif.got.tgz:8553.got - 2010.06.03 21:02:19.
