data_PCOD9393475
_publ_section_title
;
Structure prediction by ZEFSAII (Michael W. Deem and Ramdas Pophale) SiO2 
 PCOD9393475
Probable space group: P C C M
;
_chemical_formula_sum "Si O2"
_cell_formula_units_Z 56
_cell_length_a 22.179086
_cell_length_b 14.162522
_cell_length_c 9.391618
_cell_angle_alpha 90.000000
_cell_angle_beta 90.000000
_cell_angle_gamma 90.000000
_cell_volume 2950.017973
_symmetry_space_group_name_H-M "P C C M"
_symmetry_group_IT_number 49
_symmetry_cell_setting 'orthorhombic'
loop_
_space_group_symop_operation_xyz
x,y,z
-x,-y,z
x,-y,1/2-z
-x,y,1/2-z
-x,-y,-z
x,y,-z
-x,y,1/2+z
x,-y,1/2+z
loop_
_atom_site_type_symbol
_atom_site_label
_atom_site_fract_x
_atom_site_fract_y
_atom_site_fract_z
Si Si1 0.188239 0.328492 0.329137
Si Si2 0.057816 0.132702 0.661079
Si Si3 0.680903 0.714215 0.666661
Si Si4 0.441750 0.600222 0.829292
Si Si5 0.058915 0.636216 0.161482
Si Si6 0.306588 0.909365 0.336545
Si Si7 0.169847 0.135144 0.161581
O O1 0.181198 0.307246 0.500000
O O2 0.259278 0.351591 0.309684
O O3 0.127913 0.388502 0.293070
O O4 0.183304 0.237763 0.228031
O O5 0.054376 0.100449 0.500000
O O6 0.059175 0.248281 0.661847
O O7 0.118367 0.098847 0.735217
O O8 0.000000 0.105112 0.750000
O O9 0.683987 0.742555 0.500000
O O10 0.619274 0.658684 0.690599
O O11 0.681281 0.809465 0.759801
O O12 0.433987 0.500000 0.750000
O O13 0.500000 0.644211 0.750000
O O14 0.451901 0.589601 0.000000
O O15 0.000000 0.607745 0.250000
O O16 0.050735 0.603673 0.000000
O O17 0.327752 0.908525 0.500000
O O18 0.233581 0.916605 0.340689
O O19 0.329817 0.000000 0.250000
O O20 0.146874 0.142701 0.000000
#
# Coordination Sequence:
#
# PCOD9393475 Si02
#       7
#     8   8   8   8   8   8   8
#     4   8  14  25  39  57  84 120 161 204 250 300
#     4   9  15  22  33  49  70 101 142 193 252 310
#     4   9  18  33  53  76 104 139 179 219 261 308
#     4  10  20  35  58  87 118 150 178 209 249 303
#     4   8  13  19  29  47  74 109 148 192 242 293
#     4  10  20  32  49  72  99 133 173 218 264 308
#     4   9  16  25  37  56  80 109 150 199 251 305
#
# _framework density 18.982935999999999
#
# number of rings (size 3 to 8) (size 9 to 14) (size 15 to 20)
#    0.000    3.000    0.000    3.000    0.000    6.286 
#    0.000    0.000    0.000    0.857    0.000    6.000 
#    0.000    0.571    0.000    7.143    0.000    3.571 
#
# Total GULP energy -311752.751998 kJ/mol
# GULP energy per Si atom -5567.013429 kJ/mol
# Density = 1.893973 g / cm^3
# Si number density = 18.982936 Si / 1000 Ang^3
#
#
#
# Elastic Constant Matrix: (Units=GPa)
#
#
# Indices 1 2 3 4 5 6 
#
# 1 151.0086 32.3324 65.0212 0.0000 0.0000 0.0000
# 2 32.3324 48.6627 30.7459 0.0000 0.0000 0.0000
# 3 65.0212 30.7459 112.0512 0.0000 0.0000 0.0000
# 4 0.0000 0.0000 0.0000 -80.9757 0.0000 0.0000
# 5 0.0000 0.0000 0.0000 0.0000 28.3569 0.0000
# 6 0.0000 0.0000 0.0000 0.0000 0.0000 -40.3274
#
#
#
# Elastic Compliance Matrix: (Units=1/GPa)
#
#
# Indices 1 2 3 4 5 6 
#
# 1 0.009254 -0.003334 -0.004455 0.000000 0.000000 0.000000
# 2 -0.003334 0.026060 -0.005216 0.000000 0.000000 0.000000
# 3 -0.004455 -0.005216 0.012941 0.000000 0.000000 0.000000
# 4 0.000000 0.000000 0.000000 -0.012349 0.000000 0.000000
# 5 0.000000 0.000000 0.000000 0.000000 0.035265 0.000000
# 6 0.000000 0.000000 0.000000 0.000000 0.000000 -0.024797
#
#
# Mechanical properties :
#
#
# Convention : Reuss Voigt Hill
#
# Bulk Modulus (GPa) = 44.95370 63.10238 54.02804
# Shear Modulus (GPa) = 62.65684 -6.34770 28.15457
#
# Velocity S-wave (km/s) = 5.75140 -1.83062 3.85535
# Velocity P-wave (km/s) = 8.23634 5.37081 6.95280
#
# Compressibility (1/GPa) = 0.02224511
#
# Stress axis : x y z
#
# Youngs Moduli (GPa) = 108.05779 38.37255 77.27314
#
# Poissons Ratio (x) = 0.12793 0.34428
# Poissons Ratio (y) = 0.36024 0.40307
# Poissons Ratio (z) = 0.48143 0.20016
#
# Static dielectric constant tensor:
#      x y z
#    x 1.719470 0.000000 0.000000 
#    y 0.000000 1.671420 0.000000 
#    z 0.000000 0.000000 1.652170 
# 
# From -- ./inp_files/5786.got.cif
#   From: 2010.05.17/outbox.cif.g08.bks.cpg/sg49_3_cif.got.tgz:5786.got - 2010.06.03 21:02:19.
