data_PCOD9393537
_publ_section_title
;
Structure prediction by ZEFSAII (Michael W. Deem and Ramdas Pophale) SiO2 
 PCOD9393537
Probable space group: P C C M
;
_chemical_formula_sum "Si O2"
_cell_formula_units_Z 64
_cell_length_a 21.922577
_cell_length_b 16.672494
_cell_length_c 8.926740
_cell_angle_alpha 90.000000
_cell_angle_beta 90.000000
_cell_angle_gamma 90.000000
_cell_volume 3262.759476
_symmetry_space_group_name_H-M "P C C M"
_symmetry_group_IT_number 49
_symmetry_cell_setting 'orthorhombic'
loop_
_space_group_symop_operation_xyz
x,y,z
-x,-y,z
x,-y,1/2-z
-x,y,1/2-z
-x,-y,-z
x,y,-z
-x,y,1/2+z
x,-y,1/2+z
loop_
_atom_site_type_symbol
_atom_site_label
_atom_site_fract_x
_atom_site_fract_y
_atom_site_fract_z
Si Si1 0.858064 0.582677 0.322381
Si Si2 0.908492 0.915595 0.827845
Si Si3 0.696522 0.776801 0.675390
Si Si4 0.439510 0.748923 0.176620
Si Si5 0.266824 0.384727 0.170905
Si Si6 0.935082 0.258693 0.180847
Si Si7 0.591855 0.419783 0.326929
Si Si8 0.761643 0.918805 0.171905
O O1 0.883290 0.500000 0.250000
O O2 0.864830 0.576481 0.500000
O O3 0.786656 0.585871 0.278281
O O4 0.888257 0.668705 0.276979
O O5 0.922931 0.831479 0.744352
O O6 0.834941 0.918743 0.832362
O O7 0.928046 0.000000 0.750000
O O8 0.931368 0.912376 0.000000
O O9 0.702422 0.754385 0.500000
O O10 0.624908 0.792509 0.704870
O O11 0.719092 0.705721 0.780768
O O12 0.737843 0.850294 0.719881
O O13 0.500000 0.784521 0.250000
O O14 0.429399 0.659798 0.242494
O O15 0.448504 0.743442 0.000000
O O16 0.334084 0.422609 0.179482
O O17 0.244972 0.391449 0.000000
O O18 0.000000 0.282776 0.250000
O O19 0.936478 0.254186 0.000000
O O20 0.568924 0.500000 0.250000
O O21 0.573781 0.414951 0.500000
O O22 0.740828 0.000000 0.250000
O O23 0.740188 0.909791 0.000000
#
# Coordination Sequence:
#
# PCOD9393537 Si02
#       8
#     8   8   8   8   8   8   8   8
#     4  11  24  40  60  85 114 150 192 241 293 344
#     4  10  21  38  62  92 124 155 187 227 277 337
#     4  10  20  34  54  80 111 145 181 224 274 328
#     4  10  21  36  53  73  99 135 179 224 268 316
#     4  10  20  34  55  82 111 143 180 224 276 333
#     4  11  25  43  62  85 114 151 195 241 286 335
#     4  10  20  33  50  74 104 136 172 216 266 321
#     4  10  20  34  56  86 118 149 179 216 266 324
#
# _framework density 19.615297999999999
#
# number of rings (size 3 to 8) (size 9 to 14) (size 15 to 20)
#    0.000    1.750    0.000    4.125    0.000   10.250 
#    0.000    3.750    0.000    0.375    0.000    2.625 
#    0.000    0.000    0.000    0.000    0.000    0.000 
#
# Total GULP energy -357225.334185 kJ/mol
# GULP energy per Si atom -5581.645847 kJ/mol
# Density = 1.957065 g / cm^3
# Si number density = 19.615298 Si / 1000 Ang^3
#
#
#
# Elastic Constant Matrix: (Units=GPa)
#
#
# Indices 1 2 3 4 5 6 
#
# 1 55.0945 16.1953 23.0182 0.0000 0.0000 0.0000
# 2 16.1953 80.3662 29.1927 0.0000 0.0000 0.0000
# 3 23.0182 29.1927 72.4789 0.0000 0.0000 0.0000
# 4 0.0000 0.0000 0.0000 29.3978 0.0000 0.0000
# 5 0.0000 0.0000 0.0000 0.0000 27.4697 0.0000
# 6 0.0000 0.0000 0.0000 0.0000 0.0000 -111.9260
#
#
#
# Elastic Compliance Matrix: (Units=1/GPa)
#
#
# Indices 1 2 3 4 5 6 
#
# 1 0.021238 -0.002143 -0.005882 0.000000 0.000000 0.000000
# 2 -0.002143 0.014792 -0.005277 0.000000 0.000000 0.000000
# 3 -0.005882 -0.005277 0.017790 0.000000 0.000000 0.000000
# 4 0.000000 0.000000 0.000000 0.034016 0.000000 0.000000
# 5 0.000000 0.000000 0.000000 0.000000 0.036404 0.000000
# 6 0.000000 0.000000 0.000000 0.000000 0.000000 -0.008934
#
#
# Mechanical properties :
#
#
# Convention : Reuss Voigt Hill
#
# Bulk Modulus (GPa) = 36.74274 38.30578 37.52426
# Shear Modulus (GPa) = 33.11655 -1.70948 15.70354
#
# Velocity S-wave (km/s) = 4.11335 -0.93456 2.83251
# Velocity P-wave (km/s) = 6.42899 4.29027 5.46527
#
# Compressibility (1/GPa) = 0.02721626
#
# Stress axis : x y z
#
# Youngs Moduli (GPa) = 47.08540 67.60473 56.20980
#
# Poissons Ratio (x) = 0.14490 0.33060
# Poissons Ratio (y) = 0.10092 0.29662
# Poissons Ratio (z) = 0.27694 0.35676
#
# Static dielectric constant tensor:
#      x y z
#    x 1.708460 0.000000 0.000000 
#    y 0.000000 2.427840 0.000000 
#    z 0.000000 0.000000 1.674920 
# 
# From -- ./inp_files/6530.got.cif
#   From: 2010.05.17/outbox.cif.g08.bks.cpg/sg49_4_cif.got.tgz:6530.got - 2010.06.03 21:02:19.
