data_PCOD9393483
_publ_section_title
;
Structure prediction by ZEFSAII (Michael W. Deem and Ramdas Pophale) SiO2 
 PCOD9393483
Probable space group: P C C M
;
_chemical_formula_sum "Si O2"
_cell_formula_units_Z 54
_cell_length_a 20.345721
_cell_length_b 15.098854
_cell_length_c 9.239340
_cell_angle_alpha 90.000000
_cell_angle_beta 90.000000
_cell_angle_gamma 90.000000
_cell_volume 2838.298185
_symmetry_space_group_name_H-M "P C C M"
_symmetry_group_IT_number 49
_symmetry_cell_setting 'orthorhombic'
loop_
_space_group_symop_operation_xyz
x,y,z
-x,-y,z
x,-y,1/2-z
-x,y,1/2-z
-x,-y,-z
x,y,-z
-x,y,1/2+z
x,-y,1/2+z
loop_
_atom_site_type_symbol
_atom_site_label
_atom_site_fract_x
_atom_site_fract_y
_atom_site_fract_z
Si Si1 0.250912 0.649104 0.665848
Si Si2 0.000000 0.500000 0.500000
Si Si3 0.000000 0.366305 0.750000
Si Si4 0.311826 0.152897 0.161936
Si Si5 0.377500 0.414564 0.327456
Si Si6 0.830496 0.089021 0.326104
Si Si7 0.432503 0.217834 0.670911
Si Si8 0.867614 0.270449 0.829504
O O1 0.242585 0.617129 0.500000
O O2 0.281219 0.748127 0.656831
O O3 0.305364 0.596680 0.756381
O O4 0.183371 0.662010 0.752587
O O5 0.975441 0.430114 0.624115
O O6 0.940450 0.308022 0.810874
O O7 0.248350 0.095147 0.199533
O O8 0.372387 0.158828 0.270163
O O9 0.334832 0.130239 0.000000
O O10 0.408593 0.500000 0.250000
O O11 0.373482 0.427339 0.500000
O O12 0.414415 0.321486 0.299614
O O13 0.840749 0.090048 0.500000
O O14 0.860200 0.176508 0.251614
O O15 0.855531 0.000000 0.250000
O O16 0.500000 0.196245 0.750000
O O17 0.438970 0.207849 0.500000
O O18 0.851359 0.261813 0.000000
#
# Coordination Sequence:
#
# PCOD9393483 Si02
#       8
#     8   2   4   8   8   8   8   8
#     4   9  18  33  53  77 103 138 180 227 280 340
#     4  10  24  46  64  86 118 154 212 250 286 350
#     4  11  24  44  65  88 118 160 201 254 298 341
#     4   8  16  32  53  76 107 141 177 220 271 327
#     4  10  20  34  48  69 100 135 179 232 291 346
#     4  10  21  37  62  94 125 157 194 237 288 351
#     4  10  20  32  50  73  99 137 183 230 279 343
#     4  11  22  38  62  88 121 158 196 240 297 352
#
# _framework density 19.025485
#
# number of rings (size 3 to 8) (size 9 to 14) (size 15 to 20)
#    0.000    2.222    0.741    3.111    2.074    6.222 
#    2.667    1.852    0.000    2.222    0.000    3.111 
#    0.000    0.000    0.000    0.000    0.000    0.000 
#
# Total GULP energy -300617.411555 kJ/mol
# GULP energy per Si atom -5566.989103 kJ/mol
# Density = 1.898218 g / cm^3
# Si number density = 19.025485 Si / 1000 Ang^3
#
#
#
# Elastic Constant Matrix: (Units=GPa)
#
#
# Indices 1 2 3 4 5 6 
#
# 1 59.8752 -7.7250 24.5382 0.0000 0.0000 0.0000
# 2 -7.7250 43.3436 19.3697 0.0000 0.0000 0.0000
# 3 24.5382 19.3697 102.6958 0.0000 0.0000 0.0000
# 4 0.0000 0.0000 0.0000 11.0941 0.0000 0.0000
# 5 0.0000 0.0000 0.0000 0.0000 13.3141 0.0000
# 6 0.0000 0.0000 0.0000 0.0000 0.0000 -4.9546
#
#
#
# Elastic Compliance Matrix: (Units=1/GPa)
#
#
# Indices 1 2 3 4 5 6 
#
# 1 0.019933 0.006204 -0.005933 0.000000 0.000000 0.000000
# 2 0.006204 0.027126 -0.006599 0.000000 0.000000 0.000000
# 3 -0.005933 -0.006599 0.012400 0.000000 0.000000 0.000000
# 4 0.000000 0.000000 0.000000 0.090138 0.000000 0.000000
# 5 0.000000 0.000000 0.000000 0.000000 0.075108 0.000000
# 6 0.000000 0.000000 0.000000 0.000000 0.000000 -0.201834
#
#
# Mechanical properties :
#
#
# Convention : Reuss Voigt Hill
#
# Bulk Modulus (GPa) = 21.36582 30.92005 26.14293
# Shear Modulus (GPa) = 97.79354 15.20617 56.49985
#
# Velocity S-wave (km/s) = 7.17725 2.83017 5.45540
# Velocity P-wave (km/s) = 8.94083 5.19298 7.31114
#
# Compressibility (1/GPa) = 0.04680374
#
# Stress axis : x y z
#
# Youngs Moduli (GPa) = 50.16722 36.86490 80.64680
#
# Poissons Ratio (x) = -0.22871 0.47848
# Poissons Ratio (y) = -0.31124 0.53217
# Poissons Ratio (z) = 0.29764 0.24326
#
# Static dielectric constant tensor:
#      x y z
#    x 1.651720 0.000000 0.000000 
#    y 0.000000 1.681060 0.000000 
#    z 0.000000 0.000000 1.648490 
# 
# From -- ./inp_files/5060.got.cif
#   From: 2010.05.17/outbox.cif.g08.bks.cpg/sg49_3_cif.got.tgz:5060.got - 2010.06.03 21:02:19.
