data_PCOD9393357
_publ_section_title
;
Structure prediction by ZEFSAII (Michael W. Deem and Ramdas Pophale) SiO2 
 PCOD9393357
Probable space group: P C C M
;
_chemical_formula_sum "Si O2"
_cell_formula_units_Z 48
_cell_length_a 14.016594
_cell_length_b 5.893226
_cell_length_c 27.902537
_cell_angle_alpha 90.000000
_cell_angle_beta 90.000000
_cell_angle_gamma 90.000000
_cell_volume 2304.832041
_symmetry_space_group_name_H-M "P C C M"
_symmetry_group_IT_number 49
_symmetry_cell_setting 'orthorhombic'
loop_
_space_group_symop_operation_xyz
x,y,z
-x,-y,z
x,-y,1/2-z
-x,y,1/2-z
-x,-y,-z
x,y,-z
-x,y,1/2+z
x,-y,1/2+z
loop_
_atom_site_type_symbol
_atom_site_label
_atom_site_fract_x
_atom_site_fract_y
_atom_site_fract_z
Si Si1 0.293830 0.500000 0.250000
Si Si2 0.676062 0.641351 0.102247
Si Si3 0.851500 0.027683 0.585358
Si Si4 0.399567 0.123815 0.188816
Si Si5 0.219789 0.283395 0.500000
Si Si6 0.238545 0.759901 0.160435
Si Si7 0.080799 0.312029 0.000000
Si Si8 0.390735 0.461101 0.000000
O O1 0.362153 0.302247 0.228545
O O2 0.229149 0.595678 0.206512
O O3 0.771829 0.791381 0.101283
O O4 0.598635 0.734678 0.139479
O O5 0.707454 0.393852 0.120713
O O6 0.637569 0.656279 0.049070
O O7 0.922857 0.172433 0.550383
O O8 0.815741 0.850052 0.545839
O O9 0.853725 0.874703 0.634390
O O10 0.500000 0.000000 0.197398
O O11 0.313923 0.946262 0.179349
O O12 0.177927 0.539181 0.500000
O O13 0.332424 0.303817 0.500000
O O14 0.000000 0.500000 0.000000
O O15 0.500000 0.500000 0.000000
#
# Coordination Sequence:
#
# PCOD9393357 Si02
#       8
#     4   8   8   8   4   8   4   4
#     4  10  22  37  52  78 104 142 205 260 316 386
#     4  10  21  37  52  79 112 158 204 255 296 356
#     4  10  19  36  60  75 116 162 196 245 314 361
#     4  10  23  36  55  74 108 151 204 264 326 366
#     4  11  20  38  55  81 121 162 207 242 304 342
#     4  10  20  35  55  74 106 150 194 246 316 370
#     4  11  22  36  60  92 121 161 209 247 303 377
#     4  12  22  31  55  77 111 160 220 254 283 339
#
# _framework density 20.825811000000002
#
# number of rings (size 3 to 8) (size 9 to 14) (size 15 to 20)
#    0.000    1.667    3.333    1.000    2.333    5.333 
#    0.000    1.250    0.000    0.000    0.000    0.000 
#    0.000    0.000    0.000  876.000    0.000    0.000 
#
# Total GULP energy -267366.465145 kJ/mol
# GULP energy per Si atom -5570.134691 kJ/mol
# Density = 2.077841 g / cm^3
# Si number density = 20.825811 Si / 1000 Ang^3
#
#
#
# Elastic Constant Matrix: (Units=GPa)
#
#
# Indices 1 2 3 4 5 6 
#
# 1 51.5373 21.8887 29.7266 0.0000 0.0000 0.0000
# 2 21.8887 91.0263 47.8980 0.0000 0.0000 0.0000
# 3 29.7266 47.8980 163.0269 0.0000 0.0000 0.0000
# 4 0.0000 0.0000 0.0000 50.9662 0.0000 0.0000
# 5 0.0000 0.0000 0.0000 0.0000 -17.1302 0.0000
# 6 0.0000 0.0000 0.0000 0.0000 0.0000 24.5791
#
#
#
# Elastic Compliance Matrix: (Units=1/GPa)
#
#
# Indices 1 2 3 4 5 6 
#
# 1 0.022796 -0.003897 -0.003012 0.000000 0.000000 0.000000
# 2 -0.003897 0.013661 -0.003303 0.000000 0.000000 0.000000
# 3 -0.003012 -0.003303 0.007654 0.000000 0.000000 0.000000
# 4 0.000000 0.000000 0.000000 0.019621 0.000000 0.000000
# 5 0.000000 0.000000 0.000000 0.000000 -0.058376 0.000000
# 6 0.000000 0.000000 0.000000 0.000000 0.000000 0.040685
#
#
# Mechanical properties :
#
#
# Convention : Reuss Voigt Hill
#
# Bulk Modulus (GPa) = 42.21734 56.06857 49.14295
# Shear Modulus (GPa) = 67.24179 25.42149 46.33164
#
# Velocity S-wave (km/s) = 5.68839 3.49760 4.72181
# Velocity P-wave (km/s) = 7.96614 6.57967 7.30587
#
# Compressibility (1/GPa) = 0.02368695
#
# Stress axis : x y z
#
# Youngs Moduli (GPa) = 43.86814 73.20121 130.65784
#
# Poissons Ratio (x) = 0.28525 0.39350
# Poissons Ratio (y) = 0.17095 0.43158
# Poissons Ratio (z) = 0.13212 0.24179
#
# Static dielectric constant tensor:
#      x y z
#    x 1.775040 0.000000 0.000000 
#    y 0.000000 1.817460 0.000000 
#    z 0.000000 0.000000 1.796380 
# 
# From -- ./inp_files/26774.got.cif
#   From: 2010.05.17/outbox.cif.g08.bks.cpg/sg49_14_cif.got.tgz:26774.got - 2010.06.03 21:02:19.
