data_PCOD9393308
_publ_section_title
;
Structure prediction by ZEFSAII (Michael W. Deem and Ramdas Pophale) SiO2 
 PCOD9393308
Probable space group: P C C M
;
_chemical_formula_sum "Si O2"
_cell_formula_units_Z 40
_cell_length_a 5.268467
_cell_length_b 11.937628
_cell_length_c 30.996451
_cell_angle_alpha 90.000000
_cell_angle_beta 90.000000
_cell_angle_gamma 90.000000
_cell_volume 1949.459767
_symmetry_space_group_name_H-M "P C C M"
_symmetry_group_IT_number 49
_symmetry_cell_setting 'orthorhombic'
loop_
_space_group_symop_operation_xyz
x,y,z
-x,-y,z
x,-y,1/2-z
-x,y,1/2-z
-x,-y,-z
x,y,-z
-x,y,1/2+z
x,-y,1/2+z
loop_
_atom_site_type_symbol
_atom_site_label
_atom_site_fract_x
_atom_site_fract_y
_atom_site_fract_z
Si Si1 0.580274 0.876969 0.190100
Si Si2 0.829771 0.192230 0.949838
Si Si3 0.010984 0.632080 0.387785
Si Si4 0.668431 0.831282 0.092037
Si Si5 0.078174 0.739518 0.205392
O O1 0.588697 0.876840 0.138144
O O2 0.359281 0.791979 0.205155
O O3 0.861336 0.836432 0.203025
O O4 0.500000 0.000000 0.204163
O O5 0.830997 0.309293 0.923242
O O6 0.060584 0.128859 0.926066
O O7 0.553156 0.144387 0.941300
O O8 0.885079 0.205371 0.000000
O O9 0.271921 0.698326 0.399322
O O10 0.000000 0.500000 0.391303
O O11 0.947232 0.669598 0.338823
O O12 0.000000 0.678547 0.250000
#
# Coordination Sequence:
#
# PCOD9393308 Si02
#       5
#     8   8   8   8   8
#     4  11  21  39  63  84 113 149 186 236 291 332
#     4  10  19  35  59  82 114 149 185 234 284 327
#     4   9  21  38  57  82 116 153 189 227 281 329
#     4   9  19  37  54  84 114 148 183 234 275 340
#     4  11  23  39  57  87 117 146 191 232 277 340
#
# _framework density 20.518505999999999
#
# number of rings (size 3 to 8) (size 9 to 14) (size 15 to 20)
#    1.200    0.800    2.000    1.800    0.000    4.000 
#    0.000    1.000    0.000    6.000    0.000    0.000 
#    0.000    0.000    0.000    0.000    0.000    0.000 
#
# Total GULP energy -222775.642211 kJ/mol
# GULP energy per Si atom -5569.391055 kJ/mol
# Density = 2.047181 g / cm^3
# Si number density = 20.518506 Si / 1000 Ang^3
#
#
#
# Elastic Constant Matrix: (Units=GPa)
#
#
# Indices 1 2 3 4 5 6 
#
# 1 121.1641 26.1900 19.0597 0.0000 0.0000 0.0000
# 2 26.1900 68.3919 8.2540 0.0000 0.0000 0.0000
# 3 19.0597 8.2540 134.0373 0.0000 0.0000 0.0000
# 4 0.0000 0.0000 0.0000 -10.6478 0.0000 0.0000
# 5 0.0000 0.0000 0.0000 0.0000 31.8071 0.0000
# 6 0.0000 0.0000 0.0000 0.0000 0.0000 9.2695
#
#
#
# Elastic Compliance Matrix: (Units=1/GPa)
#
#
# Indices 1 2 3 4 5 6 
#
# 1 0.009155 -0.003374 -0.001094 0.000000 0.000000 0.000000
# 2 -0.003374 0.015974 -0.000504 0.000000 0.000000 0.000000
# 3 -0.001094 -0.000504 0.007647 0.000000 0.000000 0.000000
# 4 0.000000 0.000000 0.000000 -0.093916 0.000000 0.000000
# 5 0.000000 0.000000 0.000000 0.000000 0.031439 0.000000
# 6 0.000000 0.000000 0.000000 0.000000 0.000000 0.107881
#
#
# Mechanical properties :
#
#
# Convention : Reuss Voigt Hill
#
# Bulk Modulus (GPa) = 43.79644 47.84452 45.82048
# Shear Modulus (GPa) = 52.22804 24.09174 38.15989
#
# Velocity S-wave (km/s) = 5.05068 3.43030 4.31719
# Velocity P-wave (km/s) = 7.44337 6.24961 6.87246
#
# Compressibility (1/GPa) = 0.02283290
#
# Stress axis : x y z
#
# Youngs Moduli (GPa) = 109.23485 62.60044 130.76663
#
# Poissons Ratio (x) = 0.21119 0.14306
# Poissons Ratio (y) = 0.36852 0.06590
# Poissons Ratio (z) = 0.11950 0.03155
#
# Static dielectric constant tensor:
#      x y z
#    x 1.772590 0.000000 0.000000 
#    y 0.000000 1.722360 0.000000 
#    z 0.000000 0.000000 1.759480 
# 
# From -- ./inp_files/25665.got.cif
#   From: 2010.05.17/outbox.cif.g08.bks.cpg/sg49_13_cif.got.tgz:25665.got - 2010.06.03 21:02:19.
