data_PCOD9393647
_publ_section_title
;
Structure prediction by ZEFSAII (Michael W. Deem and Ramdas Pophale) SiO2 
 PCOD9393647
Probable space group: P C C M
;
_chemical_formula_sum "Si O2"
_cell_formula_units_Z 48
_cell_length_a 9.002659
_cell_length_b 29.776123
_cell_length_c 9.762988
_cell_angle_alpha 90.000000
_cell_angle_beta 90.000000
_cell_angle_gamma 90.000000
_cell_volume 2617.108366
_symmetry_space_group_name_H-M "P C C M"
_symmetry_group_IT_number 49
_symmetry_cell_setting 'orthorhombic'
loop_
_space_group_symop_operation_xyz
x,y,z
-x,-y,z
x,-y,1/2-z
-x,y,1/2-z
-x,-y,-z
x,y,-z
-x,y,1/2+z
x,-y,1/2+z
loop_
_atom_site_type_symbol
_atom_site_label
_atom_site_fract_x
_atom_site_fract_y
_atom_site_fract_z
Si Si1 0.645142 0.813149 0.340309
Si Si2 0.653902 0.541582 0.666014
Si Si3 0.150128 0.270112 0.663166
Si Si4 0.348335 0.935749 0.500000
Si Si5 0.822942 0.900911 0.264403
Si Si6 0.308847 0.957204 0.000000
Si Si7 0.144697 0.371729 0.340538
O O1 0.500000 0.820770 0.250000
O O2 0.603844 0.810720 0.500000
O O3 0.728260 0.767076 0.300772
O O4 0.759769 0.853908 0.319751
O O5 0.727708 0.500000 0.750000
O O6 0.500000 0.546927 0.750000
O O7 0.637910 0.533088 0.500000
O O8 0.742293 0.587805 0.681399
O O9 0.118922 0.265365 0.500000
O O10 0.203260 0.321324 0.687898
O O11 0.000000 0.263518 0.750000
O O12 0.269069 0.913083 0.371176
O O13 0.527964 0.933540 0.500000
O O14 0.321904 0.989358 0.500000
O O15 0.779755 0.939899 0.369634
O O16 0.000000 0.898692 0.250000
O O17 0.101468 0.372374 0.500000
O O18 0.000000 0.378547 0.250000
#
# Coordination Sequence:
#
# PCOD9393647 Si02
#       7
#     8   8   8   4   8   4   8
#     4  11  24  41  62  87 119 154 194 240 290 349
#     4  10  20  34  52  77 108 148 191 239 290 344
#     4   9  19  38  60  85 116 149 189 238 289 346
#     4  11  25  41  69  89 121 165 193 245 290 351
#     4  12  25  41  63  92 122 158 198 244 294 346
#     4  11  23  45  63  93 125 155 203 237 296 347
#     4   9  19  35  56  81 112 148 188 235 289 345
#
# _framework density 18.340852999999999
#
# number of rings (size 3 to 8) (size 9 to 14) (size 15 to 20)
#    0.000    1.667    0.833    4.000    1.167    6.333 
#    0.000    1.667    0.000    0.000    0.000    0.000 
#    0.000    0.000    0.000    0.000    0.000    0.000 
#
# Total GULP energy -267866.694800 kJ/mol
# GULP energy per Si atom -5580.556142 kJ/mol
# Density = 1.829911 g / cm^3
# Si number density = 18.340853 Si / 1000 Ang^3
#
#
#
# Elastic Constant Matrix: (Units=GPa)
#
#
# Indices 1 2 3 4 5 6 
#
# 1 95.2289 42.2092 25.4456 0.0000 0.0000 0.0000
# 2 42.2092 91.8629 22.8020 0.0000 0.0000 0.0000
# 3 25.4456 22.8020 74.1020 0.0000 0.0000 0.0000
# 4 0.0000 0.0000 0.0000 32.0021 0.0000 0.0000
# 5 0.0000 0.0000 0.0000 0.0000 31.0223 0.0000
# 6 0.0000 0.0000 0.0000 0.0000 0.0000 33.9487
#
#
#
# Elastic Compliance Matrix: (Units=1/GPa)
#
#
# Indices 1 2 3 4 5 6 
#
# 1 0.013782 -0.005584 -0.003014 0.000000 0.000000 0.000000
# 2 -0.005584 0.014049 -0.002405 0.000000 0.000000 0.000000
# 3 -0.003014 -0.002405 0.015270 0.000000 0.000000 0.000000
# 4 0.000000 0.000000 0.000000 0.031248 0.000000 0.000000
# 5 0.000000 0.000000 0.000000 0.000000 0.032235 0.000000
# 6 0.000000 0.000000 0.000000 0.000000 0.000000 0.029456
#
#
# Mechanical properties :
#
#
# Convention : Reuss Voigt Hill
#
# Bulk Modulus (GPa) = 47.40921 49.12306 48.26613
# Shear Modulus (GPa) = 30.28880 30.77710 30.53295
#
# Velocity S-wave (km/s) = 4.06820 4.10086 4.08456
# Velocity P-wave (km/s) = 6.92619 7.01885 6.97267
#
# Compressibility (1/GPa) = 0.02109295
#
# Stress axis : x y z
#
# Youngs Moduli (GPa) = 72.56093 71.18110 65.48761
#
# Poissons Ratio (x) = 0.39749 0.19738
# Poissons Ratio (y) = 0.40519 0.15752
# Poissons Ratio (z) = 0.21870 0.17122
#
# Static dielectric constant tensor:
#      x y z
#    x 1.596850 0.000000 0.000000 
#    y 0.000000 1.646610 0.000000 
#    z 0.000000 0.000000 1.471680 
# 
# From -- ./inp_files/2152.got.cif
#   From: 2010.05.17/outbox.cif.g08.bks.cpg/sg49_2_cif.got.tgz:2152.got - 2010.06.03 21:02:19.
