data_PCOD9393977
_publ_section_title
;
Structure prediction by ZEFSAII (Michael W. Deem and Ramdas Pophale) SiO2 
 PCOD9393977
Probable space group: P C C M
;
_chemical_formula_sum "Si O2"
_cell_formula_units_Z 48
_cell_length_a 15.097430
_cell_length_b 8.999504
_cell_length_c 17.186319
_cell_angle_alpha 90.000000
_cell_angle_beta 90.000000
_cell_angle_gamma 90.000000
_cell_volume 2335.094536
_symmetry_space_group_name_H-M "P C C M"
_symmetry_group_IT_number 49
_symmetry_cell_setting 'orthorhombic'
loop_
_space_group_symop_operation_xyz
x,y,z
-x,-y,z
x,-y,1/2-z
-x,y,1/2-z
-x,-y,-z
x,y,-z
-x,y,1/2+z
x,-y,1/2+z
loop_
_atom_site_type_symbol
_atom_site_label
_atom_site_fract_x
_atom_site_fract_y
_atom_site_fract_z
Si Si1 0.594284 0.945280 0.341038
Si Si2 0.880152 0.132232 0.092451
Si Si3 0.040463 0.665873 0.589343
Si Si4 0.235097 0.084643 0.168660
Si Si5 0.697261 0.687474 0.407385
Si Si6 0.223375 0.587147 0.328754
O O1 0.621018 0.774394 0.358917
O O2 0.500000 0.000000 0.372038
O O3 0.594787 0.000000 0.250000
O O4 0.679662 0.025448 0.378136
O O5 0.793300 0.234193 0.108121
O O6 0.966976 0.219244 0.122656
O O7 0.853192 0.970058 0.124151
O O8 0.890488 0.122501 0.000000
O O9 0.058098 0.709400 0.500000
O O10 0.132102 0.637694 0.631976
O O11 0.000000 0.500000 0.588049
O O12 0.261467 0.251549 0.188450
O O13 0.225267 0.000000 0.250000
O O14 0.680139 0.697136 0.500000
O O15 0.715210 0.518508 0.380984
O O16 0.205397 0.500000 0.250000
#
# Coordination Sequence:
#
# PCOD9393977 Si02
#       6
#     8   8   8   8   8   8
#     4   9  18  37  65  90 117 157 202 245 301 374
#     4   9  18  36  58  79 108 152 196 239 287 349
#     4  10  20  36  58  81 111 152 202 246 293 358
#     4  10  22  39  55  82 118 149 194 250 306 360
#     4  10  20  37  60  88 122 159 201 246 303 368
#     4  12  23  36  57  85 119 160 201 253 306 361
#
# _framework density 20.555914000000001
#
# number of rings (size 3 to 8) (size 9 to 14) (size 15 to 20)
#    0.000    2.000    1.667    3.500    0.000    2.667 
#    0.000    3.333    0.000    6.000    0.000    0.000 
#    0.000    0.000    0.000    0.000    0.000    0.000 
#
# Total GULP energy -267357.293230 kJ/mol
# GULP energy per Si atom -5569.943609 kJ/mol
# Density = 2.050913 g / cm^3
# Si number density = 20.555914 Si / 1000 Ang^3
#
#
#
# Elastic Constant Matrix: (Units=GPa)
#
#
# Indices 1 2 3 4 5 6 
#
# 1 104.7074 37.5956 19.2167 0.0000 0.0000 0.0000
# 2 37.5956 152.9638 26.8485 0.0000 0.0000 0.0000
# 3 19.2167 26.8485 46.6830 0.0000 0.0000 0.0000
# 4 0.0000 0.0000 0.0000 25.1153 0.0000 0.0000
# 5 0.0000 0.0000 0.0000 0.0000 14.6283 0.0000
# 6 0.0000 0.0000 0.0000 0.0000 0.0000 28.9091
#
#
#
# Elastic Compliance Matrix: (Units=1/GPa)
#
#
# Indices 1 2 3 4 5 6 
#
# 1 0.010908 -0.002105 -0.003279 0.000000 0.000000 0.000000
# 2 -0.002105 0.007678 -0.003549 0.000000 0.000000 0.000000
# 3 -0.003279 -0.003549 0.024812 0.000000 0.000000 0.000000
# 4 0.000000 0.000000 0.000000 0.039816 0.000000 0.000000
# 5 0.000000 0.000000 0.000000 0.000000 0.068361 0.000000
# 6 0.000000 0.000000 0.000000 0.000000 0.000000 0.034591
#
#
# Mechanical properties :
#
#
# Convention : Reuss Voigt Hill
#
# Bulk Modulus (GPa) = 39.16879 52.40840 45.78860
# Shear Modulus (GPa) = 23.52448 28.44344 25.98396
#
# Velocity S-wave (km/s) = 3.38659 3.72386 3.55922
# Velocity P-wave (km/s) = 5.86414 6.63629 6.26213
#
# Compressibility (1/GPa) = 0.02553053
#
# Stress axis : x y z
#
# Youngs Moduli (GPa) = 91.67369 130.24385 40.30276
#
# Poissons Ratio (x) = 0.27422 0.13217
# Poissons Ratio (y) = 0.19301 0.14304
# Poissons Ratio (z) = 0.30064 0.46224
#
# Static dielectric constant tensor:
#      x y z
#    x 1.819180 0.000000 0.000000 
#    y 0.000000 1.996470 0.000000 
#    z 0.000000 0.000000 1.763920 
# 
# From -- ./inp_files/17740.got.cif
#   From: 2010.05.17/outbox.cif.g08.bks.cpg/sg49_9_cif.got.tgz:17740.got - 2010.06.03 21:02:19.
