data_PCOD9393711
_publ_section_title
;
Structure prediction by ZEFSAII (Michael W. Deem and Ramdas Pophale) SiO2 
 PCOD9393711
Probable space group: P C C M
;
_chemical_formula_sum "Si O2"
_cell_formula_units_Z 64
_cell_length_a 11.562265
_cell_length_b 13.639897
_cell_length_c 19.418477
_cell_angle_alpha 90.000000
_cell_angle_beta 90.000000
_cell_angle_gamma 90.000000
_cell_volume 3062.451184
_symmetry_space_group_name_H-M "P C C M"
_symmetry_group_IT_number 49
_symmetry_cell_setting 'orthorhombic'
loop_
_space_group_symop_operation_xyz
x,y,z
-x,-y,z
x,-y,1/2-z
-x,y,1/2-z
-x,-y,-z
x,y,-z
-x,y,1/2+z
x,-y,1/2+z
loop_
_atom_site_type_symbol
_atom_site_label
_atom_site_fract_x
_atom_site_fract_y
_atom_site_fract_z
Si Si1 0.598692 0.173533 0.576813
Si Si2 0.750532 0.648109 0.074678
Si Si3 0.124738 0.887674 0.775844
Si Si4 0.626258 0.695582 0.577656
Si Si5 0.638175 0.510617 0.328520
Si Si6 0.016565 0.393326 0.578396
Si Si7 0.622814 0.110648 0.275986
Si Si8 0.145133 0.803316 0.920063
O O1 0.584957 0.131356 0.500000
O O2 0.712079 0.240471 0.580160
O O3 0.496913 0.253303 0.588145
O O4 0.608818 0.104742 0.641827
O O5 0.696802 0.577075 0.130292
O O6 0.887134 0.644884 0.075540
O O7 0.708231 0.611914 0.000000
O O8 0.251058 0.846307 0.748500
O O9 0.121130 0.878850 0.858909
O O10 0.000000 0.844862 0.750000
O O11 0.125264 0.000000 0.750000
O O12 0.628289 0.652234 0.500000
O O13 0.658927 0.613461 0.632999
O O14 0.718559 0.782859 0.578653
O O15 0.500000 0.500000 0.330212
O O16 0.677075 0.500000 0.250000
O O17 0.061959 0.412725 0.500000
O O18 0.000000 0.500000 0.612917
O O19 0.092028 0.302253 0.603106
O O20 0.500000 0.158282 0.250000
O O21 0.623541 0.000000 0.250000
O O22 0.107993 0.823457 0.000000
#
# Coordination Sequence:
#
# PCOD9393711 Si02
#       8
#     8   8   8   8   8   8   8   8
#     4  10  21  36  59  91 118 151 206 257 300 363
#     4  10  20  34  55  80 112 154 200 249 299 344
#     4  10  23  44  65  93 129 164 204 257 328 392
#     4  10  20  37  60  87 120 162 209 259 306 359
#     4  11  22  34  49  80 122 165 207 247 302 363
#     4   9  18  34  57  85 117 155 201 252 301 352
#     4  10  22  42  65  90 121 160 197 244 323 390
#     4  10  21  39  66  93 120 165 217 259 309 378
#
# _framework density 20.898292000000001
#
# number of rings (size 3 to 8) (size 9 to 14) (size 15 to 20)
#    0.000    2.000    1.250    1.875    1.750    4.500 
#    0.000    5.000    0.000    0.000    0.000    0.000 
#    0.000    0.000    0.000    0.000    0.000    0.000 
#
# Total GULP energy -356538.567977 kJ/mol
# GULP energy per Si atom -5570.915125 kJ/mol
# Density = 2.085073 g / cm^3
# Si number density = 20.898292 Si / 1000 Ang^3
#
#
#
# Elastic Constant Matrix: (Units=GPa)
#
#
# Indices 1 2 3 4 5 6 
#
# 1 90.8236 5.1311 25.3926 0.0000 0.0000 0.0000
# 2 5.1311 45.6778 46.6846 0.0000 0.0000 0.0000
# 3 25.3926 46.6846 174.5667 0.0000 0.0000 0.0000
# 4 0.0000 0.0000 0.0000 49.4955 0.0000 0.0000
# 5 0.0000 0.0000 0.0000 0.0000 24.1190 0.0000
# 6 0.0000 0.0000 0.0000 0.0000 0.0000 5.8623
#
#
#
# Elastic Compliance Matrix: (Units=1/GPa)
#
#
# Indices 1 2 3 4 5 6 
#
# 1 0.011488 0.000574 -0.001825 0.000000 0.000000 0.000000
# 2 0.000574 0.030156 -0.008148 0.000000 0.000000 0.000000
# 3 -0.001825 -0.008148 0.008173 0.000000 0.000000 0.000000
# 4 0.000000 0.000000 0.000000 0.020204 0.000000 0.000000
# 5 0.000000 0.000000 0.000000 0.000000 0.041461 0.000000
# 6 0.000000 0.000000 0.000000 0.000000 0.000000 0.170580
#
#
# Mechanical properties :
#
#
# Convention : Reuss Voigt Hill
#
# Bulk Modulus (GPa) = 32.23736 51.72053 41.97895
# Shear Modulus (GPa) = 16.06691 31.48602 23.77647
#
# Velocity S-wave (km/s) = 2.77576 3.88575 3.37667
# Velocity P-wave (km/s) = 5.07272 6.70332 5.94419
#
# Compressibility (1/GPa) = 0.03101991
#
# Stress axis : x y z
#
# Youngs Moduli (GPa) = 87.04701 33.16120 122.35473
#
# Poissons Ratio (x) = -0.01905 0.22326
# Poissons Ratio (y) = -0.05000 0.99696
# Poissons Ratio (z) = 0.15883 0.27020
#
# Static dielectric constant tensor:
#      x y z
#    x 1.809770 0.000000 0.000000 
#    y 0.000000 1.733840 0.000000 
#    z 0.000000 0.000000 1.835270 
# 
# From -- ./inp_files/13098.got.cif
#   From: 2010.05.17/outbox.cif.g08.bks.cpg/sg49_7_cif.got.tgz:13098.got - 2010.06.03 21:02:19.
