data_PCOD9393735
_publ_section_title
;
Structure prediction by ZEFSAII (Michael W. Deem and Ramdas Pophale) SiO2 
 PCOD9393735
Probable space group: P C C M
;
_chemical_formula_sum "Si O2"
_cell_formula_units_Z 64
_cell_length_a 11.219366
_cell_length_b 8.265497
_cell_length_c 31.891367
_cell_angle_alpha 90.000000
_cell_angle_beta 90.000000
_cell_angle_gamma 90.000000
_cell_volume 2957.402419
_symmetry_space_group_name_H-M "P C C M"
_symmetry_group_IT_number 49
_symmetry_cell_setting 'orthorhombic'
loop_
_space_group_symop_operation_xyz
x,y,z
-x,-y,z
x,-y,1/2-z
-x,y,1/2-z
-x,-y,-z
x,y,-z
-x,y,1/2+z
x,-y,1/2+z
loop_
_atom_site_type_symbol
_atom_site_label
_atom_site_fract_x
_atom_site_fract_y
_atom_site_fract_z
Si Si1 0.029622 0.810792 0.545262
Si Si2 0.121826 0.601989 0.381278
Si Si3 0.131469 0.687839 0.237473
Si Si4 0.505867 0.806089 0.861837
Si Si5 0.521423 0.691812 0.454198
Si Si6 0.241144 0.171155 0.658330
Si Si7 0.787016 0.696157 0.573207
Si Si8 0.740711 0.799979 0.814033
O O1 0.089531 0.784081 0.500000
O O2 0.904822 0.712935 0.545960
O O3 0.100859 0.741036 0.584303
O O4 0.000000 0.000000 0.548860
O O5 0.212309 0.475031 0.402545
O O6 0.167895 0.686462 0.339522
O O7 0.000000 0.500000 0.375041
O O8 0.135416 0.500000 0.250000
O O9 0.161116 0.722621 0.189289
O O10 0.231812 0.774959 0.265426
O O11 0.000000 0.749617 0.250000
O O12 0.529620 0.757149 0.910139
O O13 0.374928 0.756225 0.845791
O O14 0.610379 0.752454 0.830921
O O15 0.500000 0.000000 0.861426
O O16 0.500000 0.500000 0.454191
O O17 0.479668 0.754896 0.500000
O O18 0.663415 0.722237 0.450039
O O19 0.196574 0.174787 0.610680
O O20 0.242190 0.988007 0.674563
#
# Coordination Sequence:
#
# PCOD9393735 Si02
#       8
#     8   8   8   8   8   8   8   8
#     4  10  21  36  54  79 111 151 199 244 291 353
#     4  10  22  35  56  83 115 156 195 240 300 355
#     4  11  26  42  62  90 126 156 196 247 298 360
#     4   9  21  41  63  88 119 158 203 249 298 356
#     4  10  20  34  56  87 118 154 199 247 295 350
#     4  10  22  41  63  90 118 156 201 245 298 357
#     4  10  20  36  58  80 117 154 195 243 299 354
#     4  11  22  40  64  87 120 158 199 245 301 356
#
# _framework density 21.640612999999998
#
# number of rings (size 3 to 8) (size 9 to 14) (size 15 to 20)
#    0.000    1.875    0.000    3.000    5.250    5.500 
#    0.000    3.125    0.000    0.000    0.000    0.000 
#    0.000    0.000    0.000    0.000    0.000    0.000 
#
# Total GULP energy -357568.903381 kJ/mol
# GULP energy per Si atom -5587.014115 kJ/mol
# Density = 2.159136 g / cm^3
# Si number density = 21.640613 Si / 1000 Ang^3
#
#
#
# Elastic Constant Matrix: (Units=GPa)
#
#
# Indices 1 2 3 4 5 6 
#
# 1 60.5016 1.5771 33.2252 0.0000 0.0000 0.0000
# 2 1.5771 50.5165 6.5401 0.0000 0.0000 0.0000
# 3 33.2252 6.5401 96.5811 0.0000 0.0000 0.0000
# 4 0.0000 0.0000 0.0000 -26.9067 0.0000 0.0000
# 5 0.0000 0.0000 0.0000 0.0000 24.1497 0.0000
# 6 0.0000 0.0000 0.0000 0.0000 0.0000 21.8934
#
#
#
# Elastic Compliance Matrix: (Units=1/GPa)
#
#
# Indices 1 2 3 4 5 6 
#
# 1 0.020382 0.000274 -0.007030 0.000000 0.000000 0.000000
# 2 0.000274 0.019974 -0.001447 0.000000 0.000000 0.000000
# 3 -0.007030 -0.001447 0.012870 0.000000 0.000000 0.000000
# 4 0.000000 0.000000 0.000000 -0.037166 0.000000 0.000000
# 5 0.000000 0.000000 0.000000 0.000000 0.041408 0.000000
# 6 0.000000 0.000000 0.000000 0.000000 0.000000 0.045676
#
#
# Mechanical properties :
#
#
# Convention : Reuss Voigt Hill
#
# Bulk Modulus (GPa) = 27.15881 32.25376 29.70628
# Shear Modulus (GPa) = 37.92895 14.91108 26.42001
#
# Velocity S-wave (km/s) = 4.19104 2.62779 3.49786
# Velocity P-wave (km/s) = 5.99974 4.91362 5.48364
#
# Compressibility (1/GPa) = 0.03682047
#
# Stress axis : x y z
#
# Youngs Moduli (GPa) = 49.06265 50.06439 77.69720
#
# Poissons Ratio (x) = -0.01371 0.54623
# Poissons Ratio (y) = -0.01344 0.11241
# Poissons Ratio (z) = 0.34492 0.07243
#
# Static dielectric constant tensor:
#      x y z
#    x 1.817370 0.000000 0.000000 
#    y 0.000000 1.775930 0.000000 
#    z 0.000000 0.000000 1.781450 
# 
# From -- ./inp_files/26701.got.cif
#   From: 2010.05.17/outbox.cif.g08.bks.cpg/sg49_14_cif.got.tgz:26701.got - 2010.06.03 21:02:19.
