data_PCOD9393617
_publ_section_title
;
Structure prediction by ZEFSAII (Michael W. Deem and Ramdas Pophale) SiO2 
 PCOD9393617
Probable space group: P C C M
;
_chemical_formula_sum "Si O2"
_cell_formula_units_Z 64
_cell_length_a 9.609963
_cell_length_b 20.366541
_cell_length_c 14.100903
_cell_angle_alpha 90.000000
_cell_angle_beta 90.000000
_cell_angle_gamma 90.000000
_cell_volume 2759.852784
_symmetry_space_group_name_H-M "P C C M"
_symmetry_group_IT_number 49
_symmetry_cell_setting 'orthorhombic'
loop_
_space_group_symop_operation_xyz
x,y,z
-x,-y,z
x,-y,1/2-z
-x,y,1/2-z
-x,-y,-z
x,y,-z
-x,y,1/2+z
x,-y,1/2+z
loop_
_atom_site_type_symbol
_atom_site_label
_atom_site_fract_x
_atom_site_fract_y
_atom_site_fract_z
Si Si1 0.266363 0.820924 0.116355
Si Si2 0.085287 0.937278 0.104708
Si Si3 0.325071 0.704228 0.384854
Si Si4 0.642614 0.676568 0.385095
Si Si5 0.185761 0.554003 0.884508
Si Si6 0.871665 0.589625 0.115545
Si Si7 0.416806 0.158165 0.887131
Si Si8 0.348119 0.983914 0.639793
O O1 0.136999 0.867410 0.149117
O O2 0.274038 0.743288 0.141158
O O3 0.421960 0.845944 0.147907
O O4 0.260089 0.824723 0.000000
O O5 0.234223 0.971399 0.094174
O O6 0.021863 0.924341 0.000000
O O7 0.000000 0.000000 0.147145
O O8 0.314633 0.704607 0.500000
O O9 0.480510 0.680745 0.359967
O O10 0.206450 0.654817 0.350953
O O11 0.330688 0.779379 0.351543
O O12 0.646854 0.676345 0.500000
O O13 0.706692 0.608468 0.351440
O O14 0.202870 0.478360 0.855267
O O15 0.032268 0.579796 0.857847
O O16 0.189685 0.552968 0.000000
O O17 0.869896 0.591402 0.000000
O O18 0.330163 0.093072 0.871127
O O19 0.433731 0.167273 0.000000
O O20 0.500000 0.000000 0.602383
O O21 0.345100 0.000000 0.750000
#
# Coordination Sequence:
#
# PCOD9393617 Si02
#       8
#     8   8   8   8   8   8   8   8
#     4   8  14  26  43  61  86 115 146 190 240 282
#     4  10  20  34  51  72  96 123 157 198 243 291
#     4   8  14  23  36  55  77 104 145 189 228 270
#     4   8  13  21  33  50  71 104 144 178 219 269
#     4   8  13  20  30  44  72 112 145 177 221 268
#     4   8  13  21  30  46  74 108 145 183 220 264
#     4   9  16  29  49  68  89 119 153 200 249 281
#     4  11  22  34  51  73  94 123 162 197 237 297
#
# _framework density 23.189641999999999
#
# number of rings (size 3 to 8) (size 9 to 14) (size 15 to 20)
#    0.000    3.250    1.250    2.625    0.000    1.250 
#    2.250    2.500    0.000    0.000    0.000    0.000 
#    0.000    0.000    0.000    1.125    5.750    5.000 
#
# Total GULP energy -356927.682032 kJ/mol
# GULP energy per Si atom -5576.995032 kJ/mol
# Density = 2.313686 g / cm^3
# Si number density = 23.189642 Si / 1000 Ang^3
#
#
#
# Elastic Constant Matrix: (Units=GPa)
#
#
# Indices 1 2 3 4 5 6 
#
# 1 26.2290 23.0777 -22.1621 0.0000 0.0000 0.0000
# 2 23.0777 126.9102 -38.2005 0.0000 0.0000 0.0000
# 3 -22.1621 -38.2005 66.1784 0.0000 0.0000 0.0000
# 4 0.0000 0.0000 0.0000 -13.2905 0.0000 0.0000
# 5 0.0000 0.0000 0.0000 0.0000 0.1149 0.0000
# 6 0.0000 0.0000 0.0000 0.0000 0.0000 34.0270
#
#
#
# Elastic Compliance Matrix: (Units=1/GPa)
#
#
# Indices 1 2 3 4 5 6 
#
# 1 0.056185 -0.005511 0.015634 0.000000 0.000000 0.000000
# 2 -0.005511 0.010077 0.003971 0.000000 0.000000 0.000000
# 3 0.015634 0.003971 0.022639 0.000000 0.000000 0.000000
# 4 0.000000 0.000000 0.000000 -0.075242 0.000000 0.000000
# 5 0.000000 0.000000 0.000000 0.000000 8.701059 0.000000
# 6 0.000000 0.000000 0.000000 0.000000 0.000000 0.029388
#
#
# Mechanical properties :
#
#
# Convention : Reuss Voigt Hill
#
# Bulk Modulus (GPa) = 8.54042 16.08311 12.31177
# Shear Modulus (GPa) = 0.57111 21.27710 10.92410
#
# Velocity S-wave (km/s) = 0.49680 3.03236 2.17279
# Velocity P-wave (km/s) = 2.00498 4.38301 3.40813
#
# Compressibility (1/GPa) = 0.11709021
#
# Stress axis : x y z
#
# Youngs Moduli (GPa) = 17.79846 99.23505 44.17203
#
# Poissons Ratio (x) = 0.54686 -0.69060
# Poissons Ratio (y) = 0.09808 -0.17542
# Poissons Ratio (z) = -0.27827 -0.39410
#
# Static dielectric constant tensor:
#      x y z
#    x 1.842840 0.000000 0.000000 
#    y 0.000000 1.620680 0.000000 
#    z 0.000000 0.000000 1.933880 
# 
# From -- ./inp_files/16597.got.cif
#   From: 2010.05.17/outbox.cif.g08.bks.cpg/sg49_9_cif.got.tgz:16597.got - 2010.06.03 21:02:19.
