data_PCOD9393066
_publ_section_title
;
Structure prediction by ZEFSAII (Michael W. Deem and Ramdas Pophale) SiO2 
 PCOD9393066
Probable space group: P C C M
;
_chemical_formula_sum "Si O2"
_cell_formula_units_Z 64
_cell_length_a 22.646566
_cell_length_b 16.816552
_cell_length_c 8.503115
_cell_angle_alpha 90.000000
_cell_angle_beta 90.000000
_cell_angle_gamma 90.000000
_cell_volume 3238.302123
_symmetry_space_group_name_H-M "P C C M"
_symmetry_group_IT_number 49
_symmetry_cell_setting 'orthorhombic'
loop_
_space_group_symop_operation_xyz
x,y,z
-x,-y,z
x,-y,1/2-z
-x,y,1/2-z
-x,-y,-z
x,y,-z
-x,y,1/2+z
x,-y,1/2+z
loop_
_atom_site_type_symbol
_atom_site_label
_atom_site_fract_x
_atom_site_fract_y
_atom_site_fract_z
Si Si1 0.778844 0.113522 0.316861
Si Si2 0.265341 0.584702 0.682921
Si Si3 0.354799 0.085070 0.190211
Si Si4 0.094428 0.081636 0.315155
Si Si5 0.060826 0.745138 0.811991
Si Si6 0.808004 0.722550 0.316673
Si Si7 0.564241 0.234725 0.690784
Si Si8 0.592577 0.586643 0.182417
O O1 0.785049 0.091393 0.500000
O O2 0.713973 0.089735 0.258913
O O3 0.835572 0.083286 0.222501
O O4 0.784123 0.207957 0.294163
O O5 0.247405 0.500000 0.750000
O O6 0.249058 0.594782 0.500000
O O7 0.234162 0.649358 0.789388
O O8 0.336251 0.589504 0.692439
O O9 0.389176 0.165786 0.240167
O O10 0.379102 0.000000 0.250000
O O11 0.355479 0.084363 0.000000
O O12 0.086156 0.082555 0.500000
O O13 0.068286 0.163988 0.249421
O O14 0.069478 0.000000 0.250000
O O15 0.123660 0.705052 0.774801
O O16 0.000000 0.709971 0.750000
O O17 0.056502 0.748092 0.000000
O O18 0.807379 0.748847 0.500000
O O19 0.500000 0.209476 0.750000
O O20 0.566741 0.237566 0.500000
O O21 0.573417 0.326569 0.748487
O O22 0.574070 0.500000 0.250000
O O23 0.574642 0.585416 0.000000
#
# Coordination Sequence:
#
# PCOD9393066 Si02
#       8
#     8   8   8   8   8   8   8   8
#     4  10  19  33  54  78 103 135 171 213 267 323
#     4  10  19  33  55  83 112 142 171 206 255 312
#     4  10  22  38  56  78 106 139 180 228 277 324
#     4  10  20  33  48  72 103 133 166 210 260 313
#     4   9  20  35  50  69  96 131 174 217 257 302
#     4  10  20  34  52  78 109 139 172 215 261 312
#     4  10  22  40  57  77 107 143 182 225 267 316
#     4   9  19  36  58  84 115 144 175 215 263 320
#
# _framework density 19.763444
#
# number of rings (size 3 to 8) (size 9 to 14) (size 15 to 20)
#    0.000    2.250    0.000    3.375    0.000    9.250 
#    0.000    5.000    0.000    0.375    0.000    2.625 
#    0.000    0.000    0.000    0.000    0.000    0.000 
#
# Total GULP energy -356866.536550 kJ/mol
# GULP energy per Si atom -5576.039634 kJ/mol
# Density = 1.971846 g / cm^3
# Si number density = 19.763444 Si / 1000 Ang^3
#
#
#
# Elastic Constant Matrix: (Units=GPa)
#
#
# Indices 1 2 3 4 5 6 
#
# 1 66.4975 24.7130 10.8937 0.0000 0.0000 0.0000
# 2 24.7130 80.7109 1.8502 0.0000 0.0000 0.0000
# 3 10.8937 1.8502 21.4741 0.0000 0.0000 0.0000
# 4 0.0000 0.0000 0.0000 222.5651 0.0000 0.0000
# 5 0.0000 0.0000 0.0000 0.0000 15.8575 0.0000
# 6 0.0000 0.0000 0.0000 0.0000 0.0000 -3.6665
#
#
#
# Elastic Compliance Matrix: (Units=1/GPa)
#
#
# Indices 1 2 3 4 5 6 
#
# 1 0.018534 -0.005470 -0.008931 0.000000 0.000000 0.000000
# 2 -0.005470 0.014029 0.001566 0.000000 0.000000 0.000000
# 3 -0.008931 0.001566 0.050963 0.000000 0.000000 0.000000
# 4 0.000000 0.000000 0.000000 0.004493 0.000000 0.000000
# 5 0.000000 0.000000 0.000000 0.000000 0.063061 0.000000
# 6 0.000000 0.000000 0.000000 0.000000 0.000000 -0.272738
#
#
# Mechanical properties :
#
#
# Convention : Reuss Voigt Hill
#
# Bulk Modulus (GPa) = 17.28409 27.06625 22.17517
# Shear Modulus (GPa) = -65.18809 55.69959 -4.74425
#
# Velocity S-wave (km/s) = -5.74942 5.31454 -1.55104
# Velocity P-wave (km/s) = 5.94221 7.16826 2.83496
#
# Compressibility (1/GPa) = 0.05785669
#
# Stress axis : x y z
#
# Youngs Moduli (GPa) = 53.95429 71.28117 19.62190
#
# Poissons Ratio (x) = 0.38993 0.17524
# Poissons Ratio (y) = 0.29515 -0.03073
# Poissons Ratio (z) = 0.48187 -0.11165
#
# Static dielectric constant tensor:
#      x y z
#    x 1.693730 0.000000 0.000000 
#    y 0.000000 1.753130 0.000000 
#    z 0.000000 0.000000 1.689010 
# 
# From -- ./inp_files/4386.got.cif
#   From: 2010.05.17/outbox.cif.g08.bks.cpg/sg49_3_cif.got.tgz:4386.got - 2010.06.03 21:02:19.
