data_PCOD9393395
_publ_section_title
;
Structure prediction by ZEFSAII (Michael W. Deem and Ramdas Pophale) SiO2 
 PCOD9393395
Probable space group: P C C M
;
_chemical_formula_sum "Si O2"
_cell_formula_units_Z 64
_cell_length_a 6.990415
_cell_length_b 15.559552
_cell_length_c 24.624525
_cell_angle_alpha 90.000000
_cell_angle_beta 90.000000
_cell_angle_gamma 90.000000
_cell_volume 2678.353581
_symmetry_space_group_name_H-M "P C C M"
_symmetry_group_IT_number 49
_symmetry_cell_setting 'orthorhombic'
loop_
_space_group_symop_operation_xyz
x,y,z
-x,-y,z
x,-y,1/2-z
-x,y,1/2-z
-x,-y,-z
x,y,-z
-x,y,1/2+z
x,-y,1/2+z
loop_
_atom_site_type_symbol
_atom_site_label
_atom_site_fract_x
_atom_site_fract_y
_atom_site_fract_z
Si Si1 0.138443 0.184888 0.435151
Si Si2 0.716236 0.472655 0.441554
Si Si3 0.212988 0.348952 0.267857
Si Si4 0.273392 0.850761 0.761541
Si Si5 0.164748 0.638852 0.881080
Si Si6 0.222396 0.967645 0.866291
Si Si7 0.767755 0.149583 0.360764
Si Si8 0.275296 0.664444 0.650316
O O1 0.119398 0.184759 0.500000
O O2 0.220689 0.276280 0.414448
O O3 0.255571 0.103814 0.412163
O O4 0.934495 0.169681 0.404279
O O5 0.500000 0.500000 0.449440
O O6 0.794592 0.442783 0.500000
O O7 0.830045 0.555096 0.418505
O O8 0.684020 0.398854 0.397821
O O9 0.216183 0.245774 0.278344
O O10 0.275131 0.385945 0.325722
O O11 0.324434 0.362127 0.211582
O O12 0.000000 0.378726 0.250000
O O13 0.500000 0.851744 0.750000
O O14 0.243649 0.920958 0.808236
O O15 0.171281 0.863093 0.702906
O O16 0.957109 0.663844 0.856474
O O17 0.329918 0.058581 0.872665
O O18 0.000000 0.000000 0.870463
O O19 0.651617 0.238560 0.358442
#
# Coordination Sequence:
#
# PCOD9393395 Si02
#       8
#     8   8   8   8   8   8   8   8
#     4  10  20  36  60  92 120 158 215 261 303 361
#     4  11  25  42  60  84 116 158 207 253 310 377
#     4   9  19  37  64  92 125 157 197 247 311 372
#     4  11  22  36  59  92 129 166 208 253 312 379
#     4  10  19  37  65  90 117 155 198 254 308 362
#     4  10  21  35  58  90 124 167 207 256 304 362
#     4   9  21  35  56  84 123 159 200 253 309 358
#     4   9  20  38  59  90 117 151 198 249 304 367
#
# _framework density 23.895275000000002
#
# number of rings (size 3 to 8) (size 9 to 14) (size 15 to 20)
#    0.000    2.125    1.250    1.875    3.500   10.250 
#    0.000    2.500    0.000    0.750    0.000    4.375 
#    0.000    0.000    0.000    0.000    0.000    0.000 
#
# Total GULP energy -357156.590085 kJ/mol
# GULP energy per Si atom -5580.571720 kJ/mol
# Density = 2.384089 g / cm^3
# Si number density = 23.895275 Si / 1000 Ang^3
#
#
#
# Elastic Constant Matrix: (Units=GPa)
#
#
# Indices 1 2 3 4 5 6 
#
# 1 57.4710 -4.5947 23.6099 0.0000 0.0000 0.0000
# 2 -4.5947 127.1194 104.9759 0.0000 0.0000 0.0000
# 3 23.6099 104.9759 236.7153 0.0000 0.0000 0.0000
# 4 0.0000 0.0000 0.0000 30.7322 0.0000 0.0000
# 5 0.0000 0.0000 0.0000 0.0000 23.6489 0.0000
# 6 0.0000 0.0000 0.0000 0.0000 0.0000 17.1238
#
#
#
# Elastic Compliance Matrix: (Units=1/GPa)
#
#
# Indices 1 2 3 4 5 6 
#
# 1 0.019121 0.003575 -0.003493 0.000000 0.000000 0.000000
# 2 0.003575 0.013081 -0.006158 0.000000 0.000000 0.000000
# 3 -0.003493 -0.006158 0.007304 0.000000 0.000000 0.000000
# 4 0.000000 0.000000 0.000000 0.032539 0.000000 0.000000
# 5 0.000000 0.000000 0.000000 0.000000 0.042285 0.000000
# 6 0.000000 0.000000 0.000000 0.000000 0.000000 0.058398
#
#
# Mechanical properties :
#
#
# Convention : Reuss Voigt Hill
#
# Bulk Modulus (GPa) = 36.55582 74.36533 55.46058
# Shear Modulus (GPa) = 25.77373 34.12194 29.94783
#
# Velocity S-wave (km/s) = 3.28779 3.78296 3.54403
# Velocity P-wave (km/s) = 5.45383 7.09013 6.32512
#
# Compressibility (1/GPa) = 0.02735542
#
# Stress axis : x y z
#
# Youngs Moduli (GPa) = 52.29914 76.44813 136.92043
#
# Poissons Ratio (x) = -0.27333 0.47822
# Poissons Ratio (y) = -0.18699 0.84309
# Poissons Ratio (z) = 0.18266 0.47073
#
# Static dielectric constant tensor:
#      x y z
#    x 2.094640 0.000000 0.000000 
#    y 0.000000 1.855210 0.000000 
#    z 0.000000 0.000000 2.031190 
# 
# From -- ./inp_files/22549.got.cif
#   From: 2010.05.17/outbox.cif.g08.bks.cpg/sg49_12_cif.got.tgz:22549.got - 2010.06.03 21:02:19.
