data_PCOD9393691
_publ_section_title
;
Structure prediction by ZEFSAII (Michael W. Deem and Ramdas Pophale) SiO2 
 PCOD9393691
Probable space group: P C C M
;
_chemical_formula_sum "Si O2"
_cell_formula_units_Z 40
_cell_length_a 13.106954
_cell_length_b 16.860647
_cell_length_c 10.119888
_cell_angle_alpha 90.000000
_cell_angle_beta 90.000000
_cell_angle_gamma 90.000000
_cell_volume 2236.411502
_symmetry_space_group_name_H-M "P C C M"
_symmetry_group_IT_number 49
_symmetry_cell_setting 'orthorhombic'
loop_
_space_group_symop_operation_xyz
x,y,z
-x,-y,z
x,-y,1/2-z
-x,y,1/2-z
-x,-y,-z
x,y,-z
-x,y,1/2+z
x,-y,1/2+z
loop_
_atom_site_type_symbol
_atom_site_label
_atom_site_fract_x
_atom_site_fract_y
_atom_site_fract_z
Si Si1 0.187125 0.068913 0.651479
Si Si2 0.591687 0.854935 0.654284
Si Si3 0.627823 0.573922 0.500000
Si Si4 0.385982 0.389904 0.000000
Si Si5 0.687963 0.312778 0.229980
Si Si6 0.095623 0.757602 0.842692
O O1 0.179906 0.041714 0.500000
O O2 0.304810 0.095142 0.676104
O O3 0.121098 0.148597 0.665454
O O4 0.156586 0.000000 0.750000
O O5 0.500000 0.878856 0.750000
O O6 0.563283 0.861613 0.500000
O O7 0.622132 0.763585 0.684275
O O8 0.507689 0.596035 0.500000
O O9 0.651564 0.480906 0.500000
O O10 0.671399 0.615751 0.370942
O O11 0.348418 0.342075 0.127645
O O12 0.804821 0.285893 0.215328
O O13 0.000000 0.739137 0.750000
O O14 0.083320 0.739144 0.000000
#
# Coordination Sequence:
#
# PCOD9393691 Si02
#       6
#     8   8   4   4   8   8
#     4   9  20  38  55  81 116 148 184 236 290 339
#     4  10  20  34  54  78 112 156 196 232 281 337
#     4  11  20  40  57  87 126 157 185 233 285 335
#     4  11  24  32  61  93 118 157 195 223 281 357
#     4  11  21  38  57  85 121 152 193 243 285 334
#     4  10  22  41  64  85 112 150 196 244 293 339
#
# _framework density 17.885795999999999
#
# number of rings (size 3 to 8) (size 9 to 14) (size 15 to 20)
#    0.000    1.800    2.000    3.600    2.800    4.000 
#    3.600    4.000    0.000    3.600    0.000    0.000 
#    0.000    0.000    0.000    0.000    0.000    0.000 
#
# Total GULP energy -223358.042747 kJ/mol
# GULP energy per Si atom -5583.951069 kJ/mol
# Density = 1.784509 g / cm^3
# Si number density = 17.885796 Si / 1000 Ang^3
#
#
#
# Elastic Constant Matrix: (Units=GPa)
#
#
# Indices 1 2 3 4 5 6 
#
# 1 71.4993 -3.5078 32.6649 0.0000 0.0000 0.0000
# 2 -3.5078 55.6386 25.1045 0.0000 0.0000 0.0000
# 3 32.6649 25.1045 100.6057 0.0000 0.0000 0.0000
# 4 0.0000 0.0000 0.0000 -270.0454 0.0000 0.0000
# 5 0.0000 0.0000 0.0000 0.0000 41.8119 0.0000
# 6 0.0000 0.0000 0.0000 0.0000 0.0000 0.5250
#
#
#
# Elastic Compliance Matrix: (Units=1/GPa)
#
#
# Indices 1 2 3 4 5 6 
#
# 1 0.017200 0.004061 -0.006598 0.000000 0.000000 0.000000
# 2 0.004061 0.021213 -0.006612 0.000000 0.000000 0.000000
# 3 -0.006598 -0.006612 0.013732 0.000000 0.000000 0.000000
# 4 0.000000 0.000000 0.000000 -0.003703 0.000000 0.000000
# 5 0.000000 0.000000 0.000000 0.000000 0.023917 0.000000
# 6 0.000000 0.000000 0.000000 0.000000 0.000000 1.904891
#
#
# Mechanical properties :
#
#
# Convention : Reuss Voigt Hill
#
# Bulk Modulus (GPa) = 29.54443 37.36298 33.45371
# Shear Modulus (GPa) = 2.49149 -33.97624 -15.74237
#
# Velocity S-wave (km/s) = 1.18154 -4.36319 -2.96997
# Velocity P-wave (km/s) = 4.29134 2.10907 2.64267
#
# Compressibility (1/GPa) = 0.03384733
#
# Stress axis : x y z
#
# Youngs Moduli (GPa) = 58.14056 47.14191 72.82304
#
# Poissons Ratio (x) = -0.19146 0.48048
# Poissons Ratio (y) = -0.23613 0.48150
# Poissons Ratio (z) = 0.38361 0.31170
#
# Static dielectric constant tensor:
#      x y z
#    x 1.609440 0.000000 0.000000 
#    y 0.000000 1.599430 0.000000 
#    z 0.000000 0.000000 1.566620 
# 
# From -- ./inp_files/3475.got.cif
#   From: 2010.05.17/outbox.cif.g08.bks.cpg/sg49_2_cif.got.tgz:3475.got - 2010.06.03 21:02:19.
