data_PCOD9393476
_publ_section_title
;
Structure prediction by ZEFSAII (Michael W. Deem and Ramdas Pophale) SiO2 
 PCOD9393476
Probable space group: P C C M
;
_chemical_formula_sum "Si O2"
_cell_formula_units_Z 40
_cell_length_a 5.250126
_cell_length_b 15.082003
_cell_length_c 24.573898
_cell_angle_alpha 90.000000
_cell_angle_beta 90.000000
_cell_angle_gamma 90.000000
_cell_volume 1945.820616
_symmetry_space_group_name_H-M "P C C M"
_symmetry_group_IT_number 49
_symmetry_cell_setting 'orthorhombic'
loop_
_space_group_symop_operation_xyz
x,y,z
-x,-y,z
x,-y,1/2-z
-x,y,1/2-z
-x,-y,-z
x,y,-z
-x,y,1/2+z
x,-y,1/2+z
loop_
_atom_site_type_symbol
_atom_site_label
_atom_site_fract_x
_atom_site_fract_y
_atom_site_fract_z
Si Si1 0.912245 0.407913 0.130291
Si Si2 0.099945 0.774882 0.936377
Si Si3 0.251006 0.098828 0.225481
Si Si4 0.603258 0.172621 0.619719
Si Si5 0.411245 0.355583 0.187818
O O1 0.909795 0.323561 0.089996
O O2 0.632843 0.409001 0.156364
O O3 0.000000 0.500000 0.103272
O O4 0.128521 0.392681 0.176624
O O5 0.322258 0.830437 0.905714
O O6 0.821248 0.814763 0.925053
O O7 0.156717 0.770539 0.000000
O O8 0.500000 0.142862 0.250000
O O9 0.294118 0.098024 0.161258
O O10 0.000000 0.144152 0.250000
O O11 0.245912 0.000000 0.250000
O O12 0.599497 0.259942 0.658156
O O13 0.500000 0.352143 0.250000
#
# Coordination Sequence:
#
# PCOD9393476 Si02
#       5
#     8   8   8   8   8
#     4  10  21  34  49  73 103 139 186 234 277 328
#     4  10  21  37  56  78 104 143 192 237 279 315
#     4  10  20  34  56  89 119 145 172 210 271 336
#     4  10  20  35  55  81 112 140 181 228 265 327
#     4  10  20  32  49  73 105 143 177 217 275 339
#
# _framework density 20.55688
#
# number of rings (size 3 to 8) (size 9 to 14) (size 15 to 20)
#    0.000    2.000    0.000    3.600    0.000    6.000 
#    0.000    0.000    0.000    7.200    0.000   56.000 
#    0.000    0.000    0.000    0.000    0.000    0.000 
#
# Total GULP energy -223049.560711 kJ/mol
# GULP energy per Si atom -5576.239018 kJ/mol
# Density = 2.051009 g / cm^3
# Si number density = 20.556880 Si / 1000 Ang^3
#
#
#
# Elastic Constant Matrix: (Units=GPa)
#
#
# Indices 1 2 3 4 5 6 
#
# 1 151.3781 14.0526 28.5246 0.0000 0.0000 0.0000
# 2 14.0526 48.2464 16.5922 0.0000 0.0000 0.0000
# 3 28.5246 16.5922 104.2431 0.0000 0.0000 0.0000
# 4 0.0000 0.0000 0.0000 12.4105 0.0000 0.0000
# 5 0.0000 0.0000 0.0000 0.0000 30.8691 0.0000
# 6 0.0000 0.0000 0.0000 0.0000 0.0000 -16.0354
#
#
#
# Elastic Compliance Matrix: (Units=1/GPa)
#
#
# Indices 1 2 3 4 5 6 
#
# 1 0.007063 -0.001473 -0.001698 0.000000 0.000000 0.000000
# 2 -0.001473 0.022234 -0.003136 0.000000 0.000000 0.000000
# 3 -0.001698 -0.003136 0.010557 0.000000 0.000000 0.000000
# 4 0.000000 0.000000 0.000000 0.080577 0.000000 0.000000
# 5 0.000000 0.000000 0.000000 0.000000 0.032395 0.000000
# 6 0.000000 0.000000 0.000000 0.000000 0.000000 -0.062362
#
#
# Mechanical properties :
#
#
# Convention : Reuss Voigt Hill
#
# Bulk Modulus (GPa) = 36.71131 46.91183 41.81157
# Shear Modulus (GPa) = 44.57999 21.76206 33.17102
#
# Velocity S-wave (km/s) = 4.66189 3.25718 4.02135
# Velocity P-wave (km/s) = 6.84652 6.08405 6.47652
#
# Compressibility (1/GPa) = 0.02723956
#
# Stress axis : x y z
#
# Youngs Moduli (GPa) = 141.58870 44.97521 94.72597
#
# Poissons Ratio (x) = 0.06625 0.16086
# Poissons Ratio (y) = 0.20858 0.29705
# Poissons Ratio (z) = 0.24044 0.14104
#
# Static dielectric constant tensor:
#      x y z
#    x 1.767320 0.000000 0.000000 
#    y 0.000000 1.746000 0.000000 
#    z 0.000000 0.000000 1.729610 
# 
# From -- ./inp_files/23861.got.cif
#   From: 2010.05.17/outbox.cif.g08.bks.cpg/sg49_12_cif.got.tgz:23861.got - 2010.06.03 21:02:19.
