data_PCOD9393905
_publ_section_title
;
Structure prediction by ZEFSAII (Michael W. Deem and Ramdas Pophale) SiO2 
 PCOD9393905
Probable space group: P C C M
;
_chemical_formula_sum "Si O2"
_cell_formula_units_Z 56
_cell_length_a 10.447316
_cell_length_b 15.441171
_cell_length_c 18.784934
_cell_angle_alpha 90.000000
_cell_angle_beta 90.000000
_cell_angle_gamma 90.000000
_cell_volume 3030.362877
_symmetry_space_group_name_H-M "P C C M"
_symmetry_group_IT_number 49
_symmetry_cell_setting 'orthorhombic'
loop_
_space_group_symop_operation_xyz
x,y,z
-x,-y,z
x,-y,1/2-z
-x,y,1/2-z
-x,-y,-z
x,y,-z
-x,y,1/2+z
x,-y,1/2+z
loop_
_atom_site_type_symbol
_atom_site_label
_atom_site_fract_x
_atom_site_fract_y
_atom_site_fract_z
Si Si1 0.850117 0.019531 0.333246
Si Si2 0.374609 0.253651 0.297154
Si Si3 0.869902 0.540603 0.581816
Si Si4 0.127861 0.790100 0.702116
Si Si5 0.742221 0.137937 0.083773
Si Si6 0.025922 0.729658 0.920692
Si Si7 0.373591 0.542357 0.827597
O O1 0.831656 0.122050 0.338125
O O2 0.823978 0.000000 0.250000
O O3 0.767399 0.956671 0.382803
O O4 0.000000 0.000000 0.346796
O O5 0.500000 0.231868 0.250000
O O6 0.244668 0.242021 0.250358
O O7 0.354157 0.191581 0.365568
O O8 0.385489 0.354086 0.319950
O O9 0.856614 0.511811 0.500000
O O10 0.748296 0.517887 0.626915
O O11 0.000000 0.500000 0.610908
O O12 0.888287 0.643914 0.582610
O O13 0.078366 0.726232 0.641083
O O14 0.000000 0.808532 0.750000
O O15 0.878005 0.189606 0.089292
O O16 0.708116 0.135826 0.000000
O O17 0.969543 0.734473 0.000000
O O18 0.500000 0.500000 0.860281
O O19 0.360199 0.500000 0.750000
#
# Coordination Sequence:
#
# PCOD9393905 Si02
#       7
#     8   8   8   8   8   8   8
#     4  11  17  33  57  94 128 155 207 258 299 357
#     4  12  24  42  63  89 122 166 210 255 312 372
#     4  10  22  39  59  88 126 162 199 249 319 385
#     4  12  20  36  63  91 124 163 209 252 310 371
#     4  11  22  38  62  93 125 163 207 253 310 373
#     4  10  20  35  58  89 123 158 203 253 309 371
#     4  11  23  41  60  89 122 152 208 268 300 360
#
# _framework density 18.479634000000001
#
# number of rings (size 3 to 8) (size 9 to 14) (size 15 to 20)
#    0.000    1.000    8.571    0.000    2.000    1.429 
#    0.000    2.143    0.000    0.857    0.000    0.000 
#    0.000    0.000    0.000    0.000    0.000    0.000 
#
# Total GULP energy -312554.678835 kJ/mol
# GULP energy per Si atom -5581.333551 kJ/mol
# Density = 1.843757 g / cm^3
# Si number density = 18.479634 Si / 1000 Ang^3
#
#
#
# Elastic Constant Matrix: (Units=GPa)
#
#
# Indices 1 2 3 4 5 6 
#
# 1 122.0833 39.8242 67.6500 0.0000 0.0000 0.0000
# 2 39.8242 75.0701 26.0155 0.0000 0.0000 0.0000
# 3 67.6500 26.0155 112.6909 0.0000 0.0000 0.0000
# 4 0.0000 0.0000 0.0000 22.2403 0.0000 0.0000
# 5 0.0000 0.0000 0.0000 0.0000 32.8277 0.0000
# 6 0.0000 0.0000 0.0000 0.0000 0.0000 14.6184
#
#
#
# Elastic Compliance Matrix: (Units=1/GPa)
#
#
# Indices 1 2 3 4 5 6 
#
# 1 0.013701 -0.004802 -0.007116 0.000000 0.000000 0.000000
# 2 -0.004802 0.016162 -0.000848 0.000000 0.000000 0.000000
# 3 -0.007116 -0.000848 0.013342 0.000000 0.000000 0.000000
# 4 0.000000 0.000000 0.000000 0.044963 0.000000 0.000000
# 5 0.000000 0.000000 0.000000 0.000000 0.030462 0.000000
# 6 0.000000 0.000000 0.000000 0.000000 0.000000 0.068407
#
#
# Mechanical properties :
#
#
# Convention : Reuss Voigt Hill
#
# Bulk Modulus (GPa) = 56.58857 64.09151 60.34004
# Shear Modulus (GPa) = 22.88730 25.69424 24.29077
#
# Velocity S-wave (km/s) = 3.52307 3.73286 3.62948
# Velocity P-wave (km/s) = 6.87299 7.30319 7.09135
#
# Compressibility (1/GPa) = 0.01767141
#
# Stress axis : x y z
#
# Youngs Moduli (GPa) = 72.98761 61.87195 74.95294
#
# Poissons Ratio (x) = 0.29712 0.53339
# Poissons Ratio (y) = 0.35050 0.06359
# Poissons Ratio (z) = 0.51940 0.05249
#
# Static dielectric constant tensor:
#      x y z
#    x 1.623170 0.000000 0.000000 
#    y 0.000000 1.671420 0.000000 
#    z 0.000000 0.000000 1.654350 
# 
# From -- ./inp_files/19858.got.cif
#   From: 2010.05.17/outbox.cif.g08.bks.cpg/sg49_10_cif.got.tgz:19858.got - 2010.06.03 21:02:19.
