data_PCOD9393056
_publ_section_title
;
Structure prediction by ZEFSAII (Michael W. Deem and Ramdas Pophale) SiO2 
 PCOD9393056
Probable space group: P C C M
;
_chemical_formula_sum "Si O2"
_cell_formula_units_Z 56
_cell_length_a 30.218850
_cell_length_b 5.308578
_cell_length_c 17.765620
_cell_angle_alpha 90.000000
_cell_angle_beta 90.000000
_cell_angle_gamma 90.000000
_cell_volume 2849.945167
_symmetry_space_group_name_H-M "P C C M"
_symmetry_group_IT_number 49
_symmetry_cell_setting 'orthorhombic'
loop_
_space_group_symop_operation_xyz
x,y,z
-x,-y,z
x,-y,1/2-z
-x,y,1/2-z
-x,-y,-z
x,y,-z
-x,y,1/2+z
x,-y,1/2+z
loop_
_atom_site_type_symbol
_atom_site_label
_atom_site_fract_x
_atom_site_fract_y
_atom_site_fract_z
Si Si1 0.096724 0.579659 0.910620
Si Si2 0.250572 0.890897 0.407821
Si Si3 0.149442 0.076274 0.091174
Si Si4 0.552994 0.008905 0.660724
Si Si5 0.302106 0.392295 0.408472
Si Si6 0.950195 0.745392 0.281848
Si Si7 0.596018 0.512607 0.409224
O O1 0.116824 0.307740 0.889012
O O2 0.052681 0.684710 0.869724
O O3 0.131005 0.801244 0.889191
O O4 0.090595 0.577485 0.000000
O O5 0.250061 0.896117 0.500000
O O6 0.199739 0.897562 0.381921
O O7 0.272800 0.629730 0.384780
O O8 0.279912 0.130411 0.383296
O O9 0.151172 0.083666 0.000000
O O10 0.574592 0.261193 0.625971
O O11 0.500000 0.000000 0.651719
O O12 0.562745 0.000000 0.750000
O O13 0.571410 0.761342 0.619800
O O14 0.301848 0.384426 0.500000
O O15 0.352660 0.446226 0.386776
O O16 0.926376 0.500000 0.250000
O O17 0.000000 0.747088 0.250000
O O18 0.930011 0.000000 0.250000
O O19 0.593701 0.494415 0.500000
#
# Coordination Sequence:
#
# PCOD9393056 Si02
#       7
#     8   8   8   8   8   8   8
#     4  10  19  33  53  80 109 137 176 228 273 310
#     4   9  15  26  44  72 111 145 170 210 270 324
#     4   9  17  28  48  79 111 140 175 220 270 318
#     4  11  24  41  59  81 112 150 193 238 290 354
#     4   9  17  28  46  75 111 144 175 218 270 325
#     4  10  21  38  56  77 105 140 180 216 261 327
#     4  11  22  37  59  88 116 145 189 240 290 341
#
# _framework density 19.6495
#
# number of rings (size 3 to 8) (size 9 to 14) (size 15 to 20)
#    0.000    2.143    0.000    3.857    0.000    8.571 
#    0.000    2.857    0.000    0.000    0.000   35.000 
#    0.000    0.000    0.000    0.000    0.000    0.000 
#
# Total GULP energy -312104.484096 kJ/mol
# GULP energy per Si atom -5573.294359 kJ/mol
# Density = 1.960478 g / cm^3
# Si number density = 19.649500 Si / 1000 Ang^3
#
#
#
# Elastic Constant Matrix: (Units=GPa)
#
#
# Indices 1 2 3 4 5 6 
#
# 1 60.3172 6.8200 21.9913 0.0000 0.0000 0.0000
# 2 6.8200 141.8171 20.9691 0.0000 0.0000 0.0000
# 3 21.9913 20.9691 37.9110 0.0000 0.0000 0.0000
# 4 0.0000 0.0000 0.0000 20.2754 0.0000 0.0000
# 5 0.0000 0.0000 0.0000 0.0000 -6.2978 0.0000
# 6 0.0000 0.0000 0.0000 0.0000 0.0000 27.2565
#
#
#
# Elastic Compliance Matrix: (Units=1/GPa)
#
#
# Indices 1 2 3 4 5 6 
#
# 1 0.021123 0.000867 -0.012733 0.000000 0.000000 0.000000
# 2 0.000867 0.007715 -0.004770 0.000000 0.000000 0.000000
# 3 -0.012733 -0.004770 0.036402 0.000000 0.000000 0.000000
# 4 0.000000 0.000000 0.000000 0.049321 0.000000 0.000000
# 5 0.000000 0.000000 0.000000 0.000000 -0.158785 0.000000
# 6 0.000000 0.000000 0.000000 0.000000 0.000000 0.036688
#
#
# Mechanical properties :
#
#
# Convention : Reuss Voigt Hill
#
# Bulk Modulus (GPa) = 31.28090 37.73402 34.50746
# Shear Modulus (GPa) = 137.39018 20.93112 79.16065
#
# Velocity S-wave (km/s) = 8.37092 3.26732 6.35404
# Velocity P-wave (km/s) = 10.45866 5.78611 8.45171
#
# Compressibility (1/GPa) = 0.03196839
#
# Stress axis : x y z
#
# Youngs Moduli (GPa) = 47.34117 129.61836 27.47112
#
# Poissons Ratio (x) = -0.11236 0.34978
# Poissons Ratio (y) = -0.04104 0.13104
# Poissons Ratio (z) = 0.60278 0.61829
#
# Static dielectric constant tensor:
#      x y z
#    x 1.713740 0.000000 0.000000 
#    y 0.000000 1.700100 0.000000 
#    z 0.000000 0.000000 1.755610 
# 
# From -- ./inp_files/14614.got.cif
#   From: 2010.05.17/outbox.cif.g08.bks.cpg/sg49_8_cif.got.tgz:14614.got - 2010.06.03 21:02:19.
