data_PCOD9393202
_publ_section_title
;
Structure prediction by ZEFSAII (Michael W. Deem and Ramdas Pophale) SiO2 
 PCOD9393202
Probable space group: P C C M
;
_chemical_formula_sum "Si O2"
_cell_formula_units_Z 48
_cell_length_a 14.681158
_cell_length_b 10.042043
_cell_length_c 14.560665
_cell_angle_alpha 90.000000
_cell_angle_beta 90.000000
_cell_angle_gamma 90.000000
_cell_volume 2146.661658
_symmetry_space_group_name_H-M "P C C M"
_symmetry_group_IT_number 49
_symmetry_cell_setting 'orthorhombic'
loop_
_space_group_symop_operation_xyz
x,y,z
-x,-y,z
x,-y,1/2-z
-x,y,1/2-z
-x,-y,-z
x,y,-z
-x,y,1/2+z
x,-y,1/2+z
loop_
_atom_site_type_symbol
_atom_site_label
_atom_site_fract_x
_atom_site_fract_y
_atom_site_fract_z
Si Si1 0.574841 0.588256 0.345416
Si Si2 0.931545 0.883695 0.112748
Si Si3 0.739482 0.204468 0.394041
Si Si4 0.230305 0.485372 0.358970
Si Si5 0.958520 0.368159 0.892399
Si Si6 0.467756 0.151088 0.888117
O O1 0.500000 0.500000 0.397208
O O2 0.585708 0.500000 0.250000
O O3 0.674728 0.581939 0.385676
O O4 0.534152 0.736391 0.345326
O O5 0.826917 0.873739 0.146421
O O6 0.987047 0.755289 0.145013
O O7 0.925518 0.887070 0.000000
O O8 0.000000 0.000000 0.139135
O O9 0.731911 0.162467 0.500000
O O10 0.766633 0.361399 0.392963
O O11 0.637109 0.180825 0.356531
O O12 0.222009 0.500000 0.250000
O O13 0.148736 0.389528 0.387912
O O14 0.000000 0.500000 0.850622
O O15 0.982380 0.365075 0.000000
O O16 0.500000 0.000000 0.867191
O O17 0.471610 0.166508 0.000000
#
# Coordination Sequence:
#
# PCOD9393202 Si02
#       6
#     8   8   8   8   8   8
#     4  10  21  39  60  82 120 161 207 246 291 369
#     4   9  18  33  55  81 111 149 187 229 285 353
#     4  10  19  35  58  84 117 152 190 243 304 356
#     4  11  22  35  58  84 117 150 200 248 286 347
#     4  10  19  34  56  84 111 143 192 237 287 351
#     4  10  22  38  61  95 127 155 197 260 322 366
#
# _framework density 22.360302000000001
#
# number of rings (size 3 to 8) (size 9 to 14) (size 15 to 20)
#    0.000    2.000    3.333    0.500    0.000    3.333 
#    0.000    5.000    0.000    4.000    0.000    0.000 
#    0.000    0.000    0.000    0.000    0.000    0.000 
#
# Total GULP energy -267590.503384 kJ/mol
# GULP energy per Si atom -5574.802154 kJ/mol
# Density = 2.230941 g / cm^3
# Si number density = 22.360302 Si / 1000 Ang^3
#
#
#
# Elastic Constant Matrix: (Units=GPa)
#
#
# Indices 1 2 3 4 5 6 
#
# 1 194.1654 67.6250 1.2853 0.0000 0.0000 0.0000
# 2 67.6250 130.6981 11.2315 0.0000 0.0000 0.0000
# 3 1.2853 11.2315 74.1106 0.0000 0.0000 0.0000
# 4 0.0000 0.0000 0.0000 -7.0855 0.0000 0.0000
# 5 0.0000 0.0000 0.0000 0.0000 13.0054 0.0000
# 6 0.0000 0.0000 0.0000 0.0000 0.0000 36.4415
#
#
#
# Elastic Compliance Matrix: (Units=1/GPa)
#
#
# Indices 1 2 3 4 5 6 
#
# 1 0.006293 -0.003290 0.000389 0.000000 0.000000 0.000000
# 2 -0.003290 0.009472 -0.001378 0.000000 0.000000 0.000000
# 3 0.000389 -0.001378 0.013695 0.000000 0.000000 0.000000
# 4 0.000000 0.000000 0.000000 -0.141134 0.000000 0.000000
# 5 0.000000 0.000000 0.000000 0.000000 0.076891 0.000000
# 6 0.000000 0.000000 0.000000 0.000000 0.000000 0.027441
#
#
# Mechanical properties :
#
#
# Convention : Reuss Voigt Hill
#
# Bulk Modulus (GPa) = 47.83942 62.13972 54.98957
# Shear Modulus (GPa) = 610.92858 29.72778 320.32818
#
# Velocity S-wave (km/s) = 16.54731 3.65017 11.98201
# Velocity P-wave (km/s) = 19.66026 6.75393 14.69934
#
# Compressibility (1/GPa) = 0.02090326
#
# Stress axis : x y z
#
# Youngs Moduli (GPa) = 158.89527 105.57592 73.01671
#
# Poissons Ratio (x) = 0.34732 -0.02843
# Poissons Ratio (y) = 0.52273 0.10065
# Poissons Ratio (z) = -0.06188 0.14553
#
# Static dielectric constant tensor:
#      x y z
#    x -12.428980 0.000000 0.000000 
#    y 0.000000 1.797550 0.000000 
#    z 0.000000 0.000000 1.924690 
# 
# From -- ./inp_files/17729.got.cif
#   From: 2010.05.17/outbox.cif.g08.bks.cpg/sg49_9_cif.got.tgz:17729.got - 2010.06.03 21:02:19.
