data_PCOD9393956
_publ_section_title
;
Structure prediction by ZEFSAII (Michael W. Deem and Ramdas Pophale) SiO2 
 PCOD9393956
Probable space group: P C C M
;
_chemical_formula_sum "Si O2"
_cell_formula_units_Z 60
_cell_length_a 6.489639
_cell_length_b 19.466610
_cell_length_c 27.551822
_cell_angle_alpha 90.000000
_cell_angle_beta 90.000000
_cell_angle_gamma 90.000000
_cell_volume 3480.656704
_symmetry_space_group_name_H-M "P C C M"
_symmetry_group_IT_number 49
_symmetry_cell_setting 'orthorhombic'
loop_
_space_group_symop_operation_xyz
x,y,z
-x,-y,z
x,-y,1/2-z
-x,y,1/2-z
-x,-y,-z
x,y,-z
-x,y,1/2+z
x,-y,1/2+z
loop_
_atom_site_type_symbol
_atom_site_label
_atom_site_fract_x
_atom_site_fract_y
_atom_site_fract_z
Si Si1 0.869849 0.089721 0.446328
Si Si2 0.016875 0.580346 0.190739
Si Si3 0.624597 0.333396 0.204377
Si Si4 0.919209 0.209467 0.798936
Si Si5 0.577301 0.777290 0.055781
Si Si6 0.734294 0.130297 0.115303
Si Si7 0.500000 0.000000 0.409087
Si Si8 0.755890 0.299055 0.643173
O O1 0.960729 0.081117 0.500000
O O2 0.735826 0.159137 0.445622
O O3 0.700814 0.029607 0.437412
O O4 0.055344 0.101399 0.408822
O O5 0.244440 0.607914 0.178934
O O6 0.000000 0.500000 0.180739
O O7 0.000000 0.589711 0.250000
O O8 0.862358 0.628982 0.160055
O O9 0.500000 0.361719 0.250000
O O10 0.785985 0.274718 0.219482
O O11 0.461142 0.298202 0.170106
O O12 0.784594 0.161568 0.832755
O O13 0.000000 0.175147 0.750000
O O14 0.095640 0.241071 0.833866
O O15 0.375576 0.810491 0.082258
O O16 0.692993 0.719349 0.088076
O O17 0.532239 0.757013 0.000000
O O18 0.580286 0.066232 0.119325
#
# Coordination Sequence:
#
# PCOD9393956 Si02
#       8
#     8   8   8   8   8   8   4   8
#     4  10  20  36  57  80 109 141 179 229 287 339
#     4  10  21  34  50  83 121 152 186 222 271 339
#     4  11  18  33  56  82 113 146 181 225 275 326
#     4  11  21  33  57  87 107 142 189 232 277 335
#     4  10  21  35  56  87 113 141 185 230 286 344
#     4  11  21  36  55  81 112 143 182 233 285 334
#     4  10  23  36  54  77 106 148 184 219 283 346
#     4  11  19  35  56  81 113 146 184 226 279 329
#
# _framework density 17.238126999999999
#
# number of rings (size 3 to 8) (size 9 to 14) (size 15 to 20)
#    0.000    1.467    5.333    1.800    0.000    2.667 
#    0.000    0.000    0.000    2.800    0.000    0.933 
#    0.000    0.000    0.000    0.000    0.000    0.000 
#
# Total GULP energy -334234.682243 kJ/mol
# GULP energy per Si atom -5570.578037 kJ/mol
# Density = 1.719889 g / cm^3
# Si number density = 17.238127 Si / 1000 Ang^3
#
#
#
# Elastic Constant Matrix: (Units=GPa)
#
#
# Indices 1 2 3 4 5 6 
#
# 1 74.5379 19.9232 27.7767 0.0000 0.0000 0.0000
# 2 19.9232 79.7199 43.6092 0.0000 0.0000 0.0000
# 3 27.7767 43.6092 103.1135 0.0000 0.0000 0.0000
# 4 0.0000 0.0000 0.0000 15.6540 0.0000 0.0000
# 5 0.0000 0.0000 0.0000 0.0000 27.4704 0.0000
# 6 0.0000 0.0000 0.0000 0.0000 0.0000 8.9442
#
#
#
# Elastic Compliance Matrix: (Units=1/GPa)
#
#
# Indices 1 2 3 4 5 6 
#
# 1 0.015160 -0.002023 -0.003228 0.000000 0.000000 0.000000
# 2 -0.002023 0.016589 -0.006471 0.000000 0.000000 0.000000
# 3 -0.003228 -0.006471 0.013304 0.000000 0.000000 0.000000
# 4 0.000000 0.000000 0.000000 0.063882 0.000000 0.000000
# 5 0.000000 0.000000 0.000000 0.000000 0.036403 0.000000
# 6 0.000000 0.000000 0.000000 0.000000 0.000000 0.111805
#
#
# Mechanical properties :
#
#
# Convention : Reuss Voigt Hill
#
# Bulk Modulus (GPa) = 46.27643 48.88775 47.58209
# Shear Modulus (GPa) = 17.37379 21.48451 19.42915
#
# Velocity S-wave (km/s) = 3.17814 3.53418 3.36088
# Velocity P-wave (km/s) = 6.35383 6.71384 6.53631
#
# Compressibility (1/GPa) = 0.02160927
#
# Stress axis : x y z
#
# Youngs Moduli (GPa) = 65.96451 60.27967 75.16254
#
# Poissons Ratio (x) = 0.12193 0.24265
# Poissons Ratio (y) = 0.13342 0.48639
# Poissons Ratio (z) = 0.21295 0.39008
#
# Static dielectric constant tensor:
#      x y z
#    x 1.625070 0.000000 0.000000 
#    y 0.000000 1.593900 0.000000 
#    z 0.000000 0.000000 1.602970 
# 
# From -- ./inp_files/21926.got.cif
#   From: 2010.05.17/outbox.cif.g08.bks.cpg/sg49_11_cif.got.tgz:21926.got - 2010.06.03 21:02:19.
