data_PCOD9393050
_publ_section_title
;
Structure prediction by ZEFSAII (Michael W. Deem and Ramdas Pophale) SiO2 
 PCOD9393050
Probable space group: P C C M
;
_chemical_formula_sum "Si O2"
_cell_formula_units_Z 56
_cell_length_a 9.811347
_cell_length_b 16.642884
_cell_length_c 14.760262
_cell_angle_alpha 90.000000
_cell_angle_beta 90.000000
_cell_angle_gamma 90.000000
_cell_volume 2410.190045
_symmetry_space_group_name_H-M "P C C M"
_symmetry_group_IT_number 49
_symmetry_cell_setting 'orthorhombic'
loop_
_space_group_symop_operation_xyz
x,y,z
-x,-y,z
x,-y,1/2-z
-x,y,1/2-z
-x,-y,-z
x,y,-z
-x,y,1/2+z
x,-y,1/2+z
loop_
_atom_site_type_symbol
_atom_site_label
_atom_site_fract_x
_atom_site_fract_y
_atom_site_fract_z
Si Si1 0.824500 0.343047 0.600964
Si Si2 0.924723 0.076912 0.894785
Si Si3 0.450136 0.589038 0.389325
Si Si4 0.928632 0.253605 0.107618
Si Si5 0.348034 0.189743 0.137813
Si Si6 0.620310 0.743687 0.342054
Si Si7 0.655030 0.991567 0.141404
O O1 0.848890 0.376016 0.500000
O O2 0.705668 0.397211 0.643122
O O3 0.748875 0.256387 0.595741
O O4 0.968377 0.320693 0.645135
O O5 0.954167 0.164065 0.854440
O O6 0.764432 0.055703 0.892164
O O7 0.966554 0.081226 0.000000
O O8 0.000000 0.000000 0.853302
O O9 0.500000 0.500000 0.369921
O O10 0.452484 0.600694 0.500000
O O11 0.545419 0.657343 0.346115
O O12 0.768836 0.268055 0.117633
O O13 0.957130 0.251843 0.000000
O O14 0.354311 0.214835 0.244269
O O15 0.506323 0.200821 0.109419
O O16 0.300059 0.099744 0.121058
O O17 0.500000 0.000000 0.108937
O O18 0.651933 0.000000 0.250000
#
# Coordination Sequence:
#
# PCOD9393050 Si02
#       7
#     8   8   8   8   8   8   8
#     4   9  19  35  54  76 104 140 179 219 269 327
#     4  10  21  35  50  72 103 139 181 228 275 321
#     4   9  18  35  59  85 112 141 175 216 265 328
#     4  10  19  33  53  76 104 139 180 225 271 322
#     4  10  20  34  52  73 101 140 181 218 267 327
#     4  10  19  34  53  78 105 135 177 222 269 324
#     4  11  21  34  50  71 102 137 176 227 276 318
#
# _framework density 23.234683
#
# number of rings (size 3 to 8) (size 9 to 14) (size 15 to 20)
#    0.000    2.143    0.000    4.714    0.000    3.429 
#    0.000    9.286    0.000    3.429    0.000    6.000 
#    0.000    0.000    0.000    0.000    0.000    0.000 
#
# Total GULP energy -312723.006806 kJ/mol
# GULP energy per Si atom -5584.339407 kJ/mol
# Density = 2.318180 g / cm^3
# Si number density = 23.234683 Si / 1000 Ang^3
#
#
#
# Elastic Constant Matrix: (Units=GPa)
#
#
# Indices 1 2 3 4 5 6 
#
# 1 141.3269 23.9824 5.5921 0.0000 0.0000 0.0000
# 2 23.9824 102.8755 -3.2371 0.0000 0.0000 0.0000
# 3 5.5921 -3.2371 70.9101 0.0000 0.0000 0.0000
# 4 0.0000 0.0000 0.0000 14.9567 0.0000 0.0000
# 5 0.0000 0.0000 0.0000 0.0000 25.4459 0.0000
# 6 0.0000 0.0000 0.0000 0.0000 0.0000 33.4973
#
#
#
# Elastic Compliance Matrix: (Units=1/GPa)
#
#
# Indices 1 2 3 4 5 6 
#
# 1 0.007398 -0.001746 -0.000663 0.000000 0.000000 0.000000
# 2 -0.001746 0.010146 0.000601 0.000000 0.000000 0.000000
# 3 -0.000663 0.000601 0.014182 0.000000 0.000000 0.000000
# 4 0.000000 0.000000 0.000000 0.066860 0.000000 0.000000
# 5 0.000000 0.000000 0.000000 0.000000 0.039299 0.000000
# 6 0.000000 0.000000 0.000000 0.000000 0.000000 0.029853
#
#
# Mechanical properties :
#
#
# Convention : Reuss Voigt Hill
#
# Bulk Modulus (GPa) = 35.57328 40.86526 38.21927
# Shear Modulus (GPa) = 27.66641 34.03166 30.84904
#
# Velocity S-wave (km/s) = 3.45445 3.83128 3.64774
# Velocity P-wave (km/s) = 5.59058 6.09900 5.85032
#
# Compressibility (1/GPa) = 0.02811098
#
# Stress axis : x y z
#
# Youngs Moduli (GPa) = 135.16725 98.55798 70.51148
#
# Poissons Ratio (x) = 0.17204 0.04676
# Poissons Ratio (y) = 0.23594 -0.04237
# Poissons Ratio (z) = 0.08963 -0.05922
#
# Static dielectric constant tensor:
#      x y z
#    x 1.921000 0.000000 0.000000 
#    y 0.000000 1.845260 0.000000 
#    z 0.000000 0.000000 1.930990 
# 
# From -- ./inp_files/19885.got.cif
#   From: 2010.05.17/outbox.cif.g08.bks.cpg/sg49_10_cif.got.tgz:19885.got - 2010.06.03 21:02:19.
