data_PCOD9393551
_publ_section_title
;
Structure prediction by ZEFSAII (Michael W. Deem and Ramdas Pophale) SiO2 
 PCOD9393551
Probable space group: P C C M
;
_chemical_formula_sum "Si O2"
_cell_formula_units_Z 48
_cell_length_a 18.464787
_cell_length_b 14.688235
_cell_length_c 8.516567
_cell_angle_alpha 90.000000
_cell_angle_beta 90.000000
_cell_angle_gamma 90.000000
_cell_volume 2309.821832
_symmetry_space_group_name_H-M "P C C M"
_symmetry_group_IT_number 49
_symmetry_cell_setting 'orthorhombic'
loop_
_space_group_symop_operation_xyz
x,y,z
-x,-y,z
x,-y,1/2-z
-x,y,1/2-z
-x,-y,-z
x,y,-z
-x,y,1/2+z
x,-y,1/2+z
loop_
_atom_site_type_symbol
_atom_site_label
_atom_site_fract_x
_atom_site_fract_y
_atom_site_fract_z
Si Si1 0.373135 0.407546 0.687641
Si Si2 0.075412 0.710464 0.685983
Si Si3 0.423627 0.211682 0.185850
Si Si4 0.719853 0.854076 0.317343
Si Si5 0.124587 0.906083 0.811636
Si Si6 0.768242 0.335057 0.313360
O O1 0.409704 0.500000 0.750000
O O2 0.367796 0.409287 0.500000
O O3 0.409633 0.312106 0.739363
O O4 0.293823 0.405241 0.769670
O O5 0.070049 0.719654 0.500000
O O6 0.089001 0.812276 0.753557
O O7 0.147023 0.650379 0.720119
O O8 0.000000 0.673840 0.750000
O O9 0.500000 0.177394 0.250000
O O10 0.356870 0.145579 0.230886
O O11 0.425600 0.222773 0.000000
O O12 0.709435 0.875810 0.500000
O O13 0.791240 0.904171 0.254354
O O14 0.745791 0.750147 0.294148
O O15 0.091208 0.000000 0.750000
O O16 0.124513 0.905386 0.000000
O O17 0.761928 0.312659 0.500000
#
# Coordination Sequence:
#
# PCOD9393551 Si02
#       6
#     8   8   8   8   8   8
#     4  11  21  34  52  75 102 132 165 202 244 292
#     4  10  20  33  51  74 102 132 166 204 247 295
#     4  11  21  34  52  75 102 132 165 202 244 292
#     4   9  17  31  50  72  96 127 165 204 242 287
#     4  10  20  33  51  74 102 132 166 204 247 295
#     4   9  17  31  50  72  96 127 165 204 242 287
#
# _framework density 20.780823999999999
#
# number of rings (size 3 to 8) (size 9 to 14) (size 15 to 20)
#    0.000    2.000    0.000    7.000    0.000    4.667 
#    0.000    3.333    0.000    1.000    0.000    7.000 
#    0.000    0.000    0.000    0.000    0.000    0.000 
#
# Total GULP energy -267683.185037 kJ/mol
# GULP energy per Si atom -5576.733022 kJ/mol
# Density = 2.073353 g / cm^3
# Si number density = 20.780824 Si / 1000 Ang^3
#
#
#
# Elastic Constant Matrix: (Units=GPa)
#
#
# Indices 1 2 3 4 5 6 
#
# 1 129.4302 -18.1232 28.8226 0.0000 0.0000 0.0000
# 2 -18.1232 15.3410 -20.8943 0.0000 0.0000 0.0000
# 3 28.8226 -20.8943 85.4373 0.0000 0.0000 0.0000
# 4 0.0000 0.0000 0.0000 11.4454 0.0000 0.0000
# 5 0.0000 0.0000 0.0000 0.0000 35.1888 0.0000
# 6 0.0000 0.0000 0.0000 0.0000 0.0000 4.6347
#
#
#
# Elastic Compliance Matrix: (Units=1/GPa)
#
#
# Indices 1 2 3 4 5 6 
#
# 1 0.009283 0.010049 -0.000674 0.000000 0.000000 0.000000
# 2 0.010049 0.108618 0.023173 0.000000 0.000000 0.000000
# 3 -0.000674 0.023173 0.017599 0.000000 0.000000 0.000000
# 4 0.000000 0.000000 0.000000 0.087371 0.000000 0.000000
# 5 0.000000 0.000000 0.000000 0.000000 0.028418 0.000000
# 6 0.000000 0.000000 0.000000 0.000000 0.000000 0.215763
#
#
# Mechanical properties :
#
#
# Convention : Reuss Voigt Hill
#
# Bulk Modulus (GPa) = 4.98516 23.31319 14.14917
# Shear Modulus (GPa) = 10.66500 26.28068 18.47284
#
# Velocity S-wave (km/s) = 2.26788 3.56006 2.98474
# Velocity P-wave (km/s) = 3.04333 5.30488 4.32455
#
# Compressibility (1/GPa) = 0.20059543
#
# Stress axis : x y z
#
# Youngs Moduli (GPa) = 107.71965 9.20660 56.82070
#
# Poissons Ratio (x) = -0.09251 0.03832
# Poissons Ratio (y) = -1.08242 -1.31673
# Poissons Ratio (z) = 0.07264 -0.21335
#
# Static dielectric constant tensor:
#      x y z
#    x 1.810620 0.000000 0.000000 
#    y 0.000000 1.748950 0.000000 
#    z 0.000000 0.000000 1.677170 
# 
# From -- ./inp_files/3723.got.cif
#   From: 2010.05.17/outbox.cif.g08.bks.cpg/sg49_2_cif.got.tgz:3723.got - 2010.06.03 21:02:19.
