data_PCOD9393447
_publ_section_title
;
Structure prediction by ZEFSAII (Michael W. Deem and Ramdas Pophale) SiO2 
 PCOD9393447
Probable space group: P C C M
;
_chemical_formula_sum "Si O2"
_cell_formula_units_Z 64
_cell_length_a 23.706733
_cell_length_b 13.446085
_cell_length_c 9.060755
_cell_angle_alpha 90.000000
_cell_angle_beta 90.000000
_cell_angle_gamma 90.000000
_cell_volume 2888.231154
_symmetry_space_group_name_H-M "P C C M"
_symmetry_group_IT_number 49
_symmetry_cell_setting 'orthorhombic'
loop_
_space_group_symop_operation_xyz
x,y,z
-x,-y,z
x,-y,1/2-z
-x,y,1/2-z
-x,-y,-z
x,y,-z
-x,y,1/2+z
x,-y,1/2+z
loop_
_atom_site_type_symbol
_atom_site_label
_atom_site_fract_x
_atom_site_fract_y
_atom_site_fract_z
Si Si1 0.322431 0.173361 0.822249
Si Si2 0.207333 0.867661 0.166438
Si Si3 0.827020 0.363479 0.166501
Si Si4 0.091779 0.904364 0.326733
Si Si5 0.714825 0.400144 0.671973
Si Si6 0.561950 0.172886 0.172988
Si Si7 0.559599 0.593382 0.330204
Si Si8 0.058528 0.676846 0.677178
O O1 0.268301 0.123743 0.743154
O O2 0.312435 0.292639 0.790458
O O3 0.382427 0.134214 0.758998
O O4 0.320666 0.161946 0.000000
O O5 0.191040 0.751698 0.150180
O O6 0.156259 0.901190 0.269928
O O7 0.207257 0.910627 0.000000
O O8 0.780365 0.396701 0.283054
O O9 0.888473 0.371045 0.238265
O O10 0.823983 0.406645 0.000000
O O11 0.090435 0.919500 0.500000
O O12 0.065370 0.796275 0.295648
O O13 0.064816 0.000000 0.250000
O O14 0.695201 0.500000 0.750000
O O15 0.706785 0.412888 0.500000
O O16 0.500000 0.156337 0.250000
O O17 0.575922 0.291335 0.174743
O O18 0.559205 0.142286 0.000000
O O19 0.587610 0.500000 0.250000
O O20 0.500000 0.599351 0.250000
O O21 0.555692 0.565847 0.500000
O O22 0.060342 0.660895 0.500000
O O23 0.000000 0.644099 0.750000
#
# Coordination Sequence:
#
# PCOD9393447 Si02
#       8
#     8   8   8   8   8   8   8   8
#     4  10  20  33  49  69  94 124 159 200 245 295
#     4   9  17  31  51  72  95 125 161 200 243 290
#     4   9  17  31  51  72  95 125 162 204 250 297
#     4  10  20  33  50  74 105 138 170 204 241 281
#     4  10  20  33  50  72  96 122 157 204 256 304
#     4  10  20  32  45  62  86 117 153 193 238 288
#     4   9  16  25  37  51  69  97 134 174 216 265
#     4  10  20  33  50  73 102 137 175 209 241 283
#
# _framework density 22.158892000000002
#
# number of rings (size 3 to 8) (size 9 to 14) (size 15 to 20)
#    0.000    2.375    0.000    3.375    0.000    8.250 
#    0.000    3.750    0.000    0.375    0.000    2.625 
#    0.000    0.500    0.000    5.000    0.000    3.000 
#
# Total GULP energy -356802.965695 kJ/mol
# GULP energy per Si atom -5575.046339 kJ/mol
# Density = 2.210846 g / cm^3
# Si number density = 22.158892 Si / 1000 Ang^3
#
#
#
# Elastic Constant Matrix: (Units=GPa)
#
#
# Indices 1 2 3 4 5 6 
#
# 1 185.2263 -13.4967 63.6493 0.0000 0.0000 0.0000
# 2 -13.4967 22.6550 2.4410 0.0000 0.0000 0.0000
# 3 63.6493 2.4410 90.2760 0.0000 0.0000 0.0000
# 4 0.0000 0.0000 0.0000 17.3607 0.0000 0.0000
# 5 0.0000 0.0000 0.0000 0.0000 67.6609 0.0000
# 6 0.0000 0.0000 0.0000 0.0000 0.0000 -5.2544
#
#
#
# Elastic Compliance Matrix: (Units=1/GPa)
#
#
# Indices 1 2 3 4 5 6 
#
# 1 0.007686 0.005178 -0.005559 0.000000 0.000000 0.000000
# 2 0.005178 0.047758 -0.004942 0.000000 0.000000 0.000000
# 3 -0.005559 -0.004942 0.015130 0.000000 0.000000 0.000000
# 4 0.000000 0.000000 0.000000 0.057601 0.000000 0.000000
# 5 0.000000 0.000000 0.000000 0.000000 0.014780 0.000000
# 6 0.000000 0.000000 0.000000 0.000000 0.000000 -0.190317
#
#
# Mechanical properties :
#
#
# Convention : Reuss Voigt Hill
#
# Bulk Modulus (GPa) = 16.68669 44.81605 30.75137
# Shear Modulus (GPa) = -298.72106 32.32435 -133.19836
#
# Velocity S-wave (km/s) = -11.62331 3.82351 -7.76151
# Velocity P-wave (km/s) = 13.13729 6.30563 8.14946
#
# Compressibility (1/GPa) = 0.05992799
#
# Stress axis : x y z
#
# Youngs Moduli (GPa) = 130.09831 20.93894 66.09195
#
# Poissons Ratio (x) = -0.10843 0.36743
# Poissons Ratio (y) = -0.67368 0.32665
# Poissons Ratio (z) = 0.72327 0.10349
#
# Static dielectric constant tensor:
#      x y z
#    x 1.811820 0.000000 0.000000 
#    y 0.000000 1.974560 0.000000 
#    z 0.000000 0.000000 1.748450 
# 
# From -- ./inp_files/6487.got.cif
#   From: 2010.05.17/outbox.cif.g08.bks.cpg/sg49_4_cif.got.tgz:6487.got - 2010.06.03 21:02:19.
