data_PCOD9393328
_publ_section_title
;
Structure prediction by ZEFSAII (Michael W. Deem and Ramdas Pophale) SiO2 
 PCOD9393328
Probable space group: P C C M
;
_chemical_formula_sum "Si O2"
_cell_formula_units_Z 58
_cell_length_a 19.237668
_cell_length_b 9.347997
_cell_length_c 15.193839
_cell_angle_alpha 90.000000
_cell_angle_beta 90.000000
_cell_angle_gamma 90.000000
_cell_volume 2732.363719
_symmetry_space_group_name_H-M "P C C M"
_symmetry_group_IT_number 49
_symmetry_cell_setting 'orthorhombic'
loop_
_space_group_symop_operation_xyz
x,y,z
-x,-y,z
x,-y,1/2-z
-x,y,1/2-z
-x,-y,-z
x,y,-z
-x,y,1/2+z
x,-y,1/2+z
loop_
_atom_site_type_symbol
_atom_site_label
_atom_site_fract_x
_atom_site_fract_y
_atom_site_fract_z
Si Si1 0.075782 0.544329 0.851610
Si Si2 0.755104 0.931988 0.842907
Si Si3 0.422592 0.524432 0.393130
Si Si4 0.398630 0.142474 0.102817
Si Si5 0.500000 0.000000 0.250000
Si Si6 0.702467 0.626999 0.601266
Si Si7 0.166993 0.200242 0.395759
Si Si8 0.796955 0.352801 0.404095
O O1 0.077073 0.500000 0.750000
O O2 0.101601 0.709164 0.859389
O O3 0.133930 0.445644 0.896092
O O4 0.000000 0.500000 0.886206
O O5 0.680528 0.917557 0.891172
O O6 0.787002 0.773685 0.836376
O O7 0.737993 0.000000 0.750000
O O8 0.816037 0.034166 0.881485
O O9 0.500000 0.500000 0.361119
O O10 0.422216 0.504882 0.500000
O O11 0.398509 0.686745 0.380247
O O12 0.371546 0.401773 0.355867
O O13 0.448271 0.079432 0.179657
O O14 0.422339 0.120497 0.000000
O O15 0.692628 0.676057 0.500000
O O16 0.761868 0.726244 0.639314
O O17 0.736466 0.469692 0.600399
O O18 0.163408 0.227457 0.500000
O O19 0.793615 0.282125 0.500000
#
# Coordination Sequence:
#
# PCOD9393328 Si02
#       8
#     8   8   8   8   2   8   8   8
#     4  10  21  39  62  93 132 169 205 255 318 378
#     4  12  23  39  62  92 127 163 214 267 318 381
#     4   9  17  32  58  87 113 152 205 257 313 377
#     4  11  23  42  65  86 122 170 212 266 326 390
#     4  12  26  44  58  90 128 164 220 258 328 402
#     4   8  15  30  53  82 112 144 199 253 302 364
#     4  10  21  36  60  92 122 159 208 261 309 369
#     4  10  19  35  62  89 118 166 213 254 312 380
#
# _framework density 21.227041
#
# number of rings (size 3 to 8) (size 9 to 14) (size 15 to 20)
#    0.000    1.931    2.069    3.517    0.000    2.207 
#    0.000    3.793    0.000    4.138    0.000    0.000 
#    0.000    0.000    0.000    0.000    0.000    0.000 
#
# Total GULP energy -323268.812474 kJ/mol
# GULP energy per Si atom -5573.600215 kJ/mol
# Density = 2.117873 g / cm^3
# Si number density = 21.227041 Si / 1000 Ang^3
#
#
#
# Elastic Constant Matrix: (Units=GPa)
#
#
# Indices 1 2 3 4 5 6 
#
# 1 91.3672 -16.3964 6.1436 0.0000 0.0000 0.0000
# 2 -16.3964 35.7243 13.7963 0.0000 0.0000 0.0000
# 3 6.1436 13.7963 82.9183 0.0000 0.0000 0.0000
# 4 0.0000 0.0000 0.0000 23.8680 0.0000 0.0000
# 5 0.0000 0.0000 0.0000 0.0000 15.7012 0.0000
# 6 0.0000 0.0000 0.0000 0.0000 0.0000 16.3195
#
#
#
# Elastic Compliance Matrix: (Units=1/GPa)
#
#
# Indices 1 2 3 4 5 6 
#
# 1 0.012220 0.006367 -0.001965 0.000000 0.000000 0.000000
# 2 0.006367 0.033232 -0.006001 0.000000 0.000000 0.000000
# 3 -0.001965 -0.006001 0.013204 0.000000 0.000000 0.000000
# 4 0.000000 0.000000 0.000000 0.041897 0.000000 0.000000
# 5 0.000000 0.000000 0.000000 0.000000 0.063689 0.000000
# 6 0.000000 0.000000 0.000000 0.000000 0.000000 0.061276
#
#
# Mechanical properties :
#
#
# Convention : Reuss Voigt Hill
#
# Bulk Modulus (GPa) = 18.03151 24.12188 21.07669
# Shear Modulus (GPa) = 20.22639 24.94217 22.58428
#
# Velocity S-wave (km/s) = 3.09019 3.43157 3.26535
# Velocity P-wave (km/s) = 4.60927 5.20474 4.91603
#
# Compressibility (1/GPa) = 0.05545847
#
# Stress axis : x y z
#
# Youngs Moduli (GPa) = 81.83578 30.09147 75.73390
#
# Poissons Ratio (x) = -0.19160 0.14880
# Poissons Ratio (y) = -0.52107 0.45448
# Poissons Ratio (z) = 0.16079 0.18058
#
# Static dielectric constant tensor:
#      x y z
#    x 1.800070 0.000000 0.000000 
#    y 0.000000 1.780220 0.000000 
#    z 0.000000 0.000000 1.820740 
# 
# From -- ./inp_files/18195.got.cif
#   From: 2010.05.17/outbox.cif.g08.bks.cpg/sg49_10_cif.got.tgz:18195.got - 2010.06.03 21:02:19.
