data_PCOD9393255
_publ_section_title
;
Structure prediction by ZEFSAII (Michael W. Deem and Ramdas Pophale) SiO2 
 PCOD9393255
Probable space group: P C C M
;
_chemical_formula_sum "Si O2"
_cell_formula_units_Z 48
_cell_length_a 14.931799
_cell_length_b 19.274508
_cell_length_c 9.164335
_cell_angle_alpha 90.000000
_cell_angle_beta 90.000000
_cell_angle_gamma 90.000000
_cell_volume 2637.523833
_symmetry_space_group_name_H-M "P C C M"
_symmetry_group_IT_number 49
_symmetry_cell_setting 'orthorhombic'
loop_
_space_group_symop_operation_xyz
x,y,z
-x,-y,z
x,-y,1/2-z
-x,y,1/2-z
-x,-y,-z
x,y,-z
-x,y,1/2+z
x,-y,1/2+z
loop_
_atom_site_type_symbol
_atom_site_label
_atom_site_fract_x
_atom_site_fract_y
_atom_site_fract_z
Si Si1 0.775173 0.799296 0.828612
Si Si2 0.591793 0.725655 0.825680
Si Si3 0.134242 0.569682 0.668777
Si Si4 0.351201 0.570917 0.331339
Si Si5 0.093636 0.926375 0.325963
Si Si6 0.914886 0.291281 0.171203
O O1 0.671385 0.781274 0.800891
O O2 0.822487 0.873910 0.808654
O O3 0.828281 0.750420 0.718970
O O4 0.791601 0.779457 0.000000
O O5 0.500000 0.746316 0.750000
O O6 0.616884 0.646570 0.775503
O O7 0.580380 0.721347 0.000000
O O8 0.107401 0.500000 0.750000
O O9 0.105956 0.571824 0.500000
O O10 0.242763 0.573295 0.671803
O O11 0.097485 0.633575 0.758989
O O12 0.379239 0.500000 0.250000
O O13 0.379117 0.564747 0.500000
O O14 0.078250 0.934073 0.500000
O O15 0.000000 0.902697 0.250000
O O16 0.113772 0.000000 0.250000
O O17 0.000000 0.257982 0.250000
O O18 0.927799 0.293759 0.000000
#
# Coordination Sequence:
#
# PCOD9393255 Si02
#       6
#     8   8   8   8   8   8
#     4  10  21  40  60  81 115 153 185 229 284 330
#     4  10  21  38  57  81 111 146 188 237 290 340
#     4  10  19  35  54  74 103 140 183 232 285 337
#     4   9  18  33  54  75 104 140 179 234 290 342
#     4  10  20  35  60  90 123 156 186 224 269 325
#     4  12  24  36  54  80 108 144 187 230 278 336
#
# _framework density 18.198886999999999
#
# number of rings (size 3 to 8) (size 9 to 14) (size 15 to 20)
#    0.000    1.833    1.667    3.500    0.000    5.333 
#    0.000    3.333    0.000    0.500    0.000    3.500 
#    0.000    0.000    0.000    0.000    0.000    0.000 
#
# Total GULP energy -267830.531770 kJ/mol
# GULP energy per Si atom -5579.802745 kJ/mol
# Density = 1.815747 g / cm^3
# Si number density = 18.198887 Si / 1000 Ang^3
#
#
#
# Elastic Constant Matrix: (Units=GPa)
#
#
# Indices 1 2 3 4 5 6 
#
# 1 113.0519 53.5725 60.0669 0.0000 0.0000 0.0000
# 2 53.5725 114.6273 60.0555 0.0000 0.0000 0.0000
# 3 60.0669 60.0555 118.8044 0.0000 0.0000 0.0000
# 4 0.0000 0.0000 0.0000 6.3260 0.0000 0.0000
# 5 0.0000 0.0000 0.0000 0.0000 30.7325 0.0000
# 6 0.0000 0.0000 0.0000 0.0000 0.0000 21.4041
#
#
#
# Elastic Compliance Matrix: (Units=1/GPa)
#
#
# Indices 1 2 3 4 5 6 
#
# 1 0.013108 -0.003610 -0.004802 0.000000 0.000000 0.000000
# 2 -0.003610 0.012861 -0.004676 0.000000 0.000000 0.000000
# 3 -0.004802 -0.004676 0.013209 0.000000 0.000000 0.000000
# 4 0.000000 0.000000 0.000000 0.158078 0.000000 0.000000
# 5 0.000000 0.000000 0.000000 0.000000 0.032539 0.000000
# 6 0.000000 0.000000 0.000000 0.000000 0.000000 0.046720
#
#
# Mechanical properties :
#
#
# Convention : Reuss Voigt Hill
#
# Bulk Modulus (GPa) = 76.91754 77.09705 77.00729
# Shear Modulus (GPa) = 16.28534 23.21178 19.74856
#
# Velocity S-wave (km/s) = 2.99466 3.57522 3.29774
# Velocity P-wave (km/s) = 7.36980 7.71353 7.54362
#
# Compressibility (1/GPa) = 0.01300094
#
# Stress axis : x y z
#
# Youngs Moduli (GPa) = 76.29047 77.75472 75.70627
#
# Poissons Ratio (x) = 0.28070 0.36357
# Poissons Ratio (y) = 0.27541 0.35400
# Poissons Ratio (z) = 0.36637 0.36358
#
# Static dielectric constant tensor:
#      x y z
#    x 1.684940 0.000000 0.000000 
#    y 0.000000 1.872110 0.000000 
#    z 0.000000 0.000000 1.608260 
# 
# From -- ./inp_files/3677.got.cif
#   From: 2010.05.17/outbox.cif.g08.bks.cpg/sg49_2_cif.got.tgz:3677.got - 2010.06.03 21:02:19.
