data_PCOD9393367
_publ_section_title
;
Structure prediction by ZEFSAII (Michael W. Deem and Ramdas Pophale) SiO2 
 PCOD9393367
Probable space group: P C C M
;
_chemical_formula_sum "Si O2"
_cell_formula_units_Z 64
_cell_length_a 14.769922
_cell_length_b 25.579387
_cell_length_c 8.717411
_cell_angle_alpha 90.000000
_cell_angle_beta 90.000000
_cell_angle_gamma 90.000000
_cell_volume 3293.486264
_symmetry_space_group_name_H-M "P C C M"
_symmetry_group_IT_number 49
_symmetry_cell_setting 'orthorhombic'
loop_
_space_group_symop_operation_xyz
x,y,z
-x,-y,z
x,-y,1/2-z
-x,y,1/2-z
-x,-y,-z
x,y,-z
-x,y,1/2+z
x,-y,1/2+z
loop_
_atom_site_type_symbol
_atom_site_label
_atom_site_fract_x
_atom_site_fract_y
_atom_site_fract_z
Si Si1 0.909183 0.058936 0.182849
Si Si2 0.283053 0.755003 0.183258
Si Si3 0.400981 0.848214 0.682942
Si Si4 0.904191 0.597230 0.183843
Si Si5 0.398953 0.341074 0.184944
Si Si6 0.707640 0.058565 0.815778
Si Si7 0.711386 0.444715 0.684682
Si Si8 0.096516 0.721050 0.316295
O O1 0.809293 0.080300 0.219627
O O2 0.000000 0.084776 0.250000
O O3 0.907225 0.000000 0.250000
O O4 0.917917 0.056183 0.000000
O O5 0.332195 0.805545 0.250832
O O6 0.337386 0.704837 0.246680
O O7 0.180471 0.750430 0.241502
O O8 0.286079 0.755942 0.000000
O O9 0.500000 0.837392 0.750000
O O10 0.403207 0.845867 0.500000
O O11 0.366030 0.904323 0.740126
O O12 0.814041 0.567909 0.238583
O O13 0.893972 0.658961 0.221224
O O14 0.000000 0.578646 0.250000
O O15 0.908030 0.593172 0.000000
O O16 0.500000 0.337393 0.250000
O O17 0.353159 0.396461 0.226842
O O18 0.399782 0.336535 0.000000
O O19 0.701671 0.000000 0.750000
O O20 0.698056 0.057453 0.000000
O O21 0.680959 0.500000 0.750000
O O22 0.713241 0.447102 0.500000
O O23 0.098604 0.726126 0.500000
O O24 0.000000 0.738234 0.250000
#
# Coordination Sequence:
#
# PCOD9393367 Si02
#       8
#     8   8   8   8   8   8   8   8
#     4   9  16  27  49  80 117 156 198 244 289 341
#     4  12  24  41  66  95 124 159 201 248 304 365
#     4  12  26  45  67  92 123 160 202 256 313 366
#     4   9  18  34  55  82 116 155 195 241 293 352
#     4  11  23  42  63  87 117 152 199 253 308 369
#     4  10  21  39  62  92 127 166 210 255 304 364
#     4  10  22  39  57  81 118 157 198 250 303 360
#     4  10  19  36  61  92 127 162 202 246 299 360
#
# _framework density 19.432296000000001
#
# number of rings (size 3 to 8) (size 9 to 14) (size 15 to 20)
#    0.000    1.625    1.250    4.500    0.000    4.250 
#    0.000    4.375    0.000    1.500    0.000    0.000 
#    0.000    0.000    0.000    0.000    0.000    0.000 
#
# Total GULP energy -357640.264334 kJ/mol
# GULP energy per Si atom -5588.129130 kJ/mol
# Density = 1.938807 g / cm^3
# Si number density = 19.432296 Si / 1000 Ang^3
#
#
#
# Elastic Constant Matrix: (Units=GPa)
#
#
# Indices 1 2 3 4 5 6 
#
# 1 129.7528 53.0821 51.9984 0.0000 0.0000 0.0000
# 2 53.0821 86.9571 40.3736 0.0000 0.0000 0.0000
# 3 51.9984 40.3736 98.7058 0.0000 0.0000 0.0000
# 4 0.0000 0.0000 0.0000 25.5087 0.0000 0.0000
# 5 0.0000 0.0000 0.0000 0.0000 34.9621 0.0000
# 6 0.0000 0.0000 0.0000 0.0000 0.0000 11.1895
#
#
#
# Elastic Compliance Matrix: (Units=1/GPa)
#
#
# Indices 1 2 3 4 5 6 
#
# 1 0.011365 -0.005132 -0.003888 0.000000 0.000000 0.000000
# 2 -0.005132 0.016514 -0.004051 0.000000 0.000000 0.000000
# 3 -0.003888 -0.004051 0.013836 0.000000 0.000000 0.000000
# 4 0.000000 0.000000 0.000000 0.039202 0.000000 0.000000
# 5 0.000000 0.000000 0.000000 0.000000 0.028602 0.000000
# 6 0.000000 0.000000 0.000000 0.000000 0.000000 0.089370
#
#
# Mechanical properties :
#
#
# Convention : Reuss Voigt Hill
#
# Bulk Modulus (GPa) = 64.21507 67.36931 65.79219
# Shear Modulus (GPa) = 21.71824 25.66283 23.69054
#
# Velocity S-wave (km/s) = 3.34673 3.63799 3.49540
# Velocity P-wave (km/s) = 6.93192 7.23814 7.08668
#
# Compressibility (1/GPa) = 0.01557267
#
# Stress axis : x y z
#
# Youngs Moduli (GPa) = 87.99265 60.55567 72.27523
#
# Poissons Ratio (x) = 0.31080 0.28098
# Poissons Ratio (y) = 0.45162 0.29277
# Poissons Ratio (z) = 0.34208 0.24530
#
# Static dielectric constant tensor:
#      x y z
#    x 1.686560 0.000000 0.000000 
#    y 0.000000 1.672700 0.000000 
#    z 0.000000 0.000000 1.643410 
# 
# From -- ./inp_files/4338.got.cif
#   From: 2010.05.17/outbox.cif.g08.bks.cpg/sg49_3_cif.got.tgz:4338.got - 2010.06.03 21:02:19.
