data_PCOD9393460
_publ_section_title
;
Structure prediction by ZEFSAII (Michael W. Deem and Ramdas Pophale) SiO2 
 PCOD9393460
Probable space group: P C C M
;
_chemical_formula_sum "Si O2"
_cell_formula_units_Z 44
_cell_length_a 16.945999
_cell_length_b 5.168118
_cell_length_c 33.115245
_cell_angle_alpha 90.000000
_cell_angle_beta 90.000000
_cell_angle_gamma 90.000000
_cell_volume 2900.197474
_symmetry_space_group_name_H-M "P C C M"
_symmetry_group_IT_number 49
_symmetry_cell_setting 'orthorhombic'
loop_
_space_group_symop_operation_xyz
x,y,z
-x,-y,z
x,-y,1/2-z
-x,y,1/2-z
-x,-y,-z
x,y,-z
-x,y,1/2+z
x,-y,1/2+z
loop_
_atom_site_type_symbol
_atom_site_label
_atom_site_fract_x
_atom_site_fract_y
_atom_site_fract_z
Si Si1 0.226352 0.627861 0.952287
Si Si2 0.049642 0.755400 0.048785
Si Si3 0.445123 0.750165 0.500000
Si Si4 0.595399 0.484939 0.295906
Si Si5 0.595202 0.011812 0.847071
Si Si6 0.678068 0.861891 0.930490
O O1 0.139546 0.714256 0.937778
O O2 0.260554 0.377411 0.929326
O O3 0.281674 0.878964 0.947977
O O4 0.221849 0.555679 0.000000
O O5 0.000000 0.500000 0.057420
O O6 0.054801 0.784409 0.000000
O O7 0.000000 0.000000 0.064202
O O8 0.500000 0.500000 0.500000
O O9 0.389550 0.762918 0.539117
O O10 0.500000 0.000000 0.500000
O O11 0.500000 0.500000 0.293610
O O12 0.625382 0.500000 0.250000
O O13 0.615215 0.211073 0.315147
O O14 0.617379 0.715797 0.326486
O O15 0.639576 0.944163 0.888246
O O16 0.500000 0.000000 0.854008
#
# Coordination Sequence:
#
# PCOD9393460 Si02
#       6
#     8   8   4   8   8   8
#     4  11  20  34  49  65  91 123 160 200 243 284
#     4   9  17  29  47  69  87 109 146 195 240 284
#     4  12  24  36  48  60  82 126 178 218 244 268
#     4   9  17  31  50  69  87 110 144 192 250 300
#     4  10  20  32  47  67  91 118 156 204 239 281
#     4  12  22  35  47  66  91 126 166 205 246 276
#
# _framework density 15.171379999999999
#
# number of rings (size 3 to 8) (size 9 to 14) (size 15 to 20)
#    0.000    1.636    1.818    4.364    0.000    7.273 
#    0.000    0.000    0.000    0.000    0.000    0.000 
#    0.000    0.000    0.000    0.000    0.000  190.909 
#
# Total GULP energy -245455.408511 kJ/mol
# GULP energy per Si atom -5578.532012 kJ/mol
# Density = 1.513685 g / cm^3
# Si number density = 15.171380 Si / 1000 Ang^3
#
#
#
# Elastic Constant Matrix: (Units=GPa)
#
#
# Indices 1 2 3 4 5 6 
#
# 1 67.1776 25.8275 31.4111 0.0000 0.0000 0.0000
# 2 25.8275 73.1682 14.9070 0.0000 0.0000 0.0000
# 3 31.4111 14.9070 71.3636 0.0000 0.0000 0.0000
# 4 0.0000 0.0000 0.0000 10.1216 0.0000 0.0000
# 5 0.0000 0.0000 0.0000 0.0000 5.2831 0.0000
# 6 0.0000 0.0000 0.0000 0.0000 0.0000 6.2357
#
#
#
# Elastic Compliance Matrix: (Units=1/GPa)
#
#
# Indices 1 2 3 4 5 6 
#
# 1 0.020810 -0.005723 -0.007964 0.000000 0.000000 0.000000
# 2 -0.005723 0.015849 -0.000792 0.000000 0.000000 0.000000
# 3 -0.007964 -0.000792 0.017684 0.000000 0.000000 0.000000
# 4 0.000000 0.000000 0.000000 0.098799 0.000000 0.000000
# 5 0.000000 0.000000 0.000000 0.000000 0.189283 0.000000
# 6 0.000000 0.000000 0.000000 0.000000 0.000000 0.160367
#
#
# Mechanical properties :
#
#
# Convention : Reuss Voigt Hill
#
# Bulk Modulus (GPa) = 39.39394 39.55561 39.47478
# Shear Modulus (GPa) = 9.25565 13.63233 11.44399
#
# Velocity S-wave (km/s) = 2.47264 3.00084 2.74946
# Velocity P-wave (km/s) = 5.84588 6.17542 6.01291
#
# Compressibility (1/GPa) = 0.02538462
#
# Stress axis : x y z
#
# Youngs Moduli (GPa) = 48.05341 63.09708 56.54964
#
# Poissons Ratio (x) = 0.36111 0.45037
# Poissons Ratio (y) = 0.27502 0.04476
# Poissons Ratio (z) = 0.38271 0.04994
#
# Static dielectric constant tensor:
#      x y z
#    x 1.504480 0.000000 0.000000 
#    y 0.000000 1.512040 0.000000 
#    z 0.000000 0.000000 1.499800 
# 
# From -- ./inp_files/23880.got.cif
#   From: 2010.05.17/outbox.cif.g08.bks.cpg/sg49_12_cif.got.tgz:23880.got - 2010.06.03 21:02:19.
