data_PCOD9393137
_publ_section_title
;
Structure prediction by ZEFSAII (Michael W. Deem and Ramdas Pophale) SiO2 
 PCOD9393137
Probable space group: P C C M
;
_chemical_formula_sum "Si O2"
_cell_formula_units_Z 58
_cell_length_a 18.651429
_cell_length_b 18.838441
_cell_length_c 9.093386
_cell_angle_alpha 90.000000
_cell_angle_beta 90.000000
_cell_angle_gamma 90.000000
_cell_volume 3195.087067
_symmetry_space_group_name_H-M "P C C M"
_symmetry_group_IT_number 49
_symmetry_cell_setting 'orthorhombic'
loop_
_space_group_symop_operation_xyz
x,y,z
-x,-y,z
x,-y,1/2-z
-x,y,1/2-z
-x,-y,-z
x,y,-z
-x,y,1/2+z
x,-y,1/2+z
loop_
_atom_site_type_symbol
_atom_site_label
_atom_site_fract_x
_atom_site_fract_y
_atom_site_fract_z
Si Si1 0.500000 0.500000 0.750000
Si Si2 0.335378 0.923624 0.324686
Si Si3 0.238704 0.574801 0.828951
Si Si4 0.598511 0.630391 0.660517
Si Si5 0.164298 0.074533 0.825248
Si Si6 0.358167 0.233618 0.824307
Si Si7 0.923395 0.801638 0.324513
Si Si8 0.196700 0.711643 0.325494
O O1 0.551265 0.558804 0.674887
O O2 0.347933 0.930822 0.500000
O O3 0.249542 0.911555 0.304338
O O4 0.370744 0.848371 0.273234
O O5 0.353609 0.000000 0.250000
O O6 0.234367 0.500000 0.750000
O O7 0.321077 0.600744 0.830347
O O8 0.200253 0.630629 0.723663
O O9 0.214739 0.574257 0.000000
O O10 0.584207 0.660723 0.500000
O O11 0.595407 0.699050 0.766956
O O12 0.112754 0.128392 0.743053
O O13 0.150656 0.000000 0.750000
O O14 0.151165 0.075329 0.000000
O O15 0.274676 0.253575 0.790671
O O16 0.364634 0.232503 0.000000
O O17 0.929547 0.804864 0.500000
O O18 0.866013 0.744138 0.271228
O O19 0.000000 0.789606 0.250000
O O20 0.184592 0.721688 0.500000
#
# Coordination Sequence:
#
# PCOD9393137 Si02
#       8
#     2   8   8   8   8   8   8   8
#     4  12  22  40  56  82 124 164 186 226 266 312
#     4   9  17  30  50  78 108 141 177 224 280 330
#     4  10  19  34  54  82 109 139 181 222 265 317
#     4  10  22  35  53  80 112 152 193 226 260 315
#     4  10  19  34  51  73 103 137 178 224 275 333
#     4   9  18  34  54  77 109 145 183 226 277 323
#     4  12  24  37  53  74 100 138 181 226 277 337
#     4  10  19  35  55  76 104 138 174 227 277 324
#
# _framework density 18.152871000000001
#
# number of rings (size 3 to 8) (size 9 to 14) (size 15 to 20)
#    0.000    1.931    2.069    2.690    0.000    3.586 
#    0.000    1.379    0.000    0.414    0.000    3.379 
#    0.000    3.310    0.000    0.000    0.000    0.000 
#
# Total GULP energy -322959.651834 kJ/mol
# GULP energy per Si atom -5568.269859 kJ/mol
# Density = 1.811155 g / cm^3
# Si number density = 18.152871 Si / 1000 Ang^3
#
#
#
# Elastic Constant Matrix: (Units=GPa)
#
#
# Indices 1 2 3 4 5 6 
#
# 1 4.2039 72.4794 -5.0005 0.0000 0.0000 0.0000
# 2 72.4794 55.2471 97.1241 0.0000 0.0000 0.0000
# 3 -5.0005 97.1241 54.5671 0.0000 0.0000 0.0000
# 4 0.0000 0.0000 0.0000 33.0385 0.0000 0.0000
# 5 0.0000 0.0000 0.0000 0.0000 -109.3086 0.0000
# 6 0.0000 0.0000 0.0000 0.0000 0.0000 -9.8556
#
#
#
# Elastic Compliance Matrix: (Units=1/GPa)
#
#
# Indices 1 2 3 4 5 6 
#
# 1 0.016653 0.011522 -0.018981 0.000000 0.000000 0.000000
# 2 0.011522 -0.000530 0.002000 0.000000 0.000000 0.000000
# 3 -0.018981 0.002000 0.013027 0.000000 0.000000 0.000000
# 4 0.000000 0.000000 0.000000 0.030268 0.000000 0.000000
# 5 0.000000 0.000000 0.000000 0.000000 -0.009148 0.000000
# 6 0.000000 0.000000 0.000000 0.000000 0.000000 -0.101466
#
#
# Mechanical properties :
#
#
# Convention : Reuss Voigt Hill
#
# Bulk Modulus (GPa) = 54.85408 49.24714 52.05061
# Shear Modulus (GPa) = -146.20004 -20.59746 -83.39875
#
# Velocity S-wave (km/s) = -8.98405 -3.37214 -6.78544
# Velocity P-wave (km/s) = 8.79398 3.46789 5.71436
#
# Compressibility (1/GPa) = 0.01823019
#
# Stress axis : x y z
#
# Youngs Moduli (GPa) = 60.04930 -1885.71475 76.76168
#
# Poissons Ratio (x) = 21.72640 1.45703
# Poissons Ratio (y) = -0.69186 -0.15350
# Poissons Ratio (z) = 1.13981 3.77090
#
# Static dielectric constant tensor:
#      x y z
#    x 1.629430 0.000000 0.000000 
#    y 0.000000 1.616740 0.000000 
#    z 0.000000 0.000000 1.619050 
# 
# From -- ./inp_files/5124.got.cif
#   From: 2010.05.17/outbox.cif.g08.bks.cpg/sg49_3_cif.got.tgz:5124.got - 2010.06.03 21:02:19.
