data_PCOD9393062
_publ_section_title
;
Structure prediction by ZEFSAII (Michael W. Deem and Ramdas Pophale) SiO2 
 PCOD9393062
Probable space group: P C C M
;
_chemical_formula_sum "Si O2"
_cell_formula_units_Z 64
_cell_length_a 17.776209
_cell_length_b 21.440488
_cell_length_c 8.575628
_cell_angle_alpha 90.000000
_cell_angle_beta 90.000000
_cell_angle_gamma 90.000000
_cell_volume 3268.434209
_symmetry_space_group_name_H-M "P C C M"
_symmetry_group_IT_number 49
_symmetry_cell_setting 'orthorhombic'
loop_
_space_group_symop_operation_xyz
x,y,z
-x,-y,z
x,-y,1/2-z
-x,y,1/2-z
-x,-y,-z
x,y,-z
-x,y,1/2+z
x,-y,1/2+z
loop_
_atom_site_type_symbol
_atom_site_label
_atom_site_fract_x
_atom_site_fract_y
_atom_site_fract_z
Si Si1 0.208759 0.302957 0.814054
Si Si2 0.420795 0.410092 0.680804
Si Si3 0.252121 0.434863 0.687046
Si Si4 0.617041 0.282652 0.681399
Si Si5 0.919888 0.205642 0.688983
Si Si6 0.426488 0.846137 0.815826
Si Si7 0.877645 0.932514 0.184765
Si Si8 0.288707 0.063839 0.684070
O O1 0.209359 0.372226 0.740667
O O2 0.293476 0.278158 0.787307
O O3 0.147143 0.252348 0.759637
O O4 0.199113 0.310097 0.000000
O O5 0.500000 0.431715 0.750000
O O6 0.421232 0.425978 0.500000
O O7 0.339413 0.430920 0.747766
O O8 0.416266 0.335920 0.708816
O O9 0.220248 0.500000 0.750000
O O10 0.254161 0.435408 0.500000
O O11 0.606368 0.300462 0.500000
O O12 0.580622 0.217237 0.719543
O O13 0.918668 0.204488 0.500000
O O14 0.910758 0.133445 0.743856
O O15 0.000000 0.228821 0.750000
O O16 0.500000 0.880531 0.750000
O O17 0.349411 0.882979 0.791970
O O18 0.434486 0.834359 0.000000
O O19 0.789311 0.927038 0.225961
O O20 0.903632 0.000000 0.250000
O O21 0.888444 0.934914 0.000000
O O22 0.272007 0.058197 0.500000
O O23 0.322134 0.000000 0.750000
#
# Coordination Sequence:
#
# PCOD9393062 Si02
#       8
#     8   8   8   8   8   8   8   8
#     4   9  19  37  59  82 109 143 182 224 271 324
#     4  10  20  33  49  73 107 144 182 223 270 321
#     4  10  21  36  56  82 110 144 186 231 277 327
#     4  10  19  33  54  75  99 134 175 220 267 316
#     4  10  22  38  58  86 118 150 182 219 266 321
#     4  11  23  35  48  69  97 130 171 220 273 325
#     4  10  20  36  58  84 114 148 186 223 264 317
#     4  10  21  36  54  74  96 128 171 218 267 319
#
# _framework density 19.581242
#
# number of rings (size 3 to 8) (size 9 to 14) (size 15 to 20)
#    0.000    2.000    0.000    4.125    0.000    7.250 
#    0.000    3.750    0.000    0.375    0.000    2.625 
#    0.000    0.000    0.000    0.000    0.000    0.000 
#
# Total GULP energy -357178.831807 kJ/mol
# GULP energy per Si atom -5580.919247 kJ/mol
# Density = 1.953667 g / cm^3
# Si number density = 19.581242 Si / 1000 Ang^3
#
#
#
# Elastic Constant Matrix: (Units=GPa)
#
#
# Indices 1 2 3 4 5 6 
#
# 1 79.5367 45.4757 16.9539 0.0000 0.0000 0.0000
# 2 45.4757 105.3327 19.9881 0.0000 0.0000 0.0000
# 3 16.9539 19.9881 17.8920 0.0000 0.0000 0.0000
# 4 0.0000 0.0000 0.0000 19.0601 0.0000 0.0000
# 5 0.0000 0.0000 0.0000 0.0000 18.5341 0.0000
# 6 0.0000 0.0000 0.0000 0.0000 0.0000 3.7056
#
#
#
# Elastic Compliance Matrix: (Units=1/GPa)
#
#
# Indices 1 2 3 4 5 6 
#
# 1 0.018186 -0.005814 -0.010737 0.000000 0.000000 0.000000
# 2 -0.005814 0.013906 -0.010027 0.000000 0.000000 0.000000
# 3 -0.010737 -0.010027 0.077266 0.000000 0.000000 0.000000
# 4 0.000000 0.000000 0.000000 0.052465 0.000000 0.000000
# 5 0.000000 0.000000 0.000000 0.000000 0.053955 0.000000
# 6 0.000000 0.000000 0.000000 0.000000 0.000000 0.269862
#
#
# Mechanical properties :
#
#
# Convention : Reuss Voigt Hill
#
# Bulk Modulus (GPa) = 17.79257 40.84408 29.31832
# Shear Modulus (GPa) = 8.96813 16.28289 12.62551
#
# Velocity S-wave (km/s) = 2.14241 2.88680 2.54200
# Velocity P-wave (km/s) = 3.90207 5.65823 4.86013
#
# Compressibility (1/GPa) = 0.05620325
#
# Stress axis : x y z
#
# Youngs Moduli (GPa) = 54.98844 71.90922 12.94223
#
# Poissons Ratio (x) = 0.41807 0.13896
# Poissons Ratio (y) = 0.31969 0.12977
# Poissons Ratio (z) = 0.59042 0.72100
#
# Static dielectric constant tensor:
#      x y z
#    x 1.698070 0.000000 0.000000 
#    y 0.000000 1.720670 0.000000 
#    z 0.000000 0.000000 1.677150 
# 
# From -- ./inp_files/5315.got.cif
#   From: 2010.05.17/outbox.cif.g08.bks.cpg/sg49_3_cif.got.tgz:5315.got - 2010.06.03 21:02:19.
