data_PCOD9393172
_publ_section_title
;
Structure prediction by ZEFSAII (Michael W. Deem and Ramdas Pophale) SiO2 
 PCOD9393172
Probable space group: P C C M
;
_chemical_formula_sum "Si O2"
_cell_formula_units_Z 64
_cell_length_a 12.511479
_cell_length_b 16.201991
_cell_length_c 17.477043
_cell_angle_alpha 90.000000
_cell_angle_beta 90.000000
_cell_angle_gamma 90.000000
_cell_volume 3542.786594
_symmetry_space_group_name_H-M "P C C M"
_symmetry_group_IT_number 49
_symmetry_cell_setting 'orthorhombic'
loop_
_space_group_symop_operation_xyz
x,y,z
-x,-y,z
x,-y,1/2-z
-x,y,1/2-z
-x,-y,-z
x,y,-z
-x,y,1/2+z
x,-y,1/2+z
loop_
_atom_site_type_symbol
_atom_site_label
_atom_site_fract_x
_atom_site_fract_y
_atom_site_fract_z
Si Si1 0.722923 0.334789 0.855587
Si Si2 0.821624 0.162021 0.860803
Si Si3 0.772082 0.846167 0.184241
Si Si4 0.876723 0.010660 0.412514
Si Si5 0.935779 0.580876 0.409654
Si Si6 0.500398 0.595369 0.089435
Si Si7 0.970976 0.266481 0.663453
Si Si8 0.609383 0.283067 0.296082
O O1 0.754511 0.242849 0.884982
O O2 0.824742 0.394053 0.868355
O O3 0.618699 0.369485 0.897136
O O4 0.691226 0.321197 0.766659
O O5 0.786248 0.138407 0.774813
O O6 0.942232 0.196467 0.856109
O O7 0.822954 0.079487 0.909409
O O8 0.807868 0.926099 0.137617
O O9 0.856756 0.774981 0.162625
O O10 0.658315 0.802224 0.172745
O O11 0.883279 0.040537 0.500000
O O12 0.000000 0.000000 0.384119
O O13 0.913145 0.572432 0.500000
O O14 0.000000 0.500000 0.383335
O O15 0.012462 0.658410 0.393407
O O16 0.500000 0.500000 0.115113
O O17 0.580235 0.650939 0.139211
O O18 0.527811 0.597996 0.000000
O O19 0.000000 0.294296 0.750000
O O20 0.500000 0.266798 0.250000
#
# Coordination Sequence:
#
# PCOD9393172 Si02
#       8
#     8   8   8   8   8   8   8   8
#     4   9  19  37  59  81 106 149 193 231 279 338
#     4   9  18  34  55  76 105 143 188 223 263 335
#     4  10  19  34  55  78 109 146 181 229 289 327
#     4  11  22  32  49  84 119 148 186 227 272 342
#     4  10  21  35  52  79 115 149 182 222 274 343
#     4  10  21  37  59  86 114 145 188 239 292 344
#     4   9  18  32  50  75 104 141 183 221 266 328
#     4   9  20  38  60  85 110 143 198 248 285 329
#
# _framework density 18.064876000000002
#
# number of rings (size 3 to 8) (size 9 to 14) (size 15 to 20)
#    0.000    2.375    1.250    1.500    0.000    7.500 
#    0.000    5.000    0.000   12.750    0.000    8.750 
#    0.000    0.500    0.000    0.000    0.000    0.000 
#
# Total GULP energy -356837.701272 kJ/mol
# GULP energy per Si atom -5575.589082 kJ/mol
# Density = 1.802376 g / cm^3
# Si number density = 18.064876 Si / 1000 Ang^3
#
#
#
# Elastic Constant Matrix: (Units=GPa)
#
#
# Indices 1 2 3 4 5 6 
#
# 1 70.0087 52.1401 27.1887 0.0000 0.0000 0.0000
# 2 52.1401 111.2346 45.2872 0.0000 0.0000 0.0000
# 3 27.1887 45.2872 42.0296 0.0000 0.0000 0.0000
# 4 0.0000 0.0000 0.0000 28.7027 0.0000 0.0000
# 5 0.0000 0.0000 0.0000 0.0000 14.6106 0.0000
# 6 0.0000 0.0000 0.0000 0.0000 0.0000 19.2089
#
#
#
# Elastic Compliance Matrix: (Units=1/GPa)
#
#
# Indices 1 2 3 4 5 6 
#
# 1 0.022695 -0.008303 -0.005734 0.000000 0.000000 0.000000
# 2 -0.008303 0.019054 -0.015159 0.000000 0.000000 0.000000
# 3 -0.005734 -0.015159 0.043836 0.000000 0.000000 0.000000
# 4 0.000000 0.000000 0.000000 0.034840 0.000000 0.000000
# 5 0.000000 0.000000 0.000000 0.000000 0.068444 0.000000
# 6 0.000000 0.000000 0.000000 0.000000 0.000000 0.052059
#
#
# Mechanical properties :
#
#
# Convention : Reuss Voigt Hill
#
# Bulk Modulus (GPa) = 36.77630 52.50051 44.63841
# Shear Modulus (GPa) = 16.21344 19.08158 17.64751
#
# Velocity S-wave (km/s) = 2.99910 3.25357 3.12892
# Velocity P-wave (km/s) = 5.69165 6.57568 6.14957
#
# Compressibility (1/GPa) = 0.02719142
#
# Stress axis : x y z
#
# Youngs Moduli (GPa) = 44.06248 52.48228 22.81205
#
# Poissons Ratio (x) = 0.43579 0.13081
# Poissons Ratio (y) = 0.36587 0.34582
# Poissons Ratio (z) = 0.25266 0.79560
#
# Static dielectric constant tensor:
#      x y z
#    x 1.623040 0.000000 0.000000 
#    y 0.000000 1.616860 0.000000 
#    z 0.000000 0.000000 1.632860 
# 
# From -- ./inp_files/17262.got.cif
#   From: 2010.05.17/outbox.cif.g08.bks.cpg/sg49_9_cif.got.tgz:17262.got - 2010.06.03 21:02:19.
