data_PCOD9393625
_publ_section_title
;
Structure prediction by ZEFSAII (Michael W. Deem and Ramdas Pophale) SiO2 
 PCOD9393625
Probable space group: P C C M
;
_chemical_formula_sum "Si O2"
_cell_formula_units_Z 40
_cell_length_a 28.059641
_cell_length_b 7.964626
_cell_length_c 8.649693
_cell_angle_alpha 90.000000
_cell_angle_beta 90.000000
_cell_angle_gamma 90.000000
_cell_volume 1933.072715
_symmetry_space_group_name_H-M "P C C M"
_symmetry_group_IT_number 49
_symmetry_cell_setting 'orthorhombic'
loop_
_space_group_symop_operation_xyz
x,y,z
-x,-y,z
x,-y,1/2-z
-x,y,1/2-z
-x,-y,-z
x,y,-z
-x,y,1/2+z
x,-y,1/2+z
loop_
_atom_site_type_symbol
_atom_site_label
_atom_site_fract_x
_atom_site_fract_y
_atom_site_fract_z
Si Si1 0.847793 0.691567 0.685422
Si Si2 0.548484 0.808501 0.314806
Si Si3 0.751403 0.686887 0.816182
Si Si4 0.048448 0.308785 0.314942
Si Si5 0.651676 0.187048 0.185542
O O1 0.849627 0.500000 0.750000
O O2 0.843759 0.684768 0.500000
O O3 0.799745 0.773087 0.752956
O O4 0.899709 0.766721 0.726584
O O5 0.500000 0.728471 0.250000
O O6 0.545476 0.816434 0.500000
O O7 0.600236 0.731229 0.273358
O O8 0.548990 0.000000 0.250000
O O9 0.754201 0.500000 0.750000
O O10 0.700380 0.747923 0.757642
O O11 0.752667 0.688894 0.000000
O O12 0.049167 0.500000 0.250000
O O13 0.045309 0.316375 0.500000
O O14 0.000000 0.228719 0.250000
O O15 0.647897 0.000000 0.250000
O O16 0.655882 0.189306 0.000000
#
# Coordination Sequence:
#
# PCOD9393625 Si02
#       5
#     8   8   8   8   8
#     4   9  16  26  39  57  82 114 151 190 230 277
#     4   9  16  26  44  68  95 123 152 188 230 275
#     4  11  21  33  50  70  94 128 164 200 240 285
#     4   9  15  21  32  50  75 107 142 181 226 272
#     4  10  20  34  51  74 101 128 159 197 238 281
#
# _framework density 20.692443999999998
#
# number of rings (size 3 to 8) (size 9 to 14) (size 15 to 20)
#    0.000    2.400    0.000    6.600    0.000    4.800 
#    0.000    0.000    0.000    0.600    0.000    4.200 
#    0.000    0.800    0.000    8.400    0.000    7.600 
#
# Total GULP energy -222786.388600 kJ/mol
# GULP energy per Si atom -5569.659715 kJ/mol
# Density = 2.064535 g / cm^3
# Si number density = 20.692444 Si / 1000 Ang^3
#
#
#
# Elastic Constant Matrix: (Units=GPa)
#
#
# Indices 1 2 3 4 5 6 
#
# 1 301.3675 22.6315 92.4604 0.0000 0.0000 0.0000
# 2 22.6315 10.0443 1.0873 0.0000 0.0000 0.0000
# 3 92.4604 1.0873 113.2714 0.0000 0.0000 0.0000
# 4 0.0000 0.0000 0.0000 9.4600 0.0000 0.0000
# 5 0.0000 0.0000 0.0000 0.0000 46.0550 0.0000
# 6 0.0000 0.0000 0.0000 0.0000 0.0000 11.5101
#
#
#
# Elastic Compliance Matrix: (Units=1/GPa)
#
#
# Indices 1 2 3 4 5 6 
#
# 1 0.005594 -0.012122 -0.004450 0.000000 0.000000 0.000000
# 2 -0.012122 0.125930 0.008686 0.000000 0.000000 0.000000
# 3 -0.004450 0.008686 0.012377 0.000000 0.000000 0.000000
# 4 0.000000 0.000000 0.000000 0.105709 0.000000 0.000000
# 5 0.000000 0.000000 0.000000 0.000000 0.021713 0.000000
# 6 0.000000 0.000000 0.000000 0.000000 0.000000 0.086880
#
#
# Mechanical properties :
#
#
# Convention : Reuss Voigt Hill
#
# Bulk Modulus (GPa) = 7.80457 73.00465 40.40461
# Shear Modulus (GPa) = 11.99949 33.97194 22.98571
#
# Velocity S-wave (km/s) = 2.41072 4.05625 3.33652
# Velocity P-wave (km/s) = 3.39538 7.56935 5.86616
#
# Compressibility (1/GPa) = 0.12813007
#
# Stress axis : x y z
#
# Youngs Moduli (GPa) = 178.77427 7.94089 80.79471
#
# Poissons Ratio (x) = 0.09626 0.35950
# Poissons Ratio (y) = 2.16705 -0.70176
# Poissons Ratio (z) = 0.79547 -0.06897
#
# Static dielectric constant tensor:
#      x y z
#    x 1.909450 0.000000 0.000000 
#    y 0.000000 1.771500 0.000000 
#    z 0.000000 0.000000 1.685220 
# 
# From -- ./inp_files/2958.got.cif
#   From: 2010.05.17/outbox.cif.g08.bks.cpg/sg49_2_cif.got.tgz:2958.got - 2010.06.03 21:02:19.
