data_PCOD9393539
_publ_section_title
;
Structure prediction by ZEFSAII (Michael W. Deem and Ramdas Pophale) SiO2 
 PCOD9393539
Probable space group: P C C M
;
_chemical_formula_sum "Si O2"
_cell_formula_units_Z 48
_cell_length_a 32.276973
_cell_length_b 9.958617
_cell_length_c 8.752459
_cell_angle_alpha 90.000000
_cell_angle_beta 90.000000
_cell_angle_gamma 90.000000
_cell_volume 2813.338011
_symmetry_space_group_name_H-M "P C C M"
_symmetry_group_IT_number 49
_symmetry_cell_setting 'orthorhombic'
loop_
_space_group_symop_operation_xyz
x,y,z
-x,-y,z
x,-y,1/2-z
-x,y,1/2-z
-x,-y,-z
x,y,-z
-x,y,1/2+z
x,-y,1/2+z
loop_
_atom_site_type_symbol
_atom_site_label
_atom_site_fract_x
_atom_site_fract_y
_atom_site_fract_z
Si Si1 0.133604 0.150466 0.683213
Si Si2 0.958458 0.849067 0.682393
Si Si3 0.295868 0.647161 0.315856
Si Si4 0.366828 0.149709 0.815764
Si Si5 0.200925 0.648151 0.316647
Si Si6 0.541661 0.848758 0.182750
O O1 0.136923 0.143255 0.500000
O O2 0.087237 0.205724 0.720168
O O3 0.168682 0.245683 0.750619
O O4 0.137143 0.000000 0.750000
O O5 0.962459 0.856008 0.500000
O O6 0.000000 0.782984 0.750000
O O7 0.957515 0.000000 0.750000
O O8 0.304417 0.500000 0.250000
O O9 0.297770 0.640407 0.500000
O O10 0.329836 0.754399 0.263050
O O11 0.248522 0.683885 0.274445
O O12 0.412762 0.206381 0.777082
O O13 0.362788 0.000000 0.750000
O O14 0.365160 0.140069 0.000000
O O15 0.192789 0.500000 0.250000
O O16 0.198009 0.644283 0.500000
O O17 0.500000 0.783345 0.250000
O O18 0.542649 0.000000 0.250000
O O19 0.537920 0.854913 0.000000
#
# Coordination Sequence:
#
# PCOD9393539 Si02
#       6
#     8   8   8   8   8   8
#     4  10  20  33  50  75 104 132 164 202 244 287
#     4   9  16  26  43  67  96 128 160 195 235 281
#     4   9  19  35  52  71  94 123 160 197 236 285
#     4   9  18  31  47  70  98 124 154 194 237 279
#     4  10  20  35  54  73  96 128 164 202 244 293
#     4   9  15  24  40  62  90 121 151 186 227 273
#
# _framework density 17.061582000000001
#
# number of rings (size 3 to 8) (size 9 to 14) (size 15 to 20)
#    0.000    2.667    0.000    3.000    0.000    4.667 
#    0.000    1.667    0.000    1.000    0.000    7.000 
#    0.000    0.000    0.000    0.000    0.000    0.000 
#
# Total GULP energy -267336.489900 kJ/mol
# GULP energy per Si atom -5569.510206 kJ/mol
# Density = 1.702275 g / cm^3
# Si number density = 17.061582 Si / 1000 Ang^3
#
#
#
# Elastic Constant Matrix: (Units=GPa)
#
#
# Indices 1 2 3 4 5 6 
#
# 1 194.5119 88.6158 56.6943 0.0000 0.0000 0.0000
# 2 88.6158 58.7048 26.2618 0.0000 0.0000 0.0000
# 3 56.6943 26.2618 48.3085 0.0000 0.0000 0.0000
# 4 0.0000 0.0000 0.0000 20.9828 0.0000 0.0000
# 5 0.0000 0.0000 0.0000 0.0000 10.6009 0.0000
# 6 0.0000 0.0000 0.0000 0.0000 0.0000 -7.5929
#
#
#
# Elastic Compliance Matrix: (Units=1/GPa)
#
#
# Indices 1 2 3 4 5 6 
#
# 1 0.018942 -0.024641 -0.008835 0.000000 0.000000 0.000000
# 2 -0.024641 0.054563 -0.000743 0.000000 0.000000 0.000000
# 3 -0.008835 -0.000743 0.031473 0.000000 0.000000 0.000000
# 4 0.000000 0.000000 0.000000 0.047658 0.000000 0.000000
# 5 0.000000 0.000000 0.000000 0.000000 0.094332 0.000000
# 6 0.000000 0.000000 0.000000 0.000000 0.000000 -0.131701
#
#
# Mechanical properties :
#
#
# Convention : Reuss Voigt Hill
#
# Bulk Modulus (GPa) = 27.36757 71.62988 49.49872
# Shear Modulus (GPa) = 25.52513 13.46170 19.49342
#
# Velocity S-wave (km/s) = 3.87209 2.81197 3.38380
# Velocity P-wave (km/s) = 6.00550 7.25377 6.65895
#
# Compressibility (1/GPa) = 0.03653960
#
# Stress axis : x y z
#
# Youngs Moduli (GPa) = 52.79209 18.32732 31.77362
#
# Poissons Ratio (x) = 0.45161 0.28071
# Poissons Ratio (y) = 1.30087 0.02362
# Poissons Ratio (z) = 0.46640 0.01362
#
# Static dielectric constant tensor:
#      x y z
#    x 1.643350 0.000000 0.000000 
#    y 0.000000 1.527240 0.000000 
#    z 0.000000 0.000000 1.575620 
# 
# From -- ./inp_files/6946.got.cif
#   From: 2010.05.17/outbox.cif.g08.bks.cpg/sg49_4_cif.got.tgz:6946.got - 2010.06.03 21:02:19.
