data_PCOD9393010
_publ_section_title
;
Structure prediction by ZEFSAII (Michael W. Deem and Ramdas Pophale) SiO2 
 PCOD9393010
Probable space group: P C C M
;
_chemical_formula_sum "Si O2"
_cell_formula_units_Z 60
_cell_length_a 20.513201
_cell_length_b 18.923250
_cell_length_c 9.110647
_cell_angle_alpha 90.000000
_cell_angle_beta 90.000000
_cell_angle_gamma 90.000000
_cell_volume 3536.538435
_symmetry_space_group_name_H-M "P C C M"
_symmetry_group_IT_number 49
_symmetry_cell_setting 'orthorhombic'
loop_
_space_group_symop_operation_xyz
x,y,z
-x,-y,z
x,-y,1/2-z
-x,y,1/2-z
-x,-y,-z
x,y,-z
-x,y,1/2+z
x,-y,1/2+z
loop_
_atom_site_type_symbol
_atom_site_label
_atom_site_fract_x
_atom_site_fract_y
_atom_site_fract_z
Si Si1 0.257464 0.773615 0.671818
Si Si2 0.092825 0.068982 0.332916
Si Si3 0.434767 0.422520 0.823236
Si Si4 0.000000 0.807301 0.250000
Si Si5 0.832291 0.574505 0.325886
Si Si6 0.769273 0.071563 0.675268
Si Si7 0.309183 0.641107 0.173876
Si Si8 0.883628 0.293636 0.664735
O O1 0.273561 0.759397 0.500000
O O2 0.268766 0.855834 0.703232
O O3 0.293933 0.721268 0.780422
O O4 0.180516 0.754780 0.687756
O O5 0.107939 0.049708 0.500000
O O6 0.159243 0.083869 0.245081
O O7 0.045650 0.136499 0.334855
O O8 0.066162 0.000000 0.250000
O O9 0.430201 0.500000 0.750000
O O10 0.500000 0.390029 0.750000
O O11 0.369483 0.384266 0.770710
O O12 0.439976 0.426388 0.000000
O O13 0.052499 0.754879 0.322830
O O14 0.846982 0.500000 0.250000
O O15 0.837526 0.567272 0.500000
O O16 0.757348 0.597732 0.291357
O O17 0.877238 0.639618 0.272196
O O18 0.774222 0.063208 0.500000
O O19 0.743712 0.000000 0.750000
O O20 0.322167 0.633526 0.000000
O O21 0.879332 0.322529 0.500000
#
# Coordination Sequence:
#
# PCOD9393010 Si02
#       8
#     8   8   8   4   8   8   8   8
#     4   9  18  34  52  71  99 133 169 211 256 304
#     4  11  23  35  51  71  96 127 163 202 247 305
#     4  11  21  34  52  77 113 152 186 217 252 293
#     4  12  23  36  53  74  94 124 162 208 255 316
#     4  10  21  37  57  79 100 125 162 207 254 303
#     4  10  19  33  51  72 100 132 167 206 255 307
#     4  10  20  33  53  81 108 137 175 213 251 298
#     4  10  21  37  54  72  96 125 158 203 258 310
#
# _framework density 16.965741000000001
#
# number of rings (size 3 to 8) (size 9 to 14) (size 15 to 20)
#    0.000    1.733    1.333    5.000    0.000    6.933 
#    0.000    0.333    0.000    1.600    0.000    0.000 
#    0.000    0.533    0.000    5.600    0.000    3.067 
#
# Total GULP energy -334499.459708 kJ/mol
# GULP energy per Si atom -5574.990995 kJ/mol
# Density = 1.692713 g / cm^3
# Si number density = 16.965741 Si / 1000 Ang^3
#
#
#
# Elastic Constant Matrix: (Units=GPa)
#
#
# Indices 1 2 3 4 5 6 
#
# 1 46.9672 18.1160 25.3833 0.0000 0.0000 0.0000
# 2 18.1160 107.1661 47.9008 0.0000 0.0000 0.0000
# 3 25.3833 47.9008 98.1073 0.0000 0.0000 0.0000
# 4 0.0000 0.0000 0.0000 23.1791 0.0000 0.0000
# 5 0.0000 0.0000 0.0000 0.0000 16.7385 0.0000
# 6 0.0000 0.0000 0.0000 0.0000 0.0000 19.4635
#
#
#
# Elastic Compliance Matrix: (Units=1/GPa)
#
#
# Indices 1 2 3 4 5 6 
#
# 1 0.024994 -0.001707 -0.005633 0.000000 0.000000 0.000000
# 2 -0.001707 0.012053 -0.005443 0.000000 0.000000 0.000000
# 3 -0.005633 -0.005443 0.014308 0.000000 0.000000 0.000000
# 4 0.000000 0.000000 0.000000 0.043142 0.000000 0.000000
# 5 0.000000 0.000000 0.000000 0.000000 0.059743 0.000000
# 6 0.000000 0.000000 0.000000 0.000000 0.000000 0.051378
#
#
# Mechanical properties :
#
#
# Convention : Reuss Voigt Hill
#
# Bulk Modulus (GPa) = 38.77759 48.33789 43.55774
# Shear Modulus (GPa) = 20.85231 22.59892 21.72562
#
# Velocity S-wave (km/s) = 3.50963 3.65366 3.58237
# Velocity P-wave (km/s) = 6.27131 6.80825 6.54529
#
# Compressibility (1/GPa) = 0.02578809
#
# Stress axis : x y z
#
# Youngs Moduli (GPa) = 40.00892 82.96798 69.89102
#
# Poissons Ratio (x) = 0.14165 0.39371
# Poissons Ratio (y) = 0.06831 0.38042
# Poissons Ratio (z) = 0.22538 0.45160
#
# Static dielectric constant tensor:
#      x y z
#    x 1.579350 0.000000 0.000000 
#    y 0.000000 1.587720 0.000000 
#    z 0.000000 0.000000 1.576620 
# 
# From -- ./inp_files/6008.got.cif
#   From: 2010.05.17/outbox.cif.g08.bks.cpg/sg49_4_cif.got.tgz:6008.got - 2010.06.03 21:02:19.
