data_PCOD9393825
_publ_section_title
;
Structure prediction by ZEFSAII (Michael W. Deem and Ramdas Pophale) SiO2 
 PCOD9393825
Probable space group: P C C M
;
_chemical_formula_sum "Si O2"
_cell_formula_units_Z 48
_cell_length_a 9.610430
_cell_length_b 31.591544
_cell_length_c 8.726354
_cell_angle_alpha 90.000000
_cell_angle_beta 90.000000
_cell_angle_gamma 90.000000
_cell_volume 2649.393697
_symmetry_space_group_name_H-M "P C C M"
_symmetry_group_IT_number 49
_symmetry_cell_setting 'orthorhombic'
loop_
_space_group_symop_operation_xyz
x,y,z
-x,-y,z
x,-y,1/2-z
-x,y,1/2-z
-x,-y,-z
x,y,-z
-x,y,1/2+z
x,-y,1/2+z
loop_
_atom_site_type_symbol
_atom_site_label
_atom_site_fract_x
_atom_site_fract_y
_atom_site_fract_z
Si Si1 0.845715 0.284658 0.183109
Si Si2 0.843569 0.042429 0.817393
Si Si3 0.344855 0.211723 0.183093
Si Si4 0.655196 0.455808 0.682963
Si Si5 0.843114 0.863111 0.684166
Si Si6 0.846446 0.616856 0.683000
O O1 0.735802 0.253401 0.259063
O O2 0.810541 0.333911 0.213282
O O3 0.000000 0.276565 0.250000
O O4 0.848708 0.278123 0.000000
O O5 0.787916 0.089277 0.780811
O O6 0.000000 0.043337 0.750000
O O7 0.774690 0.000000 0.750000
O O8 0.850893 0.038233 0.000000
O O9 0.500000 0.210563 0.250000
O O10 0.255699 0.172071 0.244387
O O11 0.349618 0.211079 0.000000
O O12 0.713399 0.500000 0.750000
O O13 0.500000 0.451727 0.750000
O O14 0.650048 0.458208 0.500000
O O15 0.743615 0.415999 0.738363
O O16 0.849423 0.858510 0.500000
O O17 0.000000 0.859040 0.750000
O O18 0.846444 0.610648 0.500000
O O19 0.000000 0.610003 0.750000
#
# Coordination Sequence:
#
# PCOD9393825 Si02
#       6
#     8   8   8   8   8   8
#     4  10  21  39  62  86 114 146 182 225 273 328
#     4   9  16  26  45  73 106 139 174 219 266 315
#     4  12  25  40  58  80 109 144 183 228 276 327
#     4  11  22  38  59  83 114 151 191 233 277 327
#     4  10  20  35  55  81 111 145 184 224 271 324
#     4  10  21  38  60  87 116 147 184 227 276 327
#
# _framework density 18.117353999999999
#
# number of rings (size 3 to 8) (size 9 to 14) (size 15 to 20)
#    0.000    1.667    0.000    6.500    0.000    5.000 
#    0.000    1.667    0.000    0.500    0.000    3.500 
#    0.000    0.000    0.000    0.000    0.000    0.000 
#
# Total GULP energy -268074.477798 kJ/mol
# GULP energy per Si atom -5584.884954 kJ/mol
# Density = 1.807612 g / cm^3
# Si number density = 18.117354 Si / 1000 Ang^3
#
#
#
# Elastic Constant Matrix: (Units=GPa)
#
#
# Indices 1 2 3 4 5 6 
#
# 1 93.9329 95.9834 62.9656 0.0000 0.0000 0.0000
# 2 95.9834 156.9217 96.9942 0.0000 0.0000 0.0000
# 3 62.9656 96.9942 146.5828 0.0000 0.0000 0.0000
# 4 0.0000 0.0000 0.0000 33.9450 0.0000 0.0000
# 5 0.0000 0.0000 0.0000 0.0000 30.7626 0.0000
# 6 0.0000 0.0000 0.0000 0.0000 0.0000 -16.5273
#
#
#
# Elastic Compliance Matrix: (Units=1/GPa)
#
#
# Indices 1 2 3 4 5 6 
#
# 1 0.028514 -0.016701 -0.001197 0.000000 0.000000 0.000000
# 2 -0.016701 0.020565 -0.006434 0.000000 0.000000 0.000000
# 3 -0.001197 -0.006434 0.011594 0.000000 0.000000 0.000000
# 4 0.000000 0.000000 0.000000 0.029459 0.000000 0.000000
# 5 0.000000 0.000000 0.000000 0.000000 0.032507 0.000000
# 6 0.000000 0.000000 0.000000 0.000000 0.000000 -0.060506
#
#
# Mechanical properties :
#
#
# Convention : Reuss Voigt Hill
#
# Bulk Modulus (GPa) = 83.27535 101.03597 92.15566
# Shear Modulus (GPa) = 43.55428 19.06900 31.31164
#
# Velocity S-wave (km/s) = 4.90839 3.24779 4.16175
# Velocity P-wave (km/s) = 8.84235 8.36377 8.60639
#
# Compressibility (1/GPa) = 0.01200836
#
# Stress axis : x y z
#
# Youngs Moduli (GPa) = 35.07054 48.62720 86.25440
#
# Poissons Ratio (x) = 0.81212 0.10328
# Poissons Ratio (y) = 0.58571 0.55493
# Poissons Ratio (z) = 0.04199 0.31285
#
# Static dielectric constant tensor:
#      x y z
#    x 1.563010 0.000000 0.000000 
#    y 0.000000 1.651120 0.000000 
#    z 0.000000 0.000000 1.592790 
# 
# From -- ./inp_files/2047.got.cif
#   From: 2010.05.17/outbox.cif.g08.bks.cpg/sg49_2_cif.got.tgz:2047.got - 2010.06.03 21:02:19.
