data_PCOD9393365
_publ_section_title
;
Structure prediction by ZEFSAII (Michael W. Deem and Ramdas Pophale) SiO2 
 PCOD9393365
Probable space group: P C C M
;
_chemical_formula_sum "Si O2"
_cell_formula_units_Z 40
_cell_length_a 15.794660
_cell_length_b 14.793199
_cell_length_c 8.743802
_cell_angle_alpha 90.000000
_cell_angle_beta 90.000000
_cell_angle_gamma 90.000000
_cell_volume 2043.020365
_symmetry_space_group_name_H-M "P C C M"
_symmetry_group_IT_number 49
_symmetry_cell_setting 'orthorhombic'
loop_
_space_group_symop_operation_xyz
x,y,z
-x,-y,z
x,-y,1/2-z
-x,y,1/2-z
-x,-y,-z
x,y,-z
-x,y,1/2+z
x,-y,1/2+z
loop_
_atom_site_type_symbol
_atom_site_label
_atom_site_fract_x
_atom_site_fract_y
_atom_site_fract_z
Si Si1 0.651814 0.405027 0.317722
Si Si2 0.411261 0.211605 0.184344
Si Si3 0.756350 0.899475 0.184169
Si Si4 0.146085 0.596250 0.317308
Si Si5 0.911014 0.784015 0.682426
O O1 0.621848 0.500000 0.250000
O O2 0.642102 0.409002 0.500000
O O3 0.606561 0.314382 0.260791
O O4 0.752614 0.396037 0.286836
O O5 0.500000 0.178854 0.250000
O O6 0.331377 0.150095 0.227245
O O7 0.415168 0.213245 0.000000
O O8 0.833946 0.842040 0.250585
O O9 0.758083 0.000000 0.250000
O O10 0.762084 0.900553 0.000000
O O11 0.118069 0.500000 0.250000
O O12 0.133421 0.599432 0.500000
O O13 0.102399 0.681031 0.238008
O O14 0.911675 0.788166 0.500000
O O15 0.000000 0.817125 0.750000
#
# Coordination Sequence:
#
# PCOD9393365 Si02
#       5
#     8   8   8   8   8
#     4   9  18  34  56  85 122 165 205 251 302 357
#     4  10  22  40  62  90 127 165 206 256 309 366
#     4  11  24  46  69  93 125 160 204 261 318 376
#     4  10  19  36  60  90 128 168 212 258 308 366
#     4  12  25  42  66  96 127 166 209 255 313 373
#
# _framework density 19.578856999999999
#
# number of rings (size 3 to 8) (size 9 to 14) (size 15 to 20)
#    0.000    1.600    2.000    3.000    0.000    4.800 
#    0.000    8.000    0.000    0.000    0.000    0.000 
#    0.000    0.000    0.000    0.000    0.000    0.000 
#
# Total GULP energy -223648.000201 kJ/mol
# GULP energy per Si atom -5591.200005 kJ/mol
# Density = 1.953429 g / cm^3
# Si number density = 19.578857 Si / 1000 Ang^3
#
#
#
# Elastic Constant Matrix: (Units=GPa)
#
#
# Indices 1 2 3 4 5 6 
#
# 1 153.6100 82.9338 64.2273 0.0000 0.0000 0.0000
# 2 82.9338 143.4176 47.9890 0.0000 0.0000 0.0000
# 3 64.2273 47.9890 76.6129 0.0000 0.0000 0.0000
# 4 0.0000 0.0000 0.0000 27.3092 0.0000 0.0000
# 5 0.0000 0.0000 0.0000 0.0000 16.9840 0.0000
# 6 0.0000 0.0000 0.0000 0.0000 0.0000 -9.0353
#
#
#
# Elastic Compliance Matrix: (Units=1/GPa)
#
#
# Indices 1 2 3 4 5 6 
#
# 1 0.011950 -0.004502 -0.007199 0.000000 0.000000 0.000000
# 2 -0.004502 0.010517 -0.002814 0.000000 0.000000 0.000000
# 3 -0.007199 -0.002814 0.020850 0.000000 0.000000 0.000000
# 4 0.000000 0.000000 0.000000 0.036618 0.000000 0.000000
# 5 0.000000 0.000000 0.000000 0.000000 0.058879 0.000000
# 6 0.000000 0.000000 0.000000 0.000000 0.000000 -0.110677
#
#
# Mechanical properties :
#
#
# Convention : Reuss Voigt Hill
#
# Bulk Modulus (GPa) = 69.98261 84.88230 77.43245
# Shear Modulus (GPa) = 80.73788 18.95095 49.84441
#
# Velocity S-wave (km/s) = 6.42859 3.11453 5.05109
# Velocity P-wave (km/s) = 9.53541 7.50879 8.58213
#
# Compressibility (1/GPa) = 0.01428926
#
# Stress axis : x y z
#
# Youngs Moduli (GPa) = 83.67941 95.07993 47.96157
#
# Poissons Ratio (x) = 0.42803 0.34525
# Poissons Ratio (y) = 0.37671 0.13496
# Poissons Ratio (z) = 0.60237 0.26755
#
# Static dielectric constant tensor:
#      x y z
#    x 1.694140 0.000000 0.000000 
#    y 0.000000 1.671360 0.000000 
#    z 0.000000 0.000000 1.653490 
# 
# From -- ./inp_files/3433.got.cif
#   From: 2010.05.17/outbox.cif.g08.bks.cpg/sg49_2_cif.got.tgz:3433.got - 2010.06.03 21:02:19.
