data_PCOD9393598
_publ_section_title
;
Structure prediction by ZEFSAII (Michael W. Deem and Ramdas Pophale) SiO2 
 PCOD9393598
Probable space group: P C C M
;
_chemical_formula_sum "Si O2"
_cell_formula_units_Z 48
_cell_length_a 14.742475
_cell_length_b 20.992522
_cell_length_c 8.830492
_cell_angle_alpha 90.000000
_cell_angle_beta 90.000000
_cell_angle_gamma 90.000000
_cell_volume 2732.875948
_symmetry_space_group_name_H-M "P C C M"
_symmetry_group_IT_number 49
_symmetry_cell_setting 'orthorhombic'
loop_
_space_group_symop_operation_xyz
x,y,z
-x,-y,z
x,-y,1/2-z
-x,y,1/2-z
-x,-y,-z
x,y,-z
-x,y,1/2+z
x,-y,1/2+z
loop_
_atom_site_type_symbol
_atom_site_label
_atom_site_fract_x
_atom_site_fract_y
_atom_site_fract_z
Si Si1 0.903458 0.387081 0.818971
Si Si2 0.282525 0.565932 0.318437
Si Si3 0.401178 0.068722 0.817830
Si Si4 0.600076 0.689412 0.182482
Si Si5 0.279482 0.810793 0.317700
Si Si6 0.904093 0.235933 0.180050
O O1 0.818153 0.421995 0.745705
O O2 0.892636 0.311435 0.784329
O O3 0.000000 0.407411 0.750000
O O4 0.903846 0.395355 0.000000
O O5 0.317761 0.500000 0.250000
O O6 0.279133 0.562521 0.500000
O O7 0.345021 0.625838 0.274104
O O8 0.500000 0.085070 0.750000
O O9 0.329774 0.123653 0.778217
O O10 0.376018 0.000000 0.750000
O O11 0.408205 0.064578 0.000000
O O12 0.500000 0.690203 0.250000
O O13 0.657396 0.751378 0.230403
O O14 0.593906 0.690663 0.000000
O O15 0.271031 0.807988 0.500000
O O16 0.181095 0.801509 0.246324
O O17 0.000000 0.215690 0.250000
O O18 0.907279 0.229720 0.000000
#
# Coordination Sequence:
#
# PCOD9393598 Si02
#       6
#     8   8   8   8   8   8
#     4  10  20  35  56  82 109 140 177 220 273 329
#     4  11  23  39  57  77 106 142 180 227 276 328
#     4  10  20  34  55  82 117 154 188 228 271 323
#     4  10  22  38  57  79 106 139 179 227 274 321
#     4  10  20  36  57  83 113 146 184 226 272 321
#     4  10  20  33  55  84 113 145 179 223 271 325
#
# _framework density 17.563914
#
# number of rings (size 3 to 8) (size 9 to 14) (size 15 to 20)
#    0.000    1.833    1.667    3.000    0.000    5.333 
#    0.000    3.333    0.000    0.500    0.000    3.500 
#    0.000    0.000    0.000    0.000    0.000    0.000 
#
# Total GULP energy -268160.060045 kJ/mol
# GULP energy per Si atom -5586.667918 kJ/mol
# Density = 1.752394 g / cm^3
# Si number density = 17.563914 Si / 1000 Ang^3
#
#
#
# Elastic Constant Matrix: (Units=GPa)
#
#
# Indices 1 2 3 4 5 6 
#
# 1 141.1012 79.4131 39.2010 0.0000 0.0000 0.0000
# 2 79.4131 111.3690 43.2382 0.0000 0.0000 0.0000
# 3 39.2010 43.2382 37.5442 0.0000 0.0000 0.0000
# 4 0.0000 0.0000 0.0000 27.3596 0.0000 0.0000
# 5 0.0000 0.0000 0.0000 0.0000 36.1887 0.0000
# 6 0.0000 0.0000 0.0000 0.0000 0.0000 16.7996
#
#
#
# Elastic Compliance Matrix: (Units=1/GPa)
#
#
# Indices 1 2 3 4 5 6 
#
# 1 0.012330 -0.006862 -0.004972 0.000000 0.000000 0.000000
# 2 -0.006862 0.020060 -0.015937 0.000000 0.000000 0.000000
# 3 -0.004972 -0.015937 0.050181 0.000000 0.000000 0.000000
# 4 0.000000 0.000000 0.000000 0.036550 0.000000 0.000000
# 5 0.000000 0.000000 0.000000 0.000000 0.027633 0.000000
# 6 0.000000 0.000000 0.000000 0.000000 0.000000 0.059525
#
#
# Mechanical properties :
#
#
# Convention : Reuss Voigt Hill
#
# Bulk Modulus (GPa) = 36.99752 68.19101 52.59427
# Shear Modulus (GPa) = 18.46171 24.61370 21.53771
#
# Velocity S-wave (km/s) = 3.24561 3.74756 3.50558
# Velocity P-wave (km/s) = 5.92921 7.59173 6.81139
#
# Compressibility (1/GPa) = 0.02702884
#
# Stress axis : x y z
#
# Youngs Moduli (GPa) = 81.09998 49.85101 19.92805
#
# Poissons Ratio (x) = 0.34209 0.09908
# Poissons Ratio (y) = 0.55652 0.31759
# Poissons Ratio (z) = 0.40321 0.79448
#
# Static dielectric constant tensor:
#      x y z
#    x 1.563510 0.000000 0.000000 
#    y 0.000000 1.601310 0.000000 
#    z 0.000000 0.000000 1.586780 
# 
# From -- ./inp_files/2916.got.cif
#   From: 2010.05.17/outbox.cif.g08.bks.cpg/sg49_2_cif.got.tgz:2916.got - 2010.06.03 21:02:19.
