data_PCOD9393270
_publ_section_title
;
Structure prediction by ZEFSAII (Michael W. Deem and Ramdas Pophale) SiO2 
 PCOD9393270
Probable space group: P C C M
;
_chemical_formula_sum "Si O2"
_cell_formula_units_Z 64
_cell_length_a 20.692154
_cell_length_b 20.310354
_cell_length_c 8.855588
_cell_angle_alpha 90.000000
_cell_angle_beta 90.000000
_cell_angle_gamma 90.000000
_cell_volume 3721.693450
_symmetry_space_group_name_H-M "P C C M"
_symmetry_group_IT_number 49
_symmetry_cell_setting 'orthorhombic'
loop_
_space_group_symop_operation_xyz
x,y,z
-x,-y,z
x,-y,1/2-z
-x,y,1/2-z
-x,-y,-z
x,y,-z
-x,y,1/2+z
x,-y,1/2+z
loop_
_atom_site_type_symbol
_atom_site_label
_atom_site_fract_x
_atom_site_fract_y
_atom_site_fract_z
Si Si1 0.391136 0.206552 0.319722
Si Si2 0.310550 0.572212 0.318546
Si Si3 0.434834 0.341457 0.181185
Si Si4 0.601842 0.931519 0.174867
Si Si5 0.240482 0.933456 0.673064
Si Si6 0.817510 0.346246 0.318563
Si Si7 0.070933 0.429775 0.680665
Si Si8 0.247683 0.790875 0.683339
O O1 0.394358 0.208308 0.500000
O O2 0.427340 0.268213 0.247096
O O3 0.415819 0.135680 0.260366
O O4 0.317111 0.215260 0.262642
O O5 0.313432 0.500000 0.250000
O O6 0.311367 0.567528 0.500000
O O7 0.372069 0.616338 0.274125
O O8 0.244563 0.609398 0.276486
O O9 0.500000 0.371123 0.250000
O O10 0.438069 0.338564 0.000000
O O11 0.680796 0.932767 0.179480
O O12 0.580033 0.000000 0.250000
O O13 0.582273 0.928543 0.000000
O O14 0.221233 0.936993 0.500000
O O15 0.219977 0.861861 0.731959
O O16 0.217891 0.000000 0.750000
O O17 0.827275 0.351725 0.500000
O O18 0.879279 0.374107 0.232841
O O19 0.797470 0.271157 0.284752
O O20 0.093161 0.500000 0.750000
O O21 0.067264 0.434759 0.500000
O O22 0.000000 0.417707 0.750000
O O23 0.258771 0.792491 0.500000
#
# Coordination Sequence:
#
# PCOD9393270 Si02
#       8
#     8   8   8   8   8   8   8   8
#     4  11  20  31  50  75 101 133 171 213 260 316
#     4  10  22  38  58  79 105 134 168 211 265 319
#     4  11  23  41  58  76  99 132 171 217 269 321
#     4   9  16  27  44  68  98 131 167 210 256 308
#     4   8  14  23  38  61  93 133 169 206 250 299
#     4  10  19  35  56  80 109 143 177 219 266 312
#     4  11  22  37  56  80 109 145 183 220 259 309
#     4   9  17  31  49  70 102 140 175 214 264 310
#
# _framework density 17.196472
#
# number of rings (size 3 to 8) (size 9 to 14) (size 15 to 20)
#    0.000    2.125    1.250    4.500    0.000    6.250 
#    0.000    1.250    0.000    0.375    0.000    2.625 
#    0.000    0.500    0.000    5.750    0.000    1.875 
#
# Total GULP energy -357180.402738 kJ/mol
# GULP energy per Si atom -5580.943793 kJ/mol
# Density = 1.715733 g / cm^3
# Si number density = 17.196472 Si / 1000 Ang^3
#
#
#
# Elastic Constant Matrix: (Units=GPa)
#
#
# Indices 1 2 3 4 5 6 
#
# 1 58.4866 46.6413 31.2045 0.0000 0.0000 0.0000
# 2 46.6413 144.8550 48.1823 0.0000 0.0000 0.0000
# 3 31.2045 48.1823 75.5417 0.0000 0.0000 0.0000
# 4 0.0000 0.0000 0.0000 29.0073 0.0000 0.0000
# 5 0.0000 0.0000 0.0000 0.0000 20.5314 0.0000
# 6 0.0000 0.0000 0.0000 0.0000 0.0000 -64.8347
#
#
#
# Elastic Compliance Matrix: (Units=1/GPa)
#
#
# Indices 1 2 3 4 5 6 
#
# 1 0.025424 -0.005957 -0.006703 0.000000 0.000000 0.000000
# 2 -0.005957 0.010158 -0.004018 0.000000 0.000000 0.000000
# 3 -0.006703 -0.004018 0.018570 0.000000 0.000000 0.000000
# 4 0.000000 0.000000 0.000000 0.034474 0.000000 0.000000
# 5 0.000000 0.000000 0.000000 0.000000 0.048706 0.000000
# 6 0.000000 0.000000 0.000000 0.000000 0.000000 -0.015424
#
#
# Mechanical properties :
#
#
# Convention : Reuss Voigt Hill
#
# Bulk Modulus (GPa) = 48.08637 58.99326 53.53982
# Shear Modulus (GPa) = 30.82680 7.13115 18.97898
#
# Velocity S-wave (km/s) = 4.23853 2.03860 3.32573
# Velocity P-wave (km/s) = 7.20952 6.31831 6.77858
#
# Compressibility (1/GPa) = 0.02079591
#
# Stress axis : x y z
#
# Youngs Moduli (GPa) = 39.33216 98.44365 53.85146
#
# Poissons Ratio (x) = 0.58641 0.36096
# Poissons Ratio (y) = 0.23429 0.21640
# Poissons Ratio (z) = 0.26364 0.39559
#
# Static dielectric constant tensor:
#      x y z
#    x 1.582110 0.000000 0.000000 
#    y 0.000000 1.600790 0.000000 
#    z 0.000000 0.000000 1.580050 
# 
# From -- ./inp_files/6047.got.cif
#   From: 2010.05.17/outbox.cif.g08.bks.cpg/sg49_4_cif.got.tgz:6047.got - 2010.06.03 21:02:19.
