data_PCOD9393912
_publ_section_title
;
Structure prediction by ZEFSAII (Michael W. Deem and Ramdas Pophale) SiO2 
 PCOD9393912
Probable space group: P C C M
;
_chemical_formula_sum "Si O2"
_cell_formula_units_Z 58
_cell_length_a 9.225264
_cell_length_b 11.423131
_cell_length_c 29.391109
_cell_angle_alpha 90.000000
_cell_angle_beta 90.000000
_cell_angle_gamma 90.000000
_cell_volume 3097.276190
_symmetry_space_group_name_H-M "P C C M"
_symmetry_group_IT_number 49
_symmetry_cell_setting 'orthorhombic'
loop_
_space_group_symop_operation_xyz
x,y,z
-x,-y,z
x,-y,1/2-z
-x,y,1/2-z
-x,-y,-z
x,y,-z
-x,y,1/2+z
x,-y,1/2+z
loop_
_atom_site_type_symbol
_atom_site_label
_atom_site_fract_x
_atom_site_fract_y
_atom_site_fract_z
Si Si1 0.344912 0.948071 0.374522
Si Si2 0.601848 0.759826 0.053661
Si Si3 0.863743 0.180742 0.682735
Si Si4 0.842092 0.444345 0.297300
Si Si5 0.669898 0.530560 0.890614
Si Si6 0.914287 0.887518 0.603544
Si Si7 0.262918 0.305017 0.553100
Si Si8 0.000000 0.000000 0.750000
O O1 0.352250 0.881350 0.422968
O O2 0.290280 0.850434 0.339389
O O3 0.500000 0.000000 0.363692
O O4 0.226235 0.050741 0.374303
O O5 0.675099 0.651485 0.080667
O O6 0.427132 0.745432 0.059019
O O7 0.634544 0.755118 0.000000
O O8 0.864051 0.305610 0.706172
O O9 0.981231 0.169295 0.641686
O O10 0.903800 0.081758 0.718432
O O11 0.786835 0.500000 0.250000
O O12 0.741925 0.462276 0.341240
O O13 0.000000 0.500000 0.305753
O O14 0.500000 0.500000 0.886361
O O15 0.742810 0.424538 0.918407
O O16 0.853674 0.789378 0.570105
O O17 0.000000 0.000000 0.583215
O O18 0.244303 0.330125 0.500000
#
# Coordination Sequence:
#
# PCOD9393912 Si02
#       8
#     8   8   8   8   8   8   8   2
#     4  11  20  38  63  91 122 160 205 245 303 361
#     4  10  20  35  61  92 123 162 204 248 302 365
#     4  11  23  41  64  88 121 162 199 250 308 372
#     4  11  23  41  65  94 116 154 206 249 307 374
#     4  10  21  39  64  88 123 158 197 255 310 363
#     4  10  21  38  59  87 121 165 200 245 304 358
#     4  10  20  35  59  91 123 163 206 248 301 363
#     4  12  20  40  68  84 118 156 206 238 308 368
#
# _framework density 18.726133000000001
#
# number of rings (size 3 to 8) (size 9 to 14) (size 15 to 20)
#    0.000    1.517    4.828    2.069    0.000    3.034 
#    0.000    2.414    3.034    1.655    0.000    0.000 
#    0.000    0.000    0.000    0.000    0.000    0.000 
#
# Total GULP energy -323779.159149 kJ/mol
# GULP energy per Si atom -5582.399296 kJ/mol
# Density = 1.868351 g / cm^3
# Si number density = 18.726133 Si / 1000 Ang^3
#
#
#
# Elastic Constant Matrix: (Units=GPa)
#
#
# Indices 1 2 3 4 5 6 
#
# 1 73.0609 42.4994 37.9464 0.0000 0.0000 0.0000
# 2 42.4994 126.0885 63.0461 0.0000 0.0000 0.0000
# 3 37.9464 63.0461 134.3758 0.0000 0.0000 0.0000
# 4 0.0000 0.0000 0.0000 28.1984 0.0000 0.0000
# 5 0.0000 0.0000 0.0000 0.0000 -4.7997 0.0000
# 6 0.0000 0.0000 0.0000 0.0000 0.0000 21.9041
#
#
#
# Elastic Compliance Matrix: (Units=1/GPa)
#
#
# Indices 1 2 3 4 5 6 
#
# 1 0.017849 -0.004567 -0.002897 0.000000 0.000000 0.000000
# 2 -0.004567 0.011531 -0.004120 0.000000 0.000000 0.000000
# 3 -0.002897 -0.004120 0.010193 0.000000 0.000000 0.000000
# 4 0.000000 0.000000 0.000000 0.035463 0.000000 0.000000
# 5 0.000000 0.000000 0.000000 0.000000 -0.208345 0.000000
# 6 0.000000 0.000000 0.000000 0.000000 0.000000 0.045654
#
#
# Mechanical properties :
#
#
# Convention : Reuss Voigt Hill
#
# Bulk Modulus (GPa) = 60.96556 68.94542 64.95549
# Shear Modulus (GPa) = -84.71970 21.72943 -31.49513
#
# Velocity S-wave (km/s) = -6.73347 3.41013 -4.10552
# Velocity P-wave (km/s) = 5.27501 7.23899 3.50551
#
# Compressibility (1/GPa) = 0.01640270
#
# Stress axis : x y z
#
# Youngs Moduli (GPa) = 56.02578 86.72631 98.10584
#
# Poissons Ratio (x) = 0.39611 0.28426
# Poissons Ratio (y) = 0.25589 0.40420
# Poissons Ratio (z) = 0.16233 0.35732
#
# Static dielectric constant tensor:
#      x y z
#    x 1.649850 0.000000 0.000000 
#    y 0.000000 1.663950 0.000000 
#    z 0.000000 0.000000 1.632960 
# 
# From -- ./inp_files/24559.got.cif
#   From: 2010.05.17/outbox.cif.g08.bks.cpg/sg49_13_cif.got.tgz:24559.got - 2010.06.03 21:02:19.
