data_PCOD9393477
_publ_section_title
;
Structure prediction by ZEFSAII (Michael W. Deem and Ramdas Pophale) SiO2 
 PCOD9393477
Probable space group: P C C M
;
_chemical_formula_sum "Si O2"
_cell_formula_units_Z 48
_cell_length_a 16.081435
_cell_length_b 19.305946
_cell_length_c 9.030582
_cell_angle_alpha 90.000000
_cell_angle_beta 90.000000
_cell_angle_gamma 90.000000
_cell_volume 2803.700553
_symmetry_space_group_name_H-M "P C C M"
_symmetry_group_IT_number 49
_symmetry_cell_setting 'orthorhombic'
loop_
_space_group_symop_operation_xyz
x,y,z
-x,-y,z
x,-y,1/2-z
-x,y,1/2-z
-x,-y,-z
x,y,-z
-x,y,1/2+z
x,-y,1/2+z
loop_
_atom_site_type_symbol
_atom_site_label
_atom_site_fract_x
_atom_site_fract_y
_atom_site_fract_z
Si Si1 0.243612 0.828361 0.823454
Si Si2 0.085035 0.075461 0.677492
Si Si3 0.584814 0.835444 0.171265
Si Si4 0.763270 0.678527 0.178684
Si Si5 0.417173 0.333418 0.830336
Si Si6 0.913507 0.574750 0.822368
O O1 0.165221 0.877488 0.792446
O O2 0.329974 0.855294 0.753068
O O3 0.226467 0.752780 0.754879
O O4 0.254120 0.822560 0.000000
O O5 0.074774 0.069367 0.500000
O O6 0.000000 0.104080 0.750000
O O7 0.097115 0.000000 0.750000
O O8 0.500000 0.859230 0.250000
O O9 0.583004 0.750969 0.174664
O O10 0.586448 0.856528 0.000000
O O11 0.674079 0.647464 0.228673
O O12 0.839193 0.627678 0.208954
O O13 0.757576 0.688890 0.000000
O O14 0.500000 0.357826 0.750000
O O15 0.422571 0.355147 0.000000
O O16 0.896157 0.500000 0.750000
O O17 0.000000 0.599228 0.750000
O O18 0.922602 0.567897 0.000000
#
# Coordination Sequence:
#
# PCOD9393477 Si02
#       6
#     8   8   8   8   8   8
#     4  10  20  32  49  76 104 129 163 205 248 293
#     4  10  21  36  54  74  97 129 167 205 246 297
#     4   9  16  27  45  69  99 133 165 199 241 289
#     4   9  19  33  49  71 100 131 161 198 245 292
#     4   8  14  25  41  64  92 122 155 189 228 275
#     4  10  20  35  53  72  95 126 164 202 244 296
#
# _framework density 17.120231
#
# number of rings (size 3 to 8) (size 9 to 14) (size 15 to 20)
#    0.000    2.667    0.000    4.000    0.000    8.667 
#    0.000    3.333    0.000    1.000    0.000    7.000 
#    0.000    0.000    0.000    0.000    0.000    0.000 
#
# Total GULP energy -267497.989099 kJ/mol
# GULP energy per Si atom -5572.874773 kJ/mol
# Density = 1.708126 g / cm^3
# Si number density = 17.120231 Si / 1000 Ang^3
#
#
#
# Elastic Constant Matrix: (Units=GPa)
#
#
# Indices 1 2 3 4 5 6 
#
# 1 209.9428 70.0121 94.9946 0.0000 0.0000 0.0000
# 2 70.0121 35.0814 36.8178 0.0000 0.0000 0.0000
# 3 94.9946 36.8178 89.2606 0.0000 0.0000 0.0000
# 4 0.0000 0.0000 0.0000 1.8329 0.0000 0.0000
# 5 0.0000 0.0000 0.0000 0.0000 31.2630 0.0000
# 6 0.0000 0.0000 0.0000 0.0000 0.0000 -11.2849
#
#
#
# Elastic Compliance Matrix: (Units=1/GPa)
#
#
# Indices 1 2 3 4 5 6 
#
# 1 0.016374 -0.025373 -0.006960 0.000000 0.000000 0.000000
# 2 -0.025373 0.089581 -0.009948 0.000000 0.000000 0.000000
# 3 -0.006960 -0.009948 0.022713 0.000000 0.000000 0.000000
# 4 0.000000 0.000000 0.000000 0.545592 0.000000 0.000000
# 5 0.000000 0.000000 0.000000 0.000000 0.031987 0.000000
# 6 0.000000 0.000000 0.000000 0.000000 0.000000 -0.088614
#
#
# Mechanical properties :
#
#
# Convention : Reuss Voigt Hill
#
# Bulk Modulus (GPa) = 22.67157 81.99266 52.33212
# Shear Modulus (GPa) = 6.97450 13.19288 10.08369
#
# Velocity S-wave (km/s) = 2.02056 2.77898 2.42955
# Velocity P-wave (km/s) = 4.32607 7.63500 6.20516
#
# Compressibility (1/GPa) = 0.04410810
#
# Stress axis : x y z
#
# Youngs Moduli (GPa) = 61.07315 11.16302 44.02703
#
# Poissons Ratio (x) = 0.28324 0.30643
# Poissons Ratio (y) = 1.54960 0.43796
# Poissons Ratio (z) = 0.42507 0.11104
#
# Static dielectric constant tensor:
#      x y z
#    x 1.603110 0.000000 0.000000 
#    y 0.000000 1.548920 0.000000 
#    z 0.000000 0.000000 1.579670 
# 
# From -- ./inp_files/3837.got.cif
#   From: 2010.05.17/outbox.cif.g08.bks.cpg/sg49_2_cif.got.tgz:3837.got - 2010.06.03 21:02:19.
