data_PCOD9393831
_publ_section_title
;
Structure prediction by ZEFSAII (Michael W. Deem and Ramdas Pophale) SiO2 
 PCOD9393831
Probable space group: P C C M
;
_chemical_formula_sum "Si O2"
_cell_formula_units_Z 38
_cell_length_a 10.149817
_cell_length_b 22.222030
_cell_length_c 9.140382
_cell_angle_alpha 90.000000
_cell_angle_beta 90.000000
_cell_angle_gamma 90.000000
_cell_volume 2061.608936
_symmetry_space_group_name_H-M "P C C M"
_symmetry_group_IT_number 49
_symmetry_cell_setting 'orthorhombic'
loop_
_space_group_symop_operation_xyz
x,y,z
-x,-y,z
x,-y,1/2-z
-x,y,1/2-z
-x,-y,-z
x,y,-z
-x,y,1/2+z
x,-y,1/2+z
loop_
_atom_site_type_symbol
_atom_site_label
_atom_site_fract_x
_atom_site_fract_y
_atom_site_fract_z
Si Si1 0.500000 0.500000 0.000000
Si Si2 0.361240 0.299961 0.324370
Si Si3 0.634851 0.158414 0.173669
Si Si4 0.858771 0.380878 0.672110
Si Si5 0.141299 0.937081 0.177040
Si Si6 0.703491 0.500000 0.750000
O O1 0.394356 0.522115 0.124695
O O2 0.500000 0.318223 0.250000
O O3 0.367334 0.308367 0.500000
O O4 0.342011 0.228789 0.292616
O O5 0.242501 0.336220 0.252170
O O6 0.500000 0.139236 0.250000
O O7 0.756136 0.115628 0.212281
O O8 0.616253 0.154254 0.000000
O O9 0.870126 0.366597 0.500000
O O10 0.793860 0.446643 0.689241
O O11 0.000000 0.379023 0.750000
O O12 0.000000 0.923942 0.250000
O O13 0.185458 0.000000 0.250000
O O14 0.129768 0.942922 0.000000
#
# Coordination Sequence:
#
# PCOD9393831 Si02
#       6
#     2   8   8   8   8   4
#     4  10  24  42  66  98 116 154 194 242 282 358
#     4  10  22  40  64  88 118 154 198 243 289 348
#     4   9  20  38  58  85 116 151 191 239 288 340
#     4  12  27  43  63  89 123 158 195 242 298 349
#     4  10  20  35  55  82 114 150 194 236 285 341
#     4  11  25  42  66  92 124 150 198 238 296 344
#
# _framework density 18.432203999999999
#
# number of rings (size 3 to 8) (size 9 to 14) (size 15 to 20)
#    0.000    1.684    1.053    2.842    5.895    4.632 
#    0.000    4.211    0.000    0.000    0.000    0.000 
#    0.000    0.000    0.000    0.000    0.000    0.000 
#
# Total GULP energy -211664.164535 kJ/mol
# GULP energy per Si atom -5570.109593 kJ/mol
# Density = 1.839025 g / cm^3
# Si number density = 18.432204 Si / 1000 Ang^3
#
#
#
# Elastic Constant Matrix: (Units=GPa)
#
#
# Indices 1 2 3 4 5 6 
#
# 1 125.1250 62.0474 54.6006 0.0000 0.0000 0.0000
# 2 62.0474 70.0870 34.7524 0.0000 0.0000 0.0000
# 3 54.6006 34.7524 120.0566 0.0000 0.0000 0.0000
# 4 0.0000 0.0000 0.0000 67.3112 0.0000 0.0000
# 5 0.0000 0.0000 0.0000 0.0000 23.6521 0.0000
# 6 0.0000 0.0000 0.0000 0.0000 0.0000 16.2190
#
#
#
# Elastic Compliance Matrix: (Units=1/GPa)
#
#
# Indices 1 2 3 4 5 6 
#
# 1 0.015463 -0.011912 -0.003584 0.000000 0.000000 0.000000
# 2 -0.011912 0.025836 -0.002061 0.000000 0.000000 0.000000
# 3 -0.003584 -0.002061 0.010556 0.000000 0.000000 0.000000
# 4 0.000000 0.000000 0.000000 0.014856 0.000000 0.000000
# 5 0.000000 0.000000 0.000000 0.000000 0.042279 0.000000
# 6 0.000000 0.000000 0.000000 0.000000 0.000000 0.061656
#
#
# Mechanical properties :
#
#
# Convention : Reuss Voigt Hill
#
# Bulk Modulus (GPa) = 59.73741 68.67437 64.20589
# Shear Modulus (GPa) = 23.65839 32.36101 28.00970
#
# Velocity S-wave (km/s) = 3.58653 4.19463 3.90244
# Velocity P-wave (km/s) = 7.04490 7.79734 7.43065
#
# Compressibility (1/GPa) = 0.01673993
#
# Stress axis : x y z
#
# Youngs Moduli (GPa) = 64.67032 38.70639 94.73174
#
# Poissons Ratio (x) = 0.46107 0.33955
# Poissons Ratio (y) = 0.77035 0.19525
# Poissons Ratio (z) = 0.23180 0.07978
#
# Static dielectric constant tensor:
#      x y z
#    x 1.606080 0.000000 0.000000 
#    y 0.000000 1.650070 0.000000 
#    z 0.000000 0.000000 1.607080 
# 
# From -- ./inp_files/1746.got.cif
#   From: 2010.05.17/outbox.cif.g08.bks.cpg/sg49_1_cif.got.tgz:1746.got - 2010.06.03 21:02:19.
