data_PCOD9393131
_publ_section_title
;
Structure prediction by ZEFSAII (Michael W. Deem and Ramdas Pophale) SiO2 
 PCOD9393131
Probable space group: P C C M
;
_chemical_formula_sum "Si O2"
_cell_formula_units_Z 58
_cell_length_a 16.201531
_cell_length_b 5.172610
_cell_length_c 32.576799
_cell_angle_alpha 90.000000
_cell_angle_beta 90.000000
_cell_angle_gamma 90.000000
_cell_volume 2730.072620
_symmetry_space_group_name_H-M "P C C M"
_symmetry_group_IT_number 49
_symmetry_cell_setting 'orthorhombic'
loop_
_space_group_symop_operation_xyz
x,y,z
-x,-y,z
x,-y,1/2-z
-x,y,1/2-z
-x,-y,-z
x,y,-z
-x,y,1/2+z
x,-y,1/2+z
loop_
_atom_site_type_symbol
_atom_site_label
_atom_site_fract_x
_atom_site_fract_y
_atom_site_fract_z
Si Si1 0.321914 0.751062 0.776107
Si Si2 0.443604 0.753458 0.851941
Si Si3 0.117305 0.783411 0.872455
Si Si4 0.876882 0.247722 0.222694
Si Si5 0.263610 0.775286 0.545256
Si Si6 0.000000 0.000000 0.500000
Si Si7 0.920514 0.284775 0.573594
Si Si8 0.703284 0.722863 0.591507
O O1 0.339791 0.500000 0.750000
O O2 0.375708 0.730283 0.816437
O O3 0.223120 0.761395 0.782203
O O4 0.346077 0.000000 0.750000
O O5 0.500000 0.500000 0.854669
O O6 0.385449 0.794219 0.891055
O O7 0.500000 0.000000 0.844407
O O8 0.092885 0.756630 0.824577
O O9 0.081902 0.550802 0.900416
O O10 0.217279 0.761791 0.878499
O O11 0.089006 0.054309 0.892491
O O12 0.897272 0.500000 0.250000
O O13 0.901043 0.000000 0.250000
O O14 0.293672 0.712467 0.500000
O O15 0.166186 0.725935 0.548962
O O16 0.300080 0.575084 0.577968
O O17 0.277800 0.074674 0.555398
O O18 0.016228 0.786152 0.537272
#
# Coordination Sequence:
#
# PCOD9393131 Si02
#       8
#     8   8   8   8   8   2   8   8
#     4  10  21  35  51  77 109 149 191 240 302 357
#     4  12  24  37  54  76 107 153 195 240 310 370
#     4  10  20  39  57  89 118 163 212 236 305 334
#     4  10  19  33  59  86 118 152 201 267 310 341
#     4  10  19  37  60  87 105 147 197 229 293 337
#     4  12  24  46  60 106 146 166 192 222 316 346
#     4  10  23  35  62  88 133 165 188 238 271 386
#     4  10  21  36  57  78 113 144 192 260 280 356
#
# _framework density 21.244858000000001
#
# number of rings (size 3 to 8) (size 9 to 14) (size 15 to 20)
#    0.000    1.655    2.069    2.897    0.000    3.310 
#    0.000    0.000    0.000    8.276    0.000    7.241 
#    0.000    0.000    0.000    0.000    0.000    0.000 
#
# Total GULP energy -323420.140014 kJ/mol
# GULP energy per Si atom -5576.209311 kJ/mol
# Density = 2.119650 g / cm^3
# Si number density = 21.244858 Si / 1000 Ang^3
#
#
#
# Elastic Constant Matrix: (Units=GPa)
#
#
# Indices 1 2 3 4 5 6 
#
# 1 50.6109 -0.1480 2.8695 0.0000 0.0000 0.0000
# 2 -0.1480 141.3348 44.1438 0.0000 0.0000 0.0000
# 3 2.8695 44.1438 143.3743 0.0000 0.0000 0.0000
# 4 0.0000 0.0000 0.0000 -18.5317 0.0000 0.0000
# 5 0.0000 0.0000 0.0000 0.0000 7.7530 0.0000
# 6 0.0000 0.0000 0.0000 0.0000 0.0000 -46.2172
#
#
#
# Elastic Compliance Matrix: (Units=1/GPa)
#
#
# Indices 1 2 3 4 5 6 
#
# 1 0.019784 0.000160 -0.000445 0.000000 0.000000 0.000000
# 2 0.000160 0.007829 -0.002414 0.000000 0.000000 0.000000
# 3 -0.000445 -0.002414 0.007727 0.000000 0.000000 0.000000
# 4 0.000000 0.000000 0.000000 -0.053962 0.000000 0.000000
# 5 0.000000 0.000000 0.000000 0.000000 0.128982 0.000000
# 6 0.000000 0.000000 0.000000 0.000000 0.000000 -0.021637
#
#
# Mechanical properties :
#
#
# Convention : Reuss Voigt Hill
#
# Bulk Modulus (GPa) = 33.39768 47.67226 40.53497
# Shear Modulus (GPa) = 48.02917 7.83115 27.93016
#
# Velocity S-wave (km/s) = 4.75989 1.92201 3.62978
# Velocity P-wave (km/s) = 6.77961 5.23581 6.05710
#
# Compressibility (1/GPa) = 0.02994220
#
# Stress axis : x y z
#
# Youngs Moduli (GPa) = 50.54514 127.72223 129.41869
#
# Poissons Ratio (x) = -0.02040 0.05761
# Poissons Ratio (y) = -0.00808 0.31240
# Poissons Ratio (z) = 0.02250 0.30830
#
# Static dielectric constant tensor:
#      x y z
#    x 1.726380 0.000000 0.000000 
#    y 0.000000 1.762110 0.000000 
#    z 0.000000 0.000000 1.755430 
# 
# From -- ./inp_files/25178.got.cif
#   From: 2010.05.17/outbox.cif.g08.bks.cpg/sg49_13_cif.got.tgz:25178.got - 2010.06.03 21:02:19.
