data_PCOD9393228
_publ_section_title
;
Structure prediction by ZEFSAII (Michael W. Deem and Ramdas Pophale) SiO2 
 PCOD9393228
Probable space group: P C C M
;
_chemical_formula_sum "Si O2"
_cell_formula_units_Z 56
_cell_length_a 17.931037
_cell_length_b 9.258184
_cell_length_c 19.441847
_cell_angle_alpha 90.000000
_cell_angle_beta 90.000000
_cell_angle_gamma 90.000000
_cell_volume 3227.518465
_symmetry_space_group_name_H-M "P C C M"
_symmetry_group_IT_number 49
_symmetry_cell_setting 'orthorhombic'
loop_
_space_group_symop_operation_xyz
x,y,z
-x,-y,z
x,-y,1/2-z
-x,y,1/2-z
-x,-y,-z
x,y,-z
-x,y,1/2+z
x,-y,1/2+z
loop_
_atom_site_type_symbol
_atom_site_label
_atom_site_fract_x
_atom_site_fract_y
_atom_site_fract_z
Si Si1 0.799625 0.150479 0.786685
Si Si2 0.048805 0.225858 0.077458
Si Si3 0.076518 0.659533 0.279677
Si Si4 0.631683 0.898038 0.686941
Si Si5 0.493407 0.667908 0.167397
Si Si6 0.884390 0.906546 0.422548
Si Si7 0.575124 0.099612 0.420120
O O1 0.848618 0.266000 0.746473
O O2 0.710562 0.161555 0.787153
O O3 0.828500 0.143679 0.864469
O O4 0.817994 0.000000 0.750000
O O5 0.070387 0.332145 0.138348
O O6 0.961984 0.181227 0.083195
O O7 0.093487 0.075027 0.086571
O O8 0.062219 0.279434 0.000000
O O9 0.076991 0.500000 0.250000
O O10 0.000000 0.732188 0.250000
O O11 0.581909 0.763711 0.661233
O O12 0.599986 0.000000 0.750000
O O13 0.635894 0.008014 0.622475
O O14 0.500000 0.500000 0.145999
O O15 0.500000 0.669279 0.250000
O O16 0.554118 0.759011 0.124205
O O17 0.855810 0.888170 0.500000
O O18 0.593403 0.127866 0.500000
O O19 0.500000 0.000000 0.419125
#
# Coordination Sequence:
#
# PCOD9393228 Si02
#       7
#     8   8   8   8   8   8   8
#     4  11  21  34  55  81 107 145 180 233 281 324
#     4   9  17  32  54  78 105 137 183 238 278 320
#     4  11  22  36  53  79 112 144 190 232 278 338
#     4  10  20  35  54  83 114 142 184 229 282 329
#     4  10  19  34  58  84 111 149 188 224 264 331
#     4   9  17  30  53  82 103 133 181 231 281 324
#     4   9  18  33  57  84 111 144 182 228 274 320
#
# _framework density 17.350791000000001
#
# number of rings (size 3 to 8) (size 9 to 14) (size 15 to 20)
#    0.000    2.143    4.286    0.857    0.000    1.143 
#    2.571    2.143    0.000    0.000    0.000    0.000 
#    0.000    0.000    0.000    0.000    0.000    0.000 
#
# Total GULP energy -311842.097382 kJ/mol
# GULP energy per Si atom -5568.608882 kJ/mol
# Density = 1.731130 g / cm^3
# Si number density = 17.350791 Si / 1000 Ang^3
#
#
#
# Elastic Constant Matrix: (Units=GPa)
#
#
# Indices 1 2 3 4 5 6 
#
# 1 53.5479 33.1871 14.2770 0.0000 0.0000 0.0000
# 2 33.1871 99.6543 46.2885 0.0000 0.0000 0.0000
# 3 14.2770 46.2885 125.6992 0.0000 0.0000 0.0000
# 4 0.0000 0.0000 0.0000 21.3604 0.0000 0.0000
# 5 0.0000 0.0000 0.0000 0.0000 18.9657 0.0000
# 6 0.0000 0.0000 0.0000 0.0000 0.0000 49.4096
#
#
#
# Elastic Compliance Matrix: (Units=1/GPa)
#
#
# Indices 1 2 3 4 5 6 
#
# 1 0.023539 -0.007958 0.000257 0.000000 0.000000 0.000000
# 2 -0.007958 0.014796 -0.004545 0.000000 0.000000 0.000000
# 3 0.000257 -0.004545 0.009600 0.000000 0.000000 0.000000
# 4 0.000000 0.000000 0.000000 0.046816 0.000000 0.000000
# 5 0.000000 0.000000 0.000000 0.000000 0.052727 0.000000
# 6 0.000000 0.000000 0.000000 0.000000 0.000000 0.020239
#
#
# Mechanical properties :
#
#
# Convention : Reuss Voigt Hill
#
# Bulk Modulus (GPa) = 42.65727 51.82296 47.24012
# Shear Modulus (GPa) = 24.99729 30.29040 27.64384
#
# Velocity S-wave (km/s) = 3.79977 4.18277 3.99586
# Velocity P-wave (km/s) = 6.62492 7.29795 6.96956
#
# Compressibility (1/GPa) = 0.02344266
#
# Stress axis : x y z
#
# Youngs Moduli (GPa) = 42.48344 67.58616 104.16814
#
# Poissons Ratio (x) = 0.53787 -0.02678
# Poissons Ratio (y) = 0.33810 0.47341
# Poissons Ratio (z) = -0.01092 0.30716
#
# Static dielectric constant tensor:
#      x y z
#    x 1.599460 0.000000 0.000000 
#    y 0.000000 1.587460 0.000000 
#    z 0.000000 0.000000 1.602400 
# 
# From -- ./inp_files/21014.got.cif
#   From: 2010.05.17/outbox.cif.g08.bks.cpg/sg49_11_cif.got.tgz:21014.got - 2010.06.03 21:02:19.
