data_PCOD9393353
_publ_section_title
;
Structure prediction by ZEFSAII (Michael W. Deem and Ramdas Pophale) SiO2 
 PCOD9393353
Probable space group: P C C M
;
_chemical_formula_sum "Si O2"
_cell_formula_units_Z 48
_cell_length_a 9.638614
_cell_length_b 14.456386
_cell_length_c 14.997307
_cell_angle_alpha 90.000000
_cell_angle_beta 90.000000
_cell_angle_gamma 90.000000
_cell_volume 2089.717626
_symmetry_space_group_name_H-M "P C C M"
_symmetry_group_IT_number 49
_symmetry_cell_setting 'orthorhombic'
loop_
_space_group_symop_operation_xyz
x,y,z
-x,-y,z
x,-y,1/2-z
-x,y,1/2-z
-x,-y,-z
x,y,-z
-x,y,1/2+z
x,-y,1/2+z
loop_
_atom_site_type_symbol
_atom_site_label
_atom_site_fract_x
_atom_site_fract_y
_atom_site_fract_z
Si Si1 0.037886 0.773108 0.152323
Si Si2 0.121674 0.936857 0.400762
Si Si3 0.573594 0.097514 0.607991
Si Si4 0.352789 0.250839 0.391980
Si Si5 0.895742 0.414375 0.600923
Si Si6 0.653706 0.537998 0.393850
O O1 0.948215 0.837648 0.090044
O O2 0.979101 0.669195 0.144562
O O3 0.000000 0.806596 0.250000
O O4 0.199594 0.784290 0.132190
O O5 0.149927 0.978371 0.500000
O O6 0.270184 0.916567 0.356555
O O7 0.000000 0.000000 0.359684
O O8 0.584949 0.109736 0.500000
O O9 0.477259 0.183322 0.639147
O O10 0.500000 0.000000 0.624820
O O11 0.363193 0.253926 0.500000
O O12 0.350332 0.357219 0.358661
O O13 0.860719 0.383053 0.500000
O O14 0.759234 0.460763 0.643654
O O15 0.000000 0.500000 0.596203
O O16 0.500000 0.500000 0.387618
O O17 0.692182 0.545557 0.500000
#
# Coordination Sequence:
#
# PCOD9393353 Si02
#       6
#     8   8   8   8   8   8
#     4  12  25  38  56  84 121 163 199 247 297 362
#     4  10  21  39  65  93 117 150 200 251 299 356
#     4   9  18  33  59  92 119 146 187 247 307 356
#     4  10  19  36  59  85 118 154 197 246 301 354
#     4  10  19  36  60  84 111 149 201 249 300 354
#     4   9  18  31  54  86 113 143 187 249 306 350
#
# _framework density 22.969608999999998
#
# number of rings (size 3 to 8) (size 9 to 14) (size 15 to 20)
#    0.000    2.000    1.667    2.500    2.333    3.333 
#    0.000    0.833    0.000    2.000    0.000    0.000 
#    0.000    0.000    0.000    0.000    0.000    0.000 
#
# Total GULP energy -267796.914581 kJ/mol
# GULP energy per Si atom -5579.102387 kJ/mol
# Density = 2.291733 g / cm^3
# Si number density = 22.969609 Si / 1000 Ang^3
#
#
#
# Elastic Constant Matrix: (Units=GPa)
#
#
# Indices 1 2 3 4 5 6 
#
# 1 192.3402 75.4920 2.9056 0.0000 0.0000 0.0000
# 2 75.4920 103.7414 11.5469 0.0000 0.0000 0.0000
# 3 2.9056 11.5469 49.0291 0.0000 0.0000 0.0000
# 4 0.0000 0.0000 0.0000 6.6791 0.0000 0.0000
# 5 0.0000 0.0000 0.0000 0.0000 -4.5032 0.0000
# 6 0.0000 0.0000 0.0000 0.0000 0.0000 50.2398
#
#
#
# Elastic Compliance Matrix: (Units=1/GPa)
#
#
# Indices 1 2 3 4 5 6 
#
# 1 0.007311 -0.005414 0.000842 0.000000 0.000000 0.000000
# 2 -0.005414 0.013908 -0.002955 0.000000 0.000000 0.000000
# 3 0.000842 -0.002955 0.021042 0.000000 0.000000 0.000000
# 4 0.000000 0.000000 0.000000 0.149720 0.000000 0.000000
# 5 0.000000 0.000000 0.000000 0.000000 -0.222064 0.000000
# 6 0.000000 0.000000 0.000000 0.000000 0.000000 0.019905
#
#
# Mechanical properties :
#
#
# Convention : Reuss Voigt Hill
#
# Bulk Modulus (GPa) = 36.75458 58.33328 47.54393
# Shear Modulus (GPa) = 358.54105 27.49423 193.01764
#
# Velocity S-wave (km/s) = 12.50730 3.46350 9.17683
# Velocity P-wave (km/s) = 14.98709 6.43781 11.53383
#
# Compressibility (1/GPa) = 0.02720750
#
# Stress axis : x y z
#
# Youngs Moduli (GPa) = 136.77229 71.90064 47.52395
#
# Poissons Ratio (x) = 0.38928 -0.04001
# Poissons Ratio (y) = 0.74051 0.14042
# Poissons Ratio (z) = -0.11513 0.21244
#
# Static dielectric constant tensor:
#      x y z
#    x 3.791990 0.000000 0.000000 
#    y 0.000000 32.653620 0.000000 
#    z 0.000000 0.000000 1.969090 
# 
# From -- ./inp_files/16268.got.cif
#   From: 2010.05.17/outbox.cif.g08.bks.cpg/sg49_9_cif.got.tgz:16268.got - 2010.06.03 21:02:19.
