data_PCOD9393162
_publ_section_title
;
Structure prediction by ZEFSAII (Michael W. Deem and Ramdas Pophale) SiO2 
 PCOD9393162
Probable space group: P C C M
;
_chemical_formula_sum "Si O2"
_cell_formula_units_Z 56
_cell_length_a 26.049218
_cell_length_b 14.743140
_cell_length_c 8.757283
_cell_angle_alpha 90.000000
_cell_angle_beta 90.000000
_cell_angle_gamma 90.000000
_cell_volume 3363.210610
_symmetry_space_group_name_H-M "P C C M"
_symmetry_group_IT_number 49
_symmetry_cell_setting 'orthorhombic'
loop_
_space_group_symop_operation_xyz
x,y,z
-x,-y,z
x,-y,1/2-z
-x,y,1/2-z
-x,-y,-z
x,y,-z
-x,y,1/2+z
x,-y,1/2+z
loop_
_atom_site_type_symbol
_atom_site_label
_atom_site_fract_x
_atom_site_fract_y
_atom_site_fract_z
Si Si1 0.648025 0.788092 0.815888
Si Si2 0.444187 0.900829 0.182347
Si Si3 0.811736 0.596768 0.183099
Si Si4 0.845803 0.782768 0.682994
Si Si5 0.944894 0.099693 0.816935
Si Si6 0.248141 0.100985 0.183071
Si Si7 0.691387 0.404057 0.683396
O O1 0.598970 0.830813 0.735291
O O2 0.698522 0.847961 0.780817
O O3 0.660028 0.684706 0.768943
O O4 0.641046 0.790402 0.000000
O O5 0.500000 0.876973 0.250000
O O6 0.430835 0.000000 0.250000
O O7 0.447063 0.906688 0.000000
O O8 0.828433 0.500000 0.250000
O O9 0.841742 0.682040 0.250035
O O10 0.751391 0.608569 0.226385
O O11 0.814887 0.596032 0.000000
O O12 0.841403 0.779844 0.500000
O O13 0.899089 0.832193 0.722842
O O14 0.798931 0.841609 0.749744
O O15 0.000000 0.127731 0.750000
O O16 0.933335 0.000000 0.750000
O O17 0.948480 0.092978 0.000000
O O18 0.248220 0.000000 0.250000
O O19 0.243180 0.097554 0.000000
O O20 0.673700 0.500000 0.750000
O O21 0.689734 0.408698 0.500000
#
# Coordination Sequence:
#
# PCOD9393162 Si02
#       7
#     8   8   8   8   8   8   8
#     4  10  20  36  54  77 109 141 177 219 263 315
#     4  11  22  37  57  80 105 140 181 222 267 313
#     4  10  19  34  54  79 108 143 179 219 266 316
#     4  11  22  35  53  79 108 141 179 220 266 321
#     4  10  21  36  55  78 104 138 181 224 268 315
#     4  11  22  35  50  74 109 145 178 214 265 320
#     4   9  18  33  52  77 107 140 176 216 260 311
#
# _framework density 16.650756999999999
#
# number of rings (size 3 to 8) (size 9 to 14) (size 15 to 20)
#    0.000    1.714    1.429    4.714    0.000    6.857 
#    0.000    0.000    0.000    0.857    0.000    6.000 
#    0.000    0.000    0.000    0.000    0.000    0.000 
#
# Total GULP energy -312788.692632 kJ/mol
# GULP energy per Si atom -5585.512368 kJ/mol
# Density = 1.661286 g / cm^3
# Si number density = 16.650757 Si / 1000 Ang^3
#
#
#
# Elastic Constant Matrix: (Units=GPa)
#
#
# Indices 1 2 3 4 5 6 
#
# 1 107.7727 96.3480 55.7423 0.0000 0.0000 0.0000
# 2 96.3480 167.9576 62.4234 0.0000 0.0000 0.0000
# 3 55.7423 62.4234 69.5437 0.0000 0.0000 0.0000
# 4 0.0000 0.0000 0.0000 32.2232 0.0000 0.0000
# 5 0.0000 0.0000 0.0000 0.0000 -0.5908 0.0000
# 6 0.0000 0.0000 0.0000 0.0000 0.0000 17.0208
#
#
#
# Elastic Compliance Matrix: (Units=1/GPa)
#
#
# Indices 1 2 3 4 5 6 
#
# 1 0.022764 -0.009419 -0.009791 0.000000 0.000000 0.000000
# 2 -0.009419 0.012832 -0.003968 0.000000 0.000000 0.000000
# 3 -0.009791 -0.003968 0.025790 0.000000 0.000000 0.000000
# 4 0.000000 0.000000 0.000000 0.031034 0.000000 0.000000
# 5 0.000000 0.000000 0.000000 0.000000 -1.692523 0.000000
# 6 0.000000 0.000000 0.000000 0.000000 0.000000 0.058752
#
#
# Mechanical properties :
#
#
# Convention : Reuss Voigt Hill
#
# Bulk Modulus (GPa) = 66.54364 86.03348 76.28856
# Shear Modulus (GPa) = -3.35574 18.44799 7.54613
#
# Velocity S-wave (km/s) = -1.42118 3.33218 2.13116
# Velocity P-wave (km/s) = 6.11213 8.16003 7.20917
#
# Compressibility (1/GPa) = 0.01502773
#
# Stress axis : x y z
#
# Youngs Moduli (GPa) = 43.92940 77.92979 38.77539
#
# Poissons Ratio (x) = 0.73404 0.37966
# Poissons Ratio (y) = 0.41378 0.15387
# Poissons Ratio (z) = 0.43012 0.30925
#
# Static dielectric constant tensor:
#      x y z
#    x 1.540710 0.000000 0.000000 
#    y 0.000000 1.546650 0.000000 
#    z 0.000000 0.000000 1.557850 
# 
# From -- ./inp_files/5817.got.cif
#   From: 2010.05.17/outbox.cif.g08.bks.cpg/sg49_3_cif.got.tgz:5817.got - 2010.06.03 21:02:19.
