data_PCOD9393966
_publ_section_title
;
Structure prediction by ZEFSAII (Michael W. Deem and Ramdas Pophale) SiO2 
 PCOD9393966
Probable space group: P C C M
;
_chemical_formula_sum "Si O2"
_cell_formula_units_Z 48
_cell_length_a 31.468978
_cell_length_b 9.283610
_cell_length_c 8.659493
_cell_angle_alpha 90.000000
_cell_angle_beta 90.000000
_cell_angle_gamma 90.000000
_cell_volume 2529.833807
_symmetry_space_group_name_H-M "P C C M"
_symmetry_group_IT_number 49
_symmetry_cell_setting 'orthorhombic'
loop_
_space_group_symop_operation_xyz
x,y,z
-x,-y,z
x,-y,1/2-z
-x,y,1/2-z
-x,-y,-z
x,y,-z
-x,y,1/2+z
x,-y,1/2+z
loop_
_atom_site_type_symbol
_atom_site_label
_atom_site_fract_x
_atom_site_fract_y
_atom_site_fract_z
Si Si1 0.545566 0.161044 0.685786
Si Si2 0.953673 0.340083 0.684835
Si Si3 0.875864 0.839954 0.314664
Si Si4 0.208839 0.338802 0.685066
Si Si5 0.288377 0.161307 0.185589
Si Si6 0.628256 0.339572 0.313864
O O1 0.500000 0.210691 0.750000
O O2 0.543802 0.154695 0.500000
O O3 0.584347 0.263119 0.733709
O O4 0.552712 0.000000 0.750000
O O5 0.944307 0.500000 0.750000
O O6 0.955078 0.345563 0.500000
O O7 0.917566 0.232379 0.742485
O O8 0.000000 0.298962 0.750000
O O9 0.879912 0.844313 0.500000
O O10 0.834903 0.742932 0.275285
O O11 0.869977 0.000000 0.250000
O O12 0.208516 0.500000 0.750000
O O13 0.212556 0.343347 0.500000
O O14 0.248210 0.250324 0.753378
O O15 0.331527 0.243004 0.234313
O O16 0.287631 0.000000 0.250000
O O17 0.287134 0.156571 0.000000
O O18 0.631711 0.500000 0.250000
O O19 0.628535 0.345819 0.500000
#
# Coordination Sequence:
#
# PCOD9393966 Si02
#       6
#     8   8   8   8   8   8
#     4  10  20  36  57  83 112 146 189 234 285 341
#     4  11  22  39  63  90 121 157 199 245 295 350
#     4  11  24  41  61  88 121 157 198 243 293 347
#     4  11  24  41  63  90 121 156 195 241 291 346
#     4  11  23  40  62  88 118 153 194 239 290 346
#     4  10  23  39  57  83 115 151 191 236 286 342
#
# _framework density 18.973578
#
# number of rings (size 3 to 8) (size 9 to 14) (size 15 to 20)
#    0.000    1.333    0.000    6.500    0.000   10.000 
#    0.000    3.333    0.000    0.000    0.000    0.000 
#    0.000    0.000    0.000    0.000    0.000    0.000 
#
# Total GULP energy -268500.028665 kJ/mol
# GULP energy per Si atom -5593.750597 kJ/mol
# Density = 1.893039 g / cm^3
# Si number density = 18.973578 Si / 1000 Ang^3
#
#
#
# Elastic Constant Matrix: (Units=GPa)
#
#
# Indices 1 2 3 4 5 6 
#
# 1 167.1559 130.0035 67.7058 0.0000 0.0000 0.0000
# 2 130.0035 186.5843 63.1619 0.0000 0.0000 0.0000
# 3 67.7058 63.1619 83.0887 0.0000 0.0000 0.0000
# 4 0.0000 0.0000 0.0000 38.5718 0.0000 0.0000
# 5 0.0000 0.0000 0.0000 0.0000 33.5187 0.0000
# 6 0.0000 0.0000 0.0000 0.0000 0.0000 38.7570
#
#
#
# Elastic Compliance Matrix: (Units=1/GPa)
#
#
# Indices 1 2 3 4 5 6 
#
# 1 0.014820 -0.008399 -0.005691 0.000000 0.000000 0.000000
# 2 -0.008399 0.011977 -0.002260 0.000000 0.000000 0.000000
# 3 -0.005691 -0.002260 0.018391 0.000000 0.000000 0.000000
# 4 0.000000 0.000000 0.000000 0.025926 0.000000 0.000000
# 5 0.000000 0.000000 0.000000 0.000000 0.029834 0.000000
# 6 0.000000 0.000000 0.000000 0.000000 0.000000 0.025802
#
#
# Mechanical properties :
#
#
# Convention : Reuss Voigt Hill
#
# Bulk Modulus (GPa) = 80.08781 106.50792 93.29786
# Shear Modulus (GPa) = 30.55965 33.90002 32.22984
#
# Velocity S-wave (km/s) = 4.01764 4.23152 4.12596
# Velocity P-wave (km/s) = 7.98897 8.95160 8.48395
#
# Compressibility (1/GPa) = 0.01248630
#
# Stress axis : x y z
#
# Youngs Moduli (GPa) = 67.47489 83.49333 54.37383
#
# Poissons Ratio (x) = 0.70130 0.30947
# Poissons Ratio (y) = 0.56675 0.12290
# Poissons Ratio (z) = 0.38403 0.18871
#
# Static dielectric constant tensor:
#      x y z
#    x 1.643350 0.000000 0.000000 
#    y 0.000000 1.615160 0.000000 
#    z 0.000000 0.000000 1.639730 
# 
# From -- ./inp_files/6861.got.cif
#   From: 2010.05.17/outbox.cif.g08.bks.cpg/sg49_4_cif.got.tgz:6861.got - 2010.06.03 21:02:19.
