data_PCOD9393379
_publ_section_title
;
Structure prediction by ZEFSAII (Michael W. Deem and Ramdas Pophale) SiO2 
 PCOD9393379
Probable space group: P C C M
;
_chemical_formula_sum "Si O2"
_cell_formula_units_Z 48
_cell_length_a 5.048384
_cell_length_b 17.555518
_cell_length_c 27.882894
_cell_angle_alpha 90.000000
_cell_angle_beta 90.000000
_cell_angle_gamma 90.000000
_cell_volume 2471.177140
_symmetry_space_group_name_H-M "P C C M"
_symmetry_group_IT_number 49
_symmetry_cell_setting 'orthorhombic'
loop_
_space_group_symop_operation_xyz
x,y,z
-x,-y,z
x,-y,1/2-z
-x,y,1/2-z
-x,-y,-z
x,y,-z
-x,y,1/2+z
x,-y,1/2+z
loop_
_atom_site_type_symbol
_atom_site_label
_atom_site_fract_x
_atom_site_fract_y
_atom_site_fract_z
Si Si1 0.942545 0.163859 0.347873
Si Si2 0.058314 0.331444 0.693675
Si Si3 0.924569 0.774815 0.554254
Si Si4 0.561366 0.587644 0.847103
Si Si5 0.557806 0.089030 0.194408
Si Si6 0.572516 0.332308 0.445644
O O1 0.999191 0.248844 0.328648
O O2 0.010193 0.166067 0.404085
O O3 0.143493 0.109016 0.319721
O O4 0.644322 0.138907 0.337053
O O5 0.353337 0.359032 0.681273
O O6 0.000000 0.328771 0.750000
O O7 0.854346 0.390266 0.669642
O O8 0.939067 0.805303 0.500000
O O9 0.641006 0.735163 0.561447
O O10 0.140978 0.707134 0.558026
O O11 0.500000 0.500000 0.837717
O O12 0.535731 0.607721 0.903363
O O13 0.500000 0.107493 0.250000
O O14 0.500000 0.000000 0.187271
O O15 0.537330 0.361872 0.500000
#
# Coordination Sequence:
#
# PCOD9393379 Si02
#       6
#     8   8   8   8   8   8
#     4  12  21  40  66  88 119 156 197 246 287 342
#     4  12  25  40  60  86 114 157 209 247 287 346
#     4  10  20  36  62  89 115 148 193 245 293 344
#     4  12  24  40  58  83 121 158 196 251 304 349
#     4  11  24  40  61  93 127 158 191 233 294 353
#     4  10  19  37  59  84 115 148 193 247 302 352
#
# _framework density 19.423943000000001
#
# number of rings (size 3 to 8) (size 9 to 14) (size 15 to 20)
#    0.000    0.833    3.333    5.000    0.000    3.667 
#    0.000    0.000    0.000    8.000    0.000    0.000 
#    0.000    0.000    0.000    0.000    0.000    0.000 
#
# Total GULP energy -268480.249642 kJ/mol
# GULP energy per Si atom -5593.338534 kJ/mol
# Density = 1.937973 g / cm^3
# Si number density = 19.423943 Si / 1000 Ang^3
#
#
#
# Elastic Constant Matrix: (Units=GPa)
#
#
# Indices 1 2 3 4 5 6 
#
# 1 40.8139 -16.0304 -17.1034 0.0000 0.0000 0.0000
# 2 -16.0304 41.7609 8.6943 0.0000 0.0000 0.0000
# 3 -17.1034 8.6943 111.7275 0.0000 0.0000 0.0000
# 4 0.0000 0.0000 0.0000 27.1528 0.0000 0.0000
# 5 0.0000 0.0000 0.0000 0.0000 29.1465 0.0000
# 6 0.0000 0.0000 0.0000 0.0000 0.0000 30.3424
#
#
#
# Elastic Compliance Matrix: (Units=1/GPa)
#
#
# Indices 1 2 3 4 5 6 
#
# 1 0.030362 0.010863 0.003802 0.000000 0.000000 0.000000
# 2 0.010863 0.028227 -0.000534 0.000000 0.000000 0.000000
# 3 0.003802 -0.000534 0.009574 0.000000 0.000000 0.000000
# 4 0.000000 0.000000 0.000000 0.036829 0.000000 0.000000
# 5 0.000000 0.000000 0.000000 0.000000 0.034309 0.000000
# 6 0.000000 0.000000 0.000000 0.000000 0.000000 0.032957
#
#
# Mechanical properties :
#
#
# Convention : Reuss Voigt Hill
#
# Bulk Modulus (GPa) = 10.37066 16.15814 13.26440
# Shear Modulus (GPa) = 28.38719 31.91114 30.14916
#
# Velocity S-wave (km/s) = 3.82704 4.05764 3.94403
# Velocity P-wave (km/s) = 4.98789 5.50357 5.25206
#
# Compressibility (1/GPa) = 0.09642590
#
# Stress axis : x y z
#
# Youngs Moduli (GPa) = 32.93641 35.42735 104.44996
#
# Poissons Ratio (x) = -0.38485 -0.39717
# Poissons Ratio (y) = -0.35779 0.05574
# Poissons Ratio (z) = -0.12524 0.01890
#
# Static dielectric constant tensor:
#      x y z
#    x 1.650710 0.000000 0.000000 
#    y 0.000000 1.638310 0.000000 
#    z 0.000000 0.000000 1.696700 
# 
# From -- ./inp_files/23950.got.cif
#   From: 2010.05.17/outbox.cif.g08.bks.cpg/sg49_12_cif.got.tgz:23950.got - 2010.06.03 21:02:19.
