data_PCOD9393520
_publ_section_title
;
Structure prediction by ZEFSAII (Michael W. Deem and Ramdas Pophale) SiO2 
 PCOD9393520
Probable space group: P C C M
;
_chemical_formula_sum "Si O2"
_cell_formula_units_Z 58
_cell_length_a 26.163342
_cell_length_b 15.171283
_cell_length_c 8.600417
_cell_angle_alpha 90.000000
_cell_angle_beta 90.000000
_cell_angle_gamma 90.000000
_cell_volume 3413.776126
_symmetry_space_group_name_H-M "P C C M"
_symmetry_group_IT_number 49
_symmetry_cell_setting 'orthorhombic'
loop_
_space_group_symop_operation_xyz
x,y,z
-x,-y,z
x,-y,1/2-z
-x,y,1/2-z
-x,-y,-z
x,y,-z
-x,y,1/2+z
x,-y,1/2+z
loop_
_atom_site_type_symbol
_atom_site_label
_atom_site_fract_x
_atom_site_fract_y
_atom_site_fract_z
Si Si1 0.743009 0.271768 0.313489
Si Si2 0.700366 0.902798 0.313268
Si Si3 0.445507 0.655249 0.812971
Si Si4 0.500000 0.000000 0.750000
Si Si5 0.834381 0.400252 0.312427
Si Si6 0.663394 0.408426 0.186271
Si Si7 0.051977 0.400168 0.814247
Si Si8 0.585166 0.851805 0.688293
O O1 0.743170 0.267621 0.500000
O O2 0.737893 0.173745 0.246341
O O3 0.791560 0.330556 0.261668
O O4 0.694160 0.326687 0.254724
O O5 0.700693 0.903961 0.500000
O O6 0.642588 0.876076 0.260633
O O7 0.711987 0.000000 0.250000
O O8 0.500000 0.625593 0.750000
O O9 0.395852 0.600083 0.765911
O O10 0.433195 0.755313 0.759814
O O11 0.447832 0.655271 0.000000
O O12 0.455479 0.076083 0.739545
O O13 0.826630 0.500000 0.250000
O O14 0.832277 0.406293 0.500000
O O15 0.891537 0.367065 0.269618
O O16 0.685015 0.500000 0.250000
O O17 0.666595 0.405911 0.000000
O O18 0.052250 0.500000 0.750000
O O19 0.000000 0.357102 0.750000
O O20 0.048514 0.402263 0.000000
O O21 0.585621 0.851151 0.500000
#
# Coordination Sequence:
#
# PCOD9393520 Si02
#       8
#     8   8   8   2   8   8   8   8
#     4  11  22  37  56  79 104 138 176 214 260 310
#     4  11  22  39  57  78 104 132 167 208 256 311
#     4  10  21  38  54  71  96 124 156 198 250 305
#     4  12  18  32  52  78  98 120 154 196 248 316
#     4   9  19  32  48  73 107 142 183 223 261 302
#     4  11  23  39  56  76 101 131 167 213 259 309
#     4   9  15  25  41  65  99 140 179 220 257 299
#     4  10  20  33  49  72  99 123 149 189 245 304
#
# _framework density 16.989982999999999
#
# number of rings (size 3 to 8) (size 9 to 14) (size 15 to 20)
#    0.000    1.793    2.759    2.690    0.000    4.138 
#    0.000    1.379    0.000    0.000    0.000    0.000 
#    0.000    0.552    0.000    6.345    0.000    1.931 
#
# Total GULP energy -323114.780976 kJ/mol
# GULP energy per Si atom -5570.944500 kJ/mol
# Density = 1.695131 g / cm^3
# Si number density = 16.989983 Si / 1000 Ang^3
#
#
#
# Elastic Constant Matrix: (Units=GPa)
#
#
# Indices 1 2 3 4 5 6 
#
# 1 130.1524 45.6171 28.1681 0.0000 0.0000 0.0000
# 2 45.6171 94.7277 19.7521 0.0000 0.0000 0.0000
# 3 28.1681 19.7521 31.3985 0.0000 0.0000 0.0000
# 4 0.0000 0.0000 0.0000 18.8965 0.0000 0.0000
# 5 0.0000 0.0000 0.0000 0.0000 24.0818 0.0000
# 6 0.0000 0.0000 0.0000 0.0000 0.0000 11.0480
#
#
#
# Elastic Compliance Matrix: (Units=1/GPa)
#
#
# Indices 1 2 3 4 5 6 
#
# 1 0.010479 -0.003552 -0.007167 0.000000 0.000000 0.000000
# 2 -0.003552 0.013354 -0.005214 0.000000 0.000000 0.000000
# 3 -0.007167 -0.005214 0.041558 0.000000 0.000000 0.000000
# 4 0.000000 0.000000 0.000000 0.052920 0.000000 0.000000
# 5 0.000000 0.000000 0.000000 0.000000 0.041525 0.000000
# 6 0.000000 0.000000 0.000000 0.000000 0.000000 0.090514
#
#
# Mechanical properties :
#
#
# Convention : Reuss Voigt Hill
#
# Bulk Modulus (GPa) = 29.82778 49.26147 39.54463
# Shear Modulus (GPa) = 17.04205 21.65469 19.34837
#
# Velocity S-wave (km/s) = 3.17056 3.57397 3.37829
# Velocity P-wave (km/s) = 5.56753 6.78884 6.20829
#
# Compressibility (1/GPa) = 0.03352580
#
# Stress axis : x y z
#
# Youngs Moduli (GPa) = 95.42626 74.88181 24.06266
#
# Poissons Ratio (x) = 0.26599 0.17245
# Poissons Ratio (y) = 0.33896 0.12547
# Poissons Ratio (z) = 0.68388 0.39046
#
# Static dielectric constant tensor:
#      x y z
#    x 1.614210 0.000000 0.000000 
#    y 0.000000 1.548260 0.000000 
#    z 0.000000 0.000000 1.583720 
# 
# From -- ./inp_files/6778.got.cif
#   From: 2010.05.17/outbox.cif.g08.bks.cpg/sg49_4_cif.got.tgz:6778.got - 2010.06.03 21:02:19.
