data_PCOD9393275
_publ_section_title
;
Structure prediction by ZEFSAII (Michael W. Deem and Ramdas Pophale) SiO2 
 PCOD9393275
Probable space group: P C C M
;
_chemical_formula_sum "Si O2"
_cell_formula_units_Z 52
_cell_length_a 17.314892
_cell_length_b 16.741778
_cell_length_c 9.354510
_cell_angle_alpha 90.000000
_cell_angle_beta 90.000000
_cell_angle_gamma 90.000000
_cell_volume 2711.704797
_symmetry_space_group_name_H-M "P C C M"
_symmetry_group_IT_number 49
_symmetry_cell_setting 'orthorhombic'
loop_
_space_group_symop_operation_xyz
x,y,z
-x,-y,z
x,-y,1/2-z
-x,y,1/2-z
-x,-y,-z
x,y,-z
-x,y,1/2+z
x,-y,1/2+z
loop_
_atom_site_type_symbol
_atom_site_label
_atom_site_fract_x
_atom_site_fract_y
_atom_site_fract_z
Si Si1 0.710025 0.000000 0.250000
Si Si2 0.639365 0.249524 0.335292
Si Si3 0.320304 0.422171 0.166920
Si Si4 0.200132 0.156206 0.841020
Si Si5 0.133749 0.582343 0.329439
Si Si6 0.920200 0.255002 0.172555
Si Si7 0.571727 0.107694 0.840372
O O1 0.764305 0.067590 0.319949
O O2 0.647956 0.051944 0.160162
O O3 0.611792 0.245943 0.500000
O O4 0.641901 0.339991 0.283087
O O5 0.726818 0.215849 0.338460
O O6 0.594680 0.190533 0.232986
O O7 0.345765 0.500000 0.250000
O O8 0.227185 0.414768 0.179531
O O9 0.337103 0.430850 0.000000
O O10 0.142168 0.188450 0.721293
O O11 0.164550 0.161855 0.000000
O O12 0.109130 0.500000 0.250000
O O13 0.113267 0.583526 0.500000
O O14 0.103085 0.659634 0.244247
O O15 0.000000 0.232887 0.250000
O O16 0.925469 0.261039 0.000000
O O17 0.500000 0.077513 0.750000
O O18 0.544887 0.118246 0.000000
#
# Coordination Sequence:
#
# PCOD9393275 Si02
#       7
#     4   8   8   8   8   8   8
#     4  10  23  40  65  94 118 148 188 230 283 346
#     4   9  18  35  57  82 116 157 192 233 285 337
#     4   9  17  30  51  81 115 151 191 237 286 332
#     4  10  20  39  62  85 116 149 188 240 291 346
#     4  10  19  35  56  84 118 153 194 242 295 347
#     4  12  25  40  59  83 114 155 199 244 295 351
#     4  11  23  38  59  90 123 156 190 228 278 340
#
# _framework density 19.176129
#
# number of rings (size 3 to 8) (size 9 to 14) (size 15 to 20)
#    0.000    1.846    1.538    3.000    0.000    7.077 
#    0.000    1.923    0.000    2.308    0.000    3.231 
#    0.000    0.000    0.000    0.000    0.000    0.000 
#
# Total GULP energy -290043.325895 kJ/mol
# GULP energy per Si atom -5577.756267 kJ/mol
# Density = 1.913248 g / cm^3
# Si number density = 19.176129 Si / 1000 Ang^3
#
#
#
# Elastic Constant Matrix: (Units=GPa)
#
#
# Indices 1 2 3 4 5 6 
#
# 1 55.8505 42.9758 50.0748 0.0000 0.0000 0.0000
# 2 42.9758 151.7229 60.8292 0.0000 0.0000 0.0000
# 3 50.0748 60.8292 151.3280 0.0000 0.0000 0.0000
# 4 0.0000 0.0000 0.0000 -839.3787 0.0000 0.0000
# 5 0.0000 0.0000 0.0000 0.0000 24.7355 0.0000
# 6 0.0000 0.0000 0.0000 0.0000 0.0000 5.5495
#
#
#
# Elastic Compliance Matrix: (Units=1/GPa)
#
#
# Indices 1 2 3 4 5 6 
#
# 1 0.028426 -0.005103 -0.007355 0.000000 0.000000 0.000000
# 2 -0.005103 0.008773 -0.001838 0.000000 0.000000 0.000000
# 3 -0.007355 -0.001838 0.009781 0.000000 0.000000 0.000000
# 4 0.000000 0.000000 0.000000 -0.001191 0.000000 0.000000
# 5 0.000000 0.000000 0.000000 0.000000 0.040428 0.000000
# 6 0.000000 0.000000 0.000000 0.000000 0.000000 0.180196
#
#
# Mechanical properties :
#
#
# Convention : Reuss Voigt Hill
#
# Bulk Modulus (GPa) = 54.38290 74.07344 64.22817
# Shear Modulus (GPa) = 16.60391 -148.15064 -65.77337
#
# Velocity S-wave (km/s) = 2.94575 -8.79918 -5.86294
# Velocity P-wave (km/s) = 6.32386 8.03258 3.50222
#
# Compressibility (1/GPa) = 0.01838813
#
# Stress axis : x y z
#
# Youngs Moduli (GPa) = 35.17915 113.98247 102.24137
#
# Poissons Ratio (x) = 0.58164 0.75198
# Poissons Ratio (y) = 0.17952 0.18792
# Poissons Ratio (z) = 0.25874 0.20950
#
# Static dielectric constant tensor:
#      x y z
#    x 1.832860 0.000000 0.000000 
#    y 0.000000 1.684510 0.000000 
#    z 0.000000 0.000000 1.653840 
# 
# From -- ./inp_files/5031.got.cif
#   From: 2010.05.17/outbox.cif.g08.bks.cpg/sg49_3_cif.got.tgz:5031.got - 2010.06.03 21:02:19.
