data_PCOD9393031
_publ_section_title
;
Structure prediction by ZEFSAII (Michael W. Deem and Ramdas Pophale) SiO2 
 PCOD9393031
Probable space group: P C C M
;
_chemical_formula_sum "Si O2"
_cell_formula_units_Z 48
_cell_length_a 18.848805
_cell_length_b 16.089213
_cell_length_c 8.921974
_cell_angle_alpha 90.000000
_cell_angle_beta 90.000000
_cell_angle_gamma 90.000000
_cell_volume 2705.699591
_symmetry_space_group_name_H-M "P C C M"
_symmetry_group_IT_number 49
_symmetry_cell_setting 'orthorhombic'
loop_
_space_group_symop_operation_xyz
x,y,z
-x,-y,z
x,-y,1/2-z
-x,y,1/2-z
-x,-y,-z
x,y,-z
-x,y,1/2+z
x,-y,1/2+z
loop_
_atom_site_type_symbol
_atom_site_label
_atom_site_fract_x
_atom_site_fract_y
_atom_site_fract_z
Si Si1 0.168978 0.084467 0.828145
Si Si2 0.339356 0.259961 0.320824
Si Si3 0.921846 0.586449 0.319055
Si Si4 0.828523 0.744779 0.678273
Si Si5 0.421304 0.414043 0.180296
Si Si6 0.341854 0.086015 0.174204
O O1 0.145750 0.170119 0.752851
O O2 0.255443 0.084443 0.820710
O O3 0.144555 0.000000 0.750000
O O4 0.147950 0.083419 0.000000
O O5 0.350278 0.266051 0.500000
O O6 0.255028 0.266230 0.289531
O O7 0.377904 0.334344 0.235263
O O8 0.363577 0.169457 0.261492
O O9 0.894368 0.500000 0.250000
O O10 0.925895 0.580253 0.500000
O O11 0.872562 0.663899 0.277034
O O12 0.000000 0.598593 0.250000
O O13 0.835034 0.754473 0.500000
O O14 0.391400 0.500000 0.250000
O O15 0.500000 0.406245 0.250000
O O16 0.424280 0.419238 0.000000
O O17 0.366227 0.000000 0.250000
O O18 0.362705 0.089837 0.000000
#
# Coordination Sequence:
#
# PCOD9393031 Si02
#       6
#     8   8   8   8   8   8
#     4   9  16  26  44  69  99 132 166 202 245 294
#     4  10  19  33  52  77 106 135 167 209 254 297
#     4  10  20  35  53  73  97 130 168 207 249 300
#     4   9  19  33  50  74 104 133 166 207 252 296
#     4  11  22  38  57  77 101 133 171 209 250 302
#     4   9  16  27  44  70 101 135 170 206 247 295
#
# _framework density 17.740328000000002
#
# number of rings (size 3 to 8) (size 9 to 14) (size 15 to 20)
#    0.000    2.333    0.000    4.500    0.000    6.667 
#    0.000    1.667    0.000    1.000    0.000    7.000 
#    0.000    0.000    0.000    0.000    0.000    0.000 
#
# Total GULP energy -267739.861612 kJ/mol
# GULP energy per Si atom -5577.913784 kJ/mol
# Density = 1.769995 g / cm^3
# Si number density = 17.740328 Si / 1000 Ang^3
#
#
#
# Elastic Constant Matrix: (Units=GPa)
#
#
# Indices 1 2 3 4 5 6 
#
# 1 20.7421 54.8806 37.8794 0.0000 0.0000 0.0000
# 2 54.8806 216.5922 97.4030 0.0000 0.0000 0.0000
# 3 37.8794 97.4030 108.1856 0.0000 0.0000 0.0000
# 4 0.0000 0.0000 0.0000 39.9474 0.0000 0.0000
# 5 0.0000 0.0000 0.0000 0.0000 -41.4846 0.0000
# 6 0.0000 0.0000 0.0000 0.0000 0.0000 -27.3132
#
#
#
# Elastic Compliance Matrix: (Units=1/GPa)
#
#
# Indices 1 2 3 4 5 6 
#
# 1 0.242112 -0.039025 -0.049636 0.000000 0.000000 0.000000
# 2 -0.039025 0.014049 0.001016 0.000000 0.000000 0.000000
# 3 -0.049636 0.001016 0.025708 0.000000 0.000000 0.000000
# 4 0.000000 0.000000 0.000000 0.025033 0.000000 0.000000
# 5 0.000000 0.000000 0.000000 0.000000 -0.024105 0.000000
# 6 0.000000 0.000000 0.000000 0.000000 0.000000 -0.036612
#
#
# Mechanical properties :
#
#
# Convention : Reuss Voigt Hill
#
# Bulk Modulus (GPa) = 9.38282 80.64957 45.01620
# Shear Modulus (GPa) = 10.94093 4.58704 7.76398
#
# Velocity S-wave (km/s) = 2.48609 1.60974 2.09427
# Velocity P-wave (km/s) = 3.67985 7.00106 5.59268
#
# Compressibility (1/GPa) = 0.10657773
#
# Stress axis : x y z
#
# Youngs Moduli (GPa) = 4.13033 71.18188 38.89848
#
# Poissons Ratio (x) = 2.77790 1.93075
# Poissons Ratio (y) = 0.16119 -0.03951
# Poissons Ratio (z) = 0.20501 -0.07230
#
# Static dielectric constant tensor:
#      x y z
#    x 1.598600 0.000000 0.000000 
#    y 0.000000 1.610400 0.000000 
#    z 0.000000 0.000000 1.594960 
# 
# From -- ./inp_files/3727.got.cif
#   From: 2010.05.17/outbox.cif.g08.bks.cpg/sg49_2_cif.got.tgz:3727.got - 2010.06.03 21:02:19.
