data_PCOD9393199
_publ_section_title
;
Structure prediction by ZEFSAII (Michael W. Deem and Ramdas Pophale) SiO2 
 PCOD9393199
Probable space group: P C C M
;
_chemical_formula_sum "Si O2"
_cell_formula_units_Z 64
_cell_length_a 16.520380
_cell_length_b 22.334104
_cell_length_c 9.171535
_cell_angle_alpha 90.000000
_cell_angle_beta 90.000000
_cell_angle_gamma 90.000000
_cell_volume 3384.001872
_symmetry_space_group_name_H-M "P C C M"
_symmetry_group_IT_number 49
_symmetry_cell_setting 'orthorhombic'
loop_
_space_group_symop_operation_xyz
x,y,z
-x,-y,z
x,-y,1/2-z
-x,y,1/2-z
-x,-y,-z
x,y,-z
-x,y,1/2+z
x,-y,1/2+z
loop_
_atom_site_type_symbol
_atom_site_label
_atom_site_fract_x
_atom_site_fract_y
_atom_site_fract_z
Si Si1 0.081618 0.738151 0.830770
Si Si2 0.422343 0.087728 0.335139
Si Si3 0.082849 0.593773 0.831372
Si Si4 0.417374 0.355034 0.672946
Si Si5 0.761628 0.938985 0.676392
Si Si6 0.367550 0.780087 0.833674
Si Si7 0.210761 0.182818 0.172337
Si Si8 0.734370 0.562204 0.676973
O O1 0.085662 0.666114 0.827061
O O2 0.152667 0.767731 0.740287
O O3 0.000000 0.756710 0.750000
O O4 0.083590 0.756433 0.000000
O O5 0.500000 0.066861 0.250000
O O6 0.428249 0.066591 0.500000
O O7 0.333726 0.068318 0.281870
O O8 0.421857 0.160472 0.335423
O O9 0.172001 0.574294 0.776119
O O10 0.000000 0.574993 0.750000
O O11 0.075992 0.574762 0.000000
O O12 0.500000 0.375813 0.750000
O O13 0.426349 0.364624 0.500000
O O14 0.407460 0.283640 0.696445
O O15 0.333531 0.388127 0.717155
O O16 0.767440 0.939403 0.500000
O O17 0.802333 0.880108 0.744368
O O18 0.791487 0.000000 0.750000
O O19 0.299675 0.794317 0.715591
O O20 0.331969 0.776548 0.000000
O O21 0.201344 0.175848 0.000000
O O22 0.709378 0.500000 0.750000
O O23 0.735366 0.559017 0.500000
#
# Coordination Sequence:
#
# PCOD9393199 Si02
#       8
#     8   8   8   8   8   8   8   8
#     4  10  19  34  56  83 114 143 171 210 259 316
#     4   9  18  30  47  71 100 131 164 205 259 315
#     4   9  19  36  59  85 114 145 177 216 269 328
#     4  10  21  37  57  79 106 141 184 232 286 337
#     4  10  21  37  53  72  99 136 180 224 266 310
#     4   9  18  34  53  75 104 137 171 216 272 327
#     4  11  21  33  53  81 109 141 178 217 263 318
#     4  10  22  39  56  77 107 146 187 229 275 327
#
# _framework density 18.912519
#
# number of rings (size 3 to 8) (size 9 to 14) (size 15 to 20)
#    0.000    2.250    0.000    3.750    0.000    7.250 
#    0.000    5.000    0.000    0.375    0.000    2.625 
#    0.000    0.000    0.000    0.000    0.000    0.000 
#
# Total GULP energy -356882.582371 kJ/mol
# GULP energy per Si atom -5576.290350 kJ/mol
# Density = 1.886947 g / cm^3
# Si number density = 18.912519 Si / 1000 Ang^3
#
#
#
# Elastic Constant Matrix: (Units=GPa)
#
#
# Indices 1 2 3 4 5 6 
#
# 1 67.4601 24.0694 29.3438 0.0000 0.0000 0.0000
# 2 24.0694 65.1032 26.7309 0.0000 0.0000 0.0000
# 3 29.3438 26.7309 67.7467 0.0000 0.0000 0.0000
# 4 0.0000 0.0000 0.0000 23.9566 0.0000 0.0000
# 5 0.0000 0.0000 0.0000 0.0000 32.1303 0.0000
# 6 0.0000 0.0000 0.0000 0.0000 0.0000 -1.2802
#
#
#
# Elastic Compliance Matrix: (Units=1/GPa)
#
#
# Indices 1 2 3 4 5 6 
#
# 1 0.019271 -0.004412 -0.006606 0.000000 0.000000 0.000000
# 2 -0.004412 0.019340 -0.005720 0.000000 0.000000 0.000000
# 3 -0.006606 -0.005720 0.019879 0.000000 0.000000 0.000000
# 4 0.000000 0.000000 0.000000 0.041742 0.000000 0.000000
# 5 0.000000 0.000000 0.000000 0.000000 0.031123 0.000000
# 6 0.000000 0.000000 0.000000 0.000000 0.000000 -0.781104
#
#
# Mechanical properties :
#
#
# Convention : Reuss Voigt Hill
#
# Bulk Modulus (GPa) = 39.97804 40.06648 40.02226
# Shear Modulus (GPa) = -8.22459 18.97238 5.37390
#
# Velocity S-wave (km/s) = -2.08763 3.17071 1.68749
# Velocity P-wave (km/s) = 3.92089 5.88521 5.00045
#
# Compressibility (1/GPa) = 0.02501373
#
# Stress axis : x y z
#
# Youngs Moduli (GPa) = 51.89010 51.70607 50.30388
#
# Poissons Ratio (x) = 0.22815 0.33232
# Poissons Ratio (y) = 0.22896 0.28773
# Poissons Ratio (z) = 0.34280 0.29575
#
# Static dielectric constant tensor:
#      x y z
#    x -0.795550 0.000000 0.000000 
#    y 0.000000 1.665230 0.000000 
#    z 0.000000 0.000000 1.644370 
# 
# From -- ./inp_files/4351.got.cif
#   From: 2010.05.17/outbox.cif.g08.bks.cpg/sg49_3_cif.got.tgz:4351.got - 2010.06.03 21:02:19.
