data_PCOD9393774
_publ_section_title
;
Structure prediction by ZEFSAII (Michael W. Deem and Ramdas Pophale) SiO2 
 PCOD9393774
Probable space group: P C C M
;
_chemical_formula_sum "Si O2"
_cell_formula_units_Z 56
_cell_length_a 15.516489
_cell_length_b 20.727823
_cell_length_c 8.967687
_cell_angle_alpha 90.000000
_cell_angle_beta 90.000000
_cell_angle_gamma 90.000000
_cell_volume 2884.214733
_symmetry_space_group_name_H-M "P C C M"
_symmetry_group_IT_number 49
_symmetry_cell_setting 'orthorhombic'
loop_
_space_group_symop_operation_xyz
x,y,z
-x,-y,z
x,-y,1/2-z
-x,y,1/2-z
-x,-y,-z
x,y,-z
-x,y,1/2+z
x,-y,1/2+z
loop_
_atom_site_type_symbol
_atom_site_label
_atom_site_fract_x
_atom_site_fract_y
_atom_site_fract_z
Si Si1 0.595103 0.203422 0.819155
Si Si2 0.595326 0.334603 0.679511
Si Si3 0.094199 0.809343 0.678008
Si Si4 0.094891 0.335565 0.820270
Si Si5 0.152265 0.062884 0.666494
Si Si6 0.750665 0.429646 0.679409
Si Si7 0.643074 0.062096 0.165195
O O1 0.500000 0.203439 0.750000
O O2 0.633700 0.268131 0.747544
O O3 0.631964 0.133996 0.771895
O O4 0.596223 0.208281 0.000000
O O5 0.500000 0.345013 0.750000
O O6 0.587230 0.328496 0.500000
O O7 0.662511 0.391328 0.714884
O O8 0.090462 0.814856 0.500000
O O9 0.126884 0.737311 0.715592
O O10 0.141751 0.870809 0.745080
O O11 0.000000 0.812084 0.750000
O O12 0.166337 0.387331 0.772655
O O13 0.000000 0.345023 0.750000
O O14 0.086015 0.338842 0.000000
O O15 0.115318 0.068977 0.500000
O O16 0.254549 0.052359 0.652707
O O17 0.115887 0.000000 0.750000
O O18 0.751859 0.500000 0.750000
O O19 0.754600 0.434800 0.500000
O O20 0.607798 0.000000 0.250000
O O21 0.604251 0.063331 0.000000
#
# Coordination Sequence:
#
# PCOD9393774 Si02
#       7
#     8   8   8   8   8   8   8
#     4  10  20  35  54  80 109 142 185 230 278 332
#     4  10  21  38  60  86 118 153 192 238 286 338
#     4  10  20  35  56  80 107 141 181 227 277 330
#     4   9  20  39  60  86 119 152 191 234 283 339
#     4  10  20  35  52  75 106 141 183 229 278 331
#     4  10  23  41  61  89 120 153 192 231 279 342
#     4   9  20  35  51  74 106 142 183 229 277 331
#
# _framework density 19.416029999999999
#
# number of rings (size 3 to 8) (size 9 to 14) (size 15 to 20)
#    0.000    2.286    0.000    2.571    2.000    5.143 
#    0.000    5.714    0.000    0.000    0.000    0.000 
#    0.000    0.000    0.000    0.000    0.000    0.000 
#
# Total GULP energy -312213.577894 kJ/mol
# GULP energy per Si atom -5575.242462 kJ/mol
# Density = 1.937184 g / cm^3
# Si number density = 19.416030 Si / 1000 Ang^3
#
#
#
# Elastic Constant Matrix: (Units=GPa)
#
#
# Indices 1 2 3 4 5 6 
#
# 1 63.3755 64.7824 30.8011 0.0000 0.0000 0.0000
# 2 64.7824 200.6581 72.4966 0.0000 0.0000 0.0000
# 3 30.8011 72.4966 72.6504 0.0000 0.0000 0.0000
# 4 0.0000 0.0000 0.0000 33.0646 0.0000 0.0000
# 5 0.0000 0.0000 0.0000 0.0000 10.6376 0.0000
# 6 0.0000 0.0000 0.0000 0.0000 0.0000 69.2422
#
#
#
# Elastic Compliance Matrix: (Units=1/GPa)
#
#
# Indices 1 2 3 4 5 6 
#
# 1 0.024223 -0.006427 -0.003856 0.000000 0.000000 0.000000
# 2 -0.006427 0.009499 -0.006754 0.000000 0.000000 0.000000
# 3 -0.003856 -0.006754 0.022139 0.000000 0.000000 0.000000
# 4 0.000000 0.000000 0.000000 0.030244 0.000000 0.000000
# 5 0.000000 0.000000 0.000000 0.000000 0.094006 0.000000
# 6 0.000000 0.000000 0.000000 0.000000 0.000000 0.014442
#
#
# Mechanical properties :
#
#
# Convention : Reuss Voigt Hill
#
# Bulk Modulus (GPa) = 45.89991 74.76048 60.33020
# Shear Modulus (GPa) = 21.19647 33.82914 27.51281
#
# Velocity S-wave (km/s) = 3.30767 4.17865 3.76841
# Velocity P-wave (km/s) = 6.18701 7.86572 7.07632
#
# Compressibility (1/GPa) = 0.02178653
#
# Stress axis : x y z
#
# Youngs Moduli (GPa) = 41.28315 105.27768 45.16968
#
# Poissons Ratio (x) = 0.67664 0.17418
# Poissons Ratio (y) = 0.26534 0.30506
# Poissons Ratio (z) = 0.15919 0.71101
#
# Static dielectric constant tensor:
#      x y z
#    x 1.695670 0.000000 0.000000 
#    y 0.000000 1.706230 0.000000 
#    z 0.000000 0.000000 1.675410 
# 
# From -- ./inp_files/4043.got.cif
#   From: 2010.05.17/outbox.cif.g08.bks.cpg/sg49_3_cif.got.tgz:4043.got - 2010.06.03 21:02:19.
