data_PCOD9393679
_publ_section_title
;
Structure prediction by ZEFSAII (Michael W. Deem and Ramdas Pophale) SiO2 
 PCOD9393679
Probable space group: P C C M
;
_chemical_formula_sum "Si O2"
_cell_formula_units_Z 58
_cell_length_a 15.377255
_cell_length_b 23.634514
_cell_length_c 8.922431
_cell_angle_alpha 90.000000
_cell_angle_beta 90.000000
_cell_angle_gamma 90.000000
_cell_volume 3242.714329
_symmetry_space_group_name_H-M "P C C M"
_symmetry_group_IT_number 49
_symmetry_cell_setting 'orthorhombic'
loop_
_space_group_symop_operation_xyz
x,y,z
-x,-y,z
x,-y,1/2-z
-x,y,1/2-z
-x,-y,-z
x,y,-z
-x,y,1/2+z
x,-y,1/2+z
loop_
_atom_site_type_symbol
_atom_site_label
_atom_site_fract_x
_atom_site_fract_y
_atom_site_fract_z
Si Si1 0.906376 0.601326 0.819563
Si Si2 0.772024 0.829189 0.181185
Si Si3 0.594208 0.353837 0.680304
Si Si4 0.408108 0.779330 0.679161
Si Si5 0.171657 0.055456 0.331631
Si Si6 0.000000 0.000000 0.250000
Si Si7 0.729689 0.440876 0.180029
Si Si8 0.908189 0.734443 0.179239
O O1 0.826956 0.569304 0.742247
O O2 0.892300 0.668383 0.786693
O O3 0.000000 0.585739 0.750000
O O4 0.906109 0.593427 0.000000
O O5 0.673731 0.816148 0.230576
O O6 0.808698 0.887686 0.243195
O O7 0.832678 0.776693 0.229190
O O8 0.773010 0.830843 0.000000
O O9 0.500000 0.368162 0.750000
O O10 0.594356 0.361807 0.500000
O O11 0.609329 0.287131 0.711153
O O12 0.668128 0.391432 0.756599
O O13 0.500000 0.795033 0.750000
O O14 0.414809 0.784182 0.500000
O O15 0.203661 0.060338 0.500000
O O16 0.068258 0.040581 0.333906
O O17 0.210028 0.000000 0.250000
O O18 0.698106 0.500000 0.250000
O O19 0.728934 0.442257 0.000000
O O20 0.000000 0.750981 0.250000
O O21 0.914888 0.738473 0.000000
#
# Coordination Sequence:
#
# PCOD9393679 Si02
#       8
#     8   8   8   8   8   2   8   8
#     4  10  20  38  59  80 109 145 185 230 279 332
#     4  10  20  34  53  80 114 148 182 224 273 323
#     4  10  20  38  62  88 117 148 182 222 275 335
#     4   9  19  36  59  85 114 147 181 223 275 327
#     4  10  21  35  53  76 106 145 187 228 270 317
#     4   8  22  36  54  72 108 144 194 228 276 312
#     4  12  25  40  58  82 109 143 186 231 280 332
#     4   9  19  33  51  77 110 145 178 217 269 326
#
# _framework density 17.88625
#
# number of rings (size 3 to 8) (size 9 to 14) (size 15 to 20)
#    0.414    1.655    0.000    3.517    0.966    4.966 
#    0.000    4.138    0.000    0.414    0.000    2.897 
#    0.000    0.000    0.000    0.000    0.000    0.000 
#
# Total GULP energy -323534.337837 kJ/mol
# GULP energy per Si atom -5578.178239 kJ/mol
# Density = 1.784554 g / cm^3
# Si number density = 17.886250 Si / 1000 Ang^3
#
#
#
# Elastic Constant Matrix: (Units=GPa)
#
#
# Indices 1 2 3 4 5 6 
#
# 1 101.1249 45.8753 33.2482 0.0000 0.0000 0.0000
# 2 45.8753 51.2920 25.4135 0.0000 0.0000 0.0000
# 3 33.2482 25.4135 70.5873 0.0000 0.0000 0.0000
# 4 0.0000 0.0000 0.0000 32.6081 0.0000 0.0000
# 5 0.0000 0.0000 0.0000 0.0000 29.2111 0.0000
# 6 0.0000 0.0000 0.0000 0.0000 0.0000 -14.1513
#
#
#
# Elastic Compliance Matrix: (Units=1/GPa)
#
#
# Indices 1 2 3 4 5 6 
#
# 1 0.017186 -0.013827 -0.003117 0.000000 0.000000 0.000000
# 2 -0.013827 0.034853 -0.006035 0.000000 0.000000 0.000000
# 3 -0.003117 -0.006035 0.017808 0.000000 0.000000 0.000000
# 4 0.000000 0.000000 0.000000 0.030667 0.000000 0.000000
# 5 0.000000 0.000000 0.000000 0.000000 0.034234 0.000000
# 6 0.000000 0.000000 0.000000 0.000000 0.000000 -0.070665
#
#
# Mechanical properties :
#
#
# Convention : Reuss Voigt Hill
#
# Bulk Modulus (GPa) = 41.86064 48.00870 44.93467
# Shear Modulus (GPa) = 42.37123 17.43139 29.90131
#
# Velocity S-wave (km/s) = 4.87244 3.12520 4.09314
# Velocity P-wave (km/s) = 7.42354 6.31837 6.89314
#
# Compressibility (1/GPa) = 0.02388879
#
# Stress axis : x y z
#
# Youngs Moduli (GPa) = 58.18663 28.69180 56.15471
#
# Poissons Ratio (x) = 0.39672 0.17503
# Poissons Ratio (y) = 0.80453 0.33892
# Poissons Ratio (z) = 0.18137 0.17317
#
# Static dielectric constant tensor:
#      x y z
#    x 1.600600 0.000000 0.000000 
#    y 0.000000 1.604610 0.000000 
#    z 0.000000 0.000000 1.601880 
# 
# From -- ./inp_files/4271.got.cif
#   From: 2010.05.17/outbox.cif.g08.bks.cpg/sg49_3_cif.got.tgz:4271.got - 2010.06.03 21:02:19.
