data_PCOD9393760
_publ_section_title
;
Structure prediction by ZEFSAII (Michael W. Deem and Ramdas Pophale) SiO2 
 PCOD9393760
Probable space group: P C C M
;
_chemical_formula_sum "Si O2"
_cell_formula_units_Z 64
_cell_length_a 25.658368
_cell_length_b 14.799176
_cell_length_c 8.883429
_cell_angle_alpha 90.000000
_cell_angle_beta 90.000000
_cell_angle_gamma 90.000000
_cell_volume 3373.239680
_symmetry_space_group_name_H-M "P C C M"
_symmetry_group_IT_number 49
_symmetry_cell_setting 'orthorhombic'
loop_
_space_group_symop_operation_xyz
x,y,z
-x,-y,z
x,-y,1/2-z
-x,y,1/2-z
-x,-y,-z
x,y,-z
-x,y,1/2+z
x,-y,1/2+z
loop_
_atom_site_type_symbol
_atom_site_label
_atom_site_fract_x
_atom_site_fract_y
_atom_site_fract_z
Si Si1 0.558154 0.589112 0.820449
Si Si2 0.252890 0.220934 0.680849
Si Si3 0.154087 0.900583 0.181247
Si Si4 0.054499 0.220282 0.319412
Si Si5 0.779907 0.594866 0.821670
Si Si6 0.648718 0.097279 0.180257
Si Si7 0.095758 0.595830 0.320405
Si Si8 0.442311 0.790577 0.319797
O O1 0.584299 0.500000 0.750000
O O2 0.500000 0.591933 0.750000
O O3 0.579635 0.689054 0.787700
O O4 0.554630 0.578302 0.000000
O O5 0.250200 0.231115 0.500000
O O6 0.203399 0.160181 0.728740
O O7 0.248874 0.318831 0.754330
O O8 0.305079 0.166759 0.718728
O O9 0.101498 0.847045 0.222306
O O10 0.156035 0.000000 0.250000
O O11 0.155811 0.908008 0.000000
O O12 0.051395 0.224918 0.500000
O O13 0.067589 0.319278 0.254457
O O14 0.000000 0.189316 0.250000
O O15 0.763256 0.500000 0.750000
O O16 0.842050 0.605596 0.790378
O O17 0.773106 0.591189 0.000000
O O18 0.595499 0.136278 0.247952
O O19 0.660373 0.000000 0.250000
O O20 0.645244 0.090457 0.000000
O O21 0.079249 0.500000 0.250000
O O22 0.087753 0.595477 0.500000
O O23 0.500000 0.796864 0.250000
O O24 0.445462 0.800371 0.500000
#
# Coordination Sequence:
#
# PCOD9393760 Si02
#       8
#     8   8   8   8   8   8   8   8
#     4   9  16  27  48  78 111 148 187 232 277 328
#     4  10  21  40  63  89 120 153 193 240 291 349
#     4  10  22  39  61  85 112 148 191 241 295 350
#     4  11  23  39  58  82 116 154 194 245 295 350
#     4  10  20  34  59  91 122 157 194 237 287 347
#     4  11  24  41  63  89 119 154 194 245 299 351
#     4  10  20  35  57  86 117 153 194 237 288 348
#     4  10  21  38  60  87 121 159 202 246 293 351
#
# _framework density 18.972857999999999
#
# number of rings (size 3 to 8) (size 9 to 14) (size 15 to 20)
#    0.000    1.875    1.250    3.000    0.000    5.750 
#    0.000    4.375    0.000    1.500    0.000    0.000 
#    0.000    0.000    0.000    0.000    0.000    0.000 
#
# Total GULP energy -357506.100221 kJ/mol
# GULP energy per Si atom -5586.032816 kJ/mol
# Density = 1.892968 g / cm^3
# Si number density = 18.972858 Si / 1000 Ang^3
#
#
#
# Elastic Constant Matrix: (Units=GPa)
#
#
# Indices 1 2 3 4 5 6 
#
# 1 89.7769 59.8803 40.3247 0.0000 0.0000 0.0000
# 2 59.8803 132.5109 41.5494 0.0000 0.0000 0.0000
# 3 40.3247 41.5494 47.6094 0.0000 0.0000 0.0000
# 4 0.0000 0.0000 0.0000 40.4970 0.0000 0.0000
# 5 0.0000 0.0000 0.0000 0.0000 71.8248 0.0000
# 6 0.0000 0.0000 0.0000 0.0000 0.0000 7.2995
#
#
#
# Elastic Compliance Matrix: (Units=1/GPa)
#
#
# Indices 1 2 3 4 5 6 
#
# 1 0.020288 -0.005204 -0.012642 0.000000 0.000000 0.000000
# 2 -0.005204 0.011724 -0.005824 0.000000 0.000000 0.000000
# 3 -0.012642 -0.005824 0.036795 0.000000 0.000000 0.000000
# 4 0.000000 0.000000 0.000000 0.024693 0.000000 0.000000
# 5 0.000000 0.000000 0.000000 0.000000 0.013923 0.000000
# 6 0.000000 0.000000 0.000000 0.000000 0.000000 0.136996
#
#
# Mechanical properties :
#
#
# Convention : Reuss Voigt Hill
#
# Bulk Modulus (GPa) = 46.58423 61.48957 54.03690
# Shear Modulus (GPa) = 16.72709 32.46710 24.59709
#
# Velocity S-wave (km/s) = 2.97245 4.14120 3.60451
# Velocity P-wave (km/s) = 6.03216 7.43947 6.77247
#
# Compressibility (1/GPa) = 0.02146649
#
# Stress axis : x y z
#
# Youngs Moduli (GPa) = 49.28961 85.29210 27.17743
#
# Poissons Ratio (x) = 0.44386 0.34359
# Poissons Ratio (y) = 0.25650 0.15829
# Poissons Ratio (z) = 0.62314 0.49677
#
# Static dielectric constant tensor:
#      x y z
#    x 1.656860 0.000000 0.000000 
#    y 0.000000 1.648760 0.000000 
#    z 0.000000 0.000000 1.630450 
# 
# From -- ./inp_files/6545.got.cif
#   From: 2010.05.17/outbox.cif.g08.bks.cpg/sg49_4_cif.got.tgz:6545.got - 2010.06.03 21:02:19.
