data_PCOD9393489
_publ_section_title
;
Structure prediction by ZEFSAII (Michael W. Deem and Ramdas Pophale) SiO2 
 PCOD9393489
Probable space group: P C C M
;
_chemical_formula_sum "Si O2"
_cell_formula_units_Z 32
_cell_length_a 12.094656
_cell_length_b 6.655021
_cell_length_c 15.726716
_cell_angle_alpha 90.000000
_cell_angle_beta 90.000000
_cell_angle_gamma 90.000000
_cell_volume 1265.846354
_symmetry_space_group_name_H-M "P C C M"
_symmetry_group_IT_number 49
_symmetry_cell_setting 'orthorhombic'
loop_
_space_group_symop_operation_xyz
x,y,z
-x,-y,z
x,-y,1/2-z
-x,y,1/2-z
-x,-y,-z
x,y,-z
-x,y,1/2+z
x,-y,1/2+z
loop_
_atom_site_type_symbol
_atom_site_label
_atom_site_fract_x
_atom_site_fract_y
_atom_site_fract_z
Si Si1 0.538652 0.767462 0.905675
Si Si2 0.889293 0.384015 0.405397
Si Si3 0.707443 0.734172 0.592932
Si Si4 0.263862 0.262807 0.224893
O O1 0.419460 0.659166 0.897413
O O2 0.625080 0.753440 0.830083
O O3 0.500000 0.000000 0.905903
O O4 0.585811 0.724780 0.000000
O O5 0.907180 0.296572 0.500000
O O6 0.794780 0.554624 0.413466
O O7 0.842390 0.233568 0.335243
O O8 0.000000 0.500000 0.379122
O O9 0.712483 0.840652 0.500000
O O10 0.731313 0.843005 0.682754
O O11 0.257604 0.500000 0.250000
#
# Coordination Sequence:
#
# PCOD9393489 Si02
#       4
#     8   8   8   8
#     4  10  21  37  56  79 111 149 187 229 280 339
#     4   9  18  33  53  77 106 140 182 235 287 331
#     4   9  19  32  47  72 105 140 177 218 269 327
#     4  10  20  32  52  80 109 141 182 230 279 331
#
# _framework density 25.279527000000002
#
# number of rings (size 3 to 8) (size 9 to 14) (size 15 to 20)
#    0.000    2.500    0.000    1.500    0.000   14.500 
#    0.000   11.250    0.000    1.500    0.000   15.750 
#    0.000    0.000    0.000    0.000    0.000    0.000 
#
# Total GULP energy -178787.149906 kJ/mol
# GULP energy per Si atom -5587.098435 kJ/mol
# Density = 2.522199 g / cm^3
# Si number density = 25.279527 Si / 1000 Ang^3
#
#
#
# Elastic Constant Matrix: (Units=GPa)
#
#
# Indices 1 2 3 4 5 6 
#
# 1 134.8303 26.6969 61.1002 0.0000 0.0000 0.0000
# 2 26.6969 46.2157 13.6158 0.0000 0.0000 0.0000
# 3 61.1002 13.6158 278.2734 0.0000 0.0000 0.0000
# 4 0.0000 0.0000 0.0000 10.3879 0.0000 0.0000
# 5 0.0000 0.0000 0.0000 0.0000 23.5061 0.0000
# 6 0.0000 0.0000 0.0000 0.0000 0.0000 30.2628
#
#
#
# Elastic Compliance Matrix: (Units=1/GPa)
#
#
# Indices 1 2 3 4 5 6 
#
# 1 0.009168 -0.004772 -0.001780 0.000000 0.000000 0.000000
# 2 -0.004772 0.024438 -0.000148 0.000000 0.000000 0.000000
# 3 -0.001780 -0.000148 0.003992 0.000000 0.000000 0.000000
# 4 0.000000 0.000000 0.000000 0.096266 0.000000 0.000000
# 5 0.000000 0.000000 0.000000 0.000000 0.042542 0.000000
# 6 0.000000 0.000000 0.000000 0.000000 0.000000 0.033044
#
#
# Mechanical properties :
#
#
# Convention : Reuss Voigt Hill
#
# Bulk Modulus (GPa) = 41.32443 73.57167 57.44805
# Shear Modulus (GPa) = 21.65314 36.69180 29.17247
#
# Velocity S-wave (km/s) = 2.92986 3.81391 3.40074
# Velocity P-wave (km/s) = 5.27522 6.96857 6.18017
#
# Compressibility (1/GPa) = 0.02419876
#
# Stress axis : x y z
#
# Youngs Moduli (GPa) = 109.07559 40.92045 250.52877
#
# Poissons Ratio (x) = 0.19526 0.44582
# Poissons Ratio (y) = 0.52047 0.03708
# Poissons Ratio (z) = 0.19410 0.00606
#
# Static dielectric constant tensor:
#      x y z
#    x 1.937770 0.000000 0.000000 
#    y 0.000000 2.247360 0.000000 
#    z 0.000000 0.000000 2.124280 
# 
# From -- ./inp_files/11174.got.cif
#   From: 2010.05.17/outbox.cif.g08.bks.cpg/sg49_6_cif.got.tgz:11174.got - 2010.06.03 21:02:19.
