data_PCOD9393229
_publ_section_title
;
Structure prediction by ZEFSAII (Michael W. Deem and Ramdas Pophale) SiO2 
 PCOD9393229
Probable space group: P C C M
;
_chemical_formula_sum "Si O2"
_cell_formula_units_Z 60
_cell_length_a 11.659257
_cell_length_b 10.838779
_cell_length_c 22.365055
_cell_angle_alpha 90.000000
_cell_angle_beta 90.000000
_cell_angle_gamma 90.000000
_cell_volume 2826.319189
_symmetry_space_group_name_H-M "P C C M"
_symmetry_group_IT_number 49
_symmetry_cell_setting 'orthorhombic'
loop_
_space_group_symop_operation_xyz
x,y,z
-x,-y,z
x,-y,1/2-z
-x,y,1/2-z
-x,-y,-z
x,y,-z
-x,y,1/2+z
x,-y,1/2+z
loop_
_atom_site_type_symbol
_atom_site_label
_atom_site_fract_x
_atom_site_fract_y
_atom_site_fract_z
Si Si1 0.667521 0.578540 0.692082
Si Si2 0.789148 0.067126 0.162537
Si Si3 0.546251 0.157896 0.184317
Si Si4 0.175602 0.216166 0.132084
Si Si5 0.412046 0.765163 0.432872
Si Si6 0.954793 0.142831 0.067747
Si Si7 0.133582 0.712554 0.241413
Si Si8 0.500000 0.500000 0.594508
O O1 0.638275 0.500000 0.750000
O O2 0.600364 0.707170 0.693573
O O3 0.800227 0.618181 0.698127
O O4 0.614669 0.514047 0.634718
O O5 0.653880 0.072268 0.169975
O O6 0.836220 0.135855 0.103488
O O7 0.845827 0.149633 0.214856
O O8 0.821658 0.925260 0.155685
O O9 0.500000 0.127634 0.250000
O O10 0.467574 0.167340 0.125234
O O11 0.277531 0.240514 0.085490
O O12 0.189092 0.295160 0.192449
O O13 0.050548 0.223536 0.101689
O O14 0.422536 0.820719 0.500000
O O15 0.474229 0.631193 0.435834
O O16 0.940981 0.183504 0.000000
O O17 0.000000 0.000000 0.066968
O O18 0.000000 0.690194 0.250000
#
# Coordination Sequence:
#
# PCOD9393229 Si02
#       8
#     8   8   8   8   8   8   8   4
#     4  10  19  34  58  84 112 152 194 246 310 365
#     4  10  21  36  55  81 116 163 199 240 300 361
#     4  10  21  38  58  85 122 157 200 246 307 367
#     4  11  21  35  56  84 119 157 200 245 297 363
#     4  11  23  39  61  90 118 156 204 256 309 374
#     4   9  18  33  53  75 103 147 200 245 289 349
#     4  11  21  34  55  88 122 153 197 252 306 365
#     4  10  20  40  62  82 113 154 199 254 311 370
#
# _framework density 21.229023999999999
#
# number of rings (size 3 to 8) (size 9 to 14) (size 15 to 20)
#    0.000    1.733    1.333    5.200    0.000    2.400 
#    0.000    4.000    0.000    0.000    0.000    0.933 
#    0.000    0.000    0.000    0.000    0.000    0.000 
#
# Total GULP energy -334813.272621 kJ/mol
# GULP energy per Si atom -5580.221210 kJ/mol
# Density = 2.118071 g / cm^3
# Si number density = 21.229024 Si / 1000 Ang^3
#
#
#
# Elastic Constant Matrix: (Units=GPa)
#
#
# Indices 1 2 3 4 5 6 
#
# 1 112.1697 7.1593 59.0774 0.0000 0.0000 0.0000
# 2 7.1593 41.3980 19.2421 0.0000 0.0000 0.0000
# 3 59.0774 19.2421 158.6160 0.0000 0.0000 0.0000
# 4 0.0000 0.0000 0.0000 7.4322 0.0000 0.0000
# 5 0.0000 0.0000 0.0000 0.0000 21.8176 0.0000
# 6 0.0000 0.0000 0.0000 0.0000 0.0000 16.0699
#
#
#
# Elastic Compliance Matrix: (Units=1/GPa)
#
#
# Indices 1 2 3 4 5 6 
#
# 1 0.011091 0.000002 -0.004131 0.000000 0.000000 0.000000
# 2 0.000002 0.025599 -0.003106 0.000000 0.000000 0.000000
# 3 -0.004131 -0.003106 0.008220 0.000000 0.000000 0.000000
# 4 0.000000 0.000000 0.000000 0.134550 0.000000 0.000000
# 5 0.000000 0.000000 0.000000 0.000000 0.045835 0.000000
# 6 0.000000 0.000000 0.000000 0.000000 0.000000 0.062228
#
#
# Mechanical properties :
#
#
# Convention : Reuss Voigt Hill
#
# Bulk Modulus (GPa) = 32.85206 53.68236 43.26721
# Shear Modulus (GPa) = 16.01846 24.17759 20.09803
#
# Velocity S-wave (km/s) = 2.74990 3.37841 3.08023
# Velocity P-wave (km/s) = 5.05878 6.36870 5.75116
#
# Compressibility (1/GPa) = 0.03043949
#
# Stress axis : x y z
#
# Youngs Moduli (GPa) = 90.16600 39.06366 121.65465
#
# Poissons Ratio (x) = -0.00008 0.50256
# Poissons Ratio (y) = -0.00019 0.37790
# Poissons Ratio (z) = 0.37248 0.12134
#
# Static dielectric constant tensor:
#      x y z
#    x 1.782880 0.000000 0.000000 
#    y 0.000000 1.803050 0.000000 
#    z 0.000000 0.000000 1.784400 
# 
# From -- ./inp_files/20589.got.cif
#   From: 2010.05.17/outbox.cif.g08.bks.cpg/sg49_11_cif.got.tgz:20589.got - 2010.06.03 21:02:19.
