data_PCOD9393847
_publ_section_title
;
Structure prediction by ZEFSAII (Michael W. Deem and Ramdas Pophale) SiO2 
 PCOD9393847
Probable space group: P C C M
;
_chemical_formula_sum "Si O2"
_cell_formula_units_Z 32
_cell_length_a 8.957234
_cell_length_b 9.646447
_cell_length_c 14.543643
_cell_angle_alpha 90.000000
_cell_angle_beta 90.000000
_cell_angle_gamma 90.000000
_cell_volume 1256.650499
_symmetry_space_group_name_H-M "P C C M"
_symmetry_group_IT_number 49
_symmetry_cell_setting 'orthorhombic'
loop_
_space_group_symop_operation_xyz
x,y,z
-x,-y,z
x,-y,1/2-z
-x,y,1/2-z
-x,-y,-z
x,y,-z
-x,y,1/2+z
x,-y,1/2+z
loop_
_atom_site_type_symbol
_atom_site_label
_atom_site_fract_x
_atom_site_fract_y
_atom_site_fract_z
Si Si1 0.114358 0.830374 0.609489
Si Si2 0.773940 0.125888 0.887275
Si Si3 0.835086 0.470686 0.357592
Si Si4 0.429194 0.642217 0.101833
O O1 0.098786 0.845228 0.500000
O O2 0.201031 0.689791 0.629366
O O3 0.940928 0.820702 0.643213
O O4 0.206835 0.964663 0.640458
O O5 0.625984 0.211193 0.855043
O O6 0.764732 0.130798 0.000000
O O7 0.826445 0.500000 0.250000
O O8 0.734135 0.578055 0.408587
O O9 0.000000 0.500000 0.390372
O O10 0.500000 0.500000 0.145322
O O11 0.498674 0.663090 0.000000
#
# Coordination Sequence:
#
# PCOD9393847 Si02
#       4
#     8   8   8   8
#     4   9  16  30  55  81 108 145 185 238 290 337
#     4   8  15  29  52  82 111 140 182 233 292 348
#     4  11  22  34  51  78 113 144 192 239 284 351
#     4  10  20  35  56  81 110 145 186 237 294 349
#
# _framework density 25.46452
#
# number of rings (size 3 to 8) (size 9 to 14) (size 15 to 20)
#    0.000    2.500    2.500    2.250    0.000    1.500 
#    0.000    2.500    0.000    6.000    0.000    3.500 
#    0.000    0.000    0.000    0.000    0.000    0.500 
#
# Total GULP energy -178259.153985 kJ/mol
# GULP energy per Si atom -5570.598562 kJ/mol
# Density = 2.540656 g / cm^3
# Si number density = 25.464520 Si / 1000 Ang^3
#
#
#
# Elastic Constant Matrix: (Units=GPa)
#
#
# Indices 1 2 3 4 5 6 
#
# 1 37.0928 5.4731 8.8786 0.0000 0.0000 0.0000
# 2 5.4731 171.8788 -6.9430 0.0000 0.0000 0.0000
# 3 8.8786 -6.9430 63.7086 0.0000 0.0000 0.0000
# 4 0.0000 0.0000 0.0000 22.7427 0.0000 0.0000
# 5 0.0000 0.0000 0.0000 0.0000 18.9223 0.0000
# 6 0.0000 0.0000 0.0000 0.0000 0.0000 62.9732
#
#
#
# Elastic Compliance Matrix: (Units=1/GPa)
#
#
# Indices 1 2 3 4 5 6 
#
# 1 0.028080 -0.001057 -0.004028 0.000000 0.000000 0.000000
# 2 -0.001057 0.005884 0.000788 0.000000 0.000000 0.000000
# 3 -0.004028 0.000788 0.016344 0.000000 0.000000 0.000000
# 4 0.000000 0.000000 0.000000 0.043970 0.000000 0.000000
# 5 0.000000 0.000000 0.000000 0.000000 0.052848 0.000000
# 6 0.000000 0.000000 0.000000 0.000000 0.000000 0.015880
#
#
# Mechanical properties :
#
#
# Convention : Reuss Voigt Hill
#
# Bulk Modulus (GPa) = 23.97313 31.94417 27.95865
# Shear Modulus (GPa) = 26.95378 38.61239 32.78309
#
# Velocity S-wave (km/s) = 3.25696 3.89822 3.59193
# Velocity P-wave (km/s) = 4.85577 5.73004 5.31092
#
# Compressibility (1/GPa) = 0.04171337
#
# Stress axis : x y z
#
# Youngs Moduli (GPa) = 35.61306 169.96518 61.18522
#
# Poissons Ratio (x) = 0.17963 0.24648
# Poissons Ratio (y) = 0.03764 -0.04824
# Poissons Ratio (z) = 0.14346 -0.13401
#
# Static dielectric constant tensor:
#      x y z
#    x 2.163200 0.000000 0.000000 
#    y 0.000000 2.109320 0.000000 
#    z 0.000000 0.000000 2.082140 
# 
# From -- ./inp_files/15885.got.cif
#   From: 2010.05.17/outbox.cif.g08.bks.cpg/sg49_8_cif.got.tgz:15885.got - 2010.06.03 21:02:19.
