data_PCOD9393450
_publ_section_title
;
Structure prediction by ZEFSAII (Michael W. Deem and Ramdas Pophale) SiO2 
 PCOD9393450
Probable space group: P C C M
;
_chemical_formula_sum "Si O2"
_cell_formula_units_Z 56
_cell_length_a 23.406245
_cell_length_b 14.604595
_cell_length_c 8.701557
_cell_angle_alpha 90.000000
_cell_angle_beta 90.000000
_cell_angle_gamma 90.000000
_cell_volume 2974.529183
_symmetry_space_group_name_H-M "P C C M"
_symmetry_group_IT_number 49
_symmetry_cell_setting 'orthorhombic'
loop_
_space_group_symop_operation_xyz
x,y,z
-x,-y,z
x,-y,1/2-z
-x,y,1/2-z
-x,-y,-z
x,y,-z
-x,y,1/2+z
x,-y,1/2+z
loop_
_atom_site_type_symbol
_atom_site_label
_atom_site_fract_x
_atom_site_fract_y
_atom_site_fract_z
Si Si1 0.172699 0.643677 0.173303
Si Si2 0.059711 0.295389 0.182757
Si Si3 0.330978 0.790214 0.684316
Si Si4 0.785012 0.145768 0.825392
Si Si5 0.561545 0.897603 0.684803
Si Si6 0.704060 0.405628 0.813804
Si Si7 0.097849 0.093738 0.182573
O O1 0.114198 0.645282 0.266085
O O2 0.193404 0.749232 0.164527
O O3 0.229308 0.596950 0.238611
O O4 0.161955 0.610577 0.000000
O O5 0.070308 0.189727 0.237738
O O6 0.000000 0.328362 0.250000
O O7 0.057095 0.293423 0.000000
O O8 0.331700 0.790095 0.500000
O O9 0.276193 0.848361 0.744064
O O10 0.387867 0.834340 0.753342
O O11 0.323525 0.686731 0.747385
O O12 0.835630 0.098501 0.731952
O O13 0.780457 0.109999 0.000000
O O14 0.500000 0.867231 0.750000
O O15 0.560545 0.899703 0.500000
O O16 0.570799 0.000000 0.750000
O O17 0.678515 0.500000 0.750000
O O18 0.703103 0.402502 0.000000
O O19 0.073025 0.000000 0.250000
O O20 0.093556 0.091042 0.000000
#
# Coordination Sequence:
#
# PCOD9393450 Si02
#       7
#     8   8   8   8   8   8   8
#     4   8  16  31  50  71  98 128 162 203 254 310
#     4  10  20  32  48  67  89 121 165 211 261 318
#     4  11  21  35  56  84 116 151 189 232 278 328
#     4   9  17  31  49  70  96 128 165 210 261 317
#     4  11  22  39  60  85 116 153 197 241 283 328
#     4  10  20  35  57  87 118 150 183 224 275 332
#     4  10  20  32  45  64  90 124 163 209 264 324
#
# _framework density 18.826509000000001
#
# number of rings (size 3 to 8) (size 9 to 14) (size 15 to 20)
#    0.000    2.143    0.000    5.571    0.000    6.571 
#    0.000    4.286    0.000    0.857    0.000    6.000 
#    0.000    0.000    0.000    0.000    0.000    0.000 
#
# Total GULP energy -312490.348149 kJ/mol
# GULP energy per Si atom -5580.184788 kJ/mol
# Density = 1.878366 g / cm^3
# Si number density = 18.826509 Si / 1000 Ang^3
#
#
#
# Elastic Constant Matrix: (Units=GPa)
#
#
# Indices 1 2 3 4 5 6 
#
# 1 135.7299 29.7681 49.1523 0.0000 0.0000 0.0000
# 2 29.7681 37.9740 9.4909 0.0000 0.0000 0.0000
# 3 49.1523 9.4909 98.3644 0.0000 0.0000 0.0000
# 4 0.0000 0.0000 0.0000 -15.7965 0.0000 0.0000
# 5 0.0000 0.0000 0.0000 0.0000 26.4777 0.0000
# 6 0.0000 0.0000 0.0000 0.0000 0.0000 13.1456
#
#
#
# Elastic Compliance Matrix: (Units=1/GPa)
#
#
# Indices 1 2 3 4 5 6 
#
# 1 0.010608 -0.007164 -0.004610 0.000000 0.000000 0.000000
# 2 -0.007164 0.031822 0.000509 0.000000 0.000000 0.000000
# 3 -0.004610 0.000509 0.012421 0.000000 0.000000 0.000000
# 4 0.000000 0.000000 0.000000 -0.063305 0.000000 0.000000
# 5 0.000000 0.000000 0.000000 0.000000 0.037768 0.000000
# 6 0.000000 0.000000 0.000000 0.000000 0.000000 0.076071
#
#
# Mechanical properties :
#
#
# Convention : Reuss Voigt Hill
#
# Bulk Modulus (GPa) = 30.93798 49.87677 40.40738
# Shear Modulus (GPa) = 36.05253 17.00915 26.53084
#
# Velocity S-wave (km/s) = 4.38080 3.00904 3.75804
# Velocity P-wave (km/s) = 6.48517 6.21472 6.35139
#
# Compressibility (1/GPa) = 0.03232273
#
# Stress axis : x y z
#
# Youngs Moduli (GPa) = 94.26886 31.42463 80.51184
#
# Poissons Ratio (x) = 0.22511 0.37112
# Poissons Ratio (y) = 0.67530 -0.04099
# Poissons Ratio (z) = 0.43454 -0.01600
#
# Static dielectric constant tensor:
#      x y z
#    x 1.640760 0.000000 0.000000 
#    y 0.000000 1.687520 0.000000 
#    z 0.000000 0.000000 1.642780 
# 
# From -- ./inp_files/5821.got.cif
#   From: 2010.05.17/outbox.cif.g08.bks.cpg/sg49_3_cif.got.tgz:5821.got - 2010.06.03 21:02:19.
