data_PCOD9393849
_publ_section_title
;
Structure prediction by ZEFSAII (Michael W. Deem and Ramdas Pophale) SiO2 
 PCOD9393849
Probable space group: P C C M
;
_chemical_formula_sum "Si O2"
_cell_formula_units_Z 58
_cell_length_a 18.382578
_cell_length_b 18.041197
_cell_length_c 9.261081
_cell_angle_alpha 90.000000
_cell_angle_beta 90.000000
_cell_angle_gamma 90.000000
_cell_volume 3071.379271
_symmetry_space_group_name_H-M "P C C M"
_symmetry_group_IT_number 49
_symmetry_cell_setting 'orthorhombic'
loop_
_space_group_symop_operation_xyz
x,y,z
-x,-y,z
x,-y,1/2-z
-x,y,1/2-z
-x,-y,-z
x,y,-z
-x,y,1/2+z
x,-y,1/2+z
loop_
_atom_site_type_symbol
_atom_site_label
_atom_site_fract_x
_atom_site_fract_y
_atom_site_fract_z
Si Si1 0.654051 0.074790 0.167625
Si Si2 0.828856 0.072737 0.835243
Si Si3 0.928398 0.648601 0.834352
Si Si4 0.500000 0.500000 0.250000
Si Si5 0.928393 0.826764 0.165942
Si Si6 0.424508 0.794251 0.675351
Si Si7 0.775942 0.578843 0.824226
Si Si8 0.616413 0.371837 0.329730
O O1 0.741616 0.072181 0.163650
O O2 0.631696 0.146958 0.258687
O O3 0.628701 0.000000 0.250000
O O4 0.628549 0.077465 0.000000
O O5 0.859132 0.142597 0.749513
O O6 0.854272 0.000000 0.750000
O O7 0.854695 0.072767 0.000000
O O8 0.928844 0.737772 0.831489
O O9 0.848733 0.623465 0.782731
O O10 0.000000 0.622107 0.750000
O O11 0.935549 0.624011 0.000000
O O12 0.558631 0.439205 0.311223
O O13 0.000000 0.853243 0.250000
O O14 0.928540 0.851084 0.000000
O O15 0.500000 0.815538 0.750000
O O16 0.426879 0.798048 0.500000
O O17 0.409068 0.708976 0.723092
O O18 0.783042 0.500000 0.750000
O O19 0.697499 0.610271 0.774095
O O20 0.774008 0.574019 0.000000
O O21 0.624281 0.362532 0.500000
#
# Coordination Sequence:
#
# PCOD9393849 Si02
#       8
#     8   8   8   2   8   8   8   8
#     4  10  22  41  63  90 121 157 198 245 299 357
#     4  10  21  37  57  83 115 149 191 238 288 347
#     4   9  20  37  59  82 114 151 192 239 293 352
#     4  12  18  40  64  86 124 164 206 244 310 356
#     4  10  20  35  56  81 111 149 192 239 292 349
#     4  11  23  40  62  90 122 157 199 248 297 357
#     4  10  21  39  58  85 116 152 196 242 291 351
#     4  10  22  37  59  88 122 160 201 247 302 360
#
# _framework density 18.884022999999999
#
# number of rings (size 3 to 8) (size 9 to 14) (size 15 to 20)
#    0.000    1.931    1.379    1.862    1.931    3.586 
#    0.000    5.517    0.000    0.000    0.000    0.000 
#    0.000    0.000    0.000    0.000    0.000    0.000 
#
# Total GULP energy -323141.028553 kJ/mol
# GULP energy per Si atom -5571.397044 kJ/mol
# Density = 1.884104 g / cm^3
# Si number density = 18.884023 Si / 1000 Ang^3
#
#
#
# Elastic Constant Matrix: (Units=GPa)
#
#
# Indices 1 2 3 4 5 6 
#
# 1 84.6238 14.6969 35.4335 0.0000 0.0000 0.0000
# 2 14.6969 62.6206 33.6307 0.0000 0.0000 0.0000
# 3 35.4335 33.6307 95.8688 0.0000 0.0000 0.0000
# 4 0.0000 0.0000 0.0000 23.8066 0.0000 0.0000
# 5 0.0000 0.0000 0.0000 0.0000 27.3572 0.0000
# 6 0.0000 0.0000 0.0000 0.0000 0.0000 24.0395
#
#
#
# Elastic Compliance Matrix: (Units=1/GPa)
#
#
# Indices 1 2 3 4 5 6 
#
# 1 0.014000 -0.000624 -0.004956 0.000000 0.000000 0.000000
# 2 -0.000624 0.019704 -0.006681 0.000000 0.000000 0.000000
# 3 -0.004956 -0.006681 0.014606 0.000000 0.000000 0.000000
# 4 0.000000 0.000000 0.000000 0.042005 0.000000 0.000000
# 5 0.000000 0.000000 0.000000 0.000000 0.036553 0.000000
# 6 0.000000 0.000000 0.000000 0.000000 0.000000 0.041598
#
#
# Mechanical properties :
#
#
# Convention : Reuss Voigt Hill
#
# Bulk Modulus (GPa) = 42.03792 45.62613 43.83203
# Shear Modulus (GPa) = 24.88557 25.66414 25.27486
#
# Velocity S-wave (km/s) = 3.63410 3.69051 3.66242
# Velocity P-wave (km/s) = 6.31810 6.50950 6.41451
#
# Compressibility (1/GPa) = 0.02378805
#
# Stress axis : x y z
#
# Youngs Moduli (GPa) = 71.42632 50.75117 68.46354
#
# Poissons Ratio (x) = 0.03169 0.33927
# Poissons Ratio (y) = 0.04460 0.45743
# Poissons Ratio (z) = 0.35396 0.33909
#
# Static dielectric constant tensor:
#      x y z
#    x 1.700690 0.000000 0.000000 
#    y 0.000000 1.649660 0.000000 
#    z 0.000000 0.000000 1.651350 
# 
# From -- ./inp_files/5096.got.cif
#   From: 2010.05.17/outbox.cif.g08.bks.cpg/sg49_3_cif.got.tgz:5096.got - 2010.06.03 21:02:19.
