data_PCOD9393906
_publ_section_title
;
Structure prediction by ZEFSAII (Michael W. Deem and Ramdas Pophale) SiO2 
 PCOD9393906
Probable space group: P C C M
;
_chemical_formula_sum "Si O2"
_cell_formula_units_Z 48
_cell_length_a 8.414974
_cell_length_b 15.020160
_cell_length_c 14.697112
_cell_angle_alpha 90.000000
_cell_angle_beta 90.000000
_cell_angle_gamma 90.000000
_cell_volume 1857.630535
_symmetry_space_group_name_H-M "P C C M"
_symmetry_group_IT_number 49
_symmetry_cell_setting 'orthorhombic'
loop_
_space_group_symop_operation_xyz
x,y,z
-x,-y,z
x,-y,1/2-z
-x,y,1/2-z
-x,-y,-z
x,y,-z
-x,y,1/2+z
x,-y,1/2+z
loop_
_atom_site_type_symbol
_atom_site_label
_atom_site_fract_x
_atom_site_fract_y
_atom_site_fract_z
Si Si1 0.367260 0.879266 0.110309
Si Si2 0.166256 0.959639 0.610902
Si Si3 0.105621 0.621263 0.657784
Si Si4 0.308510 0.777951 0.610297
Si Si5 0.331059 0.526137 0.144657
Si Si6 0.200896 0.287899 0.397677
O O1 0.311333 0.976570 0.141953
O O2 0.525508 0.825329 0.136259
O O3 0.228953 0.810074 0.139770
O O4 0.380410 0.889716 0.000000
O O5 0.167855 0.962553 0.500000
O O6 0.185801 0.856722 0.632808
O O7 0.000000 0.000000 0.641157
O O8 0.255930 0.688699 0.662119
O O9 0.179087 0.532229 0.613736
O O10 0.000000 0.604713 0.750000
O O11 0.978407 0.678101 0.602146
O O12 0.310958 0.760919 0.500000
O O13 0.500000 0.500000 0.103178
O O14 0.335018 0.500000 0.250000
O O15 0.302266 0.630284 0.139594
O O16 0.259008 0.279727 0.500000
#
# Coordination Sequence:
#
# PCOD9393906 Si02
#       6
#     8   8   8   8   8   8
#     4   9  18  34  57  92 129 159 200 253 307 360
#     4   9  16  29  54  88 126 163 200 247 301 353
#     4  12  24  40  61  88 120 161 203 253 307 370
#     4  10  20  35  58  89 125 165 208 254 302 362
#     4  11  24  43  64  87 119 161 201 243 305 376
#     4  11  23  39  64  93 120 155 200 258 308 358
#
# _framework density 25.839369000000001
#
# number of rings (size 3 to 8) (size 9 to 14) (size 15 to 20)
#    0.000    1.667    1.667    3.500    0.000    7.000 
#    0.000    0.000    0.000    4.500    0.000    4.667 
#    0.000    0.000    0.000    0.000    0.000    0.000 
#
# Total GULP energy -268215.103307 kJ/mol
# GULP energy per Si atom -5587.814652 kJ/mol
# Density = 2.578056 g / cm^3
# Si number density = 25.839369 Si / 1000 Ang^3
#
#
#
# Elastic Constant Matrix: (Units=GPa)
#
#
# Indices 1 2 3 4 5 6 
#
# 1 112.4411 9.9275 4.8564 0.0000 0.0000 0.0000
# 2 9.9275 114.7594 16.5404 0.0000 0.0000 0.0000
# 3 4.8564 16.5404 72.1901 0.0000 0.0000 0.0000
# 4 0.0000 0.0000 0.0000 22.1213 0.0000 0.0000
# 5 0.0000 0.0000 0.0000 0.0000 5.7850 0.0000
# 6 0.0000 0.0000 0.0000 0.0000 0.0000 46.7965
#
#
#
# Elastic Compliance Matrix: (Units=1/GPa)
#
#
# Indices 1 2 3 4 5 6 
#
# 1 0.008976 -0.000713 -0.000440 0.000000 0.000000 0.000000
# 2 -0.000713 0.009068 -0.002030 0.000000 0.000000 0.000000
# 3 -0.000440 -0.002030 0.014347 0.000000 0.000000 0.000000
# 4 0.000000 0.000000 0.000000 0.045205 0.000000 0.000000
# 5 0.000000 0.000000 0.000000 0.000000 0.172860 0.000000
# 6 0.000000 0.000000 0.000000 0.000000 0.000000 0.021369
#
#
# Mechanical properties :
#
#
# Convention : Reuss Voigt Hill
#
# Bulk Modulus (GPa) = 38.42563 40.22660 39.32611
# Shear Modulus (GPa) = 17.42975 32.81166 25.12070
#
# Velocity S-wave (km/s) = 2.60001 3.56734 3.12137
# Velocity P-wave (km/s) = 4.89047 5.70698 5.31443
#
# Compressibility (1/GPa) = 0.02602430
#
# Stress axis : x y z
#
# Youngs Moduli (GPa) = 111.41420 110.27657 69.70098
#
# Poissons Ratio (x) = 0.07862 0.03070
# Poissons Ratio (y) = 0.07943 0.14148
# Poissons Ratio (z) = 0.04907 0.22383
#
# Static dielectric constant tensor:
#      x y z
#    x 2.128050 0.000000 0.000000 
#    y 0.000000 2.075270 0.000000 
#    z 0.000000 0.000000 2.071000 
# 
# From -- ./inp_files/16247.got.cif
#   From: 2010.05.17/outbox.cif.g08.bks.cpg/sg49_9_cif.got.tgz:16247.got - 2010.06.03 21:02:19.
