data_PCOD9393320
_publ_section_title
;
Structure prediction by ZEFSAII (Michael W. Deem and Ramdas Pophale) SiO2 
 PCOD9393320
Probable space group: P C C M
;
_chemical_formula_sum "Si O2"
_cell_formula_units_Z 52
_cell_length_a 9.611443
_cell_length_b 10.513831
_cell_length_c 24.137301
_cell_angle_alpha 90.000000
_cell_angle_beta 90.000000
_cell_angle_gamma 90.000000
_cell_volume 2439.148787
_symmetry_space_group_name_H-M "P C C M"
_symmetry_group_IT_number 49
_symmetry_cell_setting 'orthorhombic'
loop_
_space_group_symop_operation_xyz
x,y,z
-x,-y,z
x,-y,1/2-z
-x,y,1/2-z
-x,-y,-z
x,y,-z
-x,y,1/2+z
x,-y,1/2+z
loop_
_atom_site_type_symbol
_atom_site_label
_atom_site_fract_x
_atom_site_fract_y
_atom_site_fract_z
Si Si1 0.156919 0.019738 0.915278
Si Si2 0.900083 0.143441 0.697655
Si Si3 0.736974 0.500000 0.250000
Si Si4 0.355652 0.224414 0.271713
Si Si5 0.409346 0.129793 0.608283
Si Si6 0.673206 0.275328 0.437227
Si Si7 0.887478 0.597043 0.858345
O O1 0.137172 0.038191 0.848327
O O2 0.228699 0.149417 0.935660
O O3 0.272396 0.911675 0.926237
O O4 0.000000 0.000000 0.936240
O O5 0.758242 0.175923 0.728957
O O6 0.948969 0.266485 0.661840
O O7 0.000000 0.124259 0.750000
O O8 0.650972 0.623571 0.266595
O O9 0.832324 0.533694 0.197786
O O10 0.500000 0.172978 0.250000
O O11 0.347630 0.183038 0.334785
O O12 0.521433 0.229337 0.583799
O O13 0.500000 0.000000 0.616610
O O14 0.663417 0.321945 0.500000
O O15 0.755294 0.371413 0.397032
O O16 0.000000 0.500000 0.883269
#
# Coordination Sequence:
#
# PCOD9393320 Si02
#       7
#     8   8   4   8   8   8   8
#     4  10  21  35  56  88 117 150 200 251 305 371
#     4  10  20  33  51  83 125 159 186 235 308 375
#     4  10  20  34  56  88 123 154 185 238 309 368
#     4  11  20  31  51  81 116 155 197 235 286 364
#     4  10  21  37  57  82 115 158 204 250 305 368
#     4  10  23  42  60  81 113 155 205 258 312 368
#     4  10  19  35  60  87 115 153 200 244 300 378
#
# _framework density 21.318912000000001
#
# number of rings (size 3 to 8) (size 9 to 14) (size 15 to 20)
#    0.000    1.846    0.000    6.923    0.000    8.308 
#    0.000    0.000    0.000    1.846    0.000    0.000 
#    0.000    0.000    0.000    0.000    0.000    0.000 
#
# Total GULP energy -290308.764239 kJ/mol
# GULP energy per Si atom -5582.860851 kJ/mol
# Density = 2.127039 g / cm^3
# Si number density = 21.318912 Si / 1000 Ang^3
#
#
#
# Elastic Constant Matrix: (Units=GPa)
#
#
# Indices 1 2 3 4 5 6 
#
# 1 132.8082 56.2752 17.3840 0.0000 0.0000 0.0000
# 2 56.2752 52.5570 30.8072 0.0000 0.0000 0.0000
# 3 17.3840 30.8072 105.0553 0.0000 0.0000 0.0000
# 4 0.0000 0.0000 0.0000 11.4233 0.0000 0.0000
# 5 0.0000 0.0000 0.0000 0.0000 11.3222 0.0000
# 6 0.0000 0.0000 0.0000 0.0000 0.0000 35.6314
#
#
#
# Elastic Compliance Matrix: (Units=1/GPa)
#
#
# Indices 1 2 3 4 5 6 
#
# 1 0.014336 -0.016858 0.002571 0.000000 0.000000 0.000000
# 2 -0.016858 0.042799 -0.009761 0.000000 0.000000 0.000000
# 3 0.002571 -0.009761 0.011956 0.000000 0.000000 0.000000
# 4 0.000000 0.000000 0.000000 0.087540 0.000000 0.000000
# 5 0.000000 0.000000 0.000000 0.000000 0.088322 0.000000
# 6 0.000000 0.000000 0.000000 0.000000 0.000000 0.028065
#
#
# Mechanical properties :
#
#
# Convention : Reuss Voigt Hill
#
# Bulk Modulus (GPa) = 47.62885 55.48370 51.55628
# Shear Modulus (GPa) = 15.23871 24.07232 19.65551
#
# Velocity S-wave (km/s) = 2.67647 3.36393 3.03970
# Velocity P-wave (km/s) = 5.65163 6.41640 6.04612
#
# Compressibility (1/GPa) = 0.02099568
#
# Stress axis : x y z
#
# Youngs Moduli (GPa) = 69.75342 23.36511 83.64156
#
# Poissons Ratio (x) = 0.39388 -0.21506
# Poissons Ratio (y) = 1.17587 0.81644
# Poissons Ratio (z) = -0.17935 0.22807
#
# Static dielectric constant tensor:
#      x y z
#    x 1.806670 0.000000 0.000000 
#    y 0.000000 1.840770 0.000000 
#    z 0.000000 0.000000 1.755370 
# 
# From -- ./inp_files/24523.got.cif
#   From: 2010.05.17/outbox.cif.g08.bks.cpg/sg49_13_cif.got.tgz:24523.got - 2010.06.03 21:02:19.
