data_PCOD9393597
_publ_section_title
;
Structure prediction by ZEFSAII (Michael W. Deem and Ramdas Pophale) SiO2 
 PCOD9393597
Probable space group: P C C M
;
_chemical_formula_sum "Si O2"
_cell_formula_units_Z 64
_cell_length_a 9.258136
_cell_length_b 16.411218
_cell_length_c 23.156935
_cell_angle_alpha 90.000000
_cell_angle_beta 90.000000
_cell_angle_gamma 90.000000
_cell_volume 3518.401906
_symmetry_space_group_name_H-M "P C C M"
_symmetry_group_IT_number 49
_symmetry_cell_setting 'orthorhombic'
loop_
_space_group_symop_operation_xyz
x,y,z
-x,-y,z
x,-y,1/2-z
-x,y,1/2-z
-x,-y,-z
x,y,-z
-x,y,1/2+z
x,-y,1/2+z
loop_
_atom_site_type_symbol
_atom_site_label
_atom_site_fract_x
_atom_site_fract_y
_atom_site_fract_z
Si Si1 0.332399 0.508115 0.568861
Si Si2 0.553608 0.087093 0.569430
Si Si3 0.179759 0.642692 0.871801
Si Si4 0.831207 0.349182 0.364565
Si Si5 0.308760 0.196695 0.569977
Si Si6 0.671976 0.401424 0.248475
Si Si7 0.914941 0.926129 0.433947
Si Si8 0.817304 0.814072 0.934149
O O1 0.500000 0.500000 0.589500
O O2 0.335532 0.514303 0.500000
O O3 0.241426 0.429761 0.588462
O O4 0.251675 0.585556 0.595511
O O5 0.534748 0.082075 0.500000
O O6 0.471413 0.171344 0.585317
O O7 0.718937 0.108132 0.581080
O O8 0.500000 0.000000 0.592697
O O9 0.238154 0.726555 0.899387
O O10 0.254299 0.629873 0.809913
O O11 0.005532 0.638765 0.866167
O O12 0.760250 0.363680 0.302024
O O13 0.803665 0.259878 0.390544
O O14 0.295059 0.206314 0.500000
O O15 0.229544 0.112948 0.588980
O O16 0.685944 0.500000 0.250000
O O17 0.500000 0.382812 0.250000
O O18 0.880622 0.952928 0.500000
O O19 0.021723 0.849137 0.435851
O O20 0.000000 0.000000 0.405327
O O21 0.779663 0.788188 0.000000
#
# Coordination Sequence:
#
# PCOD9393597 Si02
#       8
#     8   8   8   8   8   8   8   8
#     4  11  25  40  59  86 121 161 195 231 288 353
#     4   9  18  32  52  82 121 164 202 236 281 341
#     4  12  24  40  62  88 118 153 196 246 299 348
#     4  12  24  40  62  88 118 153 196 246 299 348
#     4  10  20  33  54  87 125 157 192 238 286 346
#     4  11  25  45  67  85 107 148 201 256 299 352
#     4   9  16  30  52  80 119 160 190 224 281 347
#     4  10  20  33  54  87 125 157 192 238 286 346
#
# _framework density 18.190076000000001
#
# number of rings (size 3 to 8) (size 9 to 14) (size 15 to 20)
#    0.000    1.500    2.500    3.000    3.500    5.500 
#    0.000    0.000    0.000    0.000    0.000    5.250 
#    0.000    0.000    0.000    0.000    0.000    0.000 
#
# Total GULP energy -356823.857895 kJ/mol
# GULP energy per Si atom -5575.372780 kJ/mol
# Density = 1.814868 g / cm^3
# Si number density = 18.190076 Si / 1000 Ang^3
#
#
#
# Elastic Constant Matrix: (Units=GPa)
#
#
# Indices 1 2 3 4 5 6 
#
# 1 115.1291 27.3597 33.9918 0.0000 0.0000 0.0000
# 2 27.3597 85.7546 30.2800 0.0000 0.0000 0.0000
# 3 33.9918 30.2800 68.7172 0.0000 0.0000 0.0000
# 4 0.0000 0.0000 0.0000 -23.8841 0.0000 0.0000
# 5 0.0000 0.0000 0.0000 0.0000 25.3873 0.0000
# 6 0.0000 0.0000 0.0000 0.0000 0.0000 29.9124
#
#
#
# Elastic Compliance Matrix: (Units=1/GPa)
#
#
# Indices 1 2 3 4 5 6 
#
# 1 0.010395 -0.001777 -0.004359 0.000000 0.000000 0.000000
# 2 -0.001777 0.014114 -0.005340 0.000000 0.000000 0.000000
# 3 -0.004359 -0.005340 0.019062 0.000000 0.000000 0.000000
# 4 0.000000 0.000000 0.000000 -0.041869 0.000000 0.000000
# 5 0.000000 0.000000 0.000000 0.000000 0.039390 0.000000
# 6 0.000000 0.000000 0.000000 0.000000 0.000000 0.033431
#
#
# Mechanical properties :
#
#
# Convention : Reuss Voigt Hill
#
# Bulk Modulus (GPa) = 48.50118 50.31819 49.40968
# Shear Modulus (GPa) = 47.91661 18.14775 33.03218
#
# Velocity S-wave (km/s) = 5.13803 3.16202 4.26601
# Velocity P-wave (km/s) = 7.86896 6.40731 7.17545
#
# Compressibility (1/GPa) = 0.02061806
#
# Stress axis : x y z
#
# Youngs Moduli (GPa) = 96.19769 70.85259 52.46143
#
# Poissons Ratio (x) = 0.12594 0.22868
# Poissons Ratio (y) = 0.17098 0.28014
# Poissons Ratio (z) = 0.41932 0.37835
#
# Static dielectric constant tensor:
#      x y z
#    x 1.644810 0.000000 0.000000 
#    y 0.000000 1.632000 0.000000 
#    z 0.000000 0.000000 1.598560 
# 
# From -- ./inp_files/21100.got.cif
#   From: 2010.05.17/outbox.cif.g08.bks.cpg/sg49_11_cif.got.tgz:21100.got - 2010.06.03 21:02:19.
