data_PCOD9393571
_publ_section_title
;
Structure prediction by ZEFSAII (Michael W. Deem and Ramdas Pophale) SiO2 
 PCOD9393571
Probable space group: P C C M
;
_chemical_formula_sum "Si O2"
_cell_formula_units_Z 52
_cell_length_a 14.541986
_cell_length_b 8.696463
_cell_length_c 20.546670
_cell_angle_alpha 90.000000
_cell_angle_beta 90.000000
_cell_angle_gamma 90.000000
_cell_volume 2598.410853
_symmetry_space_group_name_H-M "P C C M"
_symmetry_group_IT_number 49
_symmetry_cell_setting 'orthorhombic'
loop_
_space_group_symop_operation_xyz
x,y,z
-x,-y,z
x,-y,1/2-z
-x,y,1/2-z
-x,-y,-z
x,y,-z
-x,y,1/2+z
x,-y,1/2+z
loop_
_atom_site_type_symbol
_atom_site_label
_atom_site_fract_x
_atom_site_fract_y
_atom_site_fract_z
Si Si1 0.128300 0.357302 0.891889
Si Si2 0.245479 0.213813 0.000000
Si Si3 0.078391 0.709590 0.112418
Si Si4 0.351175 0.186058 0.252542
Si Si5 0.536869 0.175076 0.500000
Si Si6 0.493949 0.186860 0.143553
Si Si7 0.849518 0.315792 0.752660
Si Si8 0.104995 0.065080 0.500000
O O1 0.210919 0.306138 0.937089
O O2 0.126151 0.542489 0.890342
O O3 0.133722 0.274167 0.822103
O O4 0.025495 0.311949 0.913466
O O5 0.352442 0.177067 0.000000
O O6 0.180843 0.065478 0.000000
O O7 0.087770 0.749321 0.189107
O O8 0.120330 0.833380 0.064440
O O9 0.402299 0.227587 0.184686
O O10 0.420580 0.229962 0.310740
O O11 0.255196 0.268306 0.264908
O O12 0.339229 0.000000 0.250000
O O13 0.505523 0.244573 0.430574
O O14 0.500000 0.000000 0.500000
O O15 0.500000 0.000000 0.141138
O O16 0.863667 0.500000 0.750000
O O17 0.000000 0.000000 0.500000
#
# Coordination Sequence:
#
# PCOD9393571 Si02
#       8
#     8   4   8   8   4   8   8   4
#     4  10  20  38  60  83 111 159 205 232 284 350
#     4  12  23  36  63  87 116 153 195 247 295 355
#     4  10  21  38  58  80 118 159 193 242 286 346
#     4   9  17  33  53  77 104 145 182 231 295 354
#     4  10  20  33  51  83 111 142 190 245 294 350
#     4   8  16  31  52  72 105 140 185 231 283 354
#     4  10  21  35  56  85 114 147 198 242 284 348
#     4  12  23  39  55  88 125 152 194 243 295 355
#
# _framework density 20.012231
#
# number of rings (size 3 to 8) (size 9 to 14) (size 15 to 20)
#    0.000    2.154    1.538    2.769    0.000    8.000 
#    0.000    1.538    0.000    0.000    0.000   16.154 
#    0.000    0.000    0.000    0.000    0.000    0.000 
#
# Total GULP energy -289874.215081 kJ/mol
# GULP energy per Si atom -5574.504136 kJ/mol
# Density = 1.996668 g / cm^3
# Si number density = 20.012231 Si / 1000 Ang^3
#
#
#
# Elastic Constant Matrix: (Units=GPa)
#
#
# Indices 1 2 3 4 5 6 
#
# 1 71.3052 2.1801 23.2840 0.0000 0.0000 0.0000
# 2 2.1801 15.8669 19.7546 0.0000 0.0000 0.0000
# 3 23.2840 19.7546 141.7752 0.0000 0.0000 0.0000
# 4 0.0000 0.0000 0.0000 -20.7451 0.0000 0.0000
# 5 0.0000 0.0000 0.0000 0.0000 21.9334 0.0000
# 6 0.0000 0.0000 0.0000 0.0000 0.0000 23.5630
#
#
#
# Elastic Compliance Matrix: (Units=1/GPa)
#
#
# Indices 1 2 3 4 5 6 
#
# 1 0.014838 0.001204 -0.002605 0.000000 0.000000 0.000000
# 2 0.001204 0.076350 -0.010836 0.000000 0.000000 0.000000
# 3 -0.002605 -0.010836 0.008991 0.000000 0.000000 0.000000
# 4 0.000000 0.000000 0.000000 -0.048204 0.000000 0.000000
# 5 0.000000 0.000000 0.000000 0.000000 0.045593 0.000000
# 6 0.000000 0.000000 0.000000 0.000000 0.000000 0.042439
#
#
# Mechanical properties :
#
#
# Convention : Reuss Voigt Hill
#
# Bulk Modulus (GPa) = 13.20906 35.48719 24.34812
# Shear Modulus (GPa) = 26.35526 17.19884 21.77705
#
# Velocity S-wave (km/s) = 3.63293 2.93476 3.30235
# Velocity P-wave (km/s) = 4.92061 5.40879 5.17046
#
# Compressibility (1/GPa) = 0.07570564
#
# Stress axis : x y z
#
# Youngs Moduli (GPa) = 67.39485 13.09757 111.22134
#
# Poissons Ratio (x) = -0.01577 0.28969
# Poissons Ratio (y) = -0.08115 1.20522
# Poissons Ratio (z) = 0.17554 0.14193
#
# Static dielectric constant tensor:
#      x y z
#    x 1.687760 0.000000 0.000000 
#    y 0.000000 1.726510 0.000000 
#    z 0.000000 0.000000 1.787690 
# 
# From -- ./inp_files/20817.got.cif
#   From: 2010.05.17/outbox.cif.g08.bks.cpg/sg49_11_cif.got.tgz:20817.got - 2010.06.03 21:02:19.
