data_PCOD9393250
_publ_section_title
;
Structure prediction by ZEFSAII (Michael W. Deem and Ramdas Pophale) SiO2 
 PCOD9393250
Probable space group: P C C M
;
_chemical_formula_sum "Si O2"
_cell_formula_units_Z 48
_cell_length_a 8.995009
_cell_length_b 15.520789
_cell_length_c 14.860257
_cell_angle_alpha 90.000000
_cell_angle_beta 90.000000
_cell_angle_gamma 90.000000
_cell_volume 2074.635082
_symmetry_space_group_name_H-M "P C C M"
_symmetry_group_IT_number 49
_symmetry_cell_setting 'orthorhombic'
loop_
_space_group_symop_operation_xyz
x,y,z
-x,-y,z
x,-y,1/2-z
-x,y,1/2-z
-x,-y,-z
x,y,-z
-x,y,1/2+z
x,-y,1/2+z
loop_
_atom_site_type_symbol
_atom_site_label
_atom_site_fract_x
_atom_site_fract_y
_atom_site_fract_z
Si Si1 0.262271 0.646965 0.897488
Si Si2 0.851624 0.822149 0.345410
Si Si3 0.331586 0.463252 0.105608
Si Si4 0.824975 0.852035 0.866664
Si Si5 0.578184 0.712936 0.156093
Si Si6 0.665320 0.019270 0.858785
O O1 0.181121 0.721354 0.844505
O O2 0.244863 0.548966 0.864712
O O3 0.434432 0.680110 0.898750
O O4 0.209309 0.647705 0.000000
O O5 0.847996 0.849867 0.241336
O O6 0.723861 0.885749 0.382600
O O7 0.007601 0.832980 0.396021
O O8 0.500000 0.500000 0.108658
O O9 0.327768 0.376159 0.163067
O O10 0.298016 0.444009 0.000000
O O11 0.689257 0.784962 0.882377
O O12 0.775609 0.946577 0.894667
O O13 0.500000 0.741420 0.250000
O O14 0.500000 0.000000 0.890763
O O15 0.661798 0.000000 0.750000
#
# Coordination Sequence:
#
# PCOD9393250 Si02
#       6
#     8   8   8   8   8   8
#     4  10  20  36  57  79 111 150 188 231 279 336
#     4  10  19  35  52  78 114 149 183 222 280 336
#     4   8  17  33  52  77 107 142 185 229 278 331
#     4  10  20  32  52  83 114 142 180 232 283 327
#     4  11  19  32  55  84 110 141 185 241 278 323
#     4   9  17  29  54  81 110 140 179 226 276 330
#
# _framework density 23.136599
#
# number of rings (size 3 to 8) (size 9 to 14) (size 15 to 20)
#    0.000    2.333    1.667    3.000    2.333    5.000 
#    0.000    2.500    0.000   11.500    0.000    0.000 
#    0.000    0.000    0.000    0.000    0.000    0.000 
#
# Total GULP energy -267544.771232 kJ/mol
# GULP energy per Si atom -5573.849401 kJ/mol
# Density = 2.308394 g / cm^3
# Si number density = 23.136599 Si / 1000 Ang^3
#
#
#
# Elastic Constant Matrix: (Units=GPa)
#
#
# Indices 1 2 3 4 5 6 
#
# 1 76.0656 21.0056 -9.7356 0.0000 0.0000 0.0000
# 2 21.0056 93.1134 -13.4078 0.0000 0.0000 0.0000
# 3 -9.7356 -13.4078 53.7140 0.0000 0.0000 0.0000
# 4 0.0000 0.0000 0.0000 -56.4113 0.0000 0.0000
# 5 0.0000 0.0000 0.0000 0.0000 -9.0277 0.0000
# 6 0.0000 0.0000 0.0000 0.0000 0.0000 11.6446
#
#
#
# Elastic Compliance Matrix: (Units=1/GPa)
#
#
# Indices 1 2 3 4 5 6 
#
# 1 0.014193 -0.002937 0.001839 0.000000 0.000000 0.000000
# 2 -0.002937 0.011748 0.002400 0.000000 0.000000 0.000000
# 3 0.001839 0.002400 0.019550 0.000000 0.000000 0.000000
# 4 0.000000 0.000000 0.000000 -0.017727 0.000000 0.000000
# 5 0.000000 0.000000 0.000000 0.000000 -0.110770 0.000000
# 6 0.000000 0.000000 0.000000 0.000000 0.000000 0.085877
#
#
# Mechanical properties :
#
#
# Convention : Reuss Voigt Hill
#
# Bulk Modulus (GPa) = 20.79207 24.29083 22.54145
# Shear Modulus (GPa) = 306.80462 4.24317 155.52390
#
# Velocity S-wave (km/s) = 11.52795 1.35571 8.20767
# Velocity P-wave (km/s) = 13.64543 3.60170 9.97923
#
# Compressibility (1/GPa) = 0.04809526
#
# Stress axis : x y z
#
# Youngs Moduli (GPa) = 70.45723 85.12268 51.15200
#
# Poissons Ratio (x) = 0.25000 -0.09409
# Poissons Ratio (y) = 0.20693 -0.12277
# Poissons Ratio (z) = -0.12960 -0.20430
#
# Static dielectric constant tensor:
#      x y z
#    x 1.919790 0.000000 0.000000 
#    y 0.000000 1.870110 0.000000 
#    z 0.000000 0.000000 1.930090 
# 
# From -- ./inp_files/16280.got.cif
#   From: 2010.05.17/outbox.cif.g08.bks.cpg/sg49_9_cif.got.tgz:16280.got - 2010.06.03 21:02:19.
