data_PCOD9393570
_publ_section_title
;
Structure prediction by ZEFSAII (Michael W. Deem and Ramdas Pophale) SiO2 
 PCOD9393570
Probable space group: P C C M
;
_chemical_formula_sum "Si O2"
_cell_formula_units_Z 58
_cell_length_a 12.606771
_cell_length_b 9.049656
_cell_length_c 26.260813
_cell_angle_alpha 90.000000
_cell_angle_beta 90.000000
_cell_angle_gamma 90.000000
_cell_volume 2996.015819
_symmetry_space_group_name_H-M "P C C M"
_symmetry_group_IT_number 49
_symmetry_cell_setting 'orthorhombic'
loop_
_space_group_symop_operation_xyz
x,y,z
-x,-y,z
x,-y,1/2-z
-x,y,1/2-z
-x,-y,-z
x,y,-z
-x,y,1/2+z
x,-y,1/2+z
loop_
_atom_site_type_symbol
_atom_site_label
_atom_site_fract_x
_atom_site_fract_y
_atom_site_fract_z
Si Si1 0.000000 0.500000 0.750000
Si Si2 0.744678 0.825785 0.192414
Si Si3 0.958241 0.666503 0.555127
Si Si4 0.214362 0.846174 0.191340
Si Si5 0.979497 0.760537 0.831604
Si Si6 0.480053 0.832317 0.940871
Si Si7 0.402735 0.601966 0.368651
Si Si8 0.275785 0.671181 0.908254
O O1 0.035885 0.379595 0.793296
O O2 0.756367 0.794203 0.252300
O O3 0.862827 0.826169 0.169592
O O4 0.667113 0.703946 0.168719
O O5 0.721177 0.000161 0.184924
O O6 0.988034 0.735496 0.500000
O O7 0.831576 0.663552 0.560333
O O8 0.000000 0.500000 0.554544
O O9 0.997987 0.731257 0.608744
O O10 0.248371 0.733891 0.147679
O O11 0.084469 0.848195 0.188315
O O12 0.545157 0.716740 0.907584
O O13 0.358946 0.781905 0.933825
O O14 0.500000 0.000000 0.923935
O O15 0.510222 0.821801 0.000000
O O16 0.500000 0.500000 0.346922
O O17 0.328065 0.488026 0.399001
#
# Coordination Sequence:
#
# PCOD9393570 Si02
#       8
#     2   8   8   8   8   8   8   8
#     4  12  20  32  56  92 122 156 194 262 288 360
#     4  11  21  38  59  83 122 158 191 245 301 359
#     4  10  20  33  51  81 118 154 189 233 294 352
#     4  10  22  36  59  89 117 153 197 239 301 375
#     4  11  21  34  58  87 123 157 199 246 297 362
#     4  10  21  40  63  84 110 147 194 247 300 355
#     4  10  23  38  58  86 112 148 196 245 294 354
#     4  10  21  37  59  84 113 149 193 247 298 352
#
# _framework density 19.359041999999999
#
# number of rings (size 3 to 8) (size 9 to 14) (size 15 to 20)
#    0.000    1.655    2.069    2.483    1.931    4.690 
#    0.000    5.517    0.000   14.897    0.000    0.000 
#    0.000    0.000    0.000    0.000    0.000    0.000 
#
# Total GULP energy -322918.066295 kJ/mol
# GULP energy per Si atom -5567.552867 kJ/mol
# Density = 1.931498 g / cm^3
# Si number density = 19.359042 Si / 1000 Ang^3
#
#
#
# Elastic Constant Matrix: (Units=GPa)
#
#
# Indices 1 2 3 4 5 6 
#
# 1 51.2623 54.6779 28.1571 0.0000 0.0000 0.0000
# 2 54.6779 101.0676 42.1563 0.0000 0.0000 0.0000
# 3 28.1571 42.1563 106.9225 0.0000 0.0000 0.0000
# 4 0.0000 0.0000 0.0000 21.9383 0.0000 0.0000
# 5 0.0000 0.0000 0.0000 0.0000 17.5989 0.0000
# 6 0.0000 0.0000 0.0000 0.0000 0.0000 9.9704
#
#
#
# Elastic Compliance Matrix: (Units=1/GPa)
#
#
# Indices 1 2 3 4 5 6 
#
# 1 0.046814 -0.024157 -0.002804 0.000000 0.000000 0.000000
# 2 -0.024157 0.024308 -0.003222 0.000000 0.000000 0.000000
# 3 -0.002804 -0.003222 0.011361 0.000000 0.000000 0.000000
# 4 0.000000 0.000000 0.000000 0.045582 0.000000 0.000000
# 5 0.000000 0.000000 0.000000 0.000000 0.056822 0.000000
# 6 0.000000 0.000000 0.000000 0.000000 0.000000 0.100297
#
#
# Mechanical properties :
#
#
# Convention : Reuss Voigt Hill
#
# Bulk Modulus (GPa) = 45.21399 56.58168 50.89784
# Shear Modulus (GPa) = 14.16739 18.85226 16.50983
#
# Velocity S-wave (km/s) = 2.70816 3.12400 2.92348
# Velocity P-wave (km/s) = 5.76064 6.50411 6.14363
#
# Compressibility (1/GPa) = 0.02211705
#
# Stress axis : x y z
#
# Youngs Moduli (GPa) = 21.36092 41.13953 88.01832
#
# Poissons Ratio (x) = 0.99382 0.24677
# Poissons Ratio (y) = 0.51602 0.28360
# Poissons Ratio (z) = 0.05989 0.13256
#
# Static dielectric constant tensor:
#      x y z
#    x 1.691120 0.000000 0.000000 
#    y 0.000000 1.717130 0.000000 
#    z 0.000000 0.000000 1.676240 
# 
# From -- ./inp_files/24846.got.cif
#   From: 2010.05.17/outbox.cif.g08.bks.cpg/sg49_13_cif.got.tgz:24846.got - 2010.06.03 21:02:19.
