data_PCOD9393601
_publ_section_title
;
Structure prediction by ZEFSAII (Michael W. Deem and Ramdas Pophale) SiO2 
 PCOD9393601
Probable space group: P C C M
;
_chemical_formula_sum "Si O2"
_cell_formula_units_Z 32
_cell_length_a 15.373708
_cell_length_b 9.050735
_cell_length_c 11.080645
_cell_angle_alpha 90.000000
_cell_angle_beta 90.000000
_cell_angle_gamma 90.000000
_cell_volume 1541.798144
_symmetry_space_group_name_H-M "P C C M"
_symmetry_group_IT_number 49
_symmetry_cell_setting 'orthorhombic'
loop_
_space_group_symop_operation_xyz
x,y,z
-x,-y,z
x,-y,1/2-z
-x,y,1/2-z
-x,-y,-z
x,y,-z
-x,y,1/2+z
x,-y,1/2+z
loop_
_atom_site_type_symbol
_atom_site_label
_atom_site_fract_x
_atom_site_fract_y
_atom_site_fract_z
Si Si1 0.228910 0.334702 0.702696
Si Si2 0.306624 0.108306 0.862926
Si Si3 0.631050 0.636919 0.500000
Si Si4 0.431640 0.704061 0.500000
Si Si5 0.966401 0.328500 0.873061
O O1 0.233466 0.500000 0.750000
O O2 0.234448 0.222833 0.814839
O O3 0.311120 0.316714 0.614437
O O4 0.137558 0.322324 0.634985
O O5 0.317806 0.000000 0.750000
O O6 0.287320 0.049039 0.000000
O O7 0.392516 0.206843 0.886727
O O8 0.534879 0.703646 0.500000
O O9 0.610656 0.459877 0.500000
O O10 0.000000 0.500000 0.872751
O O11 0.000000 0.258549 0.750000
O O12 0.996504 0.263134 0.000000
#
# Coordination Sequence:
#
# PCOD9393601 Si02
#       5
#     8   8   4   4   8
#     4  12  21  38  66  96 134 176 225 281 344 400
#     4  10  24  45  67  97 135 185 233 278 331 398
#     4  11  22  39  64  99 134 171 224 286 345 391
#     4   9  22  43  61  97 136 177 227 283 331 398
#     4  10  20  33  56  95 133 170 213 274 339 405
#
# _framework density 20.754985999999999
#
# number of rings (size 3 to 8) (size 9 to 14) (size 15 to 20)
#    0.750    0.750    6.250    0.000    1.750    2.000 
#    0.000    3.750    0.000    0.750    0.000    3.500 
#    0.000    0.000    0.000    0.000    0.000    0.000 
#
# Total GULP energy -178275.175961 kJ/mol
# GULP energy per Si atom -5571.099249 kJ/mol
# Density = 2.070775 g / cm^3
# Si number density = 20.754986 Si / 1000 Ang^3
#
#
#
# Elastic Constant Matrix: (Units=GPa)
#
#
# Indices 1 2 3 4 5 6 
#
# 1 104.6564 17.0254 46.5111 0.0000 0.0000 0.0000
# 2 17.0254 60.0119 41.8873 0.0000 0.0000 0.0000
# 3 46.5111 41.8873 199.9703 0.0000 0.0000 0.0000
# 4 0.0000 0.0000 0.0000 66.0496 0.0000 0.0000
# 5 0.0000 0.0000 0.0000 0.0000 38.1929 0.0000
# 6 0.0000 0.0000 0.0000 0.0000 0.0000 -13.5565
#
#
#
# Elastic Compliance Matrix: (Units=1/GPa)
#
#
# Indices 1 2 3 4 5 6 
#
# 1 0.010775 -0.001532 -0.002185 0.000000 0.000000 0.000000
# 2 -0.001532 0.019735 -0.003778 0.000000 0.000000 0.000000
# 3 -0.002185 -0.003778 0.006300 0.000000 0.000000 0.000000
# 4 0.000000 0.000000 0.000000 0.015140 0.000000 0.000000
# 5 0.000000 0.000000 0.000000 0.000000 0.026183 0.000000
# 6 0.000000 0.000000 0.000000 0.000000 0.000000 -0.073766
#
#
# Mechanical properties :
#
#
# Convention : Reuss Voigt Hill
#
# Bulk Modulus (GPa) = 45.82697 63.94291 54.88494
# Shear Modulus (GPa) = 187.75360 35.41821 111.58590
#
# Velocity S-wave (km/s) = 9.52147 4.13545 7.34031
# Velocity P-wave (km/s) = 11.95850 7.32652 9.91674
#
# Compressibility (1/GPa) = 0.02182121
#
# Stress axis : x y z
#
# Youngs Moduli (GPa) = 92.80324 50.67265 158.72209
#
# Poissons Ratio (x) = 0.07761 0.34688
# Poissons Ratio (y) = 0.14214 0.59957
# Poissons Ratio (z) = 0.20282 0.19142
#
# Static dielectric constant tensor:
#      x y z
#    x 1.719920 0.000000 0.000000 
#    y 0.000000 1.745950 0.000000 
#    z 0.000000 0.000000 1.802880 
# 
# From -- ./inp_files/8040.got.cif
#   From: 2010.05.17/outbox.cif.g08.bks.cpg/sg49_5_cif.got.tgz:8040.got - 2010.06.03 21:02:19.
