data_PCOD9393036
_publ_section_title
;
Structure prediction by ZEFSAII (Michael W. Deem and Ramdas Pophale) SiO2 
 PCOD9393036
Probable space group: P C C M
;
_chemical_formula_sum "Si O2"
_cell_formula_units_Z 40
_cell_length_a 5.365832
_cell_length_b 22.492475
_cell_length_c 14.548952
_cell_angle_alpha 90.000000
_cell_angle_beta 90.000000
_cell_angle_gamma 90.000000
_cell_volume 1755.925269
_symmetry_space_group_name_H-M "P C C M"
_symmetry_group_IT_number 49
_symmetry_cell_setting 'orthorhombic'
loop_
_space_group_symop_operation_xyz
x,y,z
-x,-y,z
x,-y,1/2-z
-x,y,1/2-z
-x,-y,-z
x,y,-z
-x,y,1/2+z
x,-y,1/2+z
loop_
_atom_site_type_symbol
_atom_site_label
_atom_site_fract_x
_atom_site_fract_y
_atom_site_fract_z
Si Si1 0.370624 0.271823 0.890299
Si Si2 0.487763 0.133649 0.859466
Si Si3 0.864090 0.337946 0.887590
Si Si4 0.004547 0.069075 0.637771
Si Si5 0.754996 0.525736 0.353645
O O1 0.408586 0.201809 0.875291
O O2 0.626945 0.300128 0.856121
O O3 0.121168 0.305934 0.856837
O O4 0.363894 0.280608 0.000000
O O5 0.500000 0.125950 0.750000
O O6 0.754702 0.107953 0.892325
O O7 0.254767 0.096337 0.894808
O O8 0.801083 0.404088 0.853563
O O9 0.869011 0.340286 0.000000
O O10 0.000000 0.070933 0.750000
O O11 0.000000 0.000000 0.611652
O O12 0.500000 0.500000 0.394831
O O13 0.752202 0.500000 0.250000
O O14 0.000000 0.500000 0.400029
#
# Coordination Sequence:
#
# PCOD9393036 Si02
#       5
#     8   8   8   8   8
#     4  10  21  38  57  80 110 147 183 225 275 322
#     4  10  19  33  52  81 109 139 187 228 274 325
#     4  10  21  38  59  80 106 144 188 221 264 331
#     4   9  17  30  52  78 110 145 183 229 274 322
#     4  10  21  38  56  81 112 138 175 222 275 331
#
# _framework density 22.780014000000001
#
# number of rings (size 3 to 8) (size 9 to 14) (size 15 to 20)
#    0.000    2.200    0.000    3.000    0.000    3.200 
#   10.800    0.000    0.000    3.600    0.000    0.000 
#    0.000    0.000    0.000    0.000    0.000    0.000 
#
# Total GULP energy -223307.402409 kJ/mol
# GULP energy per Si atom -5582.685060 kJ/mol
# Density = 2.272817 g / cm^3
# Si number density = 22.780014 Si / 1000 Ang^3
#
#
#
# Elastic Constant Matrix: (Units=GPa)
#
#
# Indices 1 2 3 4 5 6 
#
# 1 270.7054 128.2437 21.3693 0.0000 0.0000 0.0000
# 2 128.2437 224.6463 -2.9696 0.0000 0.0000 0.0000
# 3 21.3693 -2.9696 82.2845 0.0000 0.0000 0.0000
# 4 0.0000 0.0000 0.0000 28.4911 0.0000 0.0000
# 5 0.0000 0.0000 0.0000 0.0000 -9.2177 0.0000
# 6 0.0000 0.0000 0.0000 0.0000 0.0000 55.1314
#
#
#
# Elastic Compliance Matrix: (Units=1/GPa)
#
#
# Indices 1 2 3 4 5 6 
#
# 1 0.005235 -0.003008 -0.001468 0.000000 0.000000 0.000000
# 2 -0.003008 0.006182 0.001004 0.000000 0.000000 0.000000
# 3 -0.001468 0.001004 0.012570 0.000000 0.000000 0.000000
# 4 0.000000 0.000000 0.000000 0.035099 0.000000 0.000000
# 5 0.000000 0.000000 0.000000 0.000000 -0.108487 0.000000
# 6 0.000000 0.000000 0.000000 0.000000 0.000000 0.018138
#
#
# Mechanical properties :
#
#
# Convention : Reuss Voigt Hill
#
# Bulk Modulus (GPa) = 58.67229 96.76922 77.72076
# Shear Modulus (GPa) = -268.26626 43.61382 -112.32622
#
# Velocity S-wave (km/s) = -10.86368 4.38032 -7.02966
# Velocity P-wave (km/s) = 11.46941 8.25561 5.62994
#
# Compressibility (1/GPa) = 0.01704382
#
# Stress axis : x y z
#
# Youngs Moduli (GPa) = 191.02682 161.76525 79.55166
#
# Poissons Ratio (x) = 0.48656 0.11679
# Poissons Ratio (y) = 0.57458 -0.07989
# Poissons Ratio (z) = 0.28044 -0.16245
#
# Static dielectric constant tensor:
#      x y z
#    x 1.831760 0.000000 0.000000 
#    y 0.000000 1.944670 0.000000 
#    z 0.000000 0.000000 1.869960 
# 
# From -- ./inp_files/15270.got.cif
#   From: 2010.05.17/outbox.cif.g08.bks.cpg/sg49_8_cif.got.tgz:15270.got - 2010.06.03 21:02:19.
