data_PCOD9393235
_publ_section_title
;
Structure prediction by ZEFSAII (Michael W. Deem and Ramdas Pophale) SiO2 
 PCOD9393235
Probable space group: P C C M
;
_chemical_formula_sum "Si O2"
_cell_formula_units_Z 64
_cell_length_a 19.653741
_cell_length_b 9.775507
_cell_length_c 16.904808
_cell_angle_alpha 90.000000
_cell_angle_beta 90.000000
_cell_angle_gamma 90.000000
_cell_volume 3247.841016
_symmetry_space_group_name_H-M "P C C M"
_symmetry_group_IT_number 49
_symmetry_cell_setting 'orthorhombic'
loop_
_space_group_symop_operation_xyz
x,y,z
-x,-y,z
x,-y,1/2-z
-x,y,1/2-z
-x,-y,-z
x,y,-z
-x,y,1/2+z
x,-y,1/2+z
loop_
_atom_site_type_symbol
_atom_site_label
_atom_site_fract_x
_atom_site_fract_y
_atom_site_fract_z
Si Si1 0.039737 0.641788 0.409553
Si Si2 0.690838 0.135601 0.215632
Si Si3 0.681633 0.603271 0.823102
Si Si4 0.195086 0.226786 0.593932
Si Si5 0.459016 0.128328 0.667375
Si Si6 0.947506 0.882346 0.403580
Si Si7 0.429250 0.421534 0.412448
Si Si8 0.173209 0.472860 0.156114
O O1 0.055280 0.683442 0.500000
O O2 0.110112 0.621479 0.365647
O O3 0.000000 0.500000 0.411517
O O4 0.986453 0.747812 0.374827
O O5 0.672922 0.248046 0.283201
O O6 0.739292 0.201539 0.149072
O O7 0.619109 0.085683 0.180178
O O8 0.725566 0.000000 0.250000
O O9 0.687642 0.500000 0.750000
O O10 0.622540 0.529545 0.872617
O O11 0.754800 0.596910 0.864805
O O12 0.208969 0.210304 0.500000
O O13 0.131877 0.128361 0.618547
O O14 0.170875 0.382411 0.610493
O O15 0.500000 0.149017 0.750000
O O16 0.447962 0.277410 0.628686
O O17 0.500000 0.000000 0.628211
O O18 0.945317 0.882036 0.500000
O O19 0.000000 0.000000 0.379320
O O20 0.500000 0.500000 0.416657
O O21 0.402601 0.389648 0.500000
O O22 0.170414 0.500000 0.250000
#
# Coordination Sequence:
#
# PCOD9393235 Si02
#       8
#     8   8   8   8   8   8   8   8
#     4  10  19  34  59  87 116 163 215 263 314 376
#     4  12  24  42  66  99 131 168 220 272 327 402
#     4  11  22  42  65  91 128 174 213 260 324 399
#     4  11  22  41  68  95 128 176 222 269 331 402
#     4  11  22  40  68  96 123 175 223 261 324 398
#     4   9  19  37  60  87 122 165 217 265 316 390
#     4  11  25  41  65 101 132 167 216 271 323 380
#     4  11  21  37  60  93 127 158 212 269 323 377
#
# _framework density 19.705397999999999
#
# number of rings (size 3 to 8) (size 9 to 14) (size 15 to 20)
#    0.000    1.250    6.250    1.125    0.000    4.000 
#    0.000    0.625    0.000    0.000    0.000    0.000 
#    0.000    0.000    0.000    0.000    0.000    0.000 
#
# Total GULP energy -356628.205162 kJ/mol
# GULP energy per Si atom -5572.315706 kJ/mol
# Density = 1.966055 g / cm^3
# Si number density = 19.705398 Si / 1000 Ang^3
#
#
#
# Elastic Constant Matrix: (Units=GPa)
#
#
# Indices 1 2 3 4 5 6 
#
# 1 144.4593 21.0953 36.3933 0.0000 0.0000 0.0000
# 2 21.0953 100.3853 24.8931 0.0000 0.0000 0.0000
# 3 36.3933 24.8931 62.2934 0.0000 0.0000 0.0000
# 4 0.0000 0.0000 0.0000 17.5779 0.0000 0.0000
# 5 0.0000 0.0000 0.0000 0.0000 27.8135 0.0000
# 6 0.0000 0.0000 0.0000 0.0000 0.0000 29.3564
#
#
#
# Elastic Compliance Matrix: (Units=1/GPa)
#
#
# Indices 1 2 3 4 5 6 
#
# 1 0.008148 -0.000590 -0.004525 0.000000 0.000000 0.000000
# 2 -0.000590 0.011100 -0.004091 0.000000 0.000000 0.000000
# 3 -0.004525 -0.004091 0.020331 0.000000 0.000000 0.000000
# 4 0.000000 0.000000 0.000000 0.056890 0.000000 0.000000
# 5 0.000000 0.000000 0.000000 0.000000 0.035954 0.000000
# 6 0.000000 0.000000 0.000000 0.000000 0.000000 0.034064
#
#
# Mechanical properties :
#
#
# Convention : Reuss Voigt Hill
#
# Bulk Modulus (GPa) = 47.24073 52.43348 49.83711
# Shear Modulus (GPa) = 26.04781 29.93332 27.99057
#
# Velocity S-wave (km/s) = 3.63969 3.90172 3.77298
# Velocity P-wave (km/s) = 6.45667 6.85305 6.65781
#
# Compressibility (1/GPa) = 0.02116817
#
# Stress axis : x y z
#
# Youngs Moduli (GPa) = 122.72281 90.08931 49.18560
#
# Poissons Ratio (x) = 0.05318 0.22255
# Poissons Ratio (y) = 0.07245 0.20121
# Poissons Ratio (z) = 0.55527 0.36854
#
# Static dielectric constant tensor:
#      x y z
#    x 1.708850 0.000000 0.000000 
#    y 0.000000 1.768890 0.000000 
#    z 0.000000 0.000000 -1.670090 
# 
# From -- ./inp_files/18308.got.cif
#   From: 2010.05.17/outbox.cif.g08.bks.cpg/sg49_10_cif.got.tgz:18308.got - 2010.06.03 21:02:19.
