data_PCOD9393067
_publ_section_title
;
Structure prediction by ZEFSAII (Michael W. Deem and Ramdas Pophale) SiO2 
 PCOD9393067
Probable space group: P C C M
;
_chemical_formula_sum "Si O2"
_cell_formula_units_Z 48
_cell_length_a 9.300098
_cell_length_b 16.495879
_cell_length_c 16.387269
_cell_angle_alpha 90.000000
_cell_angle_beta 90.000000
_cell_angle_gamma 90.000000
_cell_volume 2514.024873
_symmetry_space_group_name_H-M "P C C M"
_symmetry_group_IT_number 49
_symmetry_cell_setting 'orthorhombic'
loop_
_space_group_symop_operation_xyz
x,y,z
-x,-y,z
x,-y,1/2-z
-x,y,1/2-z
-x,-y,-z
x,y,-z
-x,y,1/2+z
x,-y,1/2+z
loop_
_atom_site_type_symbol
_atom_site_label
_atom_site_fract_x
_atom_site_fract_y
_atom_site_fract_z
Si Si1 0.920989 0.920036 0.598276
Si Si2 0.647033 0.837044 0.403979
Si Si3 0.938789 0.756497 0.841069
Si Si4 0.542956 0.589175 0.655567
Si Si5 0.376207 0.254737 0.903073
Si Si6 0.187972 0.664156 0.906511
O O1 0.909173 0.926882 0.500000
O O2 0.758805 0.902857 0.630498
O O3 0.015739 0.840837 0.616703
O O4 0.000000 0.000000 0.629857
O O5 0.626578 0.855273 0.500000
O O6 0.488870 0.814348 0.372796
O O7 0.736207 0.752732 0.399513
O O8 0.769437 0.745894 0.851721
O O9 0.000000 0.760805 0.750000
O O10 0.025097 0.681947 0.881726
O O11 0.500000 0.500000 0.626383
O O12 0.500000 0.596326 0.750000
O O13 0.458776 0.659961 0.607918
O O14 0.712929 0.605248 0.645996
O O15 0.346064 0.242948 0.000000
O O16 0.197004 0.638279 0.000000
#
# Coordination Sequence:
#
# PCOD9393067 Si02
#       6
#     8   8   8   8   8   8
#     4   9  17  32  53  75 103 140 179 217 263 322
#     4   7  13  27  48  73  98 129 169 212 255 302
#     4  11  21  33  51  76 105 137 175 224 278 324
#     4  10  20  34  53  79 109 137 167 211 270 328
#     4  10  19  33  54  78 105 138 183 229 263 313
#     4   9  17  32  52  71  97 135 175 209 252 318
#
# _framework density 19.092890000000001
#
# number of rings (size 3 to 8) (size 9 to 14) (size 15 to 20)
#    0.000    2.667    0.000    5.000    0.000    1.667 
#    0.000    1.667    0.000    9.000    0.000    7.000 
#    0.000    0.000    0.000    0.000    0.000    0.333 
#
# Total GULP energy -267396.680104 kJ/mol
# GULP energy per Si atom -5570.764169 kJ/mol
# Density = 1.904943 g / cm^3
# Si number density = 19.092890 Si / 1000 Ang^3
#
#
#
# Elastic Constant Matrix: (Units=GPa)
#
#
# Indices 1 2 3 4 5 6 
#
# 1 155.3368 48.7786 16.5899 0.0000 0.0000 0.0000
# 2 48.7786 78.7307 7.5547 0.0000 0.0000 0.0000
# 3 16.5899 7.5547 30.5175 0.0000 0.0000 0.0000
# 4 0.0000 0.0000 0.0000 15.6208 0.0000 0.0000
# 5 0.0000 0.0000 0.0000 0.0000 20.0485 0.0000
# 6 0.0000 0.0000 0.0000 0.0000 0.0000 17.7246
#
#
#
# Elastic Compliance Matrix: (Units=1/GPa)
#
#
# Indices 1 2 3 4 5 6 
#
# 1 0.008309 -0.004829 -0.003321 0.000000 0.000000 0.000000
# 2 -0.004829 0.015817 -0.001290 0.000000 0.000000 0.000000
# 3 -0.003321 -0.001290 0.034893 0.000000 0.000000 0.000000
# 4 0.000000 0.000000 0.000000 0.064017 0.000000 0.000000
# 5 0.000000 0.000000 0.000000 0.000000 0.049879 0.000000
# 6 0.000000 0.000000 0.000000 0.000000 0.000000 0.056419
#
#
# Mechanical properties :
#
#
# Convention : Reuss Voigt Hill
#
# Bulk Modulus (GPa) = 24.91444 45.60349 35.25897
# Shear Modulus (GPa) = 19.11350 23.45622 21.28486
#
# Velocity S-wave (km/s) = 3.16742 3.50884 3.34249
# Velocity P-wave (km/s) = 5.14335 6.35239 5.77958
#
# Compressibility (1/GPa) = 0.04013737
#
# Stress axis : x y z
#
# Youngs Moduli (GPa) = 120.35479 63.22201 28.65901
#
# Poissons Ratio (x) = 0.30531 0.09519
# Poissons Ratio (y) = 0.58121 0.03698
# Poissons Ratio (z) = 0.39974 0.08158
#
# Static dielectric constant tensor:
#      x y z
#    x 1.715030 0.000000 0.000000 
#    y 0.000000 1.661010 0.000000 
#    z 0.000000 0.000000 1.684410 
# 
# From -- ./inp_files/11823.got.cif
#   From: 2010.05.17/outbox.cif.g08.bks.cpg/sg49_6_cif.got.tgz:11823.got - 2010.06.03 21:02:19.
