data_PCOD9393284
_publ_section_title
;
Structure prediction by ZEFSAII (Michael W. Deem and Ramdas Pophale) SiO2 
 PCOD9393284
Probable space group: P C C M
;
_chemical_formula_sum "Si O2"
_cell_formula_units_Z 64
_cell_length_a 7.389696
_cell_length_b 17.082356
_cell_length_c 22.830454
_cell_angle_alpha 90.000000
_cell_angle_beta 90.000000
_cell_angle_gamma 90.000000
_cell_volume 2881.966238
_symmetry_space_group_name_H-M "P C C M"
_symmetry_group_IT_number 49
_symmetry_cell_setting 'orthorhombic'
loop_
_space_group_symop_operation_xyz
x,y,z
-x,-y,z
x,-y,1/2-z
-x,y,1/2-z
-x,-y,-z
x,y,-z
-x,y,1/2+z
x,-y,1/2+z
loop_
_atom_site_type_symbol
_atom_site_label
_atom_site_fract_x
_atom_site_fract_y
_atom_site_fract_z
Si Si1 0.308189 0.116930 0.064906
Si Si2 0.775343 0.702962 0.840229
Si Si3 0.494550 0.285335 0.064109
Si Si4 0.907979 0.085819 0.936595
Si Si5 0.811042 0.126373 0.816628
Si Si6 0.176619 0.702007 0.139689
Si Si7 0.284701 0.588923 0.761692
Si Si8 0.756631 0.883712 0.809322
O O1 0.422868 0.196048 0.063871
O O2 0.091735 0.137393 0.065947
O O3 0.329133 0.080883 0.130928
O O4 0.335912 0.077939 0.000000
O O5 0.619027 0.675737 0.883770
O O6 0.801152 0.646104 0.786017
O O7 0.728769 0.790147 0.817186
O O8 0.965504 0.703497 0.873064
O O9 0.701758 0.288075 0.082800
O O10 0.463269 0.318763 0.000000
O O11 0.774690 0.097810 0.882566
O O12 0.821213 0.097296 0.000000
O O13 0.000000 0.000000 0.934120
O O14 0.790174 0.220260 0.820254
O O15 0.712272 0.095978 0.758341
O O16 0.025041 0.104817 0.811700
O O17 0.234295 0.625526 0.175862
O O18 0.228686 0.500000 0.750000
O O19 0.500000 0.593804 0.750000
#
# Coordination Sequence:
#
# PCOD9393284 Si02
#       8
#     8   8   8   8   8   8   8   8
#     4   8  15  29  47  68 101 144 187 238 294 355
#     4  10  19  35  57  82 118 153 192 243 306 364
#     4  10  21  36  55  83 116 151 200 256 307 361
#     4   9  17  30  50  77 112 158 206 251 309 379
#     4   9  16  27  46  75 108 141 184 242 295 350
#     4  11  21  34  58  87 116 153 196 253 307 369
#     4  11  22  37  60  91 124 160 198 242 305 377
#     4   8  14  26  46  73 103 136 179 229 290 347
#
# _framework density 22.207063000000002
#
# number of rings (size 3 to 8) (size 9 to 14) (size 15 to 20)
#    0.000    2.500    2.500    1.125    0.000    2.000 
#    0.000    6.250    0.000    2.250    0.000    5.250 
#    0.000   10.750    0.000    0.125    0.000    0.000 
#
# Total GULP energy -356923.856595 kJ/mol
# GULP energy per Si atom -5576.935259 kJ/mol
# Density = 2.215652 g / cm^3
# Si number density = 22.207063 Si / 1000 Ang^3
#
#
#
# Elastic Constant Matrix: (Units=GPa)
#
#
# Indices 1 2 3 4 5 6 
#
# 1 58.2900 8.4473 14.4115 0.0000 0.0000 0.0000
# 2 8.4473 79.8426 13.3513 0.0000 0.0000 0.0000
# 3 14.4115 13.3513 197.4274 0.0000 0.0000 0.0000
# 4 0.0000 0.0000 0.0000 10.7996 0.0000 0.0000
# 5 0.0000 0.0000 0.0000 0.0000 20.4654 0.0000
# 6 0.0000 0.0000 0.0000 0.0000 0.0000 13.0750
#
#
#
# Elastic Compliance Matrix: (Units=1/GPa)
#
#
# Indices 1 2 3 4 5 6 
#
# 1 0.017690 -0.001675 -0.001178 0.000000 0.000000 0.000000
# 2 -0.001675 0.012826 -0.000745 0.000000 0.000000 0.000000
# 3 -0.001178 -0.000745 0.005202 0.000000 0.000000 0.000000
# 4 0.000000 0.000000 0.000000 0.092596 0.000000 0.000000
# 5 0.000000 0.000000 0.000000 0.000000 0.048863 0.000000
# 6 0.000000 0.000000 0.000000 0.000000 0.000000 0.076482
#
#
# Mechanical properties :
#
#
# Convention : Reuss Voigt Hill
#
# Bulk Modulus (GPa) = 35.06067 45.33114 40.19591
# Shear Modulus (GPa) = 18.49379 28.82466 23.65922
#
# Velocity S-wave (km/s) = 2.88894 3.60668 3.26758
# Velocity P-wave (km/s) = 5.19137 6.14829 5.68998
#
# Compressibility (1/GPa) = 0.02852199
#
# Stress axis : x y z
#
# Youngs Moduli (GPa) = 56.53056 77.96407 192.25080
#
# Poissons Ratio (x) = 0.13056 0.22648
# Poissons Ratio (y) = 0.09466 0.14326
# Poissons Ratio (z) = 0.06659 0.05810
#
# Static dielectric constant tensor:
#      x y z
#    x 1.860400 0.000000 0.000000 
#    y 0.000000 1.815930 0.000000 
#    z 0.000000 0.000000 1.918390 
# 
# From -- ./inp_files/20040.got.cif
#   From: 2010.05.17/outbox.cif.g08.bks.cpg/sg49_11_cif.got.tgz:20040.got - 2010.06.03 21:02:19.
