data_PCOD9393008
_publ_section_title
;
Structure prediction by ZEFSAII (Michael W. Deem and Ramdas Pophale) SiO2 
 PCOD9393008
Probable space group: P C C M
;
_chemical_formula_sum "Si O2"
_cell_formula_units_Z 56
_cell_length_a 20.631800
_cell_length_b 16.033115
_cell_length_c 8.406256
_cell_angle_alpha 90.000000
_cell_angle_beta 90.000000
_cell_angle_gamma 90.000000
_cell_volume 2780.722420
_symmetry_space_group_name_H-M "P C C M"
_symmetry_group_IT_number 49
_symmetry_cell_setting 'orthorhombic'
loop_
_space_group_symop_operation_xyz
x,y,z
-x,-y,z
x,-y,1/2-z
-x,y,1/2-z
-x,-y,-z
x,y,-z
-x,y,1/2+z
x,-y,1/2+z
loop_
_atom_site_type_symbol
_atom_site_label
_atom_site_fract_x
_atom_site_fract_y
_atom_site_fract_z
Si Si1 0.179560 0.221805 0.807654
Si Si2 0.184752 0.590714 0.317237
Si Si3 0.714142 0.911539 0.193065
Si Si4 0.569450 0.888358 0.182467
Si Si5 0.659345 0.588457 0.182652
Si Si6 0.926610 0.092243 0.809596
Si Si7 0.563150 0.291120 0.183542
O O1 0.169623 0.317020 0.746641
O O2 0.243916 0.169348 0.755969
O O3 0.120355 0.162623 0.759507
O O4 0.184092 0.227926 0.000000
O O5 0.163795 0.500000 0.250000
O O6 0.162725 0.591508 0.500000
O O7 0.263085 0.590276 0.313561
O O8 0.639650 0.910274 0.255149
O O9 0.742965 0.000000 0.250000
O O10 0.712805 0.910343 0.000000
O O11 0.500000 0.915375 0.250000
O O12 0.567933 0.789017 0.204275
O O13 0.570873 0.914219 0.000000
O O14 0.637761 0.500000 0.250000
O O15 0.627687 0.657291 0.292452
O O16 0.638919 0.601005 0.000000
O O17 0.000000 0.105654 0.750000
O O18 0.907022 0.000000 0.750000
O O19 0.924895 0.093408 0.000000
O O20 0.500000 0.339166 0.250000
O O21 0.554775 0.266998 0.000000
#
# Coordination Sequence:
#
# PCOD9393008 Si02
#       7
#     8   8   8   8   8   8   8
#     4  10  20  37  59  86 119 156 192 236 288 339
#     4   9  19  35  57  82 113 148 186 231 281 333
#     4  10  22  37  55  79 111 147 187 233 288 343
#     4  10  20  36  54  73  98 135 180 228 279 335
#     4  10  19  33  50  71  98 130 168 215 271 333
#     4  11  22  38  61  91 125 163 200 238 280 335
#     4  11  21  33  49  69  91 122 164 215 272 334
#
# _framework density 20.138650999999999
#
# number of rings (size 3 to 8) (size 9 to 14) (size 15 to 20)
#    0.000    1.857    0.000    6.000    0.000    6.857 
#    0.000    4.286    0.000    0.429    0.000    3.000 
#    0.000    0.000    0.000    0.000    0.000    0.000 
#
# Total GULP energy -312267.490060 kJ/mol
# GULP energy per Si atom -5576.205180 kJ/mol
# Density = 2.009281 g / cm^3
# Si number density = 20.138651 Si / 1000 Ang^3
#
#
#
# Elastic Constant Matrix: (Units=GPa)
#
#
# Indices 1 2 3 4 5 6 
#
# 1 74.8648 50.5887 9.4515 0.0000 0.0000 0.0000
# 2 50.5887 162.3651 15.3781 0.0000 0.0000 0.0000
# 3 9.4515 15.3781 35.3005 0.0000 0.0000 0.0000
# 4 0.0000 0.0000 0.0000 -34.3017 0.0000 0.0000
# 5 0.0000 0.0000 0.0000 0.0000 24.7253 0.0000
# 6 0.0000 0.0000 0.0000 0.0000 0.0000 -9.4041
#
#
#
# Elastic Compliance Matrix: (Units=1/GPa)
#
#
# Indices 1 2 3 4 5 6 
#
# 1 0.017105 -0.005107 -0.002355 0.000000 0.000000 0.000000
# 2 -0.005107 0.007948 -0.002095 0.000000 0.000000 0.000000
# 3 -0.002355 -0.002095 0.029872 0.000000 0.000000 0.000000
# 4 0.000000 0.000000 0.000000 -0.029153 0.000000 0.000000
# 5 0.000000 0.000000 0.000000 0.000000 0.040444 0.000000
# 6 0.000000 0.000000 0.000000 0.000000 0.000000 -0.106337
#
#
# Mechanical properties :
#
#
# Convention : Reuss Voigt Hill
#
# Bulk Modulus (GPa) = 27.92428 47.04078 37.48253
# Shear Modulus (GPa) = -551.34648 9.34471 -271.00088
#
# Velocity S-wave (km/s) = -16.56411 2.15645 -11.61291
# Velocity P-wave (km/s) = 18.75980 5.44146 12.69489
#
# Compressibility (1/GPa) = 0.03581113
#
# Stress axis : x y z
#
# Youngs Moduli (GPa) = 58.46107 125.81034 33.47653
#
# Poissons Ratio (x) = 0.64245 0.07885
# Poissons Ratio (y) = 0.29853 0.07015
# Poissons Ratio (z) = 0.13769 0.26362
#
# Static dielectric constant tensor:
#      x y z
#    x 1.735060 0.000000 0.000000 
#    y 0.000000 1.742190 0.000000 
#    z 0.000000 0.000000 1.763460 
# 
# From -- ./inp_files/5782.got.cif
#   From: 2010.05.17/outbox.cif.g08.bks.cpg/sg49_3_cif.got.tgz:5782.got - 2010.06.03 21:02:19.
