data_PCOD9393669
_publ_section_title
;
Structure prediction by ZEFSAII (Michael W. Deem and Ramdas Pophale) SiO2 
 PCOD9393669
Probable space group: P C C M
;
_chemical_formula_sum "Si O2"
_cell_formula_units_Z 48
_cell_length_a 31.869627
_cell_length_b 9.640275
_cell_length_c 8.679618
_cell_angle_alpha 90.000000
_cell_angle_beta 90.000000
_cell_angle_gamma 90.000000
_cell_volume 2666.656123
_symmetry_space_group_name_H-M "P C C M"
_symmetry_group_IT_number 49
_symmetry_cell_setting 'orthorhombic'
loop_
_space_group_symop_operation_xyz
x,y,z
-x,-y,z
x,-y,1/2-z
-x,y,1/2-z
-x,-y,-z
x,y,-z
-x,y,1/2+z
x,-y,1/2+z
loop_
_atom_site_type_symbol
_atom_site_label
_atom_site_fract_x
_atom_site_fract_y
_atom_site_fract_z
Si Si1 0.042291 0.843525 0.683745
Si Si2 0.135700 0.843271 0.685117
Si Si3 0.455788 0.655296 0.684191
Si Si4 0.617254 0.154128 0.185391
Si Si5 0.210011 0.654952 0.814752
Si Si6 0.286891 0.153141 0.314757
O O1 0.038598 0.849736 0.500000
O O2 0.088623 0.788310 0.722961
O O3 0.000000 0.775280 0.750000
O O4 0.043015 0.000000 0.750000
O O5 0.139433 0.849239 0.500000
O O6 0.170898 0.744647 0.754746
O O7 0.139962 0.000000 0.750000
O O8 0.451483 0.500000 0.750000
O O9 0.500000 0.711254 0.750000
O O10 0.457581 0.651388 0.500000
O O11 0.416844 0.744862 0.742118
O O12 0.665349 0.191890 0.228102
O O13 0.610175 0.000000 0.250000
O O14 0.613812 0.154825 0.000000
O O15 0.208977 0.500000 0.750000
O O16 0.252288 0.735972 0.764805
O O17 0.209122 0.650602 0.000000
O O18 0.285414 0.144096 0.500000
O O19 0.277694 0.000000 0.250000
#
# Coordination Sequence:
#
# PCOD9393669 Si02
#       6
#     8   8   8   8   8   8
#     4   9  16  26  44  71 103 134 169 212 260 308
#     4  10  20  34  53  79 108 141 178 219 265 317
#     4  11  22  38  58  82 111 147 186 226 270 319
#     4  10  20  37  58  84 114 144 179 222 269 319
#     4  11  23  38  55  78 107 142 180 222 268 318
#     4   9  20  37  58  82 109 140 177 219 267 319
#
# _framework density 18.000071999999999
#
# number of rings (size 3 to 8) (size 9 to 14) (size 15 to 20)
#    0.000    2.000    0.000    5.000    0.000    6.333 
#    0.000    3.333    0.000    0.500    0.000    3.500 
#    0.000    0.000    0.000    0.000    0.000    0.000 
#
# Total GULP energy -267888.825369 kJ/mol
# GULP energy per Si atom -5581.017195 kJ/mol
# Density = 1.795910 g / cm^3
# Si number density = 18.000072 Si / 1000 Ang^3
#
#
#
# Elastic Constant Matrix: (Units=GPa)
#
#
# Indices 1 2 3 4 5 6 
#
# 1 187.3926 103.9981 68.5230 0.0000 0.0000 0.0000
# 2 103.9981 92.5649 41.7754 0.0000 0.0000 0.0000
# 3 68.5230 41.7754 90.3864 0.0000 0.0000 0.0000
# 4 0.0000 0.0000 0.0000 29.0507 0.0000 0.0000
# 5 0.0000 0.0000 0.0000 0.0000 43.6357 0.0000
# 6 0.0000 0.0000 0.0000 0.0000 0.0000 -25.2077
#
#
#
# Elastic Compliance Matrix: (Units=1/GPa)
#
#
# Indices 1 2 3 4 5 6 
#
# 1 0.015617 -0.015419 -0.004713 0.000000 0.000000 0.000000
# 2 -0.015419 0.028874 -0.001656 0.000000 0.000000 0.000000
# 3 -0.004713 -0.001656 0.015402 0.000000 0.000000 0.000000
# 4 0.000000 0.000000 0.000000 0.034423 0.000000 0.000000
# 5 0.000000 0.000000 0.000000 0.000000 0.022917 0.000000
# 6 0.000000 0.000000 0.000000 0.000000 0.000000 -0.039670
#
#
# Mechanical properties :
#
#
# Convention : Reuss Voigt Hill
#
# Bulk Modulus (GPa) = 61.28502 88.77078 75.02790
# Shear Modulus (GPa) = 39.50215 19.89889 29.70052
#
# Velocity S-wave (km/s) = 4.68969 3.32850 4.06645
# Velocity P-wave (km/s) = 7.96525 8.01223 7.98878
#
# Compressibility (1/GPa) = 0.01631720
#
# Stress axis : x y z
#
# Youngs Moduli (GPa) = 64.03421 34.63372 64.92701
#
# Poissons Ratio (x) = 0.53400 0.30600
# Poissons Ratio (y) = 0.98732 0.10752
# Poissons Ratio (z) = 0.30179 0.05735
#
# Static dielectric constant tensor:
#      x y z
#    x 1.652010 0.000000 0.000000 
#    y 0.000000 1.579600 0.000000 
#    z 0.000000 0.000000 1.620670 
# 
# From -- ./inp_files/2014.got.cif
#   From: 2010.05.17/outbox.cif.g08.bks.cpg/sg49_2_cif.got.tgz:2014.got - 2010.06.03 21:02:19.
