data_PCOD9393234
_publ_section_title
;
Structure prediction by ZEFSAII (Michael W. Deem and Ramdas Pophale) SiO2 
 PCOD9393234
Probable space group: P C C M
;
_chemical_formula_sum "Si O2"
_cell_formula_units_Z 64
_cell_length_a 12.933428
_cell_length_b 7.828249
_cell_length_c 30.050150
_cell_angle_alpha 90.000000
_cell_angle_beta 90.000000
_cell_angle_gamma 90.000000
_cell_volume 3042.460336
_symmetry_space_group_name_H-M "P C C M"
_symmetry_group_IT_number 49
_symmetry_cell_setting 'orthorhombic'
loop_
_space_group_symop_operation_xyz
x,y,z
-x,-y,z
x,-y,1/2-z
-x,y,1/2-z
-x,-y,-z
x,y,-z
-x,y,1/2+z
x,-y,1/2+z
loop_
_atom_site_type_symbol
_atom_site_label
_atom_site_fract_x
_atom_site_fract_y
_atom_site_fract_z
Si Si1 0.089516 0.733182 0.144599
Si Si2 0.105474 0.888253 0.951140
Si Si3 0.715699 0.178664 0.198816
Si Si4 0.525781 0.796788 0.048251
Si Si5 0.136641 0.337341 0.858849
Si Si6 0.479040 0.792283 0.854693
Si Si7 0.324027 0.775537 0.297323
Si Si8 0.772073 0.774721 0.951162
O O1 0.111582 0.778759 0.093199
O O2 0.169507 0.818033 0.178699
O O3 0.109798 0.532850 0.149587
O O4 0.967806 0.768666 0.151399
O O5 0.197143 0.025974 0.949290
O O6 0.107370 0.802421 0.000000
O O7 0.000000 0.000000 0.949331
O O8 0.633170 0.251112 0.164066
O O9 0.697526 0.270762 0.246014
O O10 0.682404 0.981522 0.203082
O O11 0.483548 0.727735 0.094732
O O12 0.648811 0.767151 0.051497
O O13 0.500000 0.000000 0.047539
O O14 0.489417 0.728729 0.000000
O O15 0.231569 0.286007 0.828278
O O16 0.170500 0.311056 0.909958
O O17 0.567761 0.727291 0.820794
O O18 0.500000 0.000000 0.856732
O O19 0.805768 0.710632 0.000000
#
# Coordination Sequence:
#
# PCOD9393234 Si02
#       8
#     8   8   8   8   8   8   8   8
#     4  11  25  38  56  82 120 156 194 238 295 350
#     4  10  20  35  58  87 114 145 189 244 287 333
#     4  10  22  37  59  91 110 147 193 252 300 345
#     4   9  17  28  50  89 120 146 182 229 287 347
#     4  11  23  40  56  80 115 164 197 235 291 355
#     4   9  17  32  58  87 118 146 183 240 299 345
#     4  10  20  38  63  84 114 145 197 246 298 353
#     4  10  19  34  59  86 115 152 196 237 283 342
#
# _framework density 21.035606999999999
#
# number of rings (size 3 to 8) (size 9 to 14) (size 15 to 20)
#    0.000    2.000    2.500    1.125    3.500    3.000 
#    0.000    4.375    0.000    1.500    0.000    1.750 
#    0.000    0.000    0.000    0.000    0.000    0.000 
#
# Total GULP energy -357116.776839 kJ/mol
# GULP energy per Si atom -5579.949638 kJ/mol
# Density = 2.098773 g / cm^3
# Si number density = 21.035607 Si / 1000 Ang^3
#
#
#
# Elastic Constant Matrix: (Units=GPa)
#
#
# Indices 1 2 3 4 5 6 
#
# 1 76.7131 -12.2136 42.3108 0.0000 0.0000 0.0000
# 2 -12.2136 7.3365 -6.0023 0.0000 0.0000 0.0000
# 3 42.3108 -6.0023 138.1662 0.0000 0.0000 0.0000
# 4 0.0000 0.0000 0.0000 -6.6007 0.0000 0.0000
# 5 0.0000 0.0000 0.0000 0.0000 -6.8163 0.0000
# 6 0.0000 0.0000 0.0000 0.0000 0.0000 2.9013
#
#
#
# Elastic Compliance Matrix: (Units=1/GPa)
#
#
# Indices 1 2 3 4 5 6 
#
# 1 0.020601 0.030208 -0.004996 0.000000 0.000000 0.000000
# 2 0.030208 0.185622 -0.001187 0.000000 0.000000 0.000000
# 3 -0.004996 -0.001187 0.008716 0.000000 0.000000 0.000000
# 4 0.000000 0.000000 0.000000 -0.151500 0.000000 0.000000
# 5 0.000000 0.000000 0.000000 0.000000 -0.146708 0.000000
# 6 0.000000 0.000000 0.000000 0.000000 0.000000 0.344668
#
#
# Mechanical properties :
#
#
# Convention : Reuss Voigt Hill
#
# Bulk Modulus (GPa) = 3.80245 30.04507 16.92376
# Shear Modulus (GPa) = 16.61057 11.10494 13.85776
#
# Velocity S-wave (km/s) = 2.81310 2.30013 2.56945
# Velocity P-wave (km/s) = 3.51610 4.62256 4.10676
#
# Compressibility (1/GPa) = 0.26298853
#
# Stress axis : x y z
#
# Youngs Moduli (GPa) = 48.54213 5.38729 114.72985
#
# Poissons Ratio (x) = -0.16274 0.57322
# Poissons Ratio (y) = -1.46634 0.13614
# Poissons Ratio (z) = 0.24253 0.00639
#
# Static dielectric constant tensor:
#      x y z
#    x 1.788190 0.000000 0.000000 
#    y 0.000000 1.937750 0.000000 
#    z 0.000000 0.000000 1.788380 
# 
# From -- ./inp_files/26679.got.cif
#   From: 2010.05.17/outbox.cif.g08.bks.cpg/sg49_14_cif.got.tgz:26679.got - 2010.06.03 21:02:19.
