data_PCOD9393516
_publ_section_title
;
Structure prediction by ZEFSAII (Michael W. Deem and Ramdas Pophale) SiO2 
 PCOD9393516
Probable space group: P C C M
;
_chemical_formula_sum "Si O2"
_cell_formula_units_Z 64
_cell_length_a 16.514481
_cell_length_b 22.433855
_cell_length_c 9.234893
_cell_angle_alpha 90.000000
_cell_angle_beta 90.000000
_cell_angle_gamma 90.000000
_cell_volume 3421.375224
_symmetry_space_group_name_H-M "P C C M"
_symmetry_group_IT_number 49
_symmetry_cell_setting 'orthorhombic'
loop_
_space_group_symop_operation_xyz
x,y,z
-x,-y,z
x,-y,1/2-z
-x,y,1/2-z
-x,-y,-z
x,y,-z
-x,y,1/2+z
x,-y,1/2+z
loop_
_atom_site_type_symbol
_atom_site_label
_atom_site_fract_x
_atom_site_fract_y
_atom_site_fract_z
Si Si1 0.582012 0.149169 0.326206
Si Si2 0.071909 0.231191 0.836480
Si Si3 0.620022 0.729928 0.333693
Si Si4 0.228977 0.689121 0.663446
Si Si5 0.744076 0.556727 0.170243
Si Si6 0.916349 0.905996 0.174983
Si Si7 0.269007 0.939004 0.674451
Si Si8 0.420741 0.407514 0.331196
O O1 0.500000 0.124868 0.250000
O O2 0.572889 0.148362 0.500000
O O3 0.590796 0.217028 0.269270
O O4 0.665027 0.112774 0.289899
O O5 0.151072 0.270242 0.833693
O O6 0.087863 0.164112 0.784251
O O7 0.000000 0.260429 0.750000
O O8 0.043706 0.224199 0.000000
O O9 0.615302 0.750144 0.500000
O O10 0.710151 0.713733 0.282180
O O11 0.578586 0.664992 0.324408
O O12 0.266130 0.693254 0.500000
O O13 0.210193 0.619625 0.686540
O O14 0.781410 0.500000 0.250000
O O15 0.657991 0.569637 0.246925
O O16 0.733636 0.544775 0.000000
O O17 0.826160 0.929007 0.215831
O O18 0.000000 0.928812 0.250000
O O19 0.924054 0.912702 0.000000
O O20 0.269824 0.944238 0.500000
O O21 0.295635 0.000000 0.750000
O O22 0.500000 0.429490 0.250000
O O23 0.417989 0.424373 0.500000
#
# Coordination Sequence:
#
# PCOD9393516 Si02
#       8
#     8   8   8   8   8   8   8   8
#     4  11  23  39  58  80 108 143 183 228 277 326
#     4   9  17  31  52  79 109 137 167 205 254 312
#     4  10  20  33  53  81 108 135 171 215 263 317
#     4   9  18  33  53  75 104 141 174 212 264 316
#     4  10  20  34  51  70  94 129 172 214 257 303
#     4   9  18  34  56  83 113 143 173 210 261 320
#     4  10  23  41  59  79 107 144 184 226 270 318
#     4  10  20  33  49  72 101 130 163 205 253 306
#
# _framework density 18.705928
#
# number of rings (size 3 to 8) (size 9 to 14) (size 15 to 20)
#    0.000    2.250    0.000    2.625    0.000    7.750 
#    0.000    6.250    0.000    0.375    0.000    2.625 
#    0.000    0.000    0.000    0.000    0.000    0.000 
#
# Total GULP energy -356754.844780 kJ/mol
# GULP energy per Si atom -5574.294450 kJ/mol
# Density = 1.866335 g / cm^3
# Si number density = 18.705928 Si / 1000 Ang^3
#
#
#
# Elastic Constant Matrix: (Units=GPa)
#
#
# Indices 1 2 3 4 5 6 
#
# 1 64.4759 25.9173 33.4979 0.0000 0.0000 0.0000
# 2 25.9173 82.5795 30.5788 0.0000 0.0000 0.0000
# 3 33.4979 30.5788 67.3465 0.0000 0.0000 0.0000
# 4 0.0000 0.0000 0.0000 29.5962 0.0000 0.0000
# 5 0.0000 0.0000 0.0000 0.0000 27.8624 0.0000
# 6 0.0000 0.0000 0.0000 0.0000 0.0000 37.6173
#
#
#
# Elastic Compliance Matrix: (Units=1/GPa)
#
#
# Indices 1 2 3 4 5 6 
#
# 1 0.021671 -0.003378 -0.009245 0.000000 0.000000 0.000000
# 2 -0.003378 0.015084 -0.005169 0.000000 0.000000 0.000000
# 3 -0.009245 -0.005169 0.021794 0.000000 0.000000 0.000000
# 4 0.000000 0.000000 0.000000 0.033788 0.000000 0.000000
# 5 0.000000 0.000000 0.000000 0.000000 0.035891 0.000000
# 6 0.000000 0.000000 0.000000 0.000000 0.000000 0.026583
#
#
# Mechanical properties :
#
#
# Convention : Reuss Voigt Hill
#
# Bulk Modulus (GPa) = 43.54467 43.82109 43.68288
# Shear Modulus (GPa) = 25.24630 27.30904 26.27767
#
# Velocity S-wave (km/s) = 3.67773 3.82503 3.75210
# Velocity P-wave (km/s) = 6.43144 6.55629 6.49416
#
# Compressibility (1/GPa) = 0.02296492
#
# Stress axis : x y z
#
# Youngs Moduli (GPa) = 46.14517 66.29727 45.88430
#
# Poissons Ratio (x) = 0.22394 0.42421
# Poissons Ratio (y) = 0.15587 0.23716
# Poissons Ratio (z) = 0.42662 0.34266
#
# Static dielectric constant tensor:
#      x y z
#    x 1.649820 0.000000 0.000000 
#    y 0.000000 1.667110 0.000000 
#    z 0.000000 0.000000 1.629790 
# 
# From -- ./inp_files/4355.got.cif
#   From: 2010.05.17/outbox.cif.g08.bks.cpg/sg49_3_cif.got.tgz:4355.got - 2010.06.03 21:02:19.
