data_PCOD9393603
_publ_section_title
;
Structure prediction by ZEFSAII (Michael W. Deem and Ramdas Pophale) SiO2 
 PCOD9393603
Probable space group: P C C M
;
_chemical_formula_sum "Si O2"
_cell_formula_units_Z 40
_cell_length_a 9.488332
_cell_length_b 8.058249
_cell_length_c 23.181053
_cell_angle_alpha 90.000000
_cell_angle_beta 90.000000
_cell_angle_gamma 90.000000
_cell_volume 1772.408056
_symmetry_space_group_name_H-M "P C C M"
_symmetry_group_IT_number 49
_symmetry_cell_setting 'orthorhombic'
loop_
_space_group_symop_operation_xyz
x,y,z
-x,-y,z
x,-y,1/2-z
-x,y,1/2-z
-x,-y,-z
x,y,-z
-x,y,1/2+z
x,-y,1/2+z
loop_
_atom_site_type_symbol
_atom_site_label
_atom_site_fract_x
_atom_site_fract_y
_atom_site_fract_z
Si Si1 0.401026 0.837210 0.500000
Si Si2 0.795355 0.750810 0.378773
Si Si3 0.149648 0.912117 0.000000
Si Si4 0.214485 0.432011 0.185236
Si Si5 0.540478 0.258079 0.373558
Si Si6 0.772915 0.062595 0.685915
O O1 0.427902 0.734898 0.441922
O O2 0.500000 0.000000 0.500000
O O3 0.251575 0.927644 0.500000
O O4 0.822897 0.796807 0.444659
O O5 0.848543 0.574304 0.355613
O O6 0.626251 0.746639 0.366403
O O7 0.850314 0.910572 0.344125
O O8 0.000000 0.000000 0.000000
O O9 0.214735 0.500000 0.250000
O O10 0.372681 0.397048 0.161370
O O11 0.154161 0.244080 0.185666
O O12 0.629586 0.100449 0.349864
O O13 0.739996 0.000000 0.750000
#
# Coordination Sequence:
#
# PCOD9393603 Si02
#       6
#     4   8   4   8   8   8
#     4  12  18  41  65  89 122 163 217 274 325 393
#     4  12  20  40  57  88 136 167 215 274 323 394
#     4  12  26  41  67  95 124 175 233 280 338 396
#     4  10  22  34  54  99 143 168 209 268 334 404
#     4  10  21  32  59  91 124 174 210 257 334 393
#     4  10  20  33  58  91 135 179 210 252 342 397
#
# _framework density 22.568166000000002
#
# number of rings (size 3 to 8) (size 9 to 14) (size 15 to 20)
#    1.200    0.000    6.000    1.200    0.000    5.600 
#    0.000    2.000    0.000   10.200    0.000    5.600 
#    0.000    0.000    0.000    0.000    0.000    0.000 
#
# Total GULP energy -223138.925401 kJ/mol
# GULP energy per Si atom -5578.473135 kJ/mol
# Density = 2.251680 g / cm^3
# Si number density = 22.568166 Si / 1000 Ang^3
#
#
#
# Elastic Constant Matrix: (Units=GPa)
#
#
# Indices 1 2 3 4 5 6 
#
# 1 94.3043 30.9938 -7.4941 0.0000 0.0000 0.0000
# 2 30.9938 173.5519 38.0493 0.0000 0.0000 0.0000
# 3 -7.4941 38.0493 128.7629 0.0000 0.0000 0.0000
# 4 0.0000 0.0000 0.0000 799.2249 0.0000 0.0000
# 5 0.0000 0.0000 0.0000 0.0000 -64.6693 0.0000
# 6 0.0000 0.0000 0.0000 0.0000 0.0000 24.0523
#
#
#
# Elastic Compliance Matrix: (Units=1/GPa)
#
#
# Indices 1 2 3 4 5 6 
#
# 1 0.011485 -0.002350 0.001363 0.000000 0.000000 0.000000
# 2 -0.002350 0.006642 -0.002099 0.000000 0.000000 0.000000
# 3 0.001363 -0.002099 0.008466 0.000000 0.000000 0.000000
# 4 0.000000 0.000000 0.000000 0.001251 0.000000 0.000000
# 5 0.000000 0.000000 0.000000 0.000000 -0.015463 0.000000
# 6 0.000000 0.000000 0.000000 0.000000 0.000000 0.041576
#
#
# Mechanical properties :
#
#
# Convention : Reuss Voigt Hill
#
# Bulk Modulus (GPa) = 48.97286 57.74637 53.35961
# Shear Modulus (GPa) = 74.69864 174.05958 124.37911
#
# Velocity S-wave (km/s) = 5.75942 8.79168 7.43184
# Velocity P-wave (km/s) = 8.12250 11.34465 9.86601
#
# Compressibility (1/GPa) = 0.02041947
#
# Stress axis : x y z
#
# Youngs Moduli (GPa) = 87.07377 150.56010 118.12088
#
# Poissons Ratio (x) = 0.35378 -0.16097
# Poissons Ratio (y) = 0.20460 0.24799
# Poissons Ratio (z) = -0.11866 0.31609
#
# Static dielectric constant tensor:
#      x y z
#    x 1.911180 0.000000 0.000000 
#    y 0.000000 1.948160 0.000000 
#    z 0.000000 0.000000 1.806390 
# 
# From -- ./inp_files/24391.got.cif
#   From: 2010.05.17/outbox.cif.g08.bks.cpg/sg49_13_cif.got.tgz:24391.got - 2010.06.03 21:02:19.
