data_PCOD9393504
_publ_section_title
;
Structure prediction by ZEFSAII (Michael W. Deem and Ramdas Pophale) SiO2 
 PCOD9393504
Probable space group: P C C M
;
_chemical_formula_sum "Si O2"
_cell_formula_units_Z 56
_cell_length_a 20.622832
_cell_length_b 15.735685
_cell_length_c 8.629631
_cell_angle_alpha 90.000000
_cell_angle_beta 90.000000
_cell_angle_gamma 90.000000
_cell_volume 2800.439424
_symmetry_space_group_name_H-M "P C C M"
_symmetry_group_IT_number 49
_symmetry_cell_setting 'orthorhombic'
loop_
_space_group_symop_operation_xyz
x,y,z
-x,-y,z
x,-y,1/2-z
-x,y,1/2-z
-x,-y,-z
x,y,-z
-x,y,1/2+z
x,-y,1/2+z
loop_
_atom_site_type_symbol
_atom_site_label
_atom_site_fract_x
_atom_site_fract_y
_atom_site_fract_z
Si Si1 0.067219 0.275475 0.685965
Si Si2 0.894553 0.912749 0.685217
Si Si3 0.671099 0.590020 0.184853
Si Si4 0.569855 0.273780 0.813833
Si Si5 0.789552 0.319712 0.186712
Si Si6 0.382374 0.087691 0.685371
Si Si7 0.756701 0.864765 0.185184
O O1 0.064444 0.274925 0.500000
O O2 0.074685 0.176717 0.738646
O O3 0.134260 0.322228 0.729778
O O4 0.000000 0.310659 0.750000
O O5 0.896330 0.914625 0.500000
O O6 0.820323 0.907149 0.742122
O O7 0.923256 0.000000 0.750000
O O8 0.647384 0.500000 0.250000
O O9 0.625022 0.665471 0.245090
O O10 0.743174 0.607237 0.250748
O O11 0.672131 0.589593 0.000000
O O12 0.500000 0.300023 0.750000
O O13 0.582476 0.175338 0.768805
O O14 0.571872 0.279104 0.000000
O O15 0.761810 0.232881 0.259922
O O16 0.785119 0.314169 0.000000
O O17 0.380386 0.083548 0.500000
O O18 0.309485 0.096840 0.750383
O O19 0.411040 0.000000 0.750000
O O20 0.758458 0.870862 0.000000
#
# Coordination Sequence:
#
# PCOD9393504 Si02
#       7
#     8   8   8   8   8   8   8
#     4   9  20  35  54  79 113 156 201 250 305 370
#     4  10  20  33  47  70 106 149 198 256 314 368
#     4  12  25  43  71 103 132 165 206 254 312 378
#     4  11  25  45  68  94 131 172 212 263 315 372
#     4  10  20  38  61  89 124 160 201 252 309 365
#     4  11  23  38  59  86 123 167 213 265 315 366
#     4  11  20  32  54  82 113 154 203 255 312 370
#
# _framework density 19.996862
#
# number of rings (size 3 to 8) (size 9 to 14) (size 15 to 20)
#    0.000    1.429    1.429    5.571    0.000    6.000 
#    0.000    4.286    0.000    0.429    0.000    3.000 
#    0.000    0.000    0.000    0.000    0.000    0.000 
#
# Total GULP energy -313012.129453 kJ/mol
# GULP energy per Si atom -5589.502312 kJ/mol
# Density = 1.995135 g / cm^3
# Si number density = 19.996862 Si / 1000 Ang^3
#
#
#
# Elastic Constant Matrix: (Units=GPa)
#
#
# Indices 1 2 3 4 5 6 
#
# 1 119.3084 30.8119 25.7566 0.0000 0.0000 0.0000
# 2 30.8119 85.1423 22.3657 0.0000 0.0000 0.0000
# 3 25.7566 22.3657 61.3309 0.0000 0.0000 0.0000
# 4 0.0000 0.0000 0.0000 30.2367 0.0000 0.0000
# 5 0.0000 0.0000 0.0000 0.0000 30.6536 0.0000
# 6 0.0000 0.0000 0.0000 0.0000 0.0000 -3.0748
#
#
#
# Elastic Compliance Matrix: (Units=1/GPa)
#
#
# Indices 1 2 3 4 5 6 
#
# 1 0.009753 -0.002713 -0.003106 0.000000 0.000000 0.000000
# 2 -0.002713 0.013744 -0.003873 0.000000 0.000000 0.000000
# 3 -0.003106 -0.003873 0.019022 0.000000 0.000000 0.000000
# 4 0.000000 0.000000 0.000000 0.033072 0.000000 0.000000
# 5 0.000000 0.000000 0.000000 0.000000 0.032623 0.000000
# 6 0.000000 0.000000 0.000000 0.000000 0.000000 -0.325226
#
#
# Mechanical properties :
#
#
# Convention : Reuss Voigt Hill
#
# Bulk Modulus (GPa) = 43.22608 47.07223 45.14916
# Shear Modulus (GPa) = -26.32756 24.01958 -1.15399
#
# Velocity S-wave (km/s) = -3.63241 3.46955 -0.76049
# Velocity P-wave (km/s) = 2.01762 6.29613 4.67504
#
# Compressibility (1/GPa) = 0.02313418
#
# Stress axis : x y z
#
# Youngs Moduli (GPa) = 102.53237 72.75742 52.57130
#
# Poissons Ratio (x) = 0.19743 0.16331
# Poissons Ratio (y) = 0.27822 0.20359
# Poissons Ratio (z) = 0.31850 0.28176
#
# Static dielectric constant tensor:
#      x y z
#    x 1.698360 0.000000 0.000000 
#    y 0.000000 1.763620 0.000000 
#    z 0.000000 0.000000 1.663420 
# 
# From -- ./inp_files/4012.got.cif
#   From: 2010.05.17/outbox.cif.g08.bks.cpg/sg49_3_cif.got.tgz:4012.got - 2010.06.03 21:02:19.
