data_PCOD9393013
_publ_section_title
;
Structure prediction by ZEFSAII (Michael W. Deem and Ramdas Pophale) SiO2 
 PCOD9393013
Probable space group: P C C M
;
_chemical_formula_sum "Si O2"
_cell_formula_units_Z 64
_cell_length_a 21.547470
_cell_length_b 14.686777
_cell_length_c 9.150988
_cell_angle_alpha 90.000000
_cell_angle_beta 90.000000
_cell_angle_gamma 90.000000
_cell_volume 2895.948080
_symmetry_space_group_name_H-M "P C C M"
_symmetry_group_IT_number 49
_symmetry_cell_setting 'orthorhombic'
loop_
_space_group_symop_operation_xyz
x,y,z
-x,-y,z
x,-y,1/2-z
-x,y,1/2-z
-x,-y,-z
x,y,-z
-x,y,1/2+z
x,-y,1/2+z
loop_
_atom_site_type_symbol
_atom_site_label
_atom_site_fract_x
_atom_site_fract_y
_atom_site_fract_z
Si Si1 0.302499 0.144040 0.661796
Si Si2 0.559055 0.901241 0.324259
Si Si3 0.062547 0.634789 0.832759
Si Si4 0.811979 0.634533 0.167377
Si Si5 0.310013 0.642641 0.834965
Si Si6 0.562751 0.399606 0.677799
Si Si7 0.938345 0.142586 0.834471
Si Si8 0.815314 0.857711 0.164694
O O1 0.297468 0.102005 0.500000
O O2 0.373337 0.136251 0.711147
O O3 0.292995 0.251684 0.647502
O O4 0.249432 0.109637 0.767900
O O5 0.500000 0.853543 0.250000
O O6 0.551419 0.904359 0.500000
O O7 0.560633 0.000000 0.250000
O O8 0.125085 0.607455 0.749395
O O9 0.061952 0.746065 0.835169
O O10 0.000000 0.606851 0.750000
O O11 0.062886 0.603352 0.000000
O O12 0.750067 0.604075 0.252333
O O13 0.813293 0.746172 0.163163
O O14 0.811025 0.603033 0.000000
O O15 0.372162 0.639475 0.737273
O O16 0.320572 0.605027 0.000000
O O17 0.564420 0.500000 0.750000
O O18 0.500000 0.357991 0.750000
O O19 0.559231 0.400419 0.500000
O O20 0.874565 0.114756 0.758629
O O21 0.000000 0.114098 0.750000
O O22 0.940476 0.110836 0.000000
O O23 0.822732 0.889013 0.000000
#
# Coordination Sequence:
#
# PCOD9393013 Si02
#       8
#     8   8   8   8   8   8   8   8
#     4   9  19  33  49  70  98 129 161 197 241 289
#     4  10  20  35  53  73  96 125 159 197 240 287
#     4   9  15  22  33  51  77 114 155 195 236 282
#     4   9  16  26  39  59  87 120 156 195 237 284
#     4  10  19  33  51  73 100 130 162 199 242 289
#     4  11  22  38  57  77 100 128 161 198 240 287
#     4   9  15  22  33  50  77 113 153 192 232 278
#     4   9  16  25  39  59  85 117 154 193 236 282
#
# _framework density 22.099843
#
# number of rings (size 3 to 8) (size 9 to 14) (size 15 to 20)
#    0.000    2.500    0.000    4.125    0.000    8.000 
#    0.000    1.250    0.000    0.000    0.000    0.000 
#    0.000    1.000    0.000   10.250    0.000   15.625 
#
# Total GULP energy -357314.502260 kJ/mol
# GULP energy per Si atom -5583.039098 kJ/mol
# Density = 2.204954 g / cm^3
# Si number density = 22.099843 Si / 1000 Ang^3
#
#
#
# Elastic Constant Matrix: (Units=GPa)
#
#
# Indices 1 2 3 4 5 6 
#
# 1 235.0102 1.6750 149.7117 0.0000 0.0000 0.0000
# 2 1.6750 41.7964 10.8192 0.0000 0.0000 0.0000
# 3 149.7117 10.8192 223.1571 0.0000 0.0000 0.0000
# 4 0.0000 0.0000 0.0000 73.7451 0.0000 0.0000
# 5 0.0000 0.0000 0.0000 0.0000 66.9270 0.0000
# 6 0.0000 0.0000 0.0000 0.0000 0.0000 62.2005
#
#
#
# Elastic Compliance Matrix: (Units=1/GPa)
#
#
# Indices 1 2 3 4 5 6 
#
# 1 0.007473 0.001011 -0.005062 0.000000 0.000000 0.000000
# 2 0.001011 0.024366 -0.001860 0.000000 0.000000 0.000000
# 3 -0.005062 -0.001860 0.007968 0.000000 0.000000 0.000000
# 4 0.000000 0.000000 0.000000 0.013560 0.000000 0.000000
# 5 0.000000 0.000000 0.000000 0.000000 0.014942 0.000000
# 6 0.000000 0.000000 0.000000 0.000000 0.000000 0.016077
#
#
# Mechanical properties :
#
#
# Convention : Reuss Voigt Hill
#
# Bulk Modulus (GPa) = 35.73378 91.59728 63.66553
# Shear Modulus (GPa) = 47.37714 63.09173 55.23444
#
# Velocity S-wave (km/s) = 4.63512 5.34888 5.00474
# Velocity P-wave (km/s) = 6.69702 8.92661 7.89096
#
# Compressibility (1/GPa) = 0.02798473
#
# Stress axis : x y z
#
# Youngs Moduli (GPa) = 133.81631 41.04026 125.50826
#
# Poissons Ratio (x) = -0.04149 0.63538
# Poissons Ratio (y) = -0.13528 0.23339
# Poissons Ratio (z) = 0.67744 0.07632
#
# Static dielectric constant tensor:
#      x y z
#    x 1.832720 0.000000 0.000000 
#    y 0.000000 1.911390 0.000000 
#    z 0.000000 0.000000 1.777330 
# 
# From -- ./inp_files/6006.got.cif
#   From: 2010.05.17/outbox.cif.g08.bks.cpg/sg49_4_cif.got.tgz:6006.got - 2010.06.03 21:02:19.
