data_PCOD9393769
_publ_section_title
;
Structure prediction by ZEFSAII (Michael W. Deem and Ramdas Pophale) SiO2 
 PCOD9393769
Probable space group: P C C M
;
_chemical_formula_sum "Si O2"
_cell_formula_units_Z 44
_cell_length_a 4.965923
_cell_length_b 14.394229
_cell_length_c 31.826323
_cell_angle_alpha 90.000000
_cell_angle_beta 90.000000
_cell_angle_gamma 90.000000
_cell_volume 2274.965710
_symmetry_space_group_name_H-M "P C C M"
_symmetry_group_IT_number 49
_symmetry_cell_setting 'orthorhombic'
loop_
_space_group_symop_operation_xyz
x,y,z
-x,-y,z
x,-y,1/2-z
-x,y,1/2-z
-x,-y,-z
x,y,-z
-x,y,1/2+z
x,-y,1/2+z
loop_
_atom_site_type_symbol
_atom_site_label
_atom_site_fract_x
_atom_site_fract_y
_atom_site_fract_z
Si Si1 0.780583 0.257020 0.500000
Si Si2 0.558118 0.317755 0.122663
Si Si3 0.935739 0.208861 0.409186
Si Si4 0.058847 0.894203 0.829908
Si Si5 0.500000 0.500000 0.425830
Si Si6 0.448982 0.783722 0.701342
Si Si7 0.256708 0.389765 0.500000
O O1 0.962376 0.348744 0.500000
O O2 0.881061 0.202218 0.458705
O O3 0.477875 0.303078 0.500000
O O4 0.356429 0.238864 0.106680
O O5 0.442930 0.413536 0.104597
O O6 0.535620 0.304307 0.172614
O O7 0.848742 0.289710 0.103579
O O8 0.030058 0.123851 0.380095
O O9 0.352032 0.864944 0.814526
O O10 0.849878 0.822068 0.808188
O O11 0.000000 0.000000 0.819232
O O12 0.297579 0.452611 0.458963
O O13 0.500000 0.766476 0.750000
#
# Coordination Sequence:
#
# PCOD9393769 Si02
#       7
#     4   8   8   8   4   8   4
#     4  12  18  37  49  78 102 146 174 214 257 305
#     4  10  21  35  51  74 108 141 171 213 264 310
#     4  10  20  35  51  74 108 142 171 209 263 310
#     4  10  21  36  57  82 107 134 169 216 265 315
#     4  11  20  36  49  82 106 140 175 224 258 295
#     4  10  21  37  57  80 106 136 171 214 265 317
#     4  11  24  28  54  78 109 126 189 226 250 294
#
# _framework density 19.340951
#
# number of rings (size 3 to 8) (size 9 to 14) (size 15 to 20)
#    0.000    1.636    3.636    1.091    0.000    5.818 
#    0.000    0.909    0.000    0.000    0.000   16.545 
#    0.000    0.000    0.000    0.000    0.000    0.000 
#
# Total GULP energy -245114.978535 kJ/mol
# GULP energy per Si atom -5570.794967 kJ/mol
# Density = 1.929693 g / cm^3
# Si number density = 19.340951 Si / 1000 Ang^3
#
#
#
# Elastic Constant Matrix: (Units=GPa)
#
#
# Indices 1 2 3 4 5 6 
#
# 1 67.8589 -13.1219 -2.8367 0.0000 0.0000 0.0000
# 2 -13.1219 38.1121 19.4623 0.0000 0.0000 0.0000
# 3 -2.8367 19.4623 156.3632 0.0000 0.0000 0.0000
# 4 0.0000 0.0000 0.0000 7.1325 0.0000 0.0000
# 5 0.0000 0.0000 0.0000 0.0000 9.1056 0.0000
# 6 0.0000 0.0000 0.0000 0.0000 0.0000 13.8545
#
#
#
# Elastic Compliance Matrix: (Units=1/GPa)
#
#
# Indices 1 2 3 4 5 6 
#
# 1 0.015813 0.005657 -0.000417 0.000000 0.000000 0.000000
# 2 0.005657 0.030043 -0.003637 0.000000 0.000000 0.000000
# 3 -0.000417 -0.003637 0.006840 0.000000 0.000000 0.000000
# 4 0.000000 0.000000 0.000000 0.140203 0.000000 0.000000
# 5 0.000000 0.000000 0.000000 0.000000 0.109823 0.000000
# 6 0.000000 0.000000 0.000000 0.000000 0.000000 0.072179
#
#
# Mechanical properties :
#
#
# Convention : Reuss Voigt Hill
#
# Bulk Modulus (GPa) = 17.88795 29.92684 23.90740
# Shear Modulus (GPa) = 12.80971 23.27389 18.04180
#
# Velocity S-wave (km/s) = 2.57633 3.47269 3.05754
# Velocity P-wave (km/s) = 4.25662 5.62017 4.98524
#
# Compressibility (1/GPa) = 0.05590355
#
# Stress axis : x y z
#
# Youngs Moduli (GPa) = 63.23913 33.28521 146.18889
#
# Poissons Ratio (x) = -0.18831 0.06101
# Poissons Ratio (y) = -0.35777 0.53166
# Poissons Ratio (z) = 0.02639 0.12105
#
# Static dielectric constant tensor:
#      x y z
#    x 1.681730 0.000000 0.000000 
#    y 0.000000 1.670900 0.000000 
#    z 0.000000 0.000000 1.777400 
# 
# From -- ./inp_files/23911.got.cif
#   From: 2010.05.17/outbox.cif.g08.bks.cpg/sg49_12_cif.got.tgz:23911.got - 2010.06.03 21:02:19.
