data_PCOD9393105
_publ_section_title
;
Structure prediction by ZEFSAII (Michael W. Deem and Ramdas Pophale) SiO2 
 PCOD9393105
Probable space group: P C C M
;
_chemical_formula_sum "Si O2"
_cell_formula_units_Z 48
_cell_length_a 14.768532
_cell_length_b 20.998856
_cell_length_c 8.728973
_cell_angle_alpha 90.000000
_cell_angle_beta 90.000000
_cell_angle_gamma 90.000000
_cell_volume 2707.048981
_symmetry_space_group_name_H-M "P C C M"
_symmetry_group_IT_number 49
_symmetry_cell_setting 'orthorhombic'
loop_
_space_group_symop_operation_xyz
x,y,z
-x,-y,z
x,-y,1/2-z
-x,y,1/2-z
-x,-y,-z
x,y,-z
-x,y,1/2+z
x,-y,1/2+z
loop_
_atom_site_type_symbol
_atom_site_label
_atom_site_fract_x
_atom_site_fract_y
_atom_site_fract_z
Si Si1 0.708837 0.932536 0.184311
Si Si2 0.904417 0.263768 0.682990
Si Si3 0.720176 0.689337 0.684260
Si Si4 0.904723 0.885179 0.183907
Si Si5 0.600748 0.812503 0.315750
Si Si6 0.599803 0.431092 0.184332
O O1 0.813728 0.921095 0.232152
O O2 0.650051 0.874619 0.249171
O O3 0.677729 0.000000 0.250000
O O4 0.704681 0.932236 0.000000
O O5 0.907190 0.265575 0.500000
O O6 0.818519 0.301944 0.743546
O O7 0.894110 0.189210 0.730376
O O8 0.000000 0.286327 0.750000
O O9 0.728735 0.689953 0.500000
O O10 0.658785 0.750130 0.728141
O O11 0.668846 0.624689 0.728407
O O12 0.000000 0.908983 0.250000
O O13 0.909975 0.887396 0.000000
O O14 0.500000 0.807538 0.250000
O O15 0.597680 0.816174 0.500000
O O16 0.626343 0.500000 0.250000
O O17 0.500000 0.416552 0.250000
O O18 0.594406 0.434233 0.000000
#
# Coordination Sequence:
#
# PCOD9393105 Si02
#       6
#     8   8   8   8   8   8
#     4  11  23  40  57  79 108 142 184 227 277 332
#     4  10  19  33  55  83 113 146 182 225 275 327
#     4  10  21  36  57  85 115 147 185 227 274 325
#     4   9  19  34  54  79 108 140 176 221 271 326
#     4  11  23  39  59  82 108 141 180 229 278 326
#     4  10  20  35  55  83 118 154 190 228 272 325
#
# _framework density 17.731486
#
# number of rings (size 3 to 8) (size 9 to 14) (size 15 to 20)
#    0.000    1.833    1.667    3.000    0.000    4.667 
#    0.000    3.333    0.000    0.500    0.000    3.500 
#    0.000    0.000    0.000    0.000    0.000    0.000 
#
# Total GULP energy -268132.042015 kJ/mol
# GULP energy per Si atom -5586.084209 kJ/mol
# Density = 1.769113 g / cm^3
# Si number density = 17.731486 Si / 1000 Ang^3
#
#
#
# Elastic Constant Matrix: (Units=GPa)
#
#
# Indices 1 2 3 4 5 6 
#
# 1 145.5449 82.2008 45.5423 0.0000 0.0000 0.0000
# 2 82.2008 121.8936 43.2420 0.0000 0.0000 0.0000
# 3 45.5423 43.2420 45.0829 0.0000 0.0000 0.0000
# 4 0.0000 0.0000 0.0000 0.2754 0.0000 0.0000
# 5 0.0000 0.0000 0.0000 0.0000 35.6395 0.0000
# 6 0.0000 0.0000 0.0000 0.0000 0.0000 15.7571
#
#
#
# Elastic Compliance Matrix: (Units=1/GPa)
#
#
# Indices 1 2 3 4 5 6 
#
# 1 0.012332 -0.005907 -0.006792 0.000000 0.000000 0.000000
# 2 -0.005907 0.015264 -0.008674 0.000000 0.000000 0.000000
# 3 -0.006792 -0.008674 0.037363 0.000000 0.000000 0.000000
# 4 0.000000 0.000000 0.000000 3.630570 0.000000 0.000000
# 5 0.000000 0.000000 0.000000 0.000000 0.028059 0.000000
# 6 0.000000 0.000000 0.000000 0.000000 0.000000 0.063463
#
#
# Mechanical properties :
#
#
# Convention : Reuss Voigt Hill
#
# Bulk Modulus (GPa) = 45.01865 72.72127 58.86996
# Shear Modulus (GPa) = 1.30303 19.77018 10.53661
#
# Velocity S-wave (km/s) = 0.85818 3.34275 2.44033
# Velocity P-wave (km/s) = 5.14064 7.48333 6.41975
#
# Compressibility (1/GPa) = 0.02221301
#
# Stress axis : x y z
#
# Youngs Moduli (GPa) = 81.08921 65.51212 26.76476
#
# Poissons Ratio (x) = 0.38697 0.18179
# Poissons Ratio (y) = 0.47898 0.23216
# Poissons Ratio (z) = 0.55077 0.56825
#
# Static dielectric constant tensor:
#      x y z
#    x 1.586060 0.000000 0.000000 
#    y 0.000000 1.594650 0.000000 
#    z 0.000000 0.000000 1.594680 
# 
# From -- ./inp_files/2894.got.cif
#   From: 2010.05.17/outbox.cif.g08.bks.cpg/sg49_2_cif.got.tgz:2894.got - 2010.06.03 21:02:19.
