data_PCOD9393945
_publ_section_title
;
Structure prediction by ZEFSAII (Michael W. Deem and Ramdas Pophale) SiO2 
 PCOD9393945
Probable space group: P C C M
;
_chemical_formula_sum "Si O2"
_cell_formula_units_Z 40
_cell_length_a 19.055107
_cell_length_b 13.863421
_cell_length_c 8.649192
_cell_angle_alpha 90.000000
_cell_angle_beta 90.000000
_cell_angle_gamma 90.000000
_cell_volume 2284.848147
_symmetry_space_group_name_H-M "P C C M"
_symmetry_group_IT_number 49
_symmetry_cell_setting 'orthorhombic'
loop_
_space_group_symop_operation_xyz
x,y,z
-x,-y,z
x,-y,1/2-z
-x,y,1/2-z
-x,-y,-z
x,y,-z
-x,y,1/2+z
x,-y,1/2+z
loop_
_atom_site_type_symbol
_atom_site_label
_atom_site_fract_x
_atom_site_fract_y
_atom_site_fract_z
Si Si1 0.574938 0.608220 0.315153
Si Si2 0.144623 0.395995 0.185159
Si Si3 0.923963 0.804466 0.186129
Si Si4 0.215838 0.104187 0.315168
Si Si5 0.287815 0.292855 0.813870
O O1 0.584896 0.500000 0.250000
O O2 0.500000 0.642897 0.250000
O O3 0.572683 0.604842 0.500000
O O4 0.639652 0.671492 0.256873
O O5 0.125386 0.500000 0.250000
O O6 0.095328 0.306270 0.231298
O O7 0.223816 0.364901 0.231273
O O8 0.143116 0.401117 0.000000
O O9 0.862406 0.869639 0.256234
O O10 0.000000 0.830124 0.250000
O O11 0.921800 0.811112 0.000000
O O12 0.217656 0.105060 0.500000
O O13 0.264924 0.188440 0.247578
O O14 0.235723 0.000000 0.250000
O O15 0.291453 0.291544 0.000000
#
# Coordination Sequence:
#
# PCOD9393945 Si02
#       5
#     8   8   8   8   8
#     4  11  21  34  53  81 115 152 187 222 263 311
#     4   9  19  32  49  72 102 137 175 214 257 307
#     4  10  21  37  53  75 104 136 174 220 268 319
#     4  11  22  38  59  82 105 135 173 218 269 322
#     4  10  20  36  55  79 109 141 178 223 266 314
#
# _framework density 17.506633999999998
#
# number of rings (size 3 to 8) (size 9 to 14) (size 15 to 20)
#    0.000    1.800    0.000    7.200    0.000    7.200 
#    0.000    4.000    0.000    0.600    0.000    4.200 
#    0.000    0.000    0.000    0.000    0.000    0.000 
#
# Total GULP energy -223464.003620 kJ/mol
# GULP energy per Si atom -5586.600090 kJ/mol
# Density = 1.746679 g / cm^3
# Si number density = 17.506634 Si / 1000 Ang^3
#
#
#
# Elastic Constant Matrix: (Units=GPa)
#
#
# Indices 1 2 3 4 5 6 
#
# 1 108.2635 14.4173 36.8471 0.0000 0.0000 0.0000
# 2 14.4173 56.3392 17.5679 0.0000 0.0000 0.0000
# 3 36.8471 17.5679 109.5171 0.0000 0.0000 0.0000
# 4 0.0000 0.0000 0.0000 30.4799 0.0000 0.0000
# 5 0.0000 0.0000 0.0000 0.0000 30.5324 0.0000
# 6 0.0000 0.0000 0.0000 0.0000 0.0000 6.8525
#
#
#
# Elastic Compliance Matrix: (Units=1/GPa)
#
#
# Indices 1 2 3 4 5 6 
#
# 1 0.010580 -0.001682 -0.003290 0.000000 0.000000 0.000000
# 2 -0.001682 0.018951 -0.002474 0.000000 0.000000 0.000000
# 3 -0.003290 -0.002474 0.010635 0.000000 0.000000 0.000000
# 4 0.000000 0.000000 0.000000 0.032808 0.000000 0.000000
# 5 0.000000 0.000000 0.000000 0.000000 0.032752 0.000000
# 6 0.000000 0.000000 0.000000 0.000000 0.000000 0.145933
#
#
# Mechanical properties :
#
#
# Convention : Reuss Voigt Hill
#
# Bulk Modulus (GPa) = 39.56498 45.75380 42.65939
# Shear Modulus (GPa) = 18.18336 27.25880 22.72108
#
# Velocity S-wave (km/s) = 3.22631 3.95023 3.60648
# Velocity P-wave (km/s) = 6.04383 6.85548 6.46241
#
# Compressibility (1/GPa) = 0.02527488
#
# Stress axis : x y z
#
# Youngs Moduli (GPa) = 94.51421 52.76630 94.03063
#
# Poissons Ratio (x) = 0.08873 0.30936
# Poissons Ratio (y) = 0.15894 0.23266
# Poissons Ratio (z) = 0.31095 0.13056
#
# Static dielectric constant tensor:
#      x y z
#    x 1.584510 0.000000 0.000000 
#    y 0.000000 1.588300 0.000000 
#    z 0.000000 0.000000 1.582430 
# 
# From -- ./inp_files/2664.got.cif
#   From: 2010.05.17/outbox.cif.g08.bks.cpg/sg49_2_cif.got.tgz:2664.got - 2010.06.03 21:02:19.
