data_PCOD9393713
_publ_section_title
;
Structure prediction by ZEFSAII (Michael W. Deem and Ramdas Pophale) SiO2 
 PCOD9393713
Probable space group: P C C M
;
_chemical_formula_sum "Si O2"
_cell_formula_units_Z 64
_cell_length_a 26.696836
_cell_length_b 7.475906
_cell_length_c 15.869218
_cell_angle_alpha 90.000000
_cell_angle_beta 90.000000
_cell_angle_gamma 90.000000
_cell_volume 3167.226714
_symmetry_space_group_name_H-M "P C C M"
_symmetry_group_IT_number 49
_symmetry_cell_setting 'orthorhombic'
loop_
_space_group_symop_operation_xyz
x,y,z
-x,-y,z
x,-y,1/2-z
-x,y,1/2-z
-x,-y,-z
x,y,-z
-x,y,1/2+z
x,-y,1/2+z
loop_
_atom_site_type_symbol
_atom_site_label
_atom_site_fract_x
_atom_site_fract_y
_atom_site_fract_z
Si Si1 0.326899 0.279908 0.750000
Si Si2 0.138839 0.286178 0.099117
Si Si3 0.389865 0.711094 0.408622
Si Si4 0.943603 1.000000 0.101810
Si Si5 0.138840 0.713822 0.099117
Si Si6 0.389865 0.711094 0.091378
Si Si7 0.787891 0.716719 0.750000
Si Si8 0.500000 0.213924 0.846266
O O1 0.327610 0.500000 0.750000
O O2 0.357313 0.217260 0.831786
O O3 0.357313 0.217260 0.668214
O O4 0.269374 0.222271 0.750000
O O5 0.130813 0.500000 0.106191
O O6 0.181942 0.232851 0.165363
O O7 0.089494 0.173865 0.122995
O O8 0.150756 0.248907 0.000000
O O9 0.378274 0.788892 0.500000
O O10 0.379059 0.500000 0.411820
O O11 0.448815 0.729124 0.390181
O O12 0.910506 0.173864 0.122995
O O13 0.947233 1.000000 0.000000
O O14 0.000000 0.000000 0.135904
O O15 0.181942 0.767150 0.165363
O O16 0.150756 0.751093 0.000000
O O17 0.448815 0.729124 0.109819
O O18 0.378274 0.788892 0.000000
O O19 0.786559 0.500000 0.750000
O O20 0.500000 0.280996 0.750000
O O21 0.500000 0.000000 0.844524
#
# Coordination Sequence:
#
# PCOD9393713 Si02
#       8
#     8   8   8   8   8   8   8   8
#     4   9  18  33  53  78 106 132 166 221 267 306
#     4   9  18  33  54  79 109 145 184 226 271 323
#     4  10  20  34  55  81 104 132 172 214 262 319
#     4   9  18  33  55  83 114 147 185 226 271 326
#     4   9  18  33  54  79 109 145 184 226 271 323
#     4  10  20  34  55  81 104 132 172 214 262 319
#     4   9  18  33  54  79 104 136 179 220 267 321
#     4  11  22  35  54  75 103 142 175 208 259 323
#
# _framework density 20.206954
#
# number of rings (size 3 to 8) (size 9 to 14) (size 15 to 20)
#    0.000    2.500    1.250    0.750    0.000    4.500 
#    0.000    8.750    5.500    2.250    0.000    0.000 
#    0.000    0.000    0.000    0.000    0.000    0.000 
#
# Total GULP energy -357178.368983 kJ/mol
# GULP energy per Si atom -5580.912015 kJ/mol
# Density = 2.016096 g / cm^3
# Si number density = 20.206954 Si / 1000 Ang^3
#
#
#
# Elastic Constant Matrix: (Units=GPa)
#
#
# Indices 1 2 3 4 5 6 
#
# 1 191.0796 23.5399 106.6369 0.0000 0.0000 0.0000
# 2 23.5399 65.6686 29.5268 0.0000 0.0000 0.0000
# 3 106.6369 29.5268 172.2189 0.0000 0.0000 0.0000
# 4 0.0000 0.0000 0.0000 1.7387 0.0000 0.0000
# 5 0.0000 0.0000 0.0000 0.0000 0.1490 0.0000
# 6 0.0000 0.0000 0.0000 0.0000 0.0000 59.3373
#
#
#
# Elastic Compliance Matrix: (Units=1/GPa)
#
#
# Indices 1 2 3 4 5 6 
#
# 1 0.008026 -0.000696 -0.004850 0.000000 0.000000 0.000000
# 2 -0.000696 0.016560 -0.002408 0.000000 0.000000 0.000000
# 3 -0.004850 -0.002408 0.009223 0.000000 0.000000 0.000000
# 4 0.000000 0.000000 0.000000 0.575156 0.000000 0.000000
# 5 0.000000 0.000000 0.000000 0.000000 6.710676 0.000000
# 6 0.000000 0.000000 0.000000 0.000000 0.000000 0.016853
#
#
# Mechanical properties :
#
#
# Convention : Reuss Voigt Hill
#
# Bulk Modulus (GPa) = 55.86679 83.15271 69.50975
# Shear Modulus (GPa) = 0.67950 30.19590 15.43770
#
# Velocity S-wave (km/s) = 0.58052 3.86985 2.76702
# Velocity P-wave (km/s) = 5.30628 7.82353 6.68447
#
# Compressibility (1/GPa) = 0.01789972
#
# Stress axis : x y z
#
# Youngs Moduli (GPa) = 124.59473 60.38529 108.42789
#
# Poissons Ratio (x) = 0.04204 0.52591
# Poissons Ratio (y) = 0.08674 0.26111
# Poissons Ratio (z) = 0.60432 0.14542
#
# Static dielectric constant tensor:
#      x y z
#    x 1.672960 0.000000 0.000000 
#    y 0.000000 1.730870 0.000000 
#    z 0.000000 0.000000 1.731810 
# 
# From -- ./inp_files/14537.got.cif
#   From: 2010.05.17/outbox.cif.g08.bks.cpg/sg49_8_cif.got.tgz:14537.got - 2010.06.03 21:02:19.
