data_PCOD9393186
_publ_section_title
;
Structure prediction by ZEFSAII (Michael W. Deem and Ramdas Pophale) SiO2 
 PCOD9393186
Probable space group: P C C M
;
_chemical_formula_sum "Si O2"
_cell_formula_units_Z 64
_cell_length_a 18.686818
_cell_length_b 11.805737
_cell_length_c 15.366860
_cell_angle_alpha 90.000000
_cell_angle_beta 90.000000
_cell_angle_gamma 90.000000
_cell_volume 3390.108473
_symmetry_space_group_name_H-M "P C C M"
_symmetry_group_IT_number 49
_symmetry_cell_setting 'orthorhombic'
loop_
_space_group_symop_operation_xyz
x,y,z
-x,-y,z
x,-y,1/2-z
-x,y,1/2-z
-x,-y,-z
x,y,-z
-x,y,1/2+z
x,-y,1/2+z
loop_
_atom_site_type_symbol
_atom_site_label
_atom_site_fract_x
_atom_site_fract_y
_atom_site_fract_z
Si Si1 0.257326 0.427874 0.338189
Si Si2 0.855411 0.775628 0.895205
Si Si3 0.560616 0.354117 0.395701
Si Si4 0.138168 0.746083 0.100434
Si Si5 0.083192 0.014186 0.393461
Si Si6 0.992603 0.370816 0.354068
Si Si7 0.286244 0.330297 0.899932
Si Si8 0.592674 0.377643 0.103743
O O1 0.251022 0.500000 0.250000
O O2 0.191764 0.342900 0.354042
O O3 0.266065 0.535901 0.402566
O O4 0.332357 0.360855 0.347921
O O5 0.780019 0.734248 0.858016
O O6 0.917336 0.685751 0.875635
O O7 0.878088 0.899586 0.865366
O O8 0.850277 0.780199 0.000000
O O9 0.557721 0.334413 0.500000
O O10 0.635538 0.306920 0.360069
O O11 0.574408 0.488805 0.386252
O O12 0.481513 0.321483 0.363382
O O13 0.125338 0.873289 0.135979
O O14 0.058015 0.696795 0.104585
O O15 0.162294 0.753167 0.000000
O O16 0.082127 0.020153 0.500000
O O17 0.000000 0.000000 0.366477
O O18 0.000000 0.500000 0.383132
O O19 0.000000 0.367437 0.250000
O O20 0.291976 0.293446 0.000000
O O21 0.602030 0.355525 0.000000
#
# Coordination Sequence:
#
# PCOD9393186 Si02
#       8
#     8   8   8   8   8   8   8   8
#     4  11  22  31  47  72 107 137 161 207 258 302
#     4  10  19  34  56  75  96 129 178 225 264 312
#     4   7  11  22  43  68  94 126 163 203 236 290
#     4  11  22  37  56  72  97 136 179 214 261 316
#     4   9  17  34  55  75  93 122 176 238 268 294
#     4  11  24  35  50  73 106 137 166 212 268 316
#     4   9  17  30  49  72  98 130 168 204 254 314
#     4   8  13  26  45  66  95 132 171 196 234 299
#
# _framework density 18.878451999999999
#
# number of rings (size 3 to 8) (size 9 to 14) (size 15 to 20)
#    0.000    2.500    1.250    3.750    3.500    2.000 
#    0.000    6.250    0.000    0.000    0.000    0.875 
#    0.000    6.000    0.000    9.000    0.000   13.750 
#
# Total GULP energy -356494.320755 kJ/mol
# GULP energy per Si atom -5570.223762 kJ/mol
# Density = 1.883548 g / cm^3
# Si number density = 18.878452 Si / 1000 Ang^3
#
#
#
# Elastic Constant Matrix: (Units=GPa)
#
#
# Indices 1 2 3 4 5 6 
#
# 1 172.2856 53.6487 13.2041 0.0000 0.0000 0.0000
# 2 53.6487 90.1075 4.3429 0.0000 0.0000 0.0000
# 3 13.2041 4.3429 42.7576 0.0000 0.0000 0.0000
# 4 0.0000 0.0000 0.0000 -47.9417 0.0000 0.0000
# 5 0.0000 0.0000 0.0000 0.0000 -4.0049 0.0000
# 6 0.0000 0.0000 0.0000 0.0000 0.0000 6.8172
#
#
#
# Elastic Compliance Matrix: (Units=1/GPa)
#
#
# Indices 1 2 3 4 5 6 
#
# 1 0.007262 -0.004237 -0.001812 0.000000 0.000000 0.000000
# 2 -0.004237 0.013624 -0.000075 0.000000 0.000000 0.000000
# 3 -0.001812 -0.000075 0.023955 0.000000 0.000000 0.000000
# 4 0.000000 0.000000 0.000000 -0.020859 0.000000 0.000000
# 5 0.000000 0.000000 0.000000 0.000000 -0.249697 0.000000
# 6 0.000000 0.000000 0.000000 0.000000 0.000000 0.146689
#
#
# Mechanical properties :
#
#
# Convention : Reuss Voigt Hill
#
# Bulk Modulus (GPa) = 30.68202 49.72690 40.20446
# Shear Modulus (GPa) = -89.42546 6.57113 -41.42717
#
# Velocity S-wave (km/s) = -6.88999 1.86770 -4.68954
# Velocity P-wave (km/s) = 6.85625 5.57215 2.82483
#
# Compressibility (1/GPa) = 0.03259238
#
# Stress axis : x y z
#
# Youngs Moduli (GPa) = 137.69400 73.40033 41.74494
#
# Poissons Ratio (x) = 0.31097 0.07566
# Poissons Ratio (y) = 0.58336 0.00315
# Poissons Ratio (z) = 0.24956 0.00554
#
# Static dielectric constant tensor:
#      x y z
#    x 1.722940 0.000000 0.000000 
#    y 0.000000 1.621610 0.000000 
#    z 0.000000 0.000000 1.741950 
# 
# From -- ./inp_files/18257.got.cif
#   From: 2010.05.17/outbox.cif.g08.bks.cpg/sg49_10_cif.got.tgz:18257.got - 2010.06.03 21:02:19.
