data_PCOD9393707
_publ_section_title
;
Structure prediction by ZEFSAII (Michael W. Deem and Ramdas Pophale) SiO2 
 PCOD9393707
Probable space group: P C C M
;
_chemical_formula_sum "Si O2"
_cell_formula_units_Z 64
_cell_length_a 10.910356
_cell_length_b 16.684008
_cell_length_c 14.950219
_cell_angle_alpha 90.000000
_cell_angle_beta 90.000000
_cell_angle_gamma 90.000000
_cell_volume 2721.365443
_symmetry_space_group_name_H-M "P C C M"
_symmetry_group_IT_number 49
_symmetry_cell_setting 'orthorhombic'
loop_
_space_group_symop_operation_xyz
x,y,z
-x,-y,z
x,-y,1/2-z
-x,y,1/2-z
-x,-y,-z
x,y,-z
-x,y,1/2+z
x,-y,1/2+z
loop_
_atom_site_type_symbol
_atom_site_label
_atom_site_fract_x
_atom_site_fract_y
_atom_site_fract_z
Si Si1 0.873248 0.959588 0.604873
Si Si2 0.861481 0.779157 0.608932
Si Si3 0.123389 0.268940 0.897951
Si Si4 0.488012 0.619435 0.354392
Si Si5 0.613986 0.214820 0.608460
Si Si6 0.779755 0.567192 0.136482
Si Si7 0.757858 0.603926 0.650798
Si Si8 0.620846 0.963465 0.151353
O O1 0.898792 0.946287 0.500000
O O2 0.833040 0.870565 0.639559
O O3 0.754811 0.017035 0.611946
O O4 0.000000 0.000000 0.641249
O O5 0.853072 0.777965 0.500000
O O6 0.796620 0.695840 0.636684
O O7 0.000755 0.765554 0.641286
O O8 0.251385 0.241184 0.858232
O O9 0.129358 0.364865 0.898216
O O10 0.124738 0.239889 0.000000
O O11 0.500000 0.597172 0.250000
O O12 0.476454 0.714967 0.363605
O O13 0.361459 0.584986 0.393880
O O14 0.620652 0.595878 0.388686
O O15 0.611898 0.209376 0.500000
O O16 0.592337 0.129812 0.650692
O O17 0.768251 0.586378 0.242778
O O18 0.821409 0.477253 0.114881
O O19 0.500000 0.000000 0.104949
O O20 0.626883 0.000000 0.250000
#
# Coordination Sequence:
#
# PCOD9393707 Si02
#       8
#     8   8   8   8   8   8   8   8
#     4  10  22  43  68  91 121 164 213 263 314 374
#     4  10  22  37  58  85 115 150 191 247 301 344
#     4   9  19  38  58  80 109 147 194 234 285 353
#     4   9  19  34  59  82 112 152 191 237 291 348
#     4  10  21  38  62  85 111 153 199 242 294 361
#     4   9  19  36  56  80 111 157 193 231 286 351
#     4  10  20  34  54  84 118 145 192 242 289 348
#     4  11  26  41  60  89 128 163 200 251 313 372
#
# _framework density 23.517606000000001
#
# number of rings (size 3 to 8) (size 9 to 14) (size 15 to 20)
#    0.000    2.250    0.000    1.500    3.500    8.750 
#    0.000    3.750    0.000    3.750    0.000    0.000 
#    0.000    0.000    0.000    0.000    0.000    0.000 
#
# Total GULP energy -356834.853851 kJ/mol
# GULP energy per Si atom -5575.544591 kJ/mol
# Density = 2.346408 g / cm^3
# Si number density = 23.517606 Si / 1000 Ang^3
#
#
#
# Elastic Constant Matrix: (Units=GPa)
#
#
# Indices 1 2 3 4 5 6 
#
# 1 46.4238 15.1973 -4.9210 0.0000 0.0000 0.0000
# 2 15.1973 175.7988 6.8720 0.0000 0.0000 0.0000
# 3 -4.9210 6.8720 63.6528 0.0000 0.0000 0.0000
# 4 0.0000 0.0000 0.0000 24.9553 0.0000 0.0000
# 5 0.0000 0.0000 0.0000 0.0000 8.9948 0.0000
# 6 0.0000 0.0000 0.0000 0.0000 0.0000 23.0322
#
#
#
# Elastic Compliance Matrix: (Units=1/GPa)
#
#
# Indices 1 2 3 4 5 6 
#
# 1 0.022406 -0.002013 0.001950 0.000000 0.000000 0.000000
# 2 -0.002013 0.005893 -0.000792 0.000000 0.000000 0.000000
# 3 0.001950 -0.000792 0.015946 0.000000 0.000000 0.000000
# 4 0.000000 0.000000 0.000000 0.040072 0.000000 0.000000
# 5 0.000000 0.000000 0.000000 0.000000 0.111175 0.000000
# 6 0.000000 0.000000 0.000000 0.000000 0.000000 0.043418
#
#
# Mechanical properties :
#
#
# Convention : Reuss Voigt Hill
#
# Bulk Modulus (GPa) = 23.50997 35.57468 29.54232
# Shear Modulus (GPa) = 19.62327 29.31160 24.46743
#
# Velocity S-wave (km/s) = 2.89175 3.53422 3.22900
# Velocity P-wave (km/s) = 4.60087 5.64039 5.14694
#
# Compressibility (1/GPa) = 0.04253515
#
# Stress axis : x y z
#
# Youngs Moduli (GPa) = 44.63019 169.68388 62.70994
#
# Poissons Ratio (x) = 0.34160 -0.12226
# Poissons Ratio (y) = 0.08985 0.04966
# Poissons Ratio (z) = -0.08701 0.13437
#
# Static dielectric constant tensor:
#      x y z
#    x 1.913920 0.000000 0.000000 
#    y 0.000000 1.600580 0.000000 
#    z 0.000000 0.000000 1.958590 
# 
# From -- ./inp_files/17276.got.cif
#   From: 2010.05.17/outbox.cif.g08.bks.cpg/sg49_9_cif.got.tgz:17276.got - 2010.06.03 21:02:19.
