data_PCOD9393332
_publ_section_title
;
Structure prediction by ZEFSAII (Michael W. Deem and Ramdas Pophale) SiO2 
 PCOD9393332
Probable space group: P C C M
;
_chemical_formula_sum "Si O2"
_cell_formula_units_Z 58
_cell_length_a 17.150903
_cell_length_b 9.052830
_cell_length_c 16.876448
_cell_angle_alpha 90.000000
_cell_angle_beta 90.000000
_cell_angle_gamma 90.000000
_cell_volume 2620.308353
_symmetry_space_group_name_H-M "P C C M"
_symmetry_group_IT_number 49
_symmetry_cell_setting 'orthorhombic'
loop_
_space_group_symop_operation_xyz
x,y,z
-x,-y,z
x,-y,1/2-z
-x,y,1/2-z
-x,-y,-z
x,y,-z
-x,y,1/2+z
x,-y,1/2+z
loop_
_atom_site_type_symbol
_atom_site_label
_atom_site_fract_x
_atom_site_fract_y
_atom_site_fract_z
Si Si1 0.280007 0.724296 0.903524
Si Si2 0.568944 0.102630 0.910515
Si Si3 0.164987 0.179108 0.905095
Si Si4 0.012902 0.658527 0.409734
Si Si5 0.124378 0.151218 0.639826
Si Si6 0.000000 0.000000 0.250000
Si Si7 0.475869 0.330812 0.836089
Si Si8 0.687843 0.623402 0.095221
O O1 0.345714 0.847066 0.880314
O O2 0.201752 0.751392 0.853472
O O3 0.304236 0.553249 0.891478
O O4 0.266435 0.741122 0.000000
O O5 0.524729 0.257869 0.906189
O O6 0.500000 0.000000 0.873499
O O7 0.581269 0.046306 0.000000
O O8 0.084527 0.250231 0.874632
O O9 0.237363 0.279910 0.879414
O O10 0.160123 0.006222 0.886258
O O11 0.166643 0.184730 0.000000
O O12 0.038842 0.627124 0.500000
O O13 0.000000 0.500000 0.370062
O O14 0.934277 0.753432 0.414241
O O15 0.061125 0.104804 0.704813
O O16 0.500000 0.500000 0.834140
O O17 0.500000 0.267536 0.750000
O O18 0.385684 0.317657 0.856195
O O19 0.676455 0.643097 0.000000
#
# Coordination Sequence:
#
# PCOD9393332 Si02
#       8
#     8   8   8   8   8   2   8   8
#     4  10  21  39  66  98 128 161 210 282 348 386
#     4  10  22  40  64  97 131 171 223 280 337 393
#     4  10  20  35  62  97 123 155 204 266 336 387
#     4  10  19  35  64  95 123 154 197 266 339 390
#     4  12  23  43  62  87 130 169 221 268 313 394
#     4  12  28  48  60  84 126 188 230 250 316 404
#     4  11  23  41  63  91 132 181 224 263 316 402
#     4  10  21  39  67 101 133 166 215 278 340 398
#
# _framework density 22.134799999999998
#
# number of rings (size 3 to 8) (size 9 to 14) (size 15 to 20)
#    0.000    1.517    2.759    2.483    1.931    4.138 
#    2.483    0.345    0.000    0.000    0.000    0.000 
#    0.000    0.000    0.000    0.000    0.000    0.000 
#
# Total GULP energy -323017.522844 kJ/mol
# GULP energy per Si atom -5569.267635 kJ/mol
# Density = 2.208442 g / cm^3
# Si number density = 22.134800 Si / 1000 Ang^3
#
#
#
# Elastic Constant Matrix: (Units=GPa)
#
#
# Indices 1 2 3 4 5 6 
#
# 1 189.8284 32.3125 31.1782 0.0000 0.0000 0.0000
# 2 32.3125 69.6528 13.9858 0.0000 0.0000 0.0000
# 3 31.1782 13.9858 39.2200 0.0000 0.0000 0.0000
# 4 0.0000 0.0000 0.0000 51.9131 0.0000 0.0000
# 5 0.0000 0.0000 0.0000 0.0000 -28.3629 0.0000
# 6 0.0000 0.0000 0.0000 0.0000 0.0000 45.4723
#
#
#
# Elastic Compliance Matrix: (Units=1/GPa)
#
#
# Indices 1 2 3 4 5 6 
#
# 1 0.006325 -0.002073 -0.004289 0.000000 0.000000 0.000000
# 2 -0.002073 0.016144 -0.004109 0.000000 0.000000 0.000000
# 3 -0.004289 -0.004109 0.030372 0.000000 0.000000 0.000000
# 4 0.000000 0.000000 0.000000 0.019263 0.000000 0.000000
# 5 0.000000 0.000000 0.000000 0.000000 -0.035257 0.000000
# 6 0.000000 0.000000 0.000000 0.000000 0.000000 0.021991
#
#
# Mechanical properties :
#
#
# Convention : Reuss Voigt Hill
#
# Bulk Modulus (GPa) = 31.34893 50.40602 40.87747
# Shear Modulus (GPa) = 55.30193 28.55280 41.92737
#
# Velocity S-wave (km/s) = 5.00384 3.59549 4.35694
# Velocity P-wave (km/s) = 6.89768 6.32917 6.61953
#
# Compressibility (1/GPa) = 0.03189902
#
# Stress axis : x y z
#
# Youngs Moduli (GPa) = 158.09657 61.94378 32.92513
#
# Poissons Ratio (x) = 0.12842 0.14122
# Poissons Ratio (y) = 0.32775 0.13528
# Poissons Ratio (z) = 0.67808 0.25451
#
# Static dielectric constant tensor:
#      x y z
#    x 1.891230 0.000000 0.000000 
#    y 0.000000 1.882900 0.000000 
#    z 0.000000 0.000000 1.904600 
# 
# From -- ./inp_files/18208.got.cif
#   From: 2010.05.17/outbox.cif.g08.bks.cpg/sg49_10_cif.got.tgz:18208.got - 2010.06.03 21:02:19.
