data_PCOD9393403
_publ_section_title
;
Structure prediction by ZEFSAII (Michael W. Deem and Ramdas Pophale) SiO2 
 PCOD9393403
Probable space group: P C C M
;
_chemical_formula_sum "Si O2"
_cell_formula_units_Z 56
_cell_length_a 12.318662
_cell_length_b 11.494893
_cell_length_c 19.939833
_cell_angle_alpha 90.000000
_cell_angle_beta 90.000000
_cell_angle_gamma 90.000000
_cell_volume 2823.514282
_symmetry_space_group_name_H-M "P C C M"
_symmetry_group_IT_number 49
_symmetry_cell_setting 'orthorhombic'
loop_
_space_group_symop_operation_xyz
x,y,z
-x,-y,z
x,-y,1/2-z
-x,y,1/2-z
-x,-y,-z
x,y,-z
-x,y,1/2+z
x,-y,1/2+z
loop_
_atom_site_type_symbol
_atom_site_label
_atom_site_fract_x
_atom_site_fract_y
_atom_site_fract_z
Si Si1 0.148670 0.262311 0.078553
Si Si2 0.765647 0.272378 0.144514
Si Si3 0.381083 0.673374 0.726841
Si Si4 0.385542 0.890901 0.925918
Si Si5 0.371211 0.863709 0.615921
Si Si6 0.194346 0.477064 0.173330
Si Si7 0.980793 0.137340 0.826093
O O1 0.266417 0.197976 0.083324
O O2 0.147095 0.377304 0.125640
O O3 0.062254 0.182785 0.117141
O O4 0.125042 0.283088 0.000000
O O5 0.694741 0.290745 0.211403
O O6 0.685298 0.221282 0.089571
O O7 0.810986 0.401684 0.134164
O O8 0.861461 0.180911 0.155082
O O9 0.500000 0.638192 0.750000
O O10 0.390053 0.789116 0.682422
O O11 0.316632 0.572151 0.687251
O O12 0.512517 0.860014 0.921214
O O13 0.355390 0.997331 0.876325
O O14 0.361339 0.936515 0.000000
O O15 0.150146 0.500000 0.250000
O O16 0.000000 0.183632 0.750000
O O17 0.000000 0.000000 0.823325
#
# Coordination Sequence:
#
# PCOD9393403 Si02
#       7
#     8   8   8   8   8   8   8
#     4  11  23  42  67  94 125 169 221 268 317 383
#     4  11  23  39  59  91 121 157 208 256 313 373
#     4  10  19  38  62  92 123 158 204 259 318 376
#     4  11  22  36  56  84 124 166 198 252 317 378
#     4  10  20  38  60  86 121 160 203 252 312 376
#     4   9  21  39  63  90 123 166 207 266 316 377
#     4  11  24  42  65  92 128 170 211 267 325 382
#
# _framework density 19.833438999999998
#
# number of rings (size 3 to 8) (size 9 to 14) (size 15 to 20)
#    0.000    1.571    1.429    5.143    0.000    6.286 
#    0.000    3.571    0.000    2.571    0.000    0.000 
#    0.000    0.000    0.000    0.000    0.000    0.000 
#
# Total GULP energy -312270.766610 kJ/mol
# GULP energy per Si atom -5576.263689 kJ/mol
# Density = 1.978830 g / cm^3
# Si number density = 19.833439 Si / 1000 Ang^3
#
#
#
# Elastic Constant Matrix: (Units=GPa)
#
#
# Indices 1 2 3 4 5 6 
#
# 1 87.1532 30.5042 29.3502 0.0000 0.0000 0.0000
# 2 30.5042 101.8744 32.2411 0.0000 0.0000 0.0000
# 3 29.3502 32.2411 85.5529 0.0000 0.0000 0.0000
# 4 0.0000 0.0000 0.0000 30.7075 0.0000 0.0000
# 5 0.0000 0.0000 0.0000 0.0000 10.1750 0.0000
# 6 0.0000 0.0000 0.0000 0.0000 0.0000 14.3151
#
#
#
# Elastic Compliance Matrix: (Units=1/GPa)
#
#
# Indices 1 2 3 4 5 6 
#
# 1 0.013723 -0.002974 -0.003587 0.000000 0.000000 0.000000
# 2 -0.002974 0.011790 -0.003423 0.000000 0.000000 0.000000
# 3 -0.003587 -0.003423 0.014209 0.000000 0.000000 0.000000
# 4 0.000000 0.000000 0.000000 0.032565 0.000000 0.000000
# 5 0.000000 0.000000 0.000000 0.000000 0.098280 0.000000
# 6 0.000000 0.000000 0.000000 0.000000 0.000000 0.069856
#
#
# Mechanical properties :
#
#
# Convention : Reuss Voigt Hill
#
# Bulk Modulus (GPa) = 50.62191 50.97464 50.79827
# Shear Modulus (GPa) = 18.72831 23.20520 20.96675
#
# Velocity S-wave (km/s) = 3.07625 3.42424 3.25490
# Velocity P-wave (km/s) = 6.18034 6.43359 6.30824
#
# Compressibility (1/GPa) = 0.01975429
#
# Stress axis : x y z
#
# Youngs Moduli (GPa) = 72.87076 84.81984 70.37685
#
# Poissons Ratio (x) = 0.25224 0.25245
# Poissons Ratio (y) = 0.21670 0.24089
# Poissons Ratio (z) = 0.26140 0.29032
#
# Static dielectric constant tensor:
#      x y z
#    x 1.722010 0.000000 0.000000 
#    y 0.000000 1.715240 0.000000 
#    z 0.000000 0.000000 1.703900 
# 
# From -- ./inp_files/20491.got.cif
#   From: 2010.05.17/outbox.cif.g08.bks.cpg/sg49_11_cif.got.tgz:20491.got - 2010.06.03 21:02:19.
