data_PCOD9393027
_publ_section_title
;
Structure prediction by ZEFSAII (Michael W. Deem and Ramdas Pophale) SiO2 
 PCOD9393027
Probable space group: P C C M
;
_chemical_formula_sum "Si O2"
_cell_formula_units_Z 64
_cell_length_a 15.283210
_cell_length_b 25.381513
_cell_length_c 8.786804
_cell_angle_alpha 90.000000
_cell_angle_beta 90.000000
_cell_angle_gamma 90.000000
_cell_volume 3408.497868
_symmetry_space_group_name_H-M "P C C M"
_symmetry_group_IT_number 49
_symmetry_cell_setting 'orthorhombic'
loop_
_space_group_symop_operation_xyz
x,y,z
-x,-y,z
x,-y,1/2-z
-x,y,1/2-z
-x,-y,-z
x,y,-z
-x,y,1/2+z
x,-y,1/2+z
loop_
_atom_site_type_symbol
_atom_site_label
_atom_site_fract_x
_atom_site_fract_y
_atom_site_fract_z
Si Si1 0.275391 0.054361 0.817026
Si Si2 0.276679 0.642576 0.816581
Si Si3 0.336494 0.166912 0.824774
Si Si4 0.091591 0.311561 0.682934
Si Si5 0.406959 0.558533 0.682256
Si Si6 0.909703 0.087189 0.180452
Si Si7 0.410034 0.732783 0.820496
Si Si8 0.132264 0.197417 0.176850
O O1 0.329449 0.106550 0.771391
O O2 0.176785 0.062290 0.754974
O O3 0.310399 0.000000 0.750000
O O4 0.272201 0.053236 0.000000
O O5 0.175295 0.652271 0.778101
O O6 0.327611 0.595341 0.735997
O O7 0.329588 0.695644 0.773500
O O8 0.282979 0.635949 0.000000
O O9 0.392798 0.207539 0.729788
O O10 0.236837 0.188569 0.821353
O O11 0.366219 0.167699 0.000000
O O12 0.087183 0.307087 0.500000
O O13 0.107954 0.253585 0.753523
O O14 0.000000 0.331389 0.750000
O O15 0.395045 0.500000 0.750000
O O16 0.500000 0.578200 0.750000
O O17 0.412739 0.556610 0.500000
O O18 0.904607 0.149041 0.225352
O O19 0.000000 0.066192 0.250000
O O20 0.907799 0.080346 0.000000
O O21 0.500000 0.713110 0.750000
O O22 0.416736 0.730198 0.000000
O O23 0.103448 0.193476 0.000000
#
# Coordination Sequence:
#
# PCOD9393027 Si02
#       8
#     8   8   8   8   8   8   8   8
#     4  10  21  37  55  77 100 132 176 224 278 339
#     4  10  22  39  58  86 123 160 201 247 290 344
#     4   9  19  35  55  78 108 141 179 225 275 336
#     4  11  22  36  54  80 115 156 202 247 292 343
#     4  11  22  38  63  92 125 163 203 246 295 350
#     4  11  21  33  49  70  99 134 175 226 281 338
#     4  11  22  36  57  86 119 153 188 227 284 345
#     4  10  19  33  52  75 105 143 187 233 281 337
#
# _framework density 18.776599999999998
#
# number of rings (size 3 to 8) (size 9 to 14) (size 15 to 20)
#    0.000    1.625    1.250    5.625    0.000    5.750 
#    0.000    1.250    0.000    0.750    0.000    5.250 
#    0.000    0.000    0.000    0.000    0.000    0.000 
#
# Total GULP energy -357605.828413 kJ/mol
# GULP energy per Si atom -5587.591069 kJ/mol
# Density = 1.873386 g / cm^3
# Si number density = 18.776600 Si / 1000 Ang^3
#
#
#
# Elastic Constant Matrix: (Units=GPa)
#
#
# Indices 1 2 3 4 5 6 
#
# 1 95.3642 47.9917 39.0416 0.0000 0.0000 0.0000
# 2 47.9917 100.9744 40.6435 0.0000 0.0000 0.0000
# 3 39.0416 40.6435 81.8838 0.0000 0.0000 0.0000
# 4 0.0000 0.0000 0.0000 27.9705 0.0000 0.0000
# 5 0.0000 0.0000 0.0000 0.0000 24.1263 0.0000
# 6 0.0000 0.0000 0.0000 0.0000 0.0000 8.9335
#
#
#
# Elastic Compliance Matrix: (Units=1/GPa)
#
#
# Indices 1 2 3 4 5 6 
#
# 1 0.015011 -0.005316 -0.004519 0.000000 0.000000 0.000000
# 2 -0.005316 0.014259 -0.004543 0.000000 0.000000 0.000000
# 3 -0.004519 -0.004543 0.016622 0.000000 0.000000 0.000000
# 4 0.000000 0.000000 0.000000 0.035752 0.000000 0.000000
# 5 0.000000 0.000000 0.000000 0.000000 0.041449 0.000000
# 6 0.000000 0.000000 0.000000 0.000000 0.000000 0.111939
#
#
# Mechanical properties :
#
#
# Convention : Reuss Voigt Hill
#
# Bulk Modulus (GPa) = 58.35347 59.28624 58.81985
# Shear Modulus (GPa) = 18.55303 22.24242 20.39773
#
# Velocity S-wave (km/s) = 3.14681 3.44551 3.29954
# Velocity P-wave (km/s) = 6.65946 6.88998 6.77570
#
# Compressibility (1/GPa) = 0.01713694
#
# Stress axis : x y z
#
# Youngs Moduli (GPa) = 66.61696 70.13333 60.16214
#
# Poissons Ratio (x) = 0.37281 0.27185
# Poissons Ratio (y) = 0.35412 0.27330
# Poissons Ratio (z) = 0.30102 0.31860
#
# Static dielectric constant tensor:
#      x y z
#    x 1.662390 0.000000 0.000000 
#    y 0.000000 1.650710 0.000000 
#    z 0.000000 0.000000 1.628810 
# 
# From -- ./inp_files/4422.got.cif
#   From: 2010.05.17/outbox.cif.g08.bks.cpg/sg49_3_cif.got.tgz:4422.got - 2010.06.03 21:02:19.
