data_PCOD9393463
_publ_section_title
;
Structure prediction by ZEFSAII (Michael W. Deem and Ramdas Pophale) SiO2 
 PCOD9393463
Probable space group: P C C M
;
_chemical_formula_sum "Si O2"
_cell_formula_units_Z 64
_cell_length_a 16.638418
_cell_length_b 22.924428
_cell_length_c 8.972110
_cell_angle_alpha 90.000000
_cell_angle_beta 90.000000
_cell_angle_gamma 90.000000
_cell_volume 3422.197962
_symmetry_space_group_name_H-M "P C C M"
_symmetry_group_IT_number 49
_symmetry_cell_setting 'orthorhombic'
loop_
_space_group_symop_operation_xyz
x,y,z
-x,-y,z
x,-y,1/2-z
-x,y,1/2-z
-x,-y,-z
x,y,-z
-x,y,1/2+z
x,-y,1/2+z
loop_
_atom_site_type_symbol
_atom_site_label
_atom_site_fract_x
_atom_site_fract_y
_atom_site_fract_z
Si Si1 0.730987 0.938911 0.819682
Si Si2 0.794870 0.323366 0.328616
Si Si3 0.085611 0.092356 0.820448
Si Si4 0.414746 0.851752 0.679923
Si Si5 0.388558 0.716507 0.671003
Si Si6 0.918265 0.228428 0.679012
Si Si7 0.244622 0.440571 0.677857
Si Si8 0.421259 0.402821 0.324147
O O1 0.825653 0.930960 0.775032
O O2 0.665397 0.888865 0.777160
O O3 0.703739 0.000000 0.750000
O O4 0.731005 0.940878 0.000000
O O5 0.816789 0.337434 0.500000
O O6 0.706172 0.296254 0.332384
O O7 0.849651 0.271617 0.269365
O O8 0.798112 0.382071 0.234013
O O9 0.092021 0.160884 0.780345
O O10 0.000000 0.071297 0.750000
O O11 0.078824 0.085793 0.000000
O O12 0.500000 0.871805 0.750000
O O13 0.420458 0.855119 0.500000
O O14 0.404299 0.782972 0.718324
O O15 0.418697 0.708625 0.500000
O O16 0.418598 0.665418 0.778268
O O17 0.920958 0.229763 0.500000
O O18 0.000000 0.249559 0.750000
O O19 0.213864 0.500000 0.750000
O O20 0.242537 0.444245 0.500000
O O21 0.337650 0.430996 0.727740
O O22 0.500000 0.428926 0.250000
O O23 0.426017 0.408339 0.500000
#
# Coordination Sequence:
#
# PCOD9393463 Si02
#       8
#     8   8   8   8   8   8   8   8
#     4  10  22  39  56  75 103 139 179 220 261 308
#     4   9  17  31  52  75 100 132 166 201 246 300
#     4   9  18  34  56  82 111 140 170 207 254 311
#     4  10  21  36  54  76 102 135 175 220 267 312
#     4   9  17  31  52  75  99 128 163 204 253 307
#     4   9  17  30  51  79 108 135 162 195 241 298
#     4  10  21  35  50  69  94 127 168 209 247 289
#     4  10  20  32  47  70  99 128 159 199 247 297
#
# _framework density 18.701430999999999
#
# number of rings (size 3 to 8) (size 9 to 14) (size 15 to 20)
#    0.000    2.500    0.000    1.875    0.000    8.250 
#    0.000    3.750    0.000    4.875    0.000    2.625 
#    0.000    0.000    0.000    0.000    0.000    0.000 
#
# Total GULP energy -356637.783204 kJ/mol
# GULP energy per Si atom -5572.465363 kJ/mol
# Density = 1.865887 g / cm^3
# Si number density = 18.701431 Si / 1000 Ang^3
#
#
#
# Elastic Constant Matrix: (Units=GPa)
#
#
# Indices 1 2 3 4 5 6 
#
# 1 67.6477 33.7188 12.7880 0.0000 0.0000 0.0000
# 2 33.7188 90.4008 18.8076 0.0000 0.0000 0.0000
# 3 12.7880 18.8076 11.1381 0.0000 0.0000 0.0000
# 4 0.0000 0.0000 0.0000 21.5110 0.0000 0.0000
# 5 0.0000 0.0000 0.0000 0.0000 24.3479 0.0000
# 6 0.0000 0.0000 0.0000 0.0000 0.0000 -29.2934
#
#
#
# Elastic Compliance Matrix: (Units=1/GPa)
#
#
# Indices 1 2 3 4 5 6 
#
# 1 0.019818 -0.004098 -0.015835 0.000000 0.000000 0.000000
# 2 -0.004098 0.017900 -0.025521 0.000000 0.000000 0.000000
# 3 -0.015835 -0.025521 0.151057 0.000000 0.000000 0.000000
# 4 0.000000 0.000000 0.000000 0.046488 0.000000 0.000000
# 5 0.000000 0.000000 0.000000 0.000000 0.041071 0.000000
# 6 0.000000 0.000000 0.000000 0.000000 0.000000 -0.034137
#
#
# Mechanical properties :
#
#
# Convention : Reuss Voigt Hill
#
# Bulk Modulus (GPa) = 10.21780 33.31281 21.76530
# Shear Modulus (GPa) = 13.67146 10.23792 11.95469
#
# Velocity S-wave (km/s) = 2.70671 2.34228 2.53106
# Velocity P-wave (km/s) = 3.90434 5.01664 4.49503
#
# Compressibility (1/GPa) = 0.09786846
#
# Stress axis : x y z
#
# Youngs Moduli (GPa) = 50.45838 55.86670 6.62004
#
# Poissons Ratio (x) = 0.22892 0.10483
# Poissons Ratio (y) = 0.20676 0.16895
# Poissons Ratio (z) = 0.79900 1.42575
#
# Static dielectric constant tensor:
#      x y z
#    x 1.680240 0.000000 0.000000 
#    y 0.000000 1.643890 0.000000 
#    z 0.000000 0.000000 1.642500 
# 
# From -- ./inp_files/4427.got.cif
#   From: 2010.05.17/outbox.cif.g08.bks.cpg/sg49_3_cif.got.tgz:4427.got - 2010.06.03 21:02:19.
