data_PCOD9393687
_publ_section_title
;
Structure prediction by ZEFSAII (Michael W. Deem and Ramdas Pophale) SiO2 
 PCOD9393687
Probable space group: P C C M
;
_chemical_formula_sum "Si O2"
_cell_formula_units_Z 48
_cell_length_a 16.180037
_cell_length_b 8.878178
_cell_length_c 17.169085
_cell_angle_alpha 90.000000
_cell_angle_beta 90.000000
_cell_angle_gamma 90.000000
_cell_volume 2466.326158
_symmetry_space_group_name_H-M "P C C M"
_symmetry_group_IT_number 49
_symmetry_cell_setting 'orthorhombic'
loop_
_space_group_symop_operation_xyz
x,y,z
-x,-y,z
x,-y,1/2-z
-x,y,1/2-z
-x,-y,-z
x,y,-z
-x,y,1/2+z
x,-y,1/2+z
loop_
_atom_site_type_symbol
_atom_site_label
_atom_site_fract_x
_atom_site_fract_y
_atom_site_fract_z
Si Si1 0.583614 0.431392 0.336376
Si Si2 0.240805 0.075688 0.092631
Si Si3 0.078545 0.609999 0.907131
Si Si4 0.583615 0.069208 0.336420
Si Si5 0.917923 0.928038 0.663485
Si Si6 0.240424 0.419333 0.906726
O O1 0.500000 0.500000 0.373060
O O2 0.588251 0.500000 0.250000
O O3 0.576202 0.250260 0.333252
O O4 0.669926 0.470394 0.377358
O O5 0.332073 0.029749 0.119713
O O6 0.226898 0.247633 0.121418
O O7 0.167735 0.973409 0.124025
O O8 0.238002 0.075727 0.000000
O O9 0.070793 0.750892 0.849456
O O10 0.162906 0.522703 0.886396
O O11 0.000000 0.500000 0.900147
O O12 0.082823 0.655123 0.000000
O O13 0.500000 0.000000 0.371973
O O14 0.590070 0.000000 0.250000
O O15 0.914213 0.000000 0.750000
O O16 0.000000 0.000000 0.625408
O O17 0.243506 0.413914 0.000000
#
# Coordination Sequence:
#
# PCOD9393687 Si02
#       6
#     8   8   8   8   8   8
#     4  10  20  34  54  78 106 144 185 226 279 338
#     4  10  21  38  59  83 114 152 193 238 289 345
#     4  10  21  39  64  90 117 152 194 239 290 350
#     4  10  20  35  56  80 112 149 186 234 285 341
#     4  11  24  40  58  86 120 153 192 238 290 349
#     4   9  20  37  56  82 112 144 186 234 283 334
#
# _framework density 19.462146000000001
#
# number of rings (size 3 to 8) (size 9 to 14) (size 15 to 20)
#    0.000    2.000    0.000    4.000    0.000    8.667 
#    0.000    5.000    0.000    0.000    0.000    0.000 
#    0.000    0.000    0.000    0.000    0.000    0.000 
#
# Total GULP energy -267858.980040 kJ/mol
# GULP energy per Si atom -5580.395418 kJ/mol
# Density = 1.941785 g / cm^3
# Si number density = 19.462146 Si / 1000 Ang^3
#
#
#
# Elastic Constant Matrix: (Units=GPa)
#
#
# Indices 1 2 3 4 5 6 
#
# 1 174.8916 77.2842 33.5380 0.0000 0.0000 0.0000
# 2 77.2842 93.6108 34.2470 0.0000 0.0000 0.0000
# 3 33.5380 34.2470 33.9800 0.0000 0.0000 0.0000
# 4 0.0000 0.0000 0.0000 12.5888 0.0000 0.0000
# 5 0.0000 0.0000 0.0000 0.0000 11.3038 0.0000
# 6 0.0000 0.0000 0.0000 0.0000 0.0000 37.8793
#
#
#
# Elastic Compliance Matrix: (Units=1/GPa)
#
#
# Indices 1 2 3 4 5 6 
#
# 1 0.009108 -0.006702 -0.002235 0.000000 0.000000 0.000000
# 2 -0.006702 0.021853 -0.015410 0.000000 0.000000 0.000000
# 3 -0.002235 -0.015410 0.047167 0.000000 0.000000 0.000000
# 4 0.000000 0.000000 0.000000 0.079436 0.000000 0.000000
# 5 0.000000 0.000000 0.000000 0.000000 0.088466 0.000000
# 6 0.000000 0.000000 0.000000 0.000000 0.000000 0.026400
#
#
# Mechanical properties :
#
#
# Convention : Reuss Voigt Hill
#
# Bulk Modulus (GPa) = 33.97506 65.84674 49.91090
# Shear Modulus (GPa) = 15.10873 22.84859 18.97866
#
# Velocity S-wave (km/s) = 2.78926 3.43009 3.12614
# Velocity P-wave (km/s) = 5.27904 7.04230 6.22343
#
# Compressibility (1/GPa) = 0.02943335
#
# Stress axis : x y z
#
# Youngs Moduli (GPa) = 109.79473 45.75989 21.20149
#
# Poissons Ratio (x) = 0.30667 0.04739
# Poissons Ratio (y) = 0.73581 0.32672
# Poissons Ratio (z) = 0.24540 0.70518
#
# Static dielectric constant tensor:
#      x y z
#    x 1.691970 0.000000 0.000000 
#    y 0.000000 1.690440 0.000000 
#    z 0.000000 0.000000 1.678910 
# 
# From -- ./inp_files/17678.got.cif
#   From: 2010.05.17/outbox.cif.g08.bks.cpg/sg49_9_cif.got.tgz:17678.got - 2010.06.03 21:02:19.
