data_PCOD9393644
_publ_section_title
;
Structure prediction by ZEFSAII (Michael W. Deem and Ramdas Pophale) SiO2 
 PCOD9393644
Probable space group: P C C M
;
_chemical_formula_sum "Si O2"
_cell_formula_units_Z 58
_cell_length_a 15.012502
_cell_length_b 24.052441
_cell_length_c 8.920500
_cell_angle_alpha 90.000000
_cell_angle_beta 90.000000
_cell_angle_gamma 90.000000
_cell_volume 3221.079426
_symmetry_space_group_name_H-M "P C C M"
_symmetry_group_IT_number 49
_symmetry_cell_setting 'orthorhombic'
loop_
_space_group_symop_operation_xyz
x,y,z
-x,-y,z
x,-y,1/2-z
-x,y,1/2-z
-x,-y,-z
x,y,-z
-x,y,1/2+z
x,-y,1/2+z
loop_
_atom_site_type_symbol
_atom_site_label
_atom_site_fract_x
_atom_site_fract_y
_atom_site_fract_z
Si Si1 0.224230 0.057015 0.821074
Si Si2 0.903446 0.852402 0.321291
Si Si3 0.403682 0.227002 0.677560
Si Si4 0.411898 0.390659 0.669396
Si Si5 0.500000 0.500000 0.250000
Si Si6 0.096156 0.279042 0.321788
Si Si7 0.595988 0.905072 0.322274
Si Si8 0.725893 0.682525 0.821316
O O1 0.168305 0.108738 0.757835
O O2 0.324904 0.064260 0.762646
O O3 0.187931 0.000000 0.750000
O O4 0.221083 0.055130 0.000000
O O5 0.904041 0.862352 0.500000
O O6 0.885095 0.786846 0.297356
O O7 0.000000 0.863904 0.250000
O O8 0.500000 0.237349 0.750000
O O9 0.405106 0.238180 0.500000
O O10 0.386299 0.161183 0.695968
O O11 0.330910 0.265591 0.756376
O O12 0.500000 0.366268 0.750000
O O13 0.403756 0.370696 0.500000
O O14 0.435242 0.456337 0.667627
O O15 0.327048 0.371673 0.762901
O O16 0.094158 0.288511 0.500000
O O17 0.175480 0.312819 0.245240
O O18 0.000000 0.290918 0.250000
O O19 0.500000 0.917197 0.250000
O O20 0.596210 0.917528 0.500000
O O21 0.727024 0.684282 0.000000
#
# Coordination Sequence:
#
# PCOD9393644 Si02
#       8
#     8   8   8   8   2   8   8   8
#     4  12  25  40  58  80 106 136 175 224 274 328
#     4  10  21  39  62  86 111 141 176 218 273 337
#     4  10  20  34  52  76 109 144 179 222 272 329
#     4  10  20  35  55  80 114 153 195 238 282 327
#     4   8  22  36  62  80 116 160 202 244 284 328
#     4  10  21  38  59  83 113 146 183 227 277 333
#     4  10  21  38  58  79 104 138 178 220 271 329
#     4  12  23  33  51  80 114 151 191 231 277 328
#
# _framework density 18.006387
#
# number of rings (size 3 to 8) (size 9 to 14) (size 15 to 20)
#    0.414    1.103    0.000    6.000    0.000    7.172 
#    0.000    2.759    0.000    0.000    0.000    0.483 
#    0.000    3.310    0.000    0.000    0.000    0.000 
#
# Total GULP energy -323948.443777 kJ/mol
# GULP energy per Si atom -5585.317996 kJ/mol
# Density = 1.796540 g / cm^3
# Si number density = 18.006387 Si / 1000 Ang^3
#
#
#
# Elastic Constant Matrix: (Units=GPa)
#
#
# Indices 1 2 3 4 5 6 
#
# 1 121.3521 49.2846 65.1278 0.0000 0.0000 0.0000
# 2 49.2846 59.7618 46.8175 0.0000 0.0000 0.0000
# 3 65.1278 46.8175 147.5195 0.0000 0.0000 0.0000
# 4 0.0000 0.0000 0.0000 22.8438 0.0000 0.0000
# 5 0.0000 0.0000 0.0000 0.0000 34.6526 0.0000
# 6 0.0000 0.0000 0.0000 0.0000 0.0000 58.7553
#
#
#
# Elastic Compliance Matrix: (Units=1/GPa)
#
#
# Indices 1 2 3 4 5 6 
#
# 1 0.013447 -0.008570 -0.003217 0.000000 0.000000 0.000000
# 2 -0.008570 0.027731 -0.005018 0.000000 0.000000 0.000000
# 3 -0.003217 -0.005018 0.009791 0.000000 0.000000 0.000000
# 4 0.000000 0.000000 0.000000 0.043776 0.000000 0.000000
# 5 0.000000 0.000000 0.000000 0.000000 0.028858 0.000000
# 6 0.000000 0.000000 0.000000 0.000000 0.000000 0.017020
#
#
# Mechanical properties :
#
#
# Convention : Reuss Voigt Hill
#
# Bulk Modulus (GPa) = 57.59887 72.34369 64.97128
# Shear Modulus (GPa) = 27.77488 34.41056 31.09272
#
# Velocity S-wave (km/s) = 3.93173 4.37626 4.15994
# Velocity P-wave (km/s) = 7.25733 8.11169 7.69637
#
# Compressibility (1/GPa) = 0.01736145
#
# Stress axis : x y z
#
# Youngs Moduli (GPa) = 74.36362 36.06074 102.12941
#
# Poissons Ratio (x) = 0.30902 0.32857
# Poissons Ratio (y) = 0.63726 0.51244
# Poissons Ratio (z) = 0.23924 0.18094
#
# Static dielectric constant tensor:
#      x y z
#    x 1.599370 0.000000 0.000000 
#    y 0.000000 1.638490 0.000000 
#    z 0.000000 0.000000 1.597590 
# 
# From -- ./inp_files/4230.got.cif
#   From: 2010.05.17/outbox.cif.g08.bks.cpg/sg49_3_cif.got.tgz:4230.got - 2010.06.03 21:02:19.
