data_PCOD9393667
_publ_section_title
;
Structure prediction by ZEFSAII (Michael W. Deem and Ramdas Pophale) SiO2 
 PCOD9393667
Probable space group: P C C M
;
_chemical_formula_sum "Si O2"
_cell_formula_units_Z 58
_cell_length_a 24.170714
_cell_length_b 15.090620
_cell_length_c 8.976336
_cell_angle_alpha 90.000000
_cell_angle_beta 90.000000
_cell_angle_gamma 90.000000
_cell_volume 3274.128072
_symmetry_space_group_name_H-M "P C C M"
_symmetry_group_IT_number 49
_symmetry_cell_setting 'orthorhombic'
loop_
_space_group_symop_operation_xyz
x,y,z
-x,-y,z
x,-y,1/2-z
-x,y,1/2-z
-x,-y,-z
x,y,-z
-x,y,1/2+z
x,-y,1/2+z
loop_
_atom_site_type_symbol
_atom_site_label
_atom_site_fract_x
_atom_site_fract_y
_atom_site_fract_z
Si Si1 0.401057 0.904868 0.321511
Si Si2 0.000000 0.000000 0.750000
Si Si3 0.218812 0.404453 0.320987
Si Si4 0.443831 0.271278 0.320959
Si Si5 0.108516 0.087219 0.332149
Si Si6 0.271594 0.905788 0.322557
Si Si7 0.346960 0.594365 0.821483
Si Si8 0.823988 0.769427 0.178725
O O1 0.408786 0.906937 0.500000
O O2 0.434607 0.826022 0.246399
O O3 0.335902 0.886446 0.289323
O O4 0.414488 0.000000 0.250000
O O5 0.956834 0.063617 0.834383
O O6 0.205796 0.500000 0.250000
O O7 0.214211 0.407884 0.500000
O O8 0.283315 0.384528 0.280932
O O9 0.182272 0.326006 0.253280
O O10 0.500000 0.308582 0.250000
O O11 0.447727 0.267763 0.500000
O O12 0.391054 0.331249 0.278302
O O13 0.129347 0.094720 0.500000
O O14 0.124628 0.173236 0.239043
O O15 0.132491 0.000000 0.250000
O O16 0.266475 0.914940 0.500000
O O17 0.229589 0.828775 0.276191
O O18 0.258711 0.000000 0.250000
O O19 0.361023 0.500000 0.750000
O O20 0.348705 0.585805 0.000000
O O21 0.825487 0.762249 0.000000
#
# Coordination Sequence:
#
# PCOD9393667 Si02
#       8
#     8   2   8   8   8   8   8   8
#     4  10  20  36  55  74  98 132 170 210 258 312
#     4   8  22  36  58  76 116 156 202 236 276 308
#     4  10  20  36  56  79 107 140 178 221 270 324
#     4  11  23  38  54  76 101 128 166 213 263 315
#     4  10  20  34  53  78 111 151 192 233 273 314
#     4   9  19  32  48  73 105 138 171 209 257 315
#     4   9  20  37  58  80 104 135 170 211 263 324
#     4  11  21  32  50  79 112 146 183 223 269 320
#
# _framework density 17.714641
#
# number of rings (size 3 to 8) (size 9 to 14) (size 15 to 20)
#    0.414    1.655    0.000    3.517    0.000    4.966 
#    0.000    2.759    0.000    0.000    0.000    0.483 
#    0.000    3.310    0.000    0.000    0.000    0.000 
#
# Total GULP energy -323571.097985 kJ/mol
# GULP energy per Si atom -5578.812034 kJ/mol
# Density = 1.767432 g / cm^3
# Si number density = 17.714641 Si / 1000 Ang^3
#
#
#
# Elastic Constant Matrix: (Units=GPa)
#
#
# Indices 1 2 3 4 5 6 
#
# 1 59.8724 49.0315 29.5993 0.0000 0.0000 0.0000
# 2 49.0315 119.3639 43.9846 0.0000 0.0000 0.0000
# 3 29.5993 43.9846 68.4588 0.0000 0.0000 0.0000
# 4 0.0000 0.0000 0.0000 31.9195 0.0000 0.0000
# 5 0.0000 0.0000 0.0000 0.0000 22.0685 0.0000
# 6 0.0000 0.0000 0.0000 0.0000 0.0000 14.6763
#
#
#
# Elastic Compliance Matrix: (Units=1/GPa)
#
#
# Indices 1 2 3 4 5 6 
#
# 1 0.026891 -0.008859 -0.005935 0.000000 0.000000 0.000000
# 2 -0.008859 0.013895 -0.005097 0.000000 0.000000 0.000000
# 3 -0.005935 -0.005097 0.020448 0.000000 0.000000 0.000000
# 4 0.000000 0.000000 0.000000 0.031329 0.000000 0.000000
# 5 0.000000 0.000000 0.000000 0.000000 0.045314 0.000000
# 6 0.000000 0.000000 0.000000 0.000000 0.000000 0.068137
#
#
# Mechanical properties :
#
#
# Convention : Reuss Voigt Hill
#
# Bulk Modulus (GPa) = 46.61524 54.76954 50.69239
# Shear Modulus (GPa) = 19.76692 22.07148 20.91920
#
# Velocity S-wave (km/s) = 3.34406 3.53363 3.44015
# Velocity P-wave (km/s) = 6.42511 6.90170 6.66766
#
# Compressibility (1/GPa) = 0.02145221
#
# Stress axis : x y z
#
# Youngs Moduli (GPa) = 37.18662 71.96745 48.90393
#
# Poissons Ratio (x) = 0.63758 0.29024
# Poissons Ratio (y) = 0.32945 0.24927
# Poissons Ratio (z) = 0.22070 0.36683
#
# Static dielectric constant tensor:
#      x y z
#    x 1.636580 0.000000 0.000000 
#    y 0.000000 1.578580 0.000000 
#    z 0.000000 0.000000 1.594390 
# 
# From -- ./inp_files/6462.got.cif
#   From: 2010.05.17/outbox.cif.g08.bks.cpg/sg49_4_cif.got.tgz:6462.got - 2010.06.03 21:02:19.
