data_PCOD9393957
_publ_section_title
;
Structure prediction by ZEFSAII (Michael W. Deem and Ramdas Pophale) SiO2 
 PCOD9393957
Probable space group: P C C M
;
_chemical_formula_sum "Si O2"
_cell_formula_units_Z 48
_cell_length_a 9.513629
_cell_length_b 31.522095
_cell_length_c 8.626561
_cell_angle_alpha 90.000000
_cell_angle_beta 90.000000
_cell_angle_gamma 90.000000
_cell_volume 2587.015213
_symmetry_space_group_name_H-M "P C C M"
_symmetry_group_IT_number 49
_symmetry_cell_setting 'orthorhombic'
loop_
_space_group_symop_operation_xyz
x,y,z
-x,-y,z
x,-y,1/2-z
-x,y,1/2-z
-x,-y,-z
x,y,-z
-x,y,1/2+z
x,-y,1/2+z
loop_
_atom_site_type_symbol
_atom_site_label
_atom_site_fract_x
_atom_site_fract_y
_atom_site_fract_z
Si Si1 0.157587 0.044636 0.685849
Si Si2 0.157360 0.703381 0.686798
Si Si3 0.342745 0.621907 0.686675
Si Si4 0.343074 0.125328 0.686133
Si Si5 0.657876 0.216126 0.313677
Si Si6 0.153847 0.547187 0.814305
O O1 0.152938 0.042384 0.500000
O O2 0.248196 0.085418 0.732046
O O3 0.000000 0.049031 0.750000
O O4 0.215152 0.000000 0.750000
O O5 0.151079 0.703579 0.500000
O O6 0.248394 0.662401 0.733482
O O7 0.239946 0.745866 0.735806
O O8 0.000000 0.701637 0.750000
O O9 0.500000 0.626395 0.750000
O O10 0.345630 0.619631 0.500000
O O11 0.268653 0.580159 0.754233
O O12 0.500000 0.119243 0.750000
O O13 0.347193 0.127906 0.500000
O O14 0.292265 0.170415 0.752329
O O15 0.500000 0.223007 0.250000
O O16 0.651128 0.215121 0.500000
O O17 0.181740 0.500000 0.750000
O O18 0.000000 0.559951 0.750000
O O19 0.149649 0.546261 0.000000
#
# Coordination Sequence:
#
# PCOD9393957 Si02
#       6
#     8   8   8   8   8   8
#     4  10  21  36  55  78 106 140 180 222 271 323
#     4  10  23  39  58  84 114 147 187 230 277 330
#     4  11  23  40  60  86 117 152 192 236 285 337
#     4  10  21  36  55  81 109 142 180 222 270 324
#     4  10  20  36  57  82 110 144 182 224 272 326
#     4  11  22  39  62  89 119 154 193 236 284 337
#
# _framework density 18.554200000000002
#
# number of rings (size 3 to 8) (size 9 to 14) (size 15 to 20)
#    0.000    1.667    0.000    6.500    0.000    8.000 
#    0.000    6.667    0.000    0.000    0.000    0.000 
#    0.000    0.000    0.000    0.000    0.000    0.000 
#
# Total GULP energy -268253.557846 kJ/mol
# GULP energy per Si atom -5588.615788 kJ/mol
# Density = 1.851197 g / cm^3
# Si number density = 18.554200 Si / 1000 Ang^3
#
#
#
# Elastic Constant Matrix: (Units=GPa)
#
#
# Indices 1 2 3 4 5 6 
#
# 1 129.0985 109.0937 43.1832 0.0000 0.0000 0.0000
# 2 109.0937 150.6046 51.5757 0.0000 0.0000 0.0000
# 3 43.1832 51.5757 80.3248 0.0000 0.0000 0.0000
# 4 0.0000 0.0000 0.0000 25.8471 0.0000 0.0000
# 5 0.0000 0.0000 0.0000 0.0000 26.4506 0.0000
# 6 0.0000 0.0000 0.0000 0.0000 0.0000 42.6863
#
#
#
# Elastic Compliance Matrix: (Units=1/GPa)
#
#
# Indices 1 2 3 4 5 6 
#
# 1 0.020189 -0.013982 -0.001876 0.000000 0.000000 0.000000
# 2 -0.013982 0.018194 -0.004166 0.000000 0.000000 0.000000
# 3 -0.001876 -0.004166 0.016133 0.000000 0.000000 0.000000
# 4 0.000000 0.000000 0.000000 0.038689 0.000000 0.000000
# 5 0.000000 0.000000 0.000000 0.000000 0.037806 0.000000
# 6 0.000000 0.000000 0.000000 0.000000 0.000000 0.023427
#
#
# Mechanical properties :
#
#
# Convention : Reuss Voigt Hill
#
# Bulk Modulus (GPa) = 69.11396 85.30367 77.20881
# Shear Modulus (GPa) = 25.08683 29.40850 27.24766
#
# Velocity S-wave (km/s) = 3.68106 3.98553 3.83632
# Velocity P-wave (km/s) = 7.44295 8.20088 7.83109
#
# Compressibility (1/GPa) = 0.01446886
#
# Stress axis : x y z
#
# Youngs Moduli (GPa) = 49.53296 54.96217 61.98509
#
# Poissons Ratio (x) = 0.76846 0.11629
# Poissons Ratio (y) = 0.69255 0.25822
# Poissons Ratio (z) = 0.09293 0.22896
#
# Static dielectric constant tensor:
#      x y z
#    x 1.604220 0.000000 0.000000 
#    y 0.000000 1.639710 0.000000 
#    z 0.000000 0.000000 1.625890 
# 
# From -- ./inp_files/2103.got.cif
#   From: 2010.05.17/outbox.cif.g08.bks.cpg/sg49_2_cif.got.tgz:2103.got - 2010.06.03 21:02:19.
