data_PCOD9393638
_publ_section_title
;
Structure prediction by ZEFSAII (Michael W. Deem and Ramdas Pophale) SiO2 
 PCOD9393638
Probable space group: P C C M
;
_chemical_formula_sum "Si O2"
_cell_formula_units_Z 64
_cell_length_a 20.414748
_cell_length_b 20.770732
_cell_length_c 8.583305
_cell_angle_alpha 90.000000
_cell_angle_beta 90.000000
_cell_angle_gamma 90.000000
_cell_volume 3639.572464
_symmetry_space_group_name_H-M "P C C M"
_symmetry_group_IT_number 49
_symmetry_cell_setting 'orthorhombic'
loop_
_space_group_symop_operation_xyz
x,y,z
-x,-y,z
x,-y,1/2-z
-x,y,1/2-z
-x,-y,-z
x,y,-z
-x,y,1/2+z
x,-y,1/2+z
loop_
_atom_site_type_symbol
_atom_site_label
_atom_site_fract_x
_atom_site_fract_y
_atom_site_fract_z
Si Si1 0.824810 0.070394 0.188310
Si Si2 0.325772 0.929801 0.187919
Si Si3 0.324725 0.429682 0.812226
Si Si4 0.927531 0.325417 0.186892
Si Si5 0.927801 0.822285 0.688088
Si Si6 0.826063 0.429288 0.686870
Si Si7 0.572497 0.820480 0.312510
Si Si8 0.572542 0.321293 0.312516
O O1 0.749481 0.082499 0.237503
O O2 0.873858 0.126339 0.241287
O O3 0.844019 0.000000 0.250000
O O4 0.825920 0.068929 0.000000
O O5 0.375131 0.873912 0.238276
O O6 0.345069 0.000000 0.250000
O O7 0.326601 0.931616 0.000000
O O8 0.343445 0.500000 0.750000
O O9 0.249462 0.416857 0.763796
O O10 0.374706 0.374349 0.761415
O O11 0.325762 0.431622 0.000000
O O12 0.912699 0.251448 0.235185
O O13 0.874477 0.375092 0.250332
O O14 0.000000 0.340926 0.250000
O O15 0.928450 0.328043 0.000000
O O16 0.929437 0.823601 0.500000
O O17 0.000000 0.838393 0.750000
O O18 0.844145 0.500000 0.750000
O O19 0.828454 0.430235 0.500000
O O20 0.500000 0.836006 0.250000
O O21 0.570617 0.818391 0.500000
O O22 0.589742 0.749627 0.249864
O O23 0.500000 0.336853 0.250000
O O24 0.570560 0.319397 0.500000
#
# Coordination Sequence:
#
# PCOD9393638 Si02
#       8
#     8   8   8   8   8   8   8   8
#     4   9  18  34  52  73 100 131 166 206 247 293
#     4   9  19  34  52  73  99 130 167 206 248 295
#     4   9  20  36  54  76 104 135 169 208 252 299
#     4  10  20  35  54  77 103 135 170 209 254 301
#     4   9  19  34  52  73 101 132 165 204 247 294
#     4  10  20  36  55  77 104 134 168 209 252 300
#     4  10  20  34  52  75 101 132 167 207 251 299
#     4  10  20  35  53  76 104 135 170 209 251 299
#
# _framework density 17.584482000000001
#
# number of rings (size 3 to 8) (size 9 to 14) (size 15 to 20)
#    0.000    2.500    0.000    2.250    0.000    5.500 
#    0.000    6.250    0.000    0.000    0.000    0.000 
#    0.000    0.000    0.000    0.000    0.000    0.000 
#
# Total GULP energy -357065.784382 kJ/mol
# GULP energy per Si atom -5579.152881 kJ/mol
# Density = 1.754446 g / cm^3
# Si number density = 17.584482 Si / 1000 Ang^3
#
#
#
# Elastic Constant Matrix: (Units=GPa)
#
#
# Indices 1 2 3 4 5 6 
#
# 1 128.2932 136.8692 31.2447 0.0000 0.0000 0.0000
# 2 136.8692 169.5501 34.8873 0.0000 0.0000 0.0000
# 3 31.2447 34.8873 30.9458 0.0000 0.0000 0.0000
# 4 0.0000 0.0000 0.0000 28.8977 0.0000 0.0000
# 5 0.0000 0.0000 0.0000 0.0000 12.4653 0.0000
# 6 0.0000 0.0000 0.0000 0.0000 0.0000 45.3679
#
#
#
# Elastic Compliance Matrix: (Units=1/GPa)
#
#
# Indices 1 2 3 4 5 6 
#
# 1 0.057452 -0.044845 -0.007450 0.000000 0.000000 0.000000
# 2 -0.044845 0.042684 -0.002842 0.000000 0.000000 0.000000
# 3 -0.007450 -0.002842 0.043041 0.000000 0.000000 0.000000
# 4 0.000000 0.000000 0.000000 0.034605 0.000000 0.000000
# 5 0.000000 0.000000 0.000000 0.000000 0.080223 0.000000
# 6 0.000000 0.000000 0.000000 0.000000 0.000000 0.022042
#
#
# Mechanical properties :
#
#
# Convention : Reuss Voigt Hill
#
# Bulk Modulus (GPa) = 30.39329 81.64350 56.01839
# Shear Modulus (GPa) = 12.45992 25.73205 19.09598
#
# Velocity S-wave (km/s) = 2.66479 3.82951 3.29896
# Velocity P-wave (km/s) = 5.17589 8.12918 6.81445
#
# Compressibility (1/GPa) = 0.03290200
#
# Stress axis : x y z
#
# Youngs Moduli (GPa) = 17.40598 23.42809 23.23386
#
# Poissons Ratio (x) = 1.05063 0.17309
# Poissons Ratio (y) = 0.78057 0.06604
# Poissons Ratio (z) = 0.12967 0.06659
#
# Static dielectric constant tensor:
#      x y z
#    x 1.585720 0.000000 0.000000 
#    y 0.000000 1.575920 0.000000 
#    z 0.000000 0.000000 1.600180 
# 
# From -- ./inp_files/5944.got.cif
#   From: 2010.05.17/outbox.cif.g08.bks.cpg/sg49_3_cif.got.tgz:5944.got - 2010.06.03 21:02:19.
