data_PCOD9393171
_publ_section_title
;
Structure prediction by ZEFSAII (Michael W. Deem and Ramdas Pophale) SiO2 
 PCOD9393171
Probable space group: P C C M
;
_chemical_formula_sum "Si O2"
_cell_formula_units_Z 64
_cell_length_a 21.513726
_cell_length_b 17.621897
_cell_length_c 8.626934
_cell_angle_alpha 90.000000
_cell_angle_beta 90.000000
_cell_angle_gamma 90.000000
_cell_volume 3270.579928
_symmetry_space_group_name_H-M "P C C M"
_symmetry_group_IT_number 49
_symmetry_cell_setting 'orthorhombic'
loop_
_space_group_symop_operation_xyz
x,y,z
-x,-y,z
x,-y,1/2-z
-x,y,1/2-z
-x,-y,-z
x,y,-z
-x,y,1/2+z
x,-y,1/2+z
loop_
_atom_site_type_symbol
_atom_site_label
_atom_site_fract_x
_atom_site_fract_y
_atom_site_fract_z
Si Si1 0.704684 0.580885 0.688277
Si Si2 0.804345 0.707636 0.683823
Si Si3 0.346328 0.074354 0.182367
Si Si4 0.433051 0.621835 0.817765
Si Si5 0.566579 0.803555 0.317245
Si Si6 0.935363 0.249498 0.685867
Si Si7 0.217101 0.884254 0.180200
Si Si8 0.910179 0.079446 0.319866
O O1 0.727038 0.500000 0.750000
O O2 0.703032 0.582326 0.500000
O O3 0.752547 0.647273 0.737739
O O4 0.633018 0.591353 0.744322
O O5 0.813268 0.695689 0.500000
O O6 0.872502 0.708161 0.761420
O O7 0.779497 0.793444 0.704107
O O8 0.383226 0.150311 0.221734
O O9 0.282403 0.080874 0.276116
O O10 0.380228 0.000000 0.250000
O O11 0.335914 0.067082 0.000000
O O12 0.500000 0.597579 0.750000
O O13 0.428098 0.712952 0.799154
O O14 0.435434 0.604363 0.000000
O O15 0.500000 0.825886 0.250000
O O16 0.572279 0.820669 0.500000
O O17 0.936548 0.247625 0.500000
O O18 0.931353 0.161440 0.745913
O O19 0.000000 0.281818 0.750000
O O20 0.163623 0.916200 0.290106
O O21 0.200686 0.898258 0.000000
O O22 0.925229 0.078615 0.500000
O O23 0.932155 0.000000 0.250000
#
# Coordination Sequence:
#
# PCOD9393171 Si02
#       8
#     8   8   8   8   8   8   8   8
#     4  10  21  37  57  85 118 151 183 220 267 322
#     4   9  19  37  60  82 109 145 184 226 276 329
#     4  12  24  36  50  71  99 133 174 223 275 326
#     4   9  19  36  58  83 114 149 186 223 265 318
#     4  10  20  37  57  76  98 129 171 219 269 322
#     4  10  21  36  56  82 111 144 187 233 279 330
#     4  10  19  34  55  76 100 135 177 223 271 322
#     4  10  20  33  49  74 108 145 183 225 271 323
#
# _framework density 19.568394000000001
#
# number of rings (size 3 to 8) (size 9 to 14) (size 15 to 20)
#    0.000    2.000    0.000    3.750    0.000    6.250 
#    0.000    5.000    0.000    0.375    0.000    2.625 
#    0.000    0.000    0.000    0.000    0.000    0.000 
#
# Total GULP energy -357230.538609 kJ/mol
# GULP energy per Si atom -5581.727166 kJ/mol
# Density = 1.952386 g / cm^3
# Si number density = 19.568394 Si / 1000 Ang^3
#
#
#
# Elastic Constant Matrix: (Units=GPa)
#
#
# Indices 1 2 3 4 5 6 
#
# 1 110.0859 43.0441 12.1777 0.0000 0.0000 0.0000
# 2 43.0441 63.9898 26.1521 0.0000 0.0000 0.0000
# 3 12.1777 26.1521 35.1199 0.0000 0.0000 0.0000
# 4 0.0000 0.0000 0.0000 19.6280 0.0000 0.0000
# 5 0.0000 0.0000 0.0000 0.0000 21.7247 0.0000
# 6 0.0000 0.0000 0.0000 0.0000 0.0000 43.1639
#
#
#
# Elastic Compliance Matrix: (Units=1/GPa)
#
#
# Indices 1 2 3 4 5 6 
#
# 1 0.012511 -0.009549 0.002772 0.000000 0.000000 0.000000
# 2 -0.009549 0.029752 -0.018844 0.000000 0.000000 0.000000
# 3 0.002772 -0.018844 0.041545 0.000000 0.000000 0.000000
# 4 0.000000 0.000000 0.000000 0.050948 0.000000 0.000000
# 5 0.000000 0.000000 0.000000 0.000000 0.046031 0.000000
# 6 0.000000 0.000000 0.000000 0.000000 0.000000 0.023168
#
#
# Mechanical properties :
#
#
# Convention : Reuss Voigt Hill
#
# Bulk Modulus (GPa) = 30.70588 41.32705 36.01647
# Shear Modulus (GPa) = 18.79351 25.42475 22.10913
#
# Velocity S-wave (km/s) = 3.10240 3.60846 3.36495
# Velocity P-wave (km/s) = 5.34404 6.20697 5.79160
#
# Compressibility (1/GPa) = 0.03256706
#
# Stress axis : x y z
#
# Youngs Moduli (GPa) = 79.93167 33.61124 24.07039
#
# Poissons Ratio (x) = 0.32094 -0.06673
# Poissons Ratio (y) = 0.76324 0.45358
# Poissons Ratio (z) = -0.22160 0.63337
#
# Static dielectric constant tensor:
#      x y z
#    x 3.301980 0.000000 0.000000 
#    y 0.000000 1.701370 0.000000 
#    z 0.000000 0.000000 1.671970 
# 
# From -- ./inp_files/5307.got.cif
#   From: 2010.05.17/outbox.cif.g08.bks.cpg/sg49_3_cif.got.tgz:5307.got - 2010.06.03 21:02:19.
