data_PCOD9393772
_publ_section_title
;
Structure prediction by ZEFSAII (Michael W. Deem and Ramdas Pophale) SiO2 
 PCOD9393772
Probable space group: P C C M
;
_chemical_formula_sum "Si O2"
_cell_formula_units_Z 56
_cell_length_a 22.424282
_cell_length_b 8.528206
_cell_length_c 15.263940
_cell_angle_alpha 90.000000
_cell_angle_beta 90.000000
_cell_angle_gamma 90.000000
_cell_volume 2919.059039
_symmetry_space_group_name_H-M "P C C M"
_symmetry_group_IT_number 49
_symmetry_cell_setting 'orthorhombic'
loop_
_space_group_symop_operation_xyz
x,y,z
-x,-y,z
x,-y,1/2-z
-x,y,1/2-z
-x,-y,-z
x,y,-z
-x,y,1/2+z
x,-y,1/2+z
loop_
_atom_site_type_symbol
_atom_site_label
_atom_site_fract_x
_atom_site_fract_y
_atom_site_fract_z
Si Si1 0.995595 0.191063 0.398222
Si Si2 0.092182 0.190614 0.254636
Si Si3 0.302856 0.297885 0.903240
Si Si4 0.443479 0.209388 0.606155
Si Si5 0.328006 0.388409 0.334895
Si Si6 0.426976 0.156226 0.106211
Si Si7 0.228446 0.812436 0.246925
O O1 0.994745 0.243845 0.500000
O O2 0.051604 0.240436 0.337275
O O3 0.938766 0.237736 0.337688
O O4 0.000000 0.000000 0.400934
O O5 0.160445 0.238368 0.267870
O O6 0.091321 0.000000 0.250000
O O7 0.310211 0.484239 0.906832
O O8 0.364937 0.229333 0.864477
O O9 0.249585 0.250598 0.840808
O O10 0.295063 0.231296 0.000000
O O11 0.441015 0.223752 0.500000
O O12 0.391802 0.313625 0.646211
O O13 0.511770 0.239479 0.635025
O O14 0.430899 0.027163 0.628479
O O15 0.329604 0.500000 0.250000
O O16 0.276588 0.259860 0.320152
O O17 0.427412 0.166045 0.000000
O O18 0.231817 0.000000 0.250000
#
# Coordination Sequence:
#
# PCOD9393772 Si02
#       7
#     8   8   8   8   8   8   8
#     4   8  13  24  44  71 104 136 163 198 250 306
#     4   8  15  27  44  70 104 137 167 204 250 301
#     4  10  20  35  52  72  99 134 176 216 256 309
#     4   9  16  31  53  74  95 123 162 209 262 315
#     4  10  21  34  48  68  98 134 172 212 256 305
#     4   8  16  30  52  77  96 119 158 211 266 314
#     4  10  20  35  52  73 105 140 172 210 257 302
#
# _framework density 19.184263999999999
#
# number of rings (size 3 to 8) (size 9 to 14) (size 15 to 20)
#    0.000    3.000    0.000    3.000    0.000    1.143 
#    0.000   11.429    0.000    7.714    0.000   18.000 
#    0.000   14.857    0.000    0.000    0.000    0.000 
#
# Total GULP energy -312015.347442 kJ/mol
# GULP energy per Si atom -5571.702633 kJ/mol
# Density = 1.914060 g / cm^3
# Si number density = 19.184264 Si / 1000 Ang^3
#
#
#
# Elastic Constant Matrix: (Units=GPa)
#
#
# Indices 1 2 3 4 5 6 
#
# 1 113.7342 24.9530 26.7622 0.0000 0.0000 0.0000
# 2 24.9530 33.3824 5.1771 0.0000 0.0000 0.0000
# 3 26.7622 5.1771 85.9189 0.0000 0.0000 0.0000
# 4 0.0000 0.0000 0.0000 10.7331 0.0000 0.0000
# 5 0.0000 0.0000 0.0000 0.0000 21.0288 0.0000
# 6 0.0000 0.0000 0.0000 0.0000 0.0000 -11.4425
#
#
#
# Elastic Compliance Matrix: (Units=1/GPa)
#
#
# Indices 1 2 3 4 5 6 
#
# 1 0.011245 -0.007937 -0.003025 0.000000 0.000000 0.000000
# 2 -0.007937 0.035840 0.000313 0.000000 0.000000 0.000000
# 3 -0.003025 0.000313 0.012562 0.000000 0.000000 0.000000
# 4 0.000000 0.000000 0.000000 0.093169 0.000000 0.000000
# 5 0.000000 0.000000 0.000000 0.000000 0.047554 0.000000
# 6 0.000000 0.000000 0.000000 0.000000 0.000000 -0.087394
#
#
# Mechanical properties :
#
#
# Convention : Reuss Voigt Hill
#
# Bulk Modulus (GPa) = 26.07547 38.53557 32.30552
# Shear Modulus (GPa) = 34.00021 15.80678 24.90349
#
# Velocity S-wave (km/s) = 4.21443 2.87356 3.60685
# Velocity P-wave (km/s) = 6.10766 5.58036 5.84996
#
# Compressibility (1/GPa) = 0.03835022
#
# Stress axis : x y z
#
# Youngs Moduli (GPa) = 88.92516 27.90174 79.60438
#
# Poissons Ratio (x) = 0.22145 0.24076
# Poissons Ratio (y) = 0.70578 -0.02488
# Poissons Ratio (z) = 0.26895 -0.00872
#
# Static dielectric constant tensor:
#      x y z
#    x 1.659330 0.000000 0.000000 
#    y 0.000000 1.685720 0.000000 
#    z 0.000000 0.000000 1.708820 
# 
# From -- ./inp_files/18283.got.cif
#   From: 2010.05.17/outbox.cif.g08.bks.cpg/sg49_10_cif.got.tgz:18283.got - 2010.06.03 21:02:19.
