data_PCOD9393776
_publ_section_title
;
Structure prediction by ZEFSAII (Michael W. Deem and Ramdas Pophale) SiO2 
 PCOD9393776
Probable space group: P C C M
;
_chemical_formula_sum "Si O2"
_cell_formula_units_Z 64
_cell_length_a 17.805440
_cell_length_b 21.254628
_cell_length_c 8.714635
_cell_angle_alpha 90.000000
_cell_angle_beta 90.000000
_cell_angle_gamma 90.000000
_cell_volume 3298.036218
_symmetry_space_group_name_H-M "P C C M"
_symmetry_group_IT_number 49
_symmetry_cell_setting 'orthorhombic'
loop_
_space_group_symop_operation_xyz
x,y,z
-x,-y,z
x,-y,1/2-z
-x,y,1/2-z
-x,-y,-z
x,y,-z
-x,y,1/2+z
x,-y,1/2+z
loop_
_atom_site_type_symbol
_atom_site_label
_atom_site_fract_x
_atom_site_fract_y
_atom_site_fract_z
Si Si1 0.208024 0.297399 0.682184
Si Si2 0.420785 0.408999 0.821796
Si Si3 0.257027 0.434916 0.683816
Si Si4 0.616425 0.283529 0.822835
Si Si5 0.921338 0.208347 0.683843
Si Si6 0.424372 0.858160 0.822169
Si Si7 0.881454 0.932810 0.183673
Si Si8 0.285633 0.065217 0.685331
O O1 0.192148 0.296344 0.500000
O O2 0.213436 0.371017 0.732585
O O3 0.294241 0.274994 0.702187
O O4 0.148070 0.251687 0.761263
O O5 0.500000 0.429822 0.750000
O O6 0.343825 0.430452 0.739805
O O7 0.415925 0.333850 0.794701
O O8 0.417953 0.425702 0.000000
O O9 0.225582 0.500000 0.750000
O O10 0.257052 0.436245 0.500000
O O11 0.578001 0.216731 0.809530
O O12 0.607605 0.307219 0.000000
O O13 0.922772 0.208682 0.500000
O O14 0.914610 0.134689 0.734256
O O15 0.000000 0.233037 0.750000
O O16 0.500000 0.883809 0.750000
O O17 0.345096 0.883044 0.762864
O O18 0.425523 0.875362 0.000000
O O19 0.795246 0.927689 0.238072
O O20 0.909999 0.000000 0.250000
O O21 0.886363 0.936869 0.000000
O O22 0.276531 0.064647 0.500000
O O23 0.316948 0.000000 0.750000
#
# Coordination Sequence:
#
# PCOD9393776 Si02
#       8
#     8   8   8   8   8   8   8   8
#     4   9  19  37  61  85 114 148 183 226 276 329
#     4  11  21  33  50  75 109 148 187 231 280 331
#     4  10  21  38  59  85 114 148 190 235 282 334
#     4   9  18  34  53  75 102 136 178 223 273 330
#     4  11  24  39  59  88 120 151 186 223 268 324
#     4  10  21  33  47  68  96 131 173 222 277 328
#     4  10  21  37  58  85 113 146 185 225 268 323
#     4  10  20  35  53  72  95 129 172 219 269 323
#
# _framework density 19.405487999999998
#
# number of rings (size 3 to 8) (size 9 to 14) (size 15 to 20)
#    0.000    2.000    0.000    5.250    0.000    8.750 
#    0.000    3.750    0.000    0.375    0.000    2.625 
#    0.000    0.000    0.000    0.000    0.000    0.000 
#
# Total GULP energy -357098.684109 kJ/mol
# GULP energy per Si atom -5579.666939 kJ/mol
# Density = 1.936132 g / cm^3
# Si number density = 19.405488 Si / 1000 Ang^3
#
#
#
# Elastic Constant Matrix: (Units=GPa)
#
#
# Indices 1 2 3 4 5 6 
#
# 1 82.0926 42.4032 24.2368 0.0000 0.0000 0.0000
# 2 42.4032 78.0937 35.8709 0.0000 0.0000 0.0000
# 3 24.2368 35.8709 45.3537 0.0000 0.0000 0.0000
# 4 0.0000 0.0000 0.0000 28.8488 0.0000 0.0000
# 5 0.0000 0.0000 0.0000 0.0000 14.5203 0.0000
# 6 0.0000 0.0000 0.0000 0.0000 0.0000 -7.8477
#
#
#
# Elastic Compliance Matrix: (Units=1/GPa)
#
#
# Indices 1 2 3 4 5 6 
#
# 1 0.017157 -0.008017 -0.002828 0.000000 0.000000 0.000000
# 2 -0.008017 0.023858 -0.014585 0.000000 0.000000 0.000000
# 3 -0.002828 -0.014585 0.035096 0.000000 0.000000 0.000000
# 4 0.000000 0.000000 0.000000 0.034663 0.000000 0.000000
# 5 0.000000 0.000000 0.000000 0.000000 0.068869 0.000000
# 6 0.000000 0.000000 0.000000 0.000000 0.000000 -0.127426
#
#
# Mechanical properties :
#
#
# Convention : Reuss Voigt Hill
#
# Bulk Modulus (GPa) = 39.60324 45.61797 42.61061
# Shear Modulus (GPa) = 44.84561 13.97291 29.40926
#
# Velocity S-wave (km/s) = 4.81248 2.68628 3.89718
# Velocity P-wave (km/s) = 7.16467 5.76023 6.50049
#
# Compressibility (1/GPa) = 0.02525046
#
# Stress axis : x y z
#
# Youngs Moduli (GPa) = 58.28406 41.91541 28.49357
#
# Poissons Ratio (x) = 0.33604 0.08058
# Poissons Ratio (y) = 0.46727 0.41558
# Poissons Ratio (z) = 0.16483 0.61134
#
# Static dielectric constant tensor:
#      x y z
#    x 1.670320 0.000000 0.000000 
#    y 0.000000 1.723280 0.000000 
#    z 0.000000 0.000000 1.673940 
# 
# From -- ./inp_files/5313.got.cif
#   From: 2010.05.17/outbox.cif.g08.bks.cpg/sg49_3_cif.got.tgz:5313.got - 2010.06.03 21:02:19.
