data_PCOD9393092
_publ_section_title
;
Structure prediction by ZEFSAII (Michael W. Deem and Ramdas Pophale) SiO2 
 PCOD9393092
Probable space group: P C C M
;
_chemical_formula_sum "Si O2"
_cell_formula_units_Z 64
_cell_length_a 20.085940
_cell_length_b 21.021509
_cell_length_c 8.775479
_cell_angle_alpha 90.000000
_cell_angle_beta 90.000000
_cell_angle_gamma 90.000000
_cell_volume 3705.329895
_symmetry_space_group_name_H-M "P C C M"
_symmetry_group_IT_number 49
_symmetry_cell_setting 'orthorhombic'
loop_
_space_group_symop_operation_xyz
x,y,z
-x,-y,z
x,-y,1/2-z
-x,y,1/2-z
-x,-y,-z
x,y,-z
-x,y,1/2+z
x,-y,1/2+z
loop_
_atom_site_type_symbol
_atom_site_label
_atom_site_fract_x
_atom_site_fract_y
_atom_site_fract_z
Si Si1 0.930824 0.381727 0.682553
Si Si2 0.930882 0.760411 0.317159
Si Si3 0.788732 0.813689 0.316998
Si Si4 0.570957 0.267770 0.317271
Si Si5 0.706881 0.313843 0.182858
Si Si6 0.786891 0.432514 0.682513
Si Si7 0.570097 0.882113 0.182698
Si Si8 0.712041 0.932935 0.817491
O O1 0.936140 0.378245 0.500000
O O2 0.922642 0.310434 0.748829
O O3 0.864416 0.419946 0.723587
O O4 0.000000 0.407607 0.750000
O O5 0.935253 0.755207 0.500000
O O6 0.865799 0.801116 0.278170
O O7 0.000000 0.786101 0.250000
O O8 0.783645 0.821016 0.500000
O O9 0.747914 0.749986 0.274775
O O10 0.757036 0.874602 0.237908
O O11 0.500000 0.288466 0.250000
O O12 0.570969 0.272748 0.500000
O O13 0.632815 0.305176 0.247216
O O14 0.578627 0.192651 0.276621
O O15 0.743830 0.374774 0.251144
O O16 0.705926 0.318144 0.000000
O O17 0.765730 0.500000 0.750000
O O18 0.781805 0.432782 0.500000
O O19 0.500000 0.904657 0.250000
O O20 0.635974 0.918725 0.234697
O O21 0.566318 0.885868 0.000000
O O22 0.734270 0.000000 0.750000
O O23 0.712266 0.935207 0.000000
#
# Coordination Sequence:
#
# PCOD9393092 Si02
#       8
#     8   8   8   8   8   8   8   8
#     4  10  20  33  52  78 110 148 188 228 274 327
#     4  10  19  33  54  83 113 143 180 226 277 329
#     4  10  21  36  57  83 111 145 185 229 277 329
#     4  10  19  34  55  84 115 145 186 230 280 331
#     4  11  21  36  59  85 113 147 186 233 282 329
#     4  11  24  39  56  80 112 151 191 234 281 334
#     4   9  19  33  51  76 108 146 184 224 267 321
#     4  11  23  38  55  79 111 148 188 230 278 330
#
# _framework density 17.272414999999999
#
# number of rings (size 3 to 8) (size 9 to 14) (size 15 to 20)
#    0.000    1.750    2.500    3.000    0.000    5.000 
#    0.000    2.500    0.000    0.750    0.000    5.250 
#    0.000    0.000    0.000    0.000    0.000    0.000 
#
# Total GULP energy -357455.496046 kJ/mol
# GULP energy per Si atom -5585.242126 kJ/mol
# Density = 1.723310 g / cm^3
# Si number density = 17.272415 Si / 1000 Ang^3
#
#
#
# Elastic Constant Matrix: (Units=GPa)
#
#
# Indices 1 2 3 4 5 6 
#
# 1 130.5841 67.0133 46.0541 0.0000 0.0000 0.0000
# 2 67.0133 115.5933 44.0123 0.0000 0.0000 0.0000
# 3 46.0541 44.0123 50.3592 0.0000 0.0000 0.0000
# 4 0.0000 0.0000 0.0000 13.6521 0.0000 0.0000
# 5 0.0000 0.0000 0.0000 0.0000 30.8834 0.0000
# 6 0.0000 0.0000 0.0000 0.0000 0.0000 19.6126
#
#
#
# Elastic Compliance Matrix: (Units=1/GPa)
#
#
# Indices 1 2 3 4 5 6 
#
# 1 0.012629 -0.004382 -0.007720 0.000000 0.000000 0.000000
# 2 -0.004382 0.014486 -0.008653 0.000000 0.000000 0.000000
# 3 -0.007720 -0.008653 0.034479 0.000000 0.000000 0.000000
# 4 0.000000 0.000000 0.000000 0.073249 0.000000 0.000000
# 5 0.000000 0.000000 0.000000 0.000000 0.032380 0.000000
# 6 0.000000 0.000000 0.000000 0.000000 0.000000 0.050988
#
#
# Mechanical properties :
#
#
# Convention : Reuss Voigt Hill
#
# Bulk Modulus (GPa) = 49.78764 67.85510 58.82137
# Shear Modulus (GPa) = 18.76767 22.12676 20.44721
#
# Velocity S-wave (km/s) = 3.29989 3.58305 3.44438
# Velocity P-wave (km/s) = 6.58837 7.51586 7.06735
#
# Compressibility (1/GPa) = 0.02008531
#
# Stress axis : x y z
#
# Youngs Moduli (GPa) = 79.18011 69.03147 29.00301
#
# Poissons Ratio (x) = 0.30253 0.22389
# Poissons Ratio (y) = 0.34700 0.25095
# Poissons Ratio (z) = 0.61124 0.59730
#
# Static dielectric constant tensor:
#      x y z
#    x 1.588810 0.000000 0.000000 
#    y 0.000000 1.562170 0.000000 
#    z 0.000000 0.000000 1.574760 
# 
# From -- ./inp_files/5969.got.cif
#   From: 2010.05.17/outbox.cif.g08.bks.cpg/sg49_3_cif.got.tgz:5969.got - 2010.06.03 21:02:19.
