data_PCOD9393954
_publ_section_title
;
Structure prediction by ZEFSAII (Michael W. Deem and Ramdas Pophale) SiO2 
 PCOD9393954
Probable space group: P C C M
;
_chemical_formula_sum "Si O2"
_cell_formula_units_Z 52
_cell_length_a 5.136101
_cell_length_b 19.296869
_cell_length_c 22.212357
_cell_angle_alpha 90.000000
_cell_angle_beta 90.000000
_cell_angle_gamma 90.000000
_cell_volume 2201.481544
_symmetry_space_group_name_H-M "P C C M"
_symmetry_group_IT_number 49
_symmetry_cell_setting 'orthorhombic'
loop_
_space_group_symop_operation_xyz
x,y,z
-x,-y,z
x,-y,1/2-z
-x,y,1/2-z
-x,-y,-z
x,y,-z
-x,y,1/2+z
x,-y,1/2+z
loop_
_atom_site_type_symbol
_atom_site_label
_atom_site_fract_x
_atom_site_fract_y
_atom_site_fract_z
Si Si1 0.500000 0.500000 0.866970
Si Si2 0.372865 0.777648 0.812401
Si Si3 0.919484 0.100291 0.430912
Si Si4 0.123195 0.251140 0.110042
Si Si5 0.130385 0.422954 0.307990
Si Si6 0.105727 0.399255 0.933175
Si Si7 0.408402 0.071736 0.647635
O O1 0.568363 0.439764 0.817239
O O2 0.313014 0.457425 0.912436
O O3 0.500000 0.752322 0.750000
O O4 0.599049 0.762429 0.859789
O O5 0.347577 0.861644 0.810856
O O6 0.101235 0.746153 0.837071
O O7 0.908200 0.078835 0.500000
O O8 0.964092 0.183454 0.426844
O O9 0.649299 0.088349 0.396520
O O10 0.154551 0.065437 0.394304
O O11 0.176981 0.318376 0.069555
O O12 0.000000 0.500000 0.308772
O O13 0.000000 0.388344 0.250000
O O14 0.082028 0.398316 0.375712
O O15 0.007216 0.415126 0.000000
O O16 0.500000 0.000000 0.677706
#
# Coordination Sequence:
#
# PCOD9393954 Si02
#       7
#     4   8   8   8   8   8   8
#     4  10  23  43  66  96 133 171 216 276 335 405
#     4  10  22  42  65  89 126 166 214 271 327 390
#     4  10  20  36  56  82 122 166 209 261 318 384
#     4  10  23  41  62  92 123 167 215 270 324 394
#     4   9  21  40  63  91 126 165 208 262 321 388
#     4  11  24  41  65  96 130 171 218 272 339 407
#     4  10  21  35  56  89 122 159 210 262 322 389
#
# _framework density 23.620459
#
# number of rings (size 3 to 8) (size 9 to 14) (size 15 to 20)
#    0.000    2.000    0.000    2.077    2.154   11.692 
#    0.000    1.538    0.000    5.538    0.000    0.000 
#    0.000    0.000    0.000    0.000    0.000    0.000 
#
# Total GULP energy -289490.233434 kJ/mol
# GULP energy per Si atom -5567.119874 kJ/mol
# Density = 2.356670 g / cm^3
# Si number density = 23.620459 Si / 1000 Ang^3
#
#
#
# Elastic Constant Matrix: (Units=GPa)
#
#
# Indices 1 2 3 4 5 6 
#
# 1 79.1837 6.0801 -2.3629 0.0000 0.0000 0.0000
# 2 6.0801 110.5592 18.3659 0.0000 0.0000 0.0000
# 3 -2.3629 18.3659 121.8003 0.0000 0.0000 0.0000
# 4 0.0000 0.0000 0.0000 -1.4714 0.0000 0.0000
# 5 0.0000 0.0000 0.0000 0.0000 40.3148 0.0000
# 6 0.0000 0.0000 0.0000 0.0000 0.0000 9.2569
#
#
#
# Elastic Compliance Matrix: (Units=1/GPa)
#
#
# Indices 1 2 3 4 5 6 
#
# 1 0.012698 -0.000758 0.000361 0.000000 0.000000 0.000000
# 2 -0.000758 0.009323 -0.001420 0.000000 0.000000 0.000000
# 3 0.000361 -0.001420 0.008431 0.000000 0.000000 0.000000
# 4 0.000000 0.000000 0.000000 -0.679604 0.000000 0.000000
# 5 0.000000 0.000000 0.000000 0.000000 0.024805 0.000000
# 6 0.000000 0.000000 0.000000 0.000000 0.000000 0.108027
#
#
# Mechanical properties :
#
#
# Convention : Reuss Voigt Hill
#
# Bulk Modulus (GPa) = 37.29147 39.52328 38.40738
# Shear Modulus (GPa) = -9.92564 28.91740 9.49588
#
# Velocity S-wave (km/s) = -2.05214 3.50273 2.00722
# Velocity P-wave (km/s) = 3.19485 5.75567 4.65483
#
# Compressibility (1/GPa) = 0.02681578
#
# Stress axis : x y z
#
# Youngs Moduli (GPa) = 78.75351 107.26640 118.60516
#
# Poissons Ratio (x) = 0.08133 -0.04278
# Poissons Ratio (y) = 0.05971 0.16847
# Poissons Ratio (z) = -0.02840 0.15236
#
# Static dielectric constant tensor:
#      x y z
#    x 1.946640 0.000000 0.000000 
#    y 0.000000 2.354830 0.000000 
#    z 0.000000 0.000000 1.891050 
# 
# From -- ./inp_files/19001.got.cif
#   From: 2010.05.17/outbox.cif.g08.bks.cpg/sg49_10_cif.got.tgz:19001.got - 2010.06.03 21:02:19.
