data_PCOD9393464
_publ_section_title
;
Structure prediction by ZEFSAII (Michael W. Deem and Ramdas Pophale) SiO2 
 PCOD9393464
Probable space group: P C C M
;
_chemical_formula_sum "Si O2"
_cell_formula_units_Z 64
_cell_length_a 26.988506
_cell_length_b 8.995874
_cell_length_c 14.927303
_cell_angle_alpha 90.000000
_cell_angle_beta 90.000000
_cell_angle_gamma 90.000000
_cell_volume 3624.128236
_symmetry_space_group_name_H-M "P C C M"
_symmetry_group_IT_number 49
_symmetry_cell_setting 'orthorhombic'
loop_
_space_group_symop_operation_xyz
x,y,z
-x,-y,z
x,-y,1/2-z
-x,y,1/2-z
-x,-y,-z
x,y,-z
-x,y,1/2+z
x,-y,1/2+z
loop_
_atom_site_type_symbol
_atom_site_label
_atom_site_fract_x
_atom_site_fract_y
_atom_site_fract_z
Si Si1 0.000000 0.319180 0.397160
Si Si2 0.812714 0.178612 0.750000
Si Si3 0.920335 0.320557 0.250000
Si Si4 0.372330 0.676341 0.106079
Si Si5 0.557839 0.822094 0.750000
Si Si6 0.731920 0.176933 0.105103
Si Si7 0.268080 0.823067 0.605103
Si Si8 0.627670 0.676341 0.106079
O O1 0.000000 0.266696 0.500000
O O2 0.047744 0.275509 0.337742
O O3 0.000000 0.500000 0.399410
O O4 0.952256 0.275509 0.337742
O O5 0.865887 0.253930 0.750000
O O6 0.778951 0.219466 0.835477
O O7 0.778951 0.219466 0.664523
O O8 0.819043 0.000000 0.750000
O O9 0.917772 0.500000 0.250000
O O10 0.413876 0.756416 0.164234
O O11 0.318130 0.738349 0.131527
O O12 0.374165 0.500000 0.121044
O O13 0.378787 0.705195 0.000000
O O14 0.500000 0.781316 0.750000
O O15 0.586124 0.756416 0.835766
O O16 0.561879 0.000000 0.750000
O O17 0.723516 0.000000 0.117612
O O18 0.740947 0.204167 0.000000
O O19 0.259053 0.795833 0.500000
O O20 0.318130 0.738349 0.631527
O O21 0.621213 0.705195 0.000000
#
# Coordination Sequence:
#
# PCOD9393464 Si02
#       8
#     8   8   8   8   8   8   8   8
#     4   8  15  31  52  70  92 124 162 204 248 294
#     4  10  20  32  47  71 105 137 163 202 253 296
#     4   9  18  31  49  73  95 122 164 205 244 295
#     4  10  21  37  58  83 109 137 172 219 271 316
#     4  11  24  39  56  79 106 140 181 219 258 312
#     4   9  18  33  52  73 100 137 175 205 242 302
#     4   9  18  33  52  73 100 137 175 205 242 302
#     4  10  21  37  58  83 109 137 172 219 271 316
#
# _framework density 17.659420000000001
#
# number of rings (size 3 to 8) (size 9 to 14) (size 15 to 20)
#    0.000    2.500    0.000    2.625    0.000    6.000 
#    0.000    3.750    0.000    0.750    0.000    0.000 
#    0.000    0.000    0.000    0.000    0.000    0.000 
#
# Total GULP energy -357145.156180 kJ/mol
# GULP energy per Si atom -5580.393065 kJ/mol
# Density = 1.761923 g / cm^3
# Si number density = 17.659420 Si / 1000 Ang^3
#
#
#
# Elastic Constant Matrix: (Units=GPa)
#
#
# Indices 1 2 3 4 5 6 
#
# 1 202.7633 67.6405 102.0148 0.0000 0.0000 0.0000
# 2 67.6405 37.6114 48.3613 0.0000 0.0000 0.0000
# 3 102.0148 48.3613 123.6546 0.0000 0.0000 0.0000
# 4 0.0000 0.0000 0.0000 7.2346 0.0000 0.0000
# 5 0.0000 0.0000 0.0000 0.0000 379.1242 0.0000
# 6 0.0000 0.0000 0.0000 0.0000 0.0000 41.1626
#
#
#
# Elastic Compliance Matrix: (Units=1/GPa)
#
#
# Indices 1 2 3 4 5 6 
#
# 1 0.012914 -0.019161 -0.003160 0.000000 0.000000 0.000000
# 2 -0.019161 0.081914 -0.016229 0.000000 0.000000 0.000000
# 3 -0.003160 -0.016229 0.017041 0.000000 0.000000 0.000000
# 4 0.000000 0.000000 0.000000 0.138225 0.000000 0.000000
# 5 0.000000 0.000000 0.000000 0.000000 0.002638 0.000000
# 6 0.000000 0.000000 0.000000 0.000000 0.000000 0.024294
#
#
# Mechanical properties :
#
#
# Convention : Reuss Voigt Hill
#
# Bulk Modulus (GPa) = 28.76099 88.89583 58.82841
# Shear Modulus (GPa) = 13.67187 95.23845 54.45516
#
# Velocity S-wave (km/s) = 2.78546 7.35172 5.55907
# Velocity P-wave (km/s) = 5.16400 11.06851 8.63652
#
# Compressibility (1/GPa) = 0.03476932
#
# Stress axis : x y z
#
# Youngs Moduli (GPa) = 77.43780 12.20795 58.68169
#
# Poissons Ratio (x) = 0.23391 0.18543
# Poissons Ratio (y) = 1.48377 0.95234
# Poissons Ratio (z) = 0.24470 0.19812
#
# Static dielectric constant tensor:
#      x y z
#    x 1.561070 0.000000 0.000000 
#    y 0.000000 1.588800 0.000000 
#    z 0.000000 0.000000 1.616940 
# 
# From -- ./inp_files/14543.got.cif
#   From: 2010.05.17/outbox.cif.g08.bks.cpg/sg49_8_cif.got.tgz:14543.got - 2010.06.03 21:02:19.
