data_PCOD9393822
_publ_section_title
;
Structure prediction by ZEFSAII (Michael W. Deem and Ramdas Pophale) SiO2 
 PCOD9393822
Probable space group: P C C M
;
_chemical_formula_sum "Si O2"
_cell_formula_units_Z 58
_cell_length_a 18.183833
_cell_length_b 17.770211
_cell_length_c 9.548680
_cell_angle_alpha 90.000000
_cell_angle_beta 90.000000
_cell_angle_gamma 90.000000
_cell_volume 3085.470213
_symmetry_space_group_name_H-M "P C C M"
_symmetry_group_IT_number 49
_symmetry_cell_setting 'orthorhombic'
loop_
_space_group_symop_operation_xyz
x,y,z
-x,-y,z
x,-y,1/2-z
-x,y,1/2-z
-x,-y,-z
x,y,-z
-x,y,1/2+z
x,-y,1/2+z
loop_
_atom_site_type_symbol
_atom_site_label
_atom_site_fract_x
_atom_site_fract_y
_atom_site_fract_z
Si Si1 0.930095 0.853563 0.839559
Si Si2 0.427919 0.281104 0.331891
Si Si3 0.500000 0.000000 0.750000
Si Si4 0.929408 0.672599 0.161941
Si Si5 0.657329 0.570689 0.341088
Si Si6 0.225073 0.923185 0.333352
Si Si7 0.609629 0.132680 0.661326
Si Si8 0.166074 0.572078 0.161717
O O1 0.930870 0.762912 0.838745
O O2 0.848894 0.878550 0.791530
O O3 0.000000 0.880289 0.750000
O O4 0.939824 0.878736 0.000000
O O5 0.500000 0.307481 0.250000
O O6 0.436930 0.275562 0.500000
O O7 0.368245 0.345752 0.299759
O O8 0.411332 0.199061 0.267629
O O9 0.443281 0.940836 0.676407
O O10 0.860645 0.643178 0.249841
O O11 0.000000 0.645597 0.250000
O O12 0.929198 0.647199 0.000000
O O13 0.631187 0.500000 0.250000
O O14 0.631644 0.558988 0.500000
O O15 0.745766 0.569573 0.340079
O O16 0.220580 0.935997 0.500000
O O17 0.304856 0.886103 0.310083
O O18 0.224458 0.000000 0.250000
O O19 0.602774 0.158806 0.500000
O O20 0.139141 0.500000 0.250000
O O21 0.140624 0.572662 0.000000
#
# Coordination Sequence:
#
# PCOD9393822 Si02
#       8
#     8   8   2   8   8   8   8   8
#     4   9  20  38  59  83 116 152 194 239 292 352
#     4  11  24  41  61  90 123 155 199 246 294 353
#     4  12  22  40  68  90 126 160 210 244 310 356
#     4  10  20  35  55  80 110 147 189 235 287 343
#     4   9  21  40  61  87 119 156 196 242 295 352
#     4  10  22  40  59  87 119 153 196 243 293 354
#     4  11  24  40  62  91 124 161 202 250 305 360
#     4  10  20  36  56  81 112 147 189 235 286 343
#
# _framework density 18.797782999999999
#
# number of rings (size 3 to 8) (size 9 to 14) (size 15 to 20)
#    0.000    1.931    1.379    1.448    1.931    4.690 
#    0.000    4.138    0.000    0.000    0.000    0.000 
#    0.000    0.000    0.000    0.000    0.000    0.000 
#
# Total GULP energy -323280.107264 kJ/mol
# GULP energy per Si atom -5573.794953 kJ/mol
# Density = 1.875500 g / cm^3
# Si number density = 18.797783 Si / 1000 Ang^3
#
#
#
# Elastic Constant Matrix: (Units=GPa)
#
#
# Indices 1 2 3 4 5 6 
#
# 1 81.3921 18.7201 44.2970 0.0000 0.0000 0.0000
# 2 18.7201 62.0951 45.5699 0.0000 0.0000 0.0000
# 3 44.2970 45.5699 105.7942 0.0000 0.0000 0.0000
# 4 0.0000 0.0000 0.0000 29.8400 0.0000 0.0000
# 5 0.0000 0.0000 0.0000 0.0000 25.5351 0.0000
# 6 0.0000 0.0000 0.0000 0.0000 0.0000 26.8499
#
#
#
# Elastic Compliance Matrix: (Units=1/GPa)
#
#
# Indices 1 2 3 4 5 6 
#
# 1 0.015913 0.000135 -0.006721 0.000000 0.000000 0.000000
# 2 0.000135 0.023549 -0.010200 0.000000 0.000000 0.000000
# 3 -0.006721 -0.010200 0.016660 0.000000 0.000000 0.000000
# 4 0.000000 0.000000 0.000000 0.033512 0.000000 0.000000
# 5 0.000000 0.000000 0.000000 0.000000 0.039162 0.000000
# 6 0.000000 0.000000 0.000000 0.000000 0.000000 0.037244
#
#
# Mechanical properties :
#
#
# Convention : Reuss Voigt Hill
#
# Bulk Modulus (GPa) = 44.34594 51.82838 48.08716
# Shear Modulus (GPa) = 24.13949 25.82463 24.98206
#
# Velocity S-wave (km/s) = 3.58742 3.71052 3.64949
# Velocity P-wave (km/s) = 6.38762 6.78149 6.58750
#
# Compressibility (1/GPa) = 0.02254998
#
# Stress axis : x y z
#
# Youngs Moduli (GPa) = 62.84149 42.46421 60.02353
#
# Poissons Ratio (x) = -0.00574 0.40343
# Poissons Ratio (y) = -0.00849 0.61225
# Poissons Ratio (z) = 0.42236 0.43314
#
# Static dielectric constant tensor:
#      x y z
#    x 1.699130 0.000000 0.000000 
#    y 0.000000 1.643030 0.000000 
#    z 0.000000 0.000000 1.647550 
# 
# From -- ./inp_files/5095.got.cif
#   From: 2010.05.17/outbox.cif.g08.bks.cpg/sg49_3_cif.got.tgz:5095.got - 2010.06.03 21:02:19.
