data_PCOD9393430
_publ_section_title
;
Structure prediction by ZEFSAII (Michael W. Deem and Ramdas Pophale) SiO2 
 PCOD9393430
Probable space group: P C C M
;
_chemical_formula_sum "Si O2"
_cell_formula_units_Z 56
_cell_length_a 15.686904
_cell_length_b 20.669421
_cell_length_c 9.044761
_cell_angle_alpha 90.000000
_cell_angle_beta 90.000000
_cell_angle_gamma 90.000000
_cell_volume 2932.666279
_symmetry_space_group_name_H-M "P C C M"
_symmetry_group_IT_number 49
_symmetry_cell_setting 'orthorhombic'
loop_
_space_group_symop_operation_xyz
x,y,z
-x,-y,z
x,-y,1/2-z
-x,y,1/2-z
-x,-y,-z
x,y,-z
-x,y,1/2+z
x,-y,1/2+z
loop_
_atom_site_type_symbol
_atom_site_label
_atom_site_fract_x
_atom_site_fract_y
_atom_site_fract_z
Si Si1 0.915217 0.103295 0.674628
Si Si2 0.324706 0.196007 0.327564
Si Si3 0.411139 0.325992 0.678495
Si Si4 0.087041 0.617972 0.823039
Si Si5 0.872752 0.766654 0.328774
Si Si6 0.275826 0.934152 0.323030
Si Si7 0.270993 0.432727 0.678495
O O1 0.922449 0.096660 0.500000
O O2 0.908273 0.178495 0.721798
O O3 0.824215 0.074001 0.722301
O O4 0.000000 0.076338 0.750000
O O5 0.341686 0.180925 0.500000
O O6 0.387097 0.252785 0.275759
O O7 0.229718 0.226999 0.322044
O O8 0.322349 0.130190 0.235190
O O9 0.500000 0.345817 0.750000
O O10 0.416854 0.326305 0.500000
O O11 0.335115 0.374915 0.719617
O O12 0.099064 0.694466 0.790462
O O13 0.174153 0.583525 0.774193
O O14 0.000000 0.594303 0.750000
O O15 0.080842 0.611751 0.000000
O O16 0.897498 0.780476 0.500000
O O17 0.279576 0.937420 0.500000
O O18 0.308363 0.000000 0.250000
O O19 0.298189 0.500000 0.750000
O O20 0.271370 0.437240 0.500000
#
# Coordination Sequence:
#
# PCOD9393430 Si02
#       7
#     8   8   8   8   8   8   8
#     4  10  20  31  44  68 102 139 183 235 284 333
#     4   9  17  34  59  82 109 147 184 226 282 338
#     4  10  21  39  64  92 120 150 187 232 286 348
#     4  10  20  34  53  78 110 149 194 240 285 336
#     4   9  16  30  52  74 101 140 183 230 283 335
#     4  10  21  35  52  77 108 145 189 233 280 338
#     4  10  22  41  60  82 117 157 195 236 287 343
#
# _framework density 19.095251000000001
#
# number of rings (size 3 to 8) (size 9 to 14) (size 15 to 20)
#    0.000    2.286    1.429    1.286    0.000    6.000 
#    0.000    4.286    0.000    0.429    0.000    3.000 
#    0.000    0.000    0.000    0.000    0.000    0.000 
#
# Total GULP energy -312610.096713 kJ/mol
# GULP energy per Si atom -5582.323156 kJ/mol
# Density = 1.905179 g / cm^3
# Si number density = 19.095251 Si / 1000 Ang^3
#
#
#
# Elastic Constant Matrix: (Units=GPa)
#
#
# Indices 1 2 3 4 5 6 
#
# 1 82.5496 39.4549 21.7442 0.0000 0.0000 0.0000
# 2 39.4549 110.2014 33.5757 0.0000 0.0000 0.0000
# 3 21.7442 33.5757 20.2027 0.0000 0.0000 0.0000
# 4 0.0000 0.0000 0.0000 22.6295 0.0000 0.0000
# 5 0.0000 0.0000 0.0000 0.0000 -0.6448 0.0000
# 6 0.0000 0.0000 0.0000 0.0000 0.0000 -2.4453
#
#
#
# Elastic Compliance Matrix: (Units=1/GPa)
#
#
# Indices 1 2 3 4 5 6 
#
# 1 0.016965 -0.001035 -0.016540 0.000000 0.000000 0.000000
# 2 -0.001035 0.018445 -0.029541 0.000000 0.000000 0.000000
# 3 -0.016540 -0.029541 0.116397 0.000000 0.000000 0.000000
# 4 0.000000 0.000000 0.000000 0.044190 0.000000 0.000000
# 5 0.000000 0.000000 0.000000 0.000000 -1.550845 0.000000
# 6 0.000000 0.000000 0.000000 0.000000 0.000000 -0.408952
#
#
# Mechanical properties :
#
#
# Convention : Reuss Voigt Hill
#
# Bulk Modulus (GPa) = 17.36879 44.72258 31.04568
# Shear Modulus (GPa) = -3.02961 11.78648 4.37843
#
# Velocity S-wave (km/s) = -1.26096 2.48714 1.51589
# Velocity P-wave (km/s) = 2.64492 5.63200 4.39972
#
# Compressibility (1/GPa) = 0.05757455
#
# Stress axis : x y z
#
# Youngs Moduli (GPa) = 58.94396 54.21468 8.59132
#
# Poissons Ratio (x) = 0.05609 0.14210
# Poissons Ratio (y) = 0.06098 0.25380
# Poissons Ratio (z) = 0.97496 1.60157
#
# Static dielectric constant tensor:
#      x y z
#    x 1.675220 0.000000 0.000000 
#    y 0.000000 1.657700 0.000000 
#    z 0.000000 0.000000 1.640140 
# 
# From -- ./inp_files/4008.got.cif
#   From: 2010.05.17/outbox.cif.g08.bks.cpg/sg49_3_cif.got.tgz:4008.got - 2010.06.03 21:02:19.
