data_PCOD9393001
_publ_section_title
;
Structure prediction by ZEFSAII (Michael W. Deem and Ramdas Pophale) SiO2 
 PCOD9393001
Probable space group: P C C M
;
_chemical_formula_sum "Si O2"
_cell_formula_units_Z 64
_cell_length_a 16.282124
_cell_length_b 23.100876
_cell_length_c 8.572745
_cell_angle_alpha 90.000000
_cell_angle_beta 90.000000
_cell_angle_gamma 90.000000
_cell_volume 3224.477958
_symmetry_space_group_name_H-M "P C C M"
_symmetry_group_IT_number 49
_symmetry_cell_setting 'orthorhombic'
loop_
_space_group_symop_operation_xyz
x,y,z
-x,-y,z
x,-y,1/2-z
-x,y,1/2-z
-x,-y,-z
x,y,-z
-x,y,1/2+z
x,-y,1/2+z
loop_
_atom_site_type_symbol
_atom_site_label
_atom_site_fract_x
_atom_site_fract_y
_atom_site_fract_z
Si Si1 0.310133 0.439096 0.179381
Si Si2 0.086211 0.181532 0.813340
Si Si3 0.873439 0.311352 0.313599
Si Si4 0.583879 0.344055 0.179855
Si Si5 0.744738 0.140632 0.181591
Si Si6 0.301607 0.258893 0.179873
Si Si7 0.411939 0.934410 0.811750
Si Si8 0.112135 0.437877 0.178167
O O1 0.336723 0.500000 0.250000
O O2 0.347157 0.391773 0.292783
O O3 0.211456 0.438514 0.176259
O O4 0.337561 0.429664 0.000000
O O5 0.094297 0.248926 0.754476
O O6 0.165881 0.144679 0.762434
O O7 0.000000 0.158502 0.750000
O O8 0.085421 0.183959 0.000000
O O9 0.889517 0.313486 0.500000
O O10 0.775020 0.302850 0.297598
O O11 0.904503 0.373514 0.249405
O O12 0.500000 0.367269 0.250000
O O13 0.614122 0.290061 0.281701
O O14 0.576231 0.328667 0.000000
O O15 0.711114 0.205316 0.207259
O O16 0.670866 0.099301 0.239399
O O17 0.757813 0.127939 0.000000
O O18 0.296907 0.239490 0.000000
O O19 0.500000 0.910722 0.750000
O O20 0.406467 0.000000 0.750000
O O21 0.414695 0.933813 0.000000
O O22 0.088127 0.500000 0.250000
O O23 0.081836 0.437703 0.000000
#
# Coordination Sequence:
#
# PCOD9393001 Si02
#       8
#     8   8   8   8   8   8   8   8
#     4  10  19  33  50  67  89 118 159 213 271 336
#     4  10  20  35  58  86 117 156 198 246 303 359
#     4   8  15  30  51  72  98 133 169 214 274 336
#     4  12  24  36  49  66  91 127 169 218 277 339
#     4  10  21  37  58  89 123 159 201 246 290 345
#     4  10  19  35  54  74 101 136 176 223 277 335
#     4  10  21  37  61  91 128 167 209 253 293 338
#     4   9  16  28  46  69  95 122 161 213 270 339
#
# _framework density 19.848174
#
# number of rings (size 3 to 8) (size 9 to 14) (size 15 to 20)
#    0.000    2.125    1.250    4.125    0.000    3.250 
#    0.000    3.750    0.000    0.750    0.000    5.250 
#    0.000    0.000    0.000    0.000    0.000    0.000 
#
# Total GULP energy -356696.878426 kJ/mol
# GULP energy per Si atom -5573.388725 kJ/mol
# Density = 1.980300 g / cm^3
# Si number density = 19.848174 Si / 1000 Ang^3
#
#
#
# Elastic Constant Matrix: (Units=GPa)
#
#
# Indices 1 2 3 4 5 6 
#
# 1 111.2664 43.2296 33.1542 0.0000 0.0000 0.0000
# 2 43.2296 58.6117 9.0411 0.0000 0.0000 0.0000
# 3 33.1542 9.0411 46.4837 0.0000 0.0000 0.0000
# 4 0.0000 0.0000 0.0000 19.0305 0.0000 0.0000
# 5 0.0000 0.0000 0.0000 0.0000 8.0268 0.0000
# 6 0.0000 0.0000 0.0000 0.0000 0.0000 -0.7550
#
#
#
# Elastic Compliance Matrix: (Units=1/GPa)
#
#
# Indices 1 2 3 4 5 6 
#
# 1 0.015668 -0.010136 -0.009204 0.000000 0.000000 0.000000
# 2 -0.010136 0.024147 0.002533 0.000000 0.000000 0.000000
# 3 -0.009204 0.002533 0.027585 0.000000 0.000000 0.000000
# 4 0.000000 0.000000 0.000000 0.052547 0.000000 0.000000
# 5 0.000000 0.000000 0.000000 0.000000 0.124583 0.000000
# 6 0.000000 0.000000 0.000000 0.000000 0.000000 -1.324527
#
#
# Mechanical properties :
#
#
# Convention : Reuss Voigt Hill
#
# Bulk Modulus (GPa) = 29.59815 43.02351 36.31083
# Shear Modulus (GPa) = -4.83035 13.98958 4.57962
#
# Velocity S-wave (km/s) = -1.56171 2.65774 1.52064
# Velocity P-wave (km/s) = 3.41946 5.58046 4.62786
#
# Compressibility (1/GPa) = 0.03378590
#
# Stress axis : x y z
#
# Youngs Moduli (GPa) = 63.82386 41.41308 36.25202
#
# Poissons Ratio (x) = 0.41978 0.33365
# Poissons Ratio (y) = 0.64695 -0.09183
# Poissons Ratio (z) = 0.58741 -0.10491
#
# Static dielectric constant tensor:
#      x y z
#    x 1.729360 0.000000 0.000000 
#    y 0.000000 1.717620 0.000000 
#    z 0.000000 0.000000 1.692150 
# 
# From -- ./inp_files/4418.got.cif
#   From: 2010.05.17/outbox.cif.g08.bks.cpg/sg49_3_cif.got.tgz:4418.got - 2010.06.03 21:02:19.
