data_PCOD9393741
_publ_section_title
;
Structure prediction by ZEFSAII (Michael W. Deem and Ramdas Pophale) SiO2 
 PCOD9393741
Probable space group: P C C M
;
_chemical_formula_sum "Si O2"
_cell_formula_units_Z 40
_cell_length_a 11.350205
_cell_length_b 8.636959
_cell_length_c 22.841837
_cell_angle_alpha 90.000000
_cell_angle_beta 90.000000
_cell_angle_gamma 90.000000
_cell_volume 2239.213953
_symmetry_space_group_name_H-M "P C C M"
_symmetry_group_IT_number 49
_symmetry_cell_setting 'orthorhombic'
loop_
_space_group_symop_operation_xyz
x,y,z
-x,-y,z
x,-y,1/2-z
-x,y,1/2-z
-x,-y,-z
x,y,-z
-x,y,1/2+z
x,-y,1/2+z
loop_
_atom_site_type_symbol
_atom_site_label
_atom_site_fract_x
_atom_site_fract_y
_atom_site_fract_z
Si Si1 0.746015 0.173538 0.125091
Si Si2 0.367458 0.320507 0.267697
Si Si3 0.797435 0.077964 0.000000
Si Si4 0.179517 0.888307 0.699813
Si Si5 0.995243 0.675088 0.127312
Si Si6 0.940319 0.768473 0.000000
O O1 0.658981 0.277882 0.164375
O O2 0.873727 0.255841 0.127658
O O3 0.758196 0.006072 0.155305
O O4 0.728338 0.136442 0.056997
O O5 0.351944 0.500000 0.250000
O O6 0.500000 0.276534 0.250000
O O7 0.274056 0.221315 0.230972
O O8 0.929644 0.152013 0.000000
O O9 0.835756 0.896497 0.000000
O O10 0.083898 0.786360 0.666812
O O11 0.129372 0.000000 0.750000
O O12 0.000000 0.500000 0.149368
O O13 0.941098 0.677133 0.061343
#
# Coordination Sequence:
#
# PCOD9393741 Si02
#       6
#     8   8   4   8   8   4
#     4  10  20  34  57  81 110 147 181 225 269 323
#     4  10  22  40  59  78 104 140 184 233 283 330
#     4   9  16  32  54  81 113 144 186 221 268 323
#     4  10  21  34  52  76 106 143 185 225 272 325
#     4  11  20  32  51  82 117 146 181 221 274 331
#     4   9  17  30  52  77 114 153 179 217 265 327
#
# _framework density 17.863412
#
# number of rings (size 3 to 8) (size 9 to 14) (size 15 to 20)
#    0.000    2.000    2.000    2.100    0.000    9.200 
#    0.000    5.000    0.000    6.000    0.000    0.000 
#    0.000    0.000    0.000    0.000    0.000    0.000 
#
# Total GULP energy -223071.720235 kJ/mol
# GULP energy per Si atom -5576.793006 kJ/mol
# Density = 1.782275 g / cm^3
# Si number density = 17.863412 Si / 1000 Ang^3
#
#
#
# Elastic Constant Matrix: (Units=GPa)
#
#
# Indices 1 2 3 4 5 6 
#
# 1 73.9619 23.7211 44.2445 0.0000 0.0000 0.0000
# 2 23.7211 80.6539 36.9273 0.0000 0.0000 0.0000
# 3 44.2445 36.9273 147.9662 0.0000 0.0000 0.0000
# 4 0.0000 0.0000 0.0000 22.3573 0.0000 0.0000
# 5 0.0000 0.0000 0.0000 0.0000 19.0620 0.0000
# 6 0.0000 0.0000 0.0000 0.0000 0.0000 275.4924
#
#
#
# Elastic Compliance Matrix: (Units=1/GPa)
#
#
# Indices 1 2 3 4 5 6 
#
# 1 0.017099 -0.003035 -0.004356 0.000000 0.000000 0.000000
# 2 -0.003035 0.014537 -0.002720 0.000000 0.000000 0.000000
# 3 -0.004356 -0.002720 0.008740 0.000000 0.000000 0.000000
# 4 0.000000 0.000000 0.000000 0.044728 0.000000 0.000000
# 5 0.000000 0.000000 0.000000 0.000000 0.052460 0.000000
# 6 0.000000 0.000000 0.000000 0.000000 0.000000 0.003630
#
#
# Mechanical properties :
#
#
# Convention : Reuss Voigt Hill
#
# Bulk Modulus (GPa) = 49.61795 56.92976 53.27385
# Shear Modulus (GPa) = 29.73820 76.56161 53.14991
#
# Velocity S-wave (km/s) = 4.08457 6.55382 5.46059
# Velocity P-wave (km/s) = 7.07683 9.44503 8.34536
#
# Compressibility (1/GPa) = 0.02015400
#
# Stress axis : x y z
#
# Youngs Moduli (GPa) = 58.48160 68.79104 114.42136
#
# Poissons Ratio (x) = 0.20877 0.49838
# Poissons Ratio (y) = 0.17748 0.31127
# Poissons Ratio (z) = 0.25472 0.18714
#
# Static dielectric constant tensor:
#      x y z
#    x 1.576230 0.000000 0.000000 
#    y 0.000000 1.616750 0.000000 
#    z 0.000000 0.000000 1.655770 
# 
# From -- ./inp_files/20357.got.cif
#   From: 2010.05.17/outbox.cif.g08.bks.cpg/sg49_11_cif.got.tgz:20357.got - 2010.06.03 21:02:19.
