data_PCOD9393680
_publ_section_title
;
Structure prediction by ZEFSAII (Michael W. Deem and Ramdas Pophale) SiO2 
 PCOD9393680
Probable space group: P C C M
;
_chemical_formula_sum "Si O2"
_cell_formula_units_Z 64
_cell_length_a 25.087311
_cell_length_b 15.654942
_cell_length_c 8.715441
_cell_angle_alpha 90.000000
_cell_angle_beta 90.000000
_cell_angle_gamma 90.000000
_cell_volume 3422.905773
_symmetry_space_group_name_H-M "P C C M"
_symmetry_group_IT_number 49
_symmetry_cell_setting 'orthorhombic'
loop_
_space_group_symop_operation_xyz
x,y,z
-x,-y,z
x,-y,1/2-z
-x,y,1/2-z
-x,-y,-z
x,y,-z
-x,y,1/2+z
x,-y,1/2+z
loop_
_atom_site_type_symbol
_atom_site_label
_atom_site_fract_x
_atom_site_fract_y
_atom_site_fract_z
Si Si1 0.289259 0.628403 0.680646
Si Si2 0.442820 0.766528 0.682998
Si Si3 0.142033 0.222163 0.317166
Si Si4 0.174009 0.412775 0.684137
Si Si5 0.597503 0.588674 0.317898
Si Si6 0.635066 0.091645 0.818676
Si Si7 0.264006 0.805907 0.181233
Si Si8 0.941054 0.091280 0.317670
O O1 0.294866 0.610844 0.500000
O O2 0.233242 0.594266 0.744656
O O3 0.340103 0.594261 0.771737
O O4 0.285905 0.729407 0.714695
O O5 0.500000 0.792114 0.750000
O O6 0.443816 0.764992 0.500000
O O7 0.429034 0.672274 0.745096
O O8 0.399126 0.833637 0.741566
O O9 0.132423 0.216387 0.500000
O O10 0.145109 0.323124 0.276613
O O11 0.201405 0.184977 0.287193
O O12 0.098358 0.166936 0.230649
O O13 0.149399 0.500000 0.750000
O O14 0.177942 0.417164 0.500000
O O15 0.576066 0.500000 0.250000
O O16 0.591654 0.590463 0.500000
O O17 0.697565 0.114088 0.795809
O O18 0.622000 0.000000 0.750000
O O19 0.624598 0.092768 0.000000
O O20 0.268451 0.780034 0.000000
O O21 0.944464 0.084358 0.500000
O O22 0.000000 0.106506 0.250000
O O23 0.922368 0.000000 0.250000
#
# Coordination Sequence:
#
# PCOD9393680 Si02
#       8
#     8   8   8   8   8   8   8   8
#     4  11  20  32  54  83 116 155 197 239 287 345
#     4  12  26  46  68  91 116 150 192 242 298 355
#     4   9  19  36  57  86 122 161 199 244 294 349
#     4  10  20  34  53  80 119 161 201 246 293 344
#     4  12  24  40  61  88 119 153 193 239 291 350
#     4  11  23  41  65  92 122 157 195 242 293 353
#     4   9  19  36  58  84 121 160 194 236 292 347
#     4  11  22  38  61  87 117 155 199 251 301 355
#
# _framework density 18.697564
#
# number of rings (size 3 to 8) (size 9 to 14) (size 15 to 20)
#    0.000    1.375    1.250    6.750    0.000    4.000 
#    0.000    3.750    0.000    0.375    0.000    2.625 
#    0.000    0.000    0.000    0.000    0.000    0.000 
#
# Total GULP energy -357682.794456 kJ/mol
# GULP energy per Si atom -5588.793663 kJ/mol
# Density = 1.865501 g / cm^3
# Si number density = 18.697564 Si / 1000 Ang^3
#
#
#
# Elastic Constant Matrix: (Units=GPa)
#
#
# Indices 1 2 3 4 5 6 
#
# 1 69.3921 53.2964 41.6022 0.0000 0.0000 0.0000
# 2 53.2964 124.4706 63.4805 0.0000 0.0000 0.0000
# 3 41.6022 63.4805 134.9189 0.0000 0.0000 0.0000
# 4 0.0000 0.0000 0.0000 33.6258 0.0000 0.0000
# 5 0.0000 0.0000 0.0000 0.0000 29.2046 0.0000
# 6 0.0000 0.0000 0.0000 0.0000 0.0000 -8.4359
#
#
#
# Elastic Compliance Matrix: (Units=1/GPa)
#
#
# Indices 1 2 3 4 5 6 
#
# 1 0.022450 -0.008003 -0.003157 0.000000 0.000000 0.000000
# 2 -0.008003 0.013423 -0.003848 0.000000 0.000000 0.000000
# 3 -0.003157 -0.003848 0.010196 0.000000 0.000000 0.000000
# 4 0.000000 0.000000 0.000000 0.029739 0.000000 0.000000
# 5 0.000000 0.000000 0.000000 0.000000 0.034241 0.000000
# 6 0.000000 0.000000 0.000000 0.000000 0.000000 -0.118541
#
#
# Mechanical properties :
#
#
# Convention : Reuss Voigt Hill
#
# Bulk Modulus (GPa) = 62.29216 71.72665 67.00941
# Shear Modulus (GPa) = 186.04538 22.23904 104.14221
#
# Velocity S-wave (km/s) = 9.98591 3.45252 7.47122
# Velocity P-wave (km/s) = 12.89752 7.37143 10.50438
#
# Compressibility (1/GPa) = 0.01605338
#
# Stress axis : x y z
#
# Youngs Moduli (GPa) = 44.54334 74.49803 98.07811
#
# Poissons Ratio (x) = 0.59618 0.30965
# Poissons Ratio (y) = 0.35646 0.37742
# Poissons Ratio (z) = 0.14063 0.28668
#
# Static dielectric constant tensor:
#      x y z
#    x 1.644120 0.000000 0.000000 
#    y 0.000000 1.663750 0.000000 
#    z 0.000000 0.000000 1.623260 
# 
# From -- ./inp_files/6485.got.cif
#   From: 2010.05.17/outbox.cif.g08.bks.cpg/sg49_4_cif.got.tgz:6485.got - 2010.06.03 21:02:19.
