data_PCOD9393809
_publ_section_title
;
Structure prediction by ZEFSAII (Michael W. Deem and Ramdas Pophale) SiO2 
 PCOD9393809
Probable space group: P C C M
;
_chemical_formula_sum "Si O2"
_cell_formula_units_Z 48
_cell_length_a 19.267839
_cell_length_b 14.921138
_cell_length_c 8.649108
_cell_angle_alpha 90.000000
_cell_angle_beta 90.000000
_cell_angle_gamma 90.000000
_cell_volume 2486.601984
_symmetry_space_group_name_H-M "P C C M"
_symmetry_group_IT_number 49
_symmetry_cell_setting 'orthorhombic'
loop_
_space_group_symop_operation_xyz
x,y,z
-x,-y,z
x,-y,1/2-z
-x,y,1/2-z
-x,-y,-z
x,y,-z
-x,y,1/2+z
x,-y,1/2+z
loop_
_atom_site_type_symbol
_atom_site_label
_atom_site_fract_x
_atom_site_fract_y
_atom_site_fract_z
Si Si1 0.714259 0.407392 0.320023
Si Si2 0.077533 0.598237 0.813354
Si Si3 0.572878 0.630061 0.678628
Si Si4 0.276830 0.097281 0.183475
Si Si5 0.574188 0.847158 0.322552
Si Si6 0.193536 0.259625 0.681941
O O1 0.740823 0.500000 0.250000
O O2 0.731782 0.397246 0.500000
O O3 0.632517 0.403715 0.291616
O O4 0.744214 0.327888 0.217330
O O5 0.099462 0.500000 0.750000
O O6 0.127034 0.681211 0.765573
O O7 0.000000 0.612834 0.750000
O O8 0.077549 0.593778 0.000000
O O9 0.500000 0.602817 0.750000
O O10 0.582953 0.601303 0.500000
O O11 0.574653 0.738703 0.679366
O O12 0.354778 0.122387 0.240856
O O13 0.218914 0.168871 0.237864
O O14 0.260022 0.000000 0.250000
O O15 0.278145 0.096064 0.000000
O O16 0.500000 0.875593 0.250000
O O17 0.576794 0.877865 0.500000
O O18 0.186340 0.242988 0.500000
#
# Coordination Sequence:
#
# PCOD9393809 Si02
#       6
#     8   8   8   8   8   8
#     4  12  24  37  56  82 113 152 197 242 293 352
#     4  10  21  37  63  96 133 168 203 242 285 342
#     4  10  20  35  55  77 108 146 190 243 295 353
#     4  12  25  41  63  89 119 157 202 252 307 365
#     4  10  20  36  59  84 115 150 195 252 310 369
#     4  11  23  41  62  89 123 159 197 243 297 353
#
# _framework density 19.303450999999999
#
# number of rings (size 3 to 8) (size 9 to 14) (size 15 to 20)
#    0.000    1.167    1.667    6.000    0.000    6.000 
#    0.000    3.333    0.000    0.500    0.000    3.500 
#    0.000    0.000    0.000    0.000    0.000    0.000 
#
# Total GULP energy -268247.853475 kJ/mol
# GULP energy per Si atom -5588.496947 kJ/mol
# Density = 1.925952 g / cm^3
# Si number density = 19.303451 Si / 1000 Ang^3
#
#
#
# Elastic Constant Matrix: (Units=GPa)
#
#
# Indices 1 2 3 4 5 6 
#
# 1 127.4794 55.1032 36.2951 0.0000 0.0000 0.0000
# 2 55.1032 125.8552 44.3868 0.0000 0.0000 0.0000
# 3 36.2951 44.3868 113.0555 0.0000 0.0000 0.0000
# 4 0.0000 0.0000 0.0000 28.1943 0.0000 0.0000
# 5 0.0000 0.0000 0.0000 0.0000 -20.8199 0.0000
# 6 0.0000 0.0000 0.0000 0.0000 0.0000 34.1413
#
#
#
# Elastic Compliance Matrix: (Units=1/GPa)
#
#
# Indices 1 2 3 4 5 6 
#
# 1 0.009957 -0.003751 -0.001724 0.000000 0.000000 0.000000
# 2 -0.003751 0.010636 -0.002971 0.000000 0.000000 0.000000
# 3 -0.001724 -0.002971 0.010565 0.000000 0.000000 0.000000
# 4 0.000000 0.000000 0.000000 0.035468 0.000000 0.000000
# 5 0.000000 0.000000 0.000000 0.000000 -0.048031 0.000000
# 6 0.000000 0.000000 0.000000 0.000000 0.000000 0.029290
#
#
# Mechanical properties :
#
#
# Convention : Reuss Voigt Hill
#
# Bulk Modulus (GPa) = 70.10215 70.88447 70.49331
# Shear Modulus (GPa) = 71.90798 23.67682 47.79240
#
# Velocity S-wave (km/s) = 6.11001 3.50603 4.98119
# Velocity P-wave (km/s) = 9.28283 7.29318 8.34750
#
# Compressibility (1/GPa) = 0.01426490
#
# Stress axis : x y z
#
# Youngs Moduli (GPa) = 100.43475 94.01916 94.65033
#
# Poissons Ratio (x) = 0.35271 0.16314
# Poissons Ratio (y) = 0.37678 0.28125
# Poissons Ratio (z) = 0.17311 0.27938
#
# Static dielectric constant tensor:
#      x y z
#    x 1.698450 0.000000 0.000000 
#    y 0.000000 1.673720 0.000000 
#    z 0.000000 0.000000 1.651340 
# 
# From -- ./inp_files/3714.got.cif
#   From: 2010.05.17/outbox.cif.g08.bks.cpg/sg49_2_cif.got.tgz:3714.got - 2010.06.03 21:02:19.
