data_PCOD9393478
_publ_section_title
;
Structure prediction by ZEFSAII (Michael W. Deem and Ramdas Pophale) SiO2 
 PCOD9393478
Probable space group: P C C M
;
_chemical_formula_sum "Si O2"
_cell_formula_units_Z 64
_cell_length_a 23.185788
_cell_length_b 7.964343
_cell_length_c 18.522870
_cell_angle_alpha 90.000000
_cell_angle_beta 90.000000
_cell_angle_gamma 90.000000
_cell_volume 3420.425179
_symmetry_space_group_name_H-M "P C C M"
_symmetry_group_IT_number 49
_symmetry_cell_setting 'orthorhombic'
loop_
_space_group_symop_operation_xyz
x,y,z
-x,-y,z
x,-y,1/2-z
-x,y,1/2-z
-x,-y,-z
x,y,-z
-x,y,1/2+z
x,-y,1/2+z
loop_
_atom_site_type_symbol
_atom_site_label
_atom_site_fract_x
_atom_site_fract_y
_atom_site_fract_z
Si Si1 0.765306 0.201338 0.168879
Si Si2 0.635193 0.801082 0.337565
Si Si3 0.877580 0.300791 0.918603
Si Si4 0.569025 0.500000 0.085378
Si Si5 1.000000 0.199011 0.417457
Si Si6 0.364807 0.801082 0.337565
Si Si7 0.234694 0.201338 0.831121
Si Si8 0.877580 0.300791 0.418603
O O1 0.701305 0.247234 0.142337
O O2 0.820020 0.249319 0.122086
O O3 0.772303 0.269408 0.250000
O O4 0.763983 0.000000 0.173143
O O5 0.594326 0.667225 0.376405
O O6 0.625380 1.000000 0.355159
O O7 0.630762 0.787754 0.250000
O O8 0.877686 0.500000 0.923324
O O9 0.938924 0.250591 0.883936
O O10 0.876439 0.227805 0.000000
O O11 0.500000 0.500000 0.092285
O O12 0.594326 0.667225 0.123595
O O13 0.583645 0.500000 0.000000
O O14 1.000000 0.271416 0.500000
O O15 0.938924 0.250591 0.383936
O O16 0.000000 0.000000 0.421993
O O17 0.298695 0.752767 0.357663
O O18 0.179980 0.249319 0.877915
O O19 0.876439 0.227805 0.500000
#
# Coordination Sequence:
#
# PCOD9393478 Si02
#       8
#     8   8   8   8   8   8   8   8
#     4   9  19  36  56  79 107 139 178 226 278 327
#     4   9  20  40  64  88 116 155 202 246 287 339
#     4  10  20  32  49  76 107 138 176 223 274 329
#     4  11  25  41  59  89 127 160 191 234 291 349
#     4   9  17  31  50  69  96 139 184 224 268 321
#     4   9  20  40  64  88 116 155 202 246 287 339
#     4   9  19  36  56  79 107 139 178 226 278 327
#     4  10  20  32  49  76 107 138 176 223 274 329
#
# _framework density 18.711124000000002
#
# number of rings (size 3 to 8) (size 9 to 14) (size 15 to 20)
#    0.000    2.500    0.000    3.000    1.750    6.500 
#    0.000    5.625    0.000    3.750    0.000    0.000 
#    0.000    0.000    0.000    0.000    0.000    0.000 
#
# Total GULP energy -356684.011946 kJ/mol
# GULP energy per Si atom -5573.187687 kJ/mol
# Density = 1.866854 g / cm^3
# Si number density = 18.711124 Si / 1000 Ang^3
#
#
#
# Elastic Constant Matrix: (Units=GPa)
#
#
# Indices 1 2 3 4 5 6 
#
# 1 158.8104 62.9209 63.5402 0.0000 0.0000 0.0000
# 2 62.9209 73.4766 32.1990 0.0000 0.0000 0.0000
# 3 63.5402 32.1990 46.7815 0.0000 0.0000 0.0000
# 4 0.0000 0.0000 0.0000 23.2815 0.0000 0.0000
# 5 0.0000 0.0000 0.0000 0.0000 44.4374 0.0000
# 6 0.0000 0.0000 0.0000 0.0000 0.0000 41.8514
#
#
#
# Elastic Compliance Matrix: (Units=1/GPa)
#
#
# Indices 1 2 3 4 5 6 
#
# 1 0.015306 -0.005723 -0.016850 0.000000 0.000000 0.000000
# 2 -0.005723 0.021628 -0.007113 0.000000 0.000000 0.000000
# 3 -0.016850 -0.007113 0.049158 0.000000 0.000000 0.000000
# 4 0.000000 0.000000 0.000000 0.042953 0.000000 0.000000
# 5 0.000000 0.000000 0.000000 0.000000 0.022504 0.000000
# 6 0.000000 0.000000 0.000000 0.000000 0.000000 0.023894
#
#
# Mechanical properties :
#
#
# Convention : Reuss Voigt Hill
#
# Bulk Modulus (GPa) = 37.42541 66.26543 51.84542
# Shear Modulus (GPa) = 20.51537 29.94127 25.22832
#
# Velocity S-wave (km/s) = 3.31483 4.00457 3.67591
# Velocity P-wave (km/s) = 5.89032 7.54149 6.76646
#
# Compressibility (1/GPa) = 0.02671982
#
# Stress axis : x y z
#
# Youngs Moduli (GPa) = 65.33373 46.23719 20.34269
#
# Poissons Ratio (x) = 0.26462 0.34277
# Poissons Ratio (y) = 0.37391 0.14469
# Poissons Ratio (z) = 1.10087 0.32887
#
# Static dielectric constant tensor:
#      x y z
#    x 1.670960 0.000000 0.000000 
#    y 0.000000 1.642200 0.000000 
#    z 0.000000 0.000000 1.720310 
# 
# From -- ./inp_files/21059.got.cif
#   From: 2010.05.17/outbox.cif.g08.bks.cpg/sg49_11_cif.got.tgz:21059.got - 2010.06.03 21:02:19.
