data_PCOD9393992
_publ_section_title
;
Structure prediction by ZEFSAII (Michael W. Deem and Ramdas Pophale) SiO2 
 PCOD9393992
Probable space group: P C C M
;
_chemical_formula_sum "Si O2"
_cell_formula_units_Z 64
_cell_length_a 12.084963
_cell_length_b 9.432172
_cell_length_c 30.734256
_cell_angle_alpha 90.000000
_cell_angle_beta 90.000000
_cell_angle_gamma 90.000000
_cell_volume 3503.319458
_symmetry_space_group_name_H-M "P C C M"
_symmetry_group_IT_number 49
_symmetry_cell_setting 'orthorhombic'
loop_
_space_group_symop_operation_xyz
x,y,z
-x,-y,z
x,-y,1/2-z
-x,y,1/2-z
-x,-y,-z
x,y,-z
-x,y,1/2+z
x,-y,1/2+z
loop_
_atom_site_type_symbol
_atom_site_label
_atom_site_fract_x
_atom_site_fract_y
_atom_site_fract_z
Si Si1 0.487659 0.327497 0.144854
Si Si2 0.728206 0.683160 0.673833
Si Si3 0.475952 0.668249 0.047372
Si Si4 0.987010 0.157086 0.050457
Si Si5 0.254013 0.356592 0.182068
Si Si6 0.131465 0.830853 0.245924
Si Si7 0.106991 0.408068 0.902005
Si Si8 0.776547 0.330579 0.071257
O O1 0.500000 0.500000 0.142578
O O2 0.598685 0.274904 0.169040
O O3 0.479606 0.277997 0.094282
O O4 0.375727 0.299030 0.170642
O O5 0.733931 0.523848 0.693663
O O6 0.809871 0.780415 0.701444
O O7 0.766754 0.678663 0.623646
O O8 0.500000 0.500000 0.046913
O O9 0.343824 0.684963 0.051273
O O10 0.513929 0.725334 0.000000
O O11 0.862523 0.215374 0.054603
O O12 0.062018 0.270013 0.074760
O O13 0.018733 0.153643 0.000000
O O14 0.000000 0.000000 0.068925
O O15 0.193621 0.259627 0.217033
O O16 0.182644 0.363181 0.137988
O O17 0.000000 0.800295 0.250000
O O18 0.145417 0.000000 0.250000
O O19 0.173357 0.511868 0.934690
O O20 0.000000 0.500000 0.887081
#
# Coordination Sequence:
#
# PCOD9393992 Si02
#       8
#     8   8   8   8   8   8   8   8
#     4   8  16  33  54  81 112 142 181 221 268 325
#     4   9  19  37  59  83 107 142 180 223 273 327
#     4   9  15  25  48  83 115 142 172 219 278 324
#     4  10  21  34  48  70 104 148 188 221 268 327
#     4  10  20  36  59  81 110 143 178 223 275 331
#     4  11  26  40  54  81 112 141 180 229 278 331
#     4   9  19  32  51  79 104 138 181 226 274 317
#     4   9  18  32  53  78 109 138 180 228 271 323
#
# _framework density 18.268388000000002
#
# number of rings (size 3 to 8) (size 9 to 14) (size 15 to 20)
#    0.000    2.625    0.000    3.000    5.250    4.750 
#    0.000    3.750    0.000    0.000    0.000    2.625 
#    0.000   17.000    0.000    0.000    0.000    0.000 
#
# Total GULP energy -356668.604814 kJ/mol
# GULP energy per Si atom -5572.946950 kJ/mol
# Density = 1.822681 g / cm^3
# Si number density = 18.268388 Si / 1000 Ang^3
#
#
#
# Elastic Constant Matrix: (Units=GPa)
#
#
# Indices 1 2 3 4 5 6 
#
# 1 90.6327 39.3804 45.7881 0.0000 0.0000 0.0000
# 2 39.3804 80.6959 38.3316 0.0000 0.0000 0.0000
# 3 45.7881 38.3316 74.5879 0.0000 0.0000 0.0000
# 4 0.0000 0.0000 0.0000 9.6584 0.0000 0.0000
# 5 0.0000 0.0000 0.0000 0.0000 18.0478 0.0000
# 6 0.0000 0.0000 0.0000 0.0000 0.0000 13.5626
#
#
#
# Elastic Compliance Matrix: (Units=1/GPa)
#
#
# Indices 1 2 3 4 5 6 
#
# 1 0.017122 -0.004449 -0.008224 0.000000 0.000000 0.000000
# 2 -0.004449 0.017550 -0.006288 0.000000 0.000000 0.000000
# 3 -0.008224 -0.006288 0.021687 0.000000 0.000000 0.000000
# 4 0.000000 0.000000 0.000000 0.103536 0.000000 0.000000
# 5 0.000000 0.000000 0.000000 0.000000 0.055408 0.000000
# 6 0.000000 0.000000 0.000000 0.000000 0.000000 0.073732
#
#
# Mechanical properties :
#
#
# Convention : Reuss Voigt Hill
#
# Bulk Modulus (GPa) = 54.24043 54.76853 54.50448
# Shear Modulus (GPa) = 15.01030 16.41485 15.71257
#
# Velocity S-wave (km/s) = 2.86956 3.00081 2.93592
# Velocity P-wave (km/s) = 6.38236 6.48472 6.43374
#
# Compressibility (1/GPa) = 0.01843643
#
# Stress axis : x y z
#
# Youngs Moduli (GPa) = 58.40595 56.97918 46.10985
#
# Poissons Ratio (x) = 0.25349 0.37922
# Poissons Ratio (y) = 0.25984 0.28995
# Poissons Ratio (z) = 0.48035 0.35830
#
# Static dielectric constant tensor:
#      x y z
#    x 1.638050 0.000000 0.000000 
#    y 0.000000 1.612910 0.000000 
#    z 0.000000 0.000000 1.653030 
# 
# From -- ./inp_files/26664.got.cif
#   From: 2010.05.17/outbox.cif.g08.bks.cpg/sg49_14_cif.got.tgz:26664.got - 2010.06.03 21:02:19.
