data_PCOD9393007
_publ_section_title
;
Structure prediction by ZEFSAII (Michael W. Deem and Ramdas Pophale) SiO2 
 PCOD9393007
Probable space group: P C C M
;
_chemical_formula_sum "Si O2"
_cell_formula_units_Z 56
_cell_length_a 19.083453
_cell_length_b 21.817443
_cell_length_c 8.626152
_cell_angle_alpha 90.000000
_cell_angle_beta 90.000000
_cell_angle_gamma 90.000000
_cell_volume 3591.516915
_symmetry_space_group_name_H-M "P C C M"
_symmetry_group_IT_number 49
_symmetry_cell_setting 'orthorhombic'
loop_
_space_group_symop_operation_xyz
x,y,z
-x,-y,z
x,-y,1/2-z
-x,y,1/2-z
-x,-y,-z
x,y,-z
-x,y,1/2+z
x,-y,1/2+z
loop_
_atom_site_type_symbol
_atom_site_label
_atom_site_fract_x
_atom_site_fract_y
_atom_site_fract_z
Si Si1 0.792085 0.754850 0.678472
Si Si2 0.922425 0.685288 0.686970
Si Si3 0.154637 0.566126 0.316978
Si Si4 0.577624 0.309487 0.187262
Si Si5 0.421370 0.065718 0.185260
Si Si6 0.344051 0.816141 0.188794
Si Si7 0.287438 0.376664 0.678635
O O1 0.803889 0.773537 0.500000
O O2 0.867398 0.737048 0.746244
O O3 0.735159 0.801645 0.745193
O O4 0.750513 0.689968 0.675302
O O5 0.921932 0.686345 0.500000
O O6 0.891464 0.619916 0.740678
O O7 0.000000 0.693980 0.750000
O O8 0.135846 0.500000 0.250000
O O9 0.144680 0.567527 0.500000
O O10 0.235863 0.580756 0.275614
O O11 0.500000 0.318754 0.250000
O O12 0.607528 0.242351 0.233005
O O13 0.634609 0.360809 0.236533
O O14 0.577155 0.310708 0.000000
O O15 0.500000 0.074936 0.250000
O O16 0.374725 0.121777 0.244036
O O17 0.396841 0.000000 0.250000
O O18 0.423803 0.063905 0.000000
O O19 0.343566 0.818324 0.000000
O O20 0.289900 0.398542 0.500000
#
# Coordination Sequence:
#
# PCOD9393007 Si02
#       7
#     8   8   8   8   8   8   8
#     4   7  13  27  47  65  87 117 146 175 215 260
#     4  10  19  33  50  71  97 123 147 176 214 259
#     4  11  21  33  49  68  87 114 148 182 217 261
#     4   9  17  27  43  65  90 116 144 180 226 270
#     4  11  21  32  44  61  87 123 160 196 231 267
#     4   9  16  29  46  65  88 118 152 186 220 260
#     4   8  15  30  46  62  85 114 144 179 220 264
#
# _framework density 15.592297
#
# number of rings (size 3 to 8) (size 9 to 14) (size 15 to 20)
#    0.000    2.714    0.000    6.429    0.000    2.571 
#    0.000    7.857    0.000    0.429    0.000    3.000 
#    0.000    0.571    0.000    6.571    0.000    2.000 
#
# Total GULP energy -311915.112577 kJ/mol
# GULP energy per Si atom -5569.912725 kJ/mol
# Density = 1.555681 g / cm^3
# Si number density = 15.592297 Si / 1000 Ang^3
#
#
#
# Elastic Constant Matrix: (Units=GPa)
#
#
# Indices 1 2 3 4 5 6 
#
# 1 124.2442 26.8597 21.8187 0.0000 0.0000 0.0000
# 2 26.8597 34.6574 11.9092 0.0000 0.0000 0.0000
# 3 21.8187 11.9092 53.9733 0.0000 0.0000 0.0000
# 4 0.0000 0.0000 0.0000 7.3011 0.0000 0.0000
# 5 0.0000 0.0000 0.0000 0.0000 -5.9959 0.0000
# 6 0.0000 0.0000 0.0000 0.0000 0.0000 16.0633
#
#
#
# Elastic Compliance Matrix: (Units=1/GPa)
#
#
# Indices 1 2 3 4 5 6 
#
# 1 0.009975 -0.006866 -0.002518 0.000000 0.000000 0.000000
# 2 -0.006866 0.035947 -0.005156 0.000000 0.000000 0.000000
# 3 -0.002518 -0.005156 0.020683 0.000000 0.000000 0.000000
# 4 0.000000 0.000000 0.000000 0.136966 0.000000 0.000000
# 5 0.000000 0.000000 0.000000 0.000000 -0.166781 0.000000
# 6 0.000000 0.000000 0.000000 0.000000 0.000000 0.062254
#
#
# Mechanical properties :
#
#
# Convention : Reuss Voigt Hill
#
# Bulk Modulus (GPa) = 26.64812 37.11667 31.88239
# Shear Modulus (GPa) = 35.55437 13.62620 24.59029
#
# Velocity S-wave (km/s) = 4.78038 2.95940 3.97555
# Velocity P-wave (km/s) = 6.89906 5.96100 6.44711
#
# Compressibility (1/GPa) = 0.03752609
#
# Stress axis : x y z
#
# Youngs Moduli (GPa) = 100.25055 27.81911 48.34870
#
# Poissons Ratio (x) = 0.19100 0.12172
# Poissons Ratio (y) = 0.68828 0.24929
# Poissons Ratio (z) = 0.25238 0.14344
#
# Static dielectric constant tensor:
#      x y z
#    x 1.547690 0.000000 0.000000 
#    y 0.000000 1.503290 0.000000 
#    z 0.000000 0.000000 1.527740 
# 
# From -- ./inp_files/5169.got.cif
#   From: 2010.05.17/outbox.cif.g08.bks.cpg/sg49_3_cif.got.tgz:5169.got - 2010.06.03 21:02:19.
