data_PCOD9393559
_publ_section_title
;
Structure prediction by ZEFSAII (Michael W. Deem and Ramdas Pophale) SiO2 
 PCOD9393559
Probable space group: P C C M
;
_chemical_formula_sum "Si O2"
_cell_formula_units_Z 40
_cell_length_a 9.743537
_cell_length_b 26.961187
_cell_length_c 8.649614
_cell_angle_alpha 90.000000
_cell_angle_beta 90.000000
_cell_angle_gamma 90.000000
_cell_volume 2272.230444
_symmetry_space_group_name_H-M "P C C M"
_symmetry_group_IT_number 49
_symmetry_cell_setting 'orthorhombic'
loop_
_space_group_symop_operation_xyz
x,y,z
-x,-y,z
x,-y,1/2-z
-x,y,1/2-z
-x,-y,-z
x,y,-z
-x,y,1/2+z
x,-y,1/2+z
loop_
_atom_site_type_symbol
_atom_site_label
_atom_site_fract_x
_atom_site_fract_y
_atom_site_fract_z
Si Si1 0.153567 0.446943 0.313796
Si Si2 0.654095 0.643630 0.686336
Si Si3 0.153045 0.946762 0.314326
Si Si4 0.654434 0.855274 0.814881
Si Si5 0.655356 0.247264 0.185347
O O1 0.203259 0.500000 0.250000
O O2 0.149224 0.448812 0.500000
O O3 0.250296 0.401655 0.263803
O O4 0.000000 0.439751 0.250000
O O5 0.500000 0.638645 0.750000
O O6 0.646119 0.642630 0.500000
O O7 0.711659 0.698367 0.729136
O O8 0.147174 0.949196 0.500000
O O9 0.253188 0.902040 0.268742
O O10 0.000000 0.938357 0.250000
O O11 0.200401 0.000000 0.250000
O O12 0.500000 0.860402 0.750000
O O13 0.716113 0.803158 0.754253
O O14 0.646783 0.853149 0.000000
O O15 0.500000 0.248107 0.250000
O O16 0.652953 0.243300 0.000000
#
# Coordination Sequence:
#
# PCOD9393559 Si02
#       5
#     8   8   8   8   8
#     4  10  20  35  52  72  98 130 166 203 245 294
#     4   9  19  33  51  75 101 128 163 203 244 290
#     4  10  21  36  54  74  99 131 167 203 246 294
#     4  10  20  33  51  77 103 130 164 203 244 290
#     4   9  16  29  49  72  99 131 162 198 243 290
#
# _framework density 17.603847999999999
#
# number of rings (size 3 to 8) (size 9 to 14) (size 15 to 20)
#    0.000    2.400    0.000    4.800    0.000    6.400 
#    0.000    5.000    0.000    4.800    0.000    0.000 
#    0.000    0.000    0.000    0.000    0.000    0.000 
#
# Total GULP energy -222992.353470 kJ/mol
# GULP energy per Si atom -5574.808837 kJ/mol
# Density = 1.756378 g / cm^3
# Si number density = 17.603848 Si / 1000 Ang^3
#
#
#
# Elastic Constant Matrix: (Units=GPa)
#
#
# Indices 1 2 3 4 5 6 
#
# 1 50.5213 85.1428 21.1237 0.0000 0.0000 0.0000
# 2 85.1428 225.4842 50.4670 0.0000 0.0000 0.0000
# 3 21.1237 50.4670 46.5331 0.0000 0.0000 0.0000
# 4 0.0000 0.0000 0.0000 37.8512 0.0000 0.0000
# 5 0.0000 0.0000 0.0000 0.0000 5.1209 0.0000
# 6 0.0000 0.0000 0.0000 0.0000 0.0000 -0.4346
#
#
#
# Elastic Compliance Matrix: (Units=1/GPa)
#
#
# Indices 1 2 3 4 5 6 
#
# 1 0.054794 -0.019971 -0.003215 0.000000 0.000000 0.000000
# 2 -0.019971 0.013135 -0.005180 0.000000 0.000000 0.000000
# 3 -0.003215 -0.005180 0.028567 0.000000 0.000000 0.000000
# 4 0.000000 0.000000 0.000000 0.026419 0.000000 0.000000
# 5 0.000000 0.000000 0.000000 0.000000 0.195279 0.000000
# 6 0.000000 0.000000 0.000000 0.000000 0.000000 -2.300924
#
#
# Mechanical properties :
#
#
# Convention : Reuss Voigt Hill
#
# Bulk Modulus (GPa) = 25.14731 70.66730 47.90731
# Shear Modulus (GPa) = -2.61405 19.56116 8.47356
#
# Velocity S-wave (km/s) = -1.21990 3.33706 2.19634
# Velocity P-wave (km/s) = 3.51168 7.42147 5.80561
#
# Compressibility (1/GPa) = 0.03976569
#
# Stress axis : x y z
#
# Youngs Moduli (GPa) = 18.25015 76.13141 35.00515
#
# Poissons Ratio (x) = 1.52040 0.11253
# Poissons Ratio (y) = 0.36447 0.18132
# Poissons Ratio (z) = 0.05867 0.39435
#
# Static dielectric constant tensor:
#      x y z
#    x 1.790180 0.000000 0.000000 
#    y 0.000000 1.645150 0.000000 
#    z 0.000000 0.000000 1.599720 
# 
# From -- ./inp_files/1914.got.cif
#   From: 2010.05.17/outbox.cif.g08.bks.cpg/sg49_1_cif.got.tgz:1914.got - 2010.06.03 21:02:19.
