data_PCOD9393709
_publ_section_title
;
Structure prediction by ZEFSAII (Michael W. Deem and Ramdas Pophale) SiO2 
 PCOD9393709
Probable space group: P C C M
;
_chemical_formula_sum "Si O2"
_cell_formula_units_Z 64
_cell_length_a 24.871765
_cell_length_b 7.655270
_cell_length_c 15.917086
_cell_angle_alpha 90.000000
_cell_angle_beta 90.000000
_cell_angle_gamma 90.000000
_cell_volume 3030.614391
_symmetry_space_group_name_H-M "P C C M"
_symmetry_group_IT_number 49
_symmetry_cell_setting 'orthorhombic'
loop_
_space_group_symop_operation_xyz
x,y,z
-x,-y,z
x,-y,1/2-z
-x,y,1/2-z
-x,-y,-z
x,y,-z
-x,y,1/2+z
x,-y,1/2+z
loop_
_atom_site_type_symbol
_atom_site_label
_atom_site_fract_x
_atom_site_fract_y
_atom_site_fract_z
Si Si1 0.618195 0.707032 0.096417
Si Si2 0.882279 0.707589 0.091448
Si Si3 0.690520 0.285540 0.750000
Si Si4 0.618195 0.707032 0.596417
Si Si5 0.000000 0.209221 0.153677
Si Si6 0.500000 0.791372 0.596668
Si Si7 0.185222 0.714431 0.750000
Si Si8 0.117721 0.707589 0.091448
O O1 0.659839 0.774748 0.165665
O O2 0.627244 0.500000 0.089709
O O3 0.557461 0.732682 0.130742
O O4 0.621600 0.778260 0.000000
O O5 0.945278 0.732276 0.109977
O O6 0.846900 0.776718 0.168018
O O7 0.872456 0.500000 0.088779
O O8 0.869037 0.781516 0.000000
O O9 0.688581 0.500000 0.750000
O O10 0.659839 0.225252 0.834335
O O11 0.752711 0.234197 0.750000
O O12 0.621600 0.778260 0.500000
O O13 0.557461 0.732682 0.630742
O O14 0.000000 0.273404 0.250000
O O15 0.945278 0.267724 0.109977
O O16 0.000000 0.000000 0.154609
O O17 0.500000 0.726217 0.500000
O O18 0.500000 0.000000 0.596942
O O19 0.183734 0.500000 0.750000
O O20 0.153100 0.776718 0.831982
O O21 0.130963 0.781516 0.000000
#
# Coordination Sequence:
#
# PCOD9393709 Si02
#       8
#     8   8   8   8   8   8   8   8
#     4   9  17  30  49  72  98 128 162 201 244 292
#     4  10  20  34  55  80 104 135 171 206 252 305
#     4   9  18  31  49  74 100 129 166 205 246 289
#     4   9  17  30  49  72  98 128 162 201 244 292
#     4  11  22  35  54  79 107 138 169 206 255 305
#     4   9  17  30  49  72  99 129 160 199 249 300
#     4   9  18  33  51  74 104 131 164 213 252 287
#     4  10  20  34  55  80 104 135 171 206 252 305
#
# _framework density 21.117829
#
# number of rings (size 3 to 8) (size 9 to 14) (size 15 to 20)
#    0.000    2.500    1.250    1.125    0.000    5.500 
#    0.000    8.125    0.000    3.000    0.000    3.500 
#    0.000    0.000    0.000    0.000    0.000    0.000 
#
# Total GULP energy -357186.090039 kJ/mol
# GULP energy per Si atom -5581.032657 kJ/mol
# Density = 2.106976 g / cm^3
# Si number density = 21.117829 Si / 1000 Ang^3
#
#
#
# Elastic Constant Matrix: (Units=GPa)
#
#
# Indices 1 2 3 4 5 6 
#
# 1 186.3877 -7.7197 113.1375 0.0000 0.0000 0.0000
# 2 -7.7197 38.8745 9.9991 0.0000 0.0000 0.0000
# 3 113.1375 9.9991 188.3531 0.0000 0.0000 0.0000
# 4 0.0000 0.0000 0.0000 0.7500 0.0000 0.0000
# 5 0.0000 0.0000 0.0000 0.0000 15.0170 0.0000
# 6 0.0000 0.0000 0.0000 0.0000 0.0000 -67.7498
#
#
#
# Elastic Compliance Matrix: (Units=1/GPa)
#
#
# Indices 1 2 3 4 5 6 
#
# 1 0.008809 0.003153 -0.005459 0.000000 0.000000 0.000000
# 2 0.003153 0.027209 -0.003339 0.000000 0.000000 0.000000
# 3 -0.005459 -0.003339 0.008765 0.000000 0.000000 0.000000
# 4 0.000000 0.000000 0.000000 1.333360 0.000000 0.000000
# 5 0.000000 0.000000 0.000000 0.000000 0.066591 0.000000
# 6 0.000000 0.000000 0.000000 0.000000 0.000000 -0.014760
#
#
# Mechanical properties :
#
#
# Convention : Reuss Voigt Hill
#
# Bulk Modulus (GPa) = 29.85485 71.60546 50.73015
# Shear Modulus (GPa) = 3.44251 9.48332 6.46292
#
# Velocity S-wave (km/s) = 1.27816 2.12142 1.75130
# Velocity P-wave (km/s) = 4.04304 6.32311 5.30697
#
# Compressibility (1/GPa) = 0.03349540
#
# Stress axis : x y z
#
# Youngs Moduli (GPa) = 113.51627 36.75287 114.08520
#
# Poissons Ratio (x) = -0.11590 0.62278
# Poissons Ratio (y) = -0.35797 0.38089
# Poissons Ratio (z) = 0.61967 0.12270
#
# Static dielectric constant tensor:
#      x y z
#    x 1.719710 0.000000 0.000000 
#    y 0.000000 1.757000 0.000000 
#    z 0.000000 0.000000 1.788010 
# 
# From -- ./inp_files/14515.got.cif
#   From: 2010.05.17/outbox.cif.g08.bks.cpg/sg49_8_cif.got.tgz:14515.got - 2010.06.03 21:02:19.
