data_PCOD9393583
_publ_section_title
;
Structure prediction by ZEFSAII (Michael W. Deem and Ramdas Pophale) SiO2 
 PCOD9393583
Probable space group: P C C M
;
_chemical_formula_sum "Si O2"
_cell_formula_units_Z 54
_cell_length_a 19.485075
_cell_length_b 16.230150
_cell_length_c 10.278250
_cell_angle_alpha 90.000000
_cell_angle_beta 90.000000
_cell_angle_gamma 90.000000
_cell_volume 3250.452263
_symmetry_space_group_name_H-M "P C C M"
_symmetry_group_IT_number 49
_symmetry_cell_setting 'orthorhombic'
loop_
_space_group_symop_operation_xyz
x,y,z
-x,-y,z
x,-y,1/2-z
-x,y,1/2-z
-x,-y,-z
x,y,-z
-x,y,1/2+z
x,-y,1/2+z
loop_
_atom_site_type_symbol
_atom_site_label
_atom_site_fract_x
_atom_site_fract_y
_atom_site_fract_z
Si Si1 0.233904 0.000000 0.750000
Si Si2 0.835005 0.242818 0.844412
Si Si3 0.191355 0.428259 0.650968
Si Si4 0.000000 0.000000 0.250000
Si Si5 0.115965 0.113785 0.855946
Si Si6 0.305955 0.159848 0.346273
Si Si7 0.564646 0.742596 0.345022
Si Si8 0.356002 0.569729 0.851717
O O1 0.181747 0.053068 0.839076
O O2 0.281645 0.067579 0.682335
O O3 0.843281 0.339929 0.822708
O O4 0.880443 0.182383 0.756850
O O5 0.757129 0.218082 0.804426
O O6 0.842712 0.226466 0.000000
O O7 0.171015 0.500000 0.750000
O O8 0.178412 0.450471 0.500000
O O9 0.274024 0.416196 0.663281
O O10 0.049560 0.057402 0.165107
O O11 0.117029 0.150377 0.000000
O O12 0.310296 0.171638 0.500000
O O13 0.379646 0.189497 0.298131
O O14 0.500000 0.743866 0.250000
O O15 0.547911 0.754139 0.500000
O O16 0.603508 0.654767 0.334674
O O17 0.377291 0.500000 0.750000
O O18 0.367181 0.541089 0.000000
#
# Coordination Sequence:
#
# PCOD9393583 Si02
#       8
#     4   8   8   2   8   8   8   8
#     4   9  18  31  53  76  97 122 158 204 251 290
#     4   9  17  31  51  74 100 134 169 201 247 300
#     4   9  16  28  47  72 100 130 164 202 248 297
#     4  10  22  36  52  74 114 152 166 190 240 288
#     4  10  20  33  52  80 108 134 169 204 235 281
#     4   9  16  31  51  66  89 125 159 197 249 304
#     4  10  20  34  49  65  88 123 162 201 247 303
#     4   9  17  30  48  67  91 122 159 197 243 297
#
# _framework density 16.613073
#
# number of rings (size 3 to 8) (size 9 to 14) (size 15 to 20)
#    0.000    2.667    1.481    0.667    0.000    5.630 
#    0.000    5.556    0.000    1.778    0.000    0.519 
#    0.000    3.556    0.000    0.000    0.000    0.000 
#
# Total GULP energy -300696.642253 kJ/mol
# GULP energy per Si atom -5568.456338 kJ/mol
# Density = 1.657526 g / cm^3
# Si number density = 16.613073 Si / 1000 Ang^3
#
#
#
# Elastic Constant Matrix: (Units=GPa)
#
#
# Indices 1 2 3 4 5 6 
#
# 1 53.6250 32.9259 35.7006 0.0000 0.0000 0.0000
# 2 32.9259 99.9189 52.5125 0.0000 0.0000 0.0000
# 3 35.7006 52.5125 75.1823 0.0000 0.0000 0.0000
# 4 0.0000 0.0000 0.0000 27.4452 0.0000 0.0000
# 5 0.0000 0.0000 0.0000 0.0000 -8.2495 0.0000
# 6 0.0000 0.0000 0.0000 0.0000 0.0000 26.7061
#
#
#
# Elastic Compliance Matrix: (Units=1/GPa)
#
#
# Indices 1 2 3 4 5 6 
#
# 1 0.028040 -0.003543 -0.010841 0.000000 0.000000 0.000000
# 2 -0.003543 0.016260 -0.009675 0.000000 0.000000 0.000000
# 3 -0.010841 -0.009675 0.025206 0.000000 0.000000 0.000000
# 4 0.000000 0.000000 0.000000 0.036436 0.000000 0.000000
# 5 0.000000 0.000000 0.000000 0.000000 -0.121219 0.000000
# 6 0.000000 0.000000 0.000000 0.000000 0.000000 0.037445
#
#
# Mechanical properties :
#
#
# Convention : Reuss Voigt Hill
#
# Bulk Modulus (GPa) = 46.75009 52.33380 49.54194
# Shear Modulus (GPa) = 64.58657 16.35284 40.46970
#
# Velocity S-wave (km/s) = 6.24190 3.14082 4.94096
# Velocity P-wave (km/s) = 8.95266 6.68752 7.90168
#
# Compressibility (1/GPa) = 0.02139033
#
# Stress axis : x y z
#
# Youngs Moduli (GPa) = 35.66295 61.49975 39.67250
#
# Poissons Ratio (x) = 0.21788 0.43007
# Poissons Ratio (y) = 0.12634 0.38383
# Poissons Ratio (z) = 0.38661 0.59501
#
# Static dielectric constant tensor:
#      x y z
#    x 1.564930 0.000000 0.000000 
#    y 0.000000 1.510130 0.000000 
#    z 0.000000 0.000000 1.559810 
# 
# From -- ./inp_files/9402.got.cif
#   From: 2010.05.17/outbox.cif.g08.bks.cpg/sg49_5_cif.got.tgz:9402.got - 2010.06.03 21:02:19.
