data_PCOD9393141
_publ_section_title
;
Structure prediction by ZEFSAII (Michael W. Deem and Ramdas Pophale) SiO2 
 PCOD9393141
Probable space group: P C C M
;
_chemical_formula_sum "Si O2"
_cell_formula_units_Z 64
_cell_length_a 15.271669
_cell_length_b 25.277983
_cell_length_c 8.783156
_cell_angle_alpha 90.000000
_cell_angle_beta 90.000000
_cell_angle_gamma 90.000000
_cell_volume 3390.623099
_symmetry_space_group_name_H-M "P C C M"
_symmetry_group_IT_number 49
_symmetry_cell_setting 'orthorhombic'
loop_
_space_group_symop_operation_xyz
x,y,z
-x,-y,z
x,-y,1/2-z
-x,y,1/2-z
-x,-y,-z
x,y,-z
-x,y,1/2+z
x,-y,1/2+z
loop_
_atom_site_type_symbol
_atom_site_label
_atom_site_fract_x
_atom_site_fract_y
_atom_site_fract_z
Si Si1 0.284850 0.055240 0.816544
Si Si2 0.267552 0.648606 0.682575
Si Si3 0.332390 0.163918 0.680733
Si Si4 0.091267 0.311507 0.681612
Si Si5 0.406125 0.558338 0.683119
Si Si6 0.910439 0.083080 0.323307
Si Si7 0.411777 0.735696 0.681434
Si Si8 0.149880 0.200987 0.179170
O O1 0.336606 0.106052 0.755291
O O2 0.183121 0.062713 0.762629
O O3 0.317306 0.000000 0.750000
O O4 0.285510 0.055682 0.000000
O O5 0.252565 0.648364 0.500000
O O6 0.175480 0.654700 0.766658
O O7 0.327288 0.598085 0.721914
O O8 0.328147 0.699434 0.718631
O O9 0.338924 0.160358 0.500000
O O10 0.399048 0.206598 0.747128
O O11 0.238230 0.187331 0.731061
O O12 0.086300 0.308247 0.500000
O O13 0.106253 0.252799 0.751434
O O14 0.000000 0.332034 0.750000
O O15 0.390061 0.500000 0.750000
O O16 0.500000 0.576165 0.750000
O O17 0.413272 0.556064 0.500000
O O18 0.912706 0.068950 0.500000
O O19 0.905658 0.147049 0.311632
O O20 0.000000 0.064086 0.250000
O O21 0.500000 0.711545 0.750000
O O22 0.418337 0.738868 0.500000
O O23 0.170172 0.210046 0.000000
#
# Coordination Sequence:
#
# PCOD9393141 Si02
#       8
#     8   8   8   8   8   8   8   8
#     4  10  21  37  54  74  99 135 180 231 286 343
#     4  10  22  39  59  85 123 163 201 247 298 345
#     4  11  21  35  56  82 110 145 186 228 284 348
#     4  12  24  36  55  81 114 157 203 248 296 350
#     4  10  20  36  60  91 125 165 205 249 297 351
#     4   9  19  31  46  68  97 132 172 221 277 334
#     4  11  22  37  59  87 122 157 190 235 287 350
#     4  10  19  34  52  74 107 145 188 236 285 338
#
# _framework density 18.875585000000001
#
# number of rings (size 3 to 8) (size 9 to 14) (size 15 to 20)
#    0.000    1.625    1.250    5.625    0.000    5.750 
#    0.000    1.250    0.000    0.750    0.000    5.250 
#    0.000    0.000    0.000    0.000    0.000    0.000 
#
# Total GULP energy -357551.720722 kJ/mol
# GULP energy per Si atom -5586.745636 kJ/mol
# Density = 1.883262 g / cm^3
# Si number density = 18.875585 Si / 1000 Ang^3
#
#
#
# Elastic Constant Matrix: (Units=GPa)
#
#
# Indices 1 2 3 4 5 6 
#
# 1 90.7734 42.9611 46.1787 0.0000 0.0000 0.0000
# 2 42.9611 106.2478 44.2595 0.0000 0.0000 0.0000
# 3 46.1787 44.2595 93.3972 0.0000 0.0000 0.0000
# 4 0.0000 0.0000 0.0000 21.8020 0.0000 0.0000
# 5 0.0000 0.0000 0.0000 0.0000 23.8365 0.0000
# 6 0.0000 0.0000 0.0000 0.0000 0.0000 27.3507
#
#
#
# Elastic Compliance Matrix: (Units=1/GPa)
#
#
# Indices 1 2 3 4 5 6 
#
# 1 0.015941 -0.003940 -0.006015 0.000000 0.000000 0.000000
# 2 -0.003940 0.012701 -0.004071 0.000000 0.000000 0.000000
# 3 -0.006015 -0.004071 0.015610 0.000000 0.000000 0.000000
# 4 0.000000 0.000000 0.000000 0.045867 0.000000 0.000000
# 5 0.000000 0.000000 0.000000 0.000000 0.041952 0.000000
# 6 0.000000 0.000000 0.000000 0.000000 0.000000 0.036562
#
#
# Mechanical properties :
#
#
# Convention : Reuss Voigt Hill
#
# Bulk Modulus (GPa) = 61.72494 61.91300 61.81897
# Shear Modulus (GPa) = 24.74213 25.06580 24.90396
#
# Velocity S-wave (km/s) = 3.62443 3.64806 3.63626
# Velocity P-wave (km/s) = 7.09135 7.11451 7.10294
#
# Compressibility (1/GPa) = 0.01620091
#
# Stress axis : x y z
#
# Youngs Moduli (GPa) = 62.73124 78.73484 64.06261
#
# Poissons Ratio (x) = 0.31023 0.38531
# Poissons Ratio (y) = 0.24718 0.26077
# Poissons Ratio (z) = 0.37730 0.32049
#
# Static dielectric constant tensor:
#      x y z
#    x 1.750820 0.000000 0.000000 
#    y 0.000000 1.657010 0.000000 
#    z 0.000000 0.000000 1.635080 
# 
# From -- ./inp_files/4424.got.cif
#   From: 2010.05.17/outbox.cif.g08.bks.cpg/sg49_3_cif.got.tgz:4424.got - 2010.06.03 21:02:19.
