data_PCOD9393283
_publ_section_title
;
Structure prediction by ZEFSAII (Michael W. Deem and Ramdas Pophale) SiO2 
 PCOD9393283
Probable space group: P C C M
;
_chemical_formula_sum "Si O2"
_cell_formula_units_Z 32
_cell_length_a 9.765098
_cell_length_b 8.251727
_cell_length_c 15.794163
_cell_angle_alpha 90.000000
_cell_angle_beta 90.000000
_cell_angle_gamma 90.000000
_cell_volume 1272.676641
_symmetry_space_group_name_H-M "P C C M"
_symmetry_group_IT_number 49
_symmetry_cell_setting 'orthorhombic'
loop_
_space_group_symop_operation_xyz
x,y,z
-x,-y,z
x,-y,1/2-z
-x,y,1/2-z
-x,-y,-z
x,y,-z
-x,y,1/2+z
x,-y,1/2+z
loop_
_atom_site_type_symbol
_atom_site_label
_atom_site_fract_x
_atom_site_fract_y
_atom_site_fract_z
Si Si1 0.291590 0.075280 0.103470
Si Si2 0.796327 0.451496 0.153569
Si Si3 0.963312 0.755042 0.903223
Si Si4 0.551189 0.745405 0.601876
O O1 0.137847 0.108551 0.132879
O O2 0.398692 0.213775 0.133547
O O3 0.360245 0.905257 0.125184
O O4 0.287104 0.082115 0.000000
O O5 0.805213 0.500000 0.250000
O O6 0.864338 0.595621 0.099230
O O7 0.642373 0.404409 0.130279
O O8 0.898440 0.299283 0.141141
O O9 0.999953 0.793774 0.000000
O O10 0.543763 0.738058 0.500000
#
# Coordination Sequence:
#
# PCOD9393283 Si02
#       4
#     8   8   8   8
#     4   8  17  33  59  89 113 137 183 239 287 335
#     4  11  22  35  51  77 115 154 190 230 276 337
#     4  10  19  35  57  82 108 144 189 237 284 333
#     4   9  17  35  59  86 115 145 181 234 289 339
#
# _framework density 25.143856
#
# number of rings (size 3 to 8) (size 9 to 14) (size 15 to 20)
#    0.000    2.500    0.000    6.000    0.000    2.000 
#    0.000   12.500    0.000    9.000    0.000    0.000 
#    0.000    0.000    0.000    0.000    0.000    0.000 
#
# Total GULP energy -179058.074238 kJ/mol
# GULP energy per Si atom -5595.564820 kJ/mol
# Density = 2.508663 g / cm^3
# Si number density = 25.143856 Si / 1000 Ang^3
#
#
#
# Elastic Constant Matrix: (Units=GPa)
#
#
# Indices 1 2 3 4 5 6 
#
# 1 158.8662 16.5168 23.3477 0.0000 0.0000 0.0000
# 2 16.5168 54.3051 5.2449 0.0000 0.0000 0.0000
# 3 23.3477 5.2449 53.7968 0.0000 0.0000 0.0000
# 4 0.0000 0.0000 0.0000 -23.3426 0.0000 0.0000
# 5 0.0000 0.0000 0.0000 0.0000 -22.6011 0.0000
# 6 0.0000 0.0000 0.0000 0.0000 0.0000 59.5140
#
#
#
# Elastic Compliance Matrix: (Units=1/GPa)
#
#
# Indices 1 2 3 4 5 6 
#
# 1 0.006898 -0.001826 -0.002816 0.000000 0.000000 0.000000
# 2 -0.001826 0.019073 -0.001067 0.000000 0.000000 0.000000
# 3 -0.002816 -0.001067 0.019915 0.000000 0.000000 0.000000
# 4 0.000000 0.000000 0.000000 -0.042840 0.000000 0.000000
# 5 0.000000 0.000000 0.000000 0.000000 -0.044246 0.000000
# 6 0.000000 0.000000 0.000000 0.000000 0.000000 0.016803
#
#
# Mechanical properties :
#
#
# Convention : Reuss Voigt Hill
#
# Bulk Modulus (GPa) = 29.01249 39.68744 34.34996
# Shear Modulus (GPa) = -3355.58477 17.50464 -1669.04007
#
# Velocity S-wave (km/s) = -36.57119 2.64138 -25.79220
# Velocity P-wave (km/s) = 42.09163 5.01208 29.55152
#
# Compressibility (1/GPa) = 0.03446792
#
# Stress axis : x y z
#
# Youngs Moduli (GPa) = 144.96355 52.43032 50.21458
#
# Poissons Ratio (x) = 0.09575 0.14139
# Poissons Ratio (y) = 0.26472 0.05358
# Poissons Ratio (z) = 0.40819 0.05594
#
# Static dielectric constant tensor:
#      x y z
#    x 2.008650 0.000000 0.000000 
#    y 0.000000 2.094860 0.000000 
#    z 0.000000 0.000000 1.914720 
# 
# From -- ./inp_files/11181.got.cif
#   From: 2010.05.17/outbox.cif.g08.bks.cpg/sg49_6_cif.got.tgz:11181.got - 2010.06.03 21:02:19.
