data_PCOD9393573
_publ_section_title
;
Structure prediction by ZEFSAII (Michael W. Deem and Ramdas Pophale) SiO2 
 PCOD9393573
Probable space group: P C C M
;
_chemical_formula_sum "Si O2"
_cell_formula_units_Z 40
_cell_length_a 9.274053
_cell_length_b 27.164346
_cell_length_c 8.681878
_cell_angle_alpha 90.000000
_cell_angle_beta 90.000000
_cell_angle_gamma 90.000000
_cell_volume 2187.169826
_symmetry_space_group_name_H-M "P C C M"
_symmetry_group_IT_number 49
_symmetry_cell_setting 'orthorhombic'
loop_
_space_group_symop_operation_xyz
x,y,z
-x,-y,z
x,-y,1/2-z
-x,y,1/2-z
-x,-y,-z
x,y,-z
-x,y,1/2+z
x,-y,1/2+z
loop_
_atom_site_type_symbol
_atom_site_label
_atom_site_fract_x
_atom_site_fract_y
_atom_site_fract_z
Si Si1 0.339581 0.143825 0.314820
Si Si2 0.163343 0.342723 0.815437
Si Si3 0.838255 0.758458 0.315966
Si Si4 0.836368 0.549974 0.815613
Si Si5 0.161368 0.052605 0.815522
O O1 0.500000 0.146532 0.250000
O O2 0.340851 0.139287 0.500000
O O3 0.253792 0.193715 0.274251
O O4 0.259153 0.097048 0.242775
O O5 0.227613 0.292594 0.747961
O O6 0.228180 0.396369 0.774782
O O7 0.000000 0.343375 0.750000
O O8 0.157634 0.339207 0.000000
O O9 0.847722 0.754948 0.500000
O O10 0.000000 0.763809 0.250000
O O11 0.767604 0.500000 0.750000
O O12 0.000000 0.550985 0.750000
O O13 0.843521 0.546410 0.000000
O O14 0.000000 0.059907 0.750000
O O15 0.212837 0.000000 0.750000
O O16 0.156520 0.050893 0.000000
#
# Coordination Sequence:
#
# PCOD9393573 Si02
#       5
#     8   8   8   8   8
#     4  11  24  40  57  81 110 142 179 219 265 315
#     4   9  16  25  39  60  87 120 161 204 249 299
#     4  10  20  33  52  75 100 132 172 214 258 307
#     4   9  15  21  31  50  78 115 154 194 241 296
#     4  11  22  39  63  89 116 146 180 218 258 305
#
# _framework density 18.288473
#
# number of rings (size 3 to 8) (size 9 to 14) (size 15 to 20)
#    0.000    2.000    0.000    7.200    0.000    7.600 
#    0.000    2.000    0.000    0.000    0.000    0.000 
#    0.000    0.800    0.000    8.800    0.000    9.800 
#
# Total GULP energy -223112.304153 kJ/mol
# GULP energy per Si atom -5577.807604 kJ/mol
# Density = 1.824685 g / cm^3
# Si number density = 18.288473 Si / 1000 Ang^3
#
#
#
# Elastic Constant Matrix: (Units=GPa)
#
#
# Indices 1 2 3 4 5 6 
#
# 1 44.9309 72.6891 30.5359 0.0000 0.0000 0.0000
# 2 72.6891 238.0415 84.9633 0.0000 0.0000 0.0000
# 3 30.5359 84.9633 99.6851 0.0000 0.0000 0.0000
# 4 0.0000 0.0000 0.0000 26.0068 0.0000 0.0000
# 5 0.0000 0.0000 0.0000 0.0000 16.6660 0.0000
# 6 0.0000 0.0000 0.0000 0.0000 0.0000 -5.7091
#
#
#
# Elastic Compliance Matrix: (Units=1/GPa)
#
#
# Indices 1 2 3 4 5 6 
#
# 1 0.044582 -0.012560 -0.002951 0.000000 0.000000 0.000000
# 2 -0.012560 0.009576 -0.004315 0.000000 0.000000 0.000000
# 3 -0.002951 -0.004315 0.014613 0.000000 0.000000 0.000000
# 4 0.000000 0.000000 0.000000 0.038451 0.000000 0.000000
# 5 0.000000 0.000000 0.000000 0.000000 0.060002 0.000000
# 6 0.000000 0.000000 0.000000 0.000000 0.000000 -0.175158
#
#
# Mechanical properties :
#
#
# Convention : Reuss Voigt Hill
#
# Bulk Modulus (GPa) = 34.34137 84.33711 59.33924
# Shear Modulus (GPa) = 120.69444 20.35734 70.52589
#
# Velocity S-wave (km/s) = 8.13253 3.33997 6.21665
# Velocity P-wave (km/s) = 10.34420 7.81594 9.16764
#
# Compressibility (1/GPa) = 0.02911940
#
# Stress axis : x y z
#
# Youngs Moduli (GPa) = 22.43038 104.42287 68.43223
#
# Poissons Ratio (x) = 1.31160 0.20195
# Poissons Ratio (y) = 0.28174 0.29526
# Poissons Ratio (z) = 0.06620 0.45054
#
# Static dielectric constant tensor:
#      x y z
#    x 1.593600 0.000000 0.000000 
#    y 0.000000 1.692770 0.000000 
#    z 0.000000 0.000000 1.611670 
# 
# From -- ./inp_files/1926.got.cif
#   From: 2010.05.17/outbox.cif.g08.bks.cpg/sg49_1_cif.got.tgz:1926.got - 2010.06.03 21:02:19.
