data_PCOD9393924
_publ_section_title
;
Structure prediction by ZEFSAII (Michael W. Deem and Ramdas Pophale) SiO2 
 PCOD9393924
Probable space group: P C C M
;
_chemical_formula_sum "Si O2"
_cell_formula_units_Z 24
_cell_length_a 9.578468
_cell_length_b 11.509009
_cell_length_c 9.107526
_cell_angle_alpha 90.000000
_cell_angle_beta 90.000000
_cell_angle_gamma 90.000000
_cell_volume 1004.001593
_symmetry_space_group_name_H-M "P C C M"
_symmetry_group_IT_number 49
_symmetry_cell_setting 'orthorhombic'
loop_
_space_group_symop_operation_xyz
x,y,z
-x,-y,z
x,-y,1/2-z
-x,y,1/2-z
-x,-y,-z
x,y,-z
-x,y,1/2+z
x,-y,1/2+z
loop_
_atom_site_type_symbol
_atom_site_label
_atom_site_fract_x
_atom_site_fract_y
_atom_site_fract_z
Si Si1 0.396163 0.845352 0.500000
Si Si2 0.651291 0.558014 0.500000
Si Si3 0.274482 0.095124 0.500000
Si Si4 0.102580 0.611682 0.500000
Si Si5 0.236670 0.733501 0.246511
O O1 0.559814 0.871641 0.500000
O O2 0.357089 0.775105 0.356102
O O3 0.291929 0.956933 0.500000
O O4 0.500000 0.500000 0.500000
O O5 0.748844 0.447937 0.500000
O O6 0.699605 0.634667 0.359887
O O7 0.205994 0.156800 0.359155
O O8 0.112086 0.688531 0.352719
O O9 0.000000 0.500000 0.500000
#
# Coordination Sequence:
#
# PCOD9393924 Si02
#       5
#     4   4   4   4   8
#     4  10  20  35  61  97 145 184 220 276 361 441
#     4  11  26  40  63  99 135 180 227 295 349 418
#     4  10  20  35  61  99 141 184 224 278 361 433
#     4  11  26  46  65  91 131 186 245 287 341 414
#     4  10  23  38  61  96 134 187 224 288 345 430
#
# _framework density 23.904344999999999
#
# number of rings (size 3 to 8) (size 9 to 14) (size 15 to 20)
#    0.000    1.667    0.000    3.000   14.000    6.667 
#    0.000    3.333    0.000    0.000    0.000   81.667 
#    0.000    0.000    0.000    0.000    0.000    0.000 
#
# Total GULP energy -134150.026657 kJ/mol
# GULP energy per Si atom -5589.584444 kJ/mol
# Density = 2.384994 g / cm^3
# Si number density = 23.904345 Si / 1000 Ang^3
#
#
#
# Elastic Constant Matrix: (Units=GPa)
#
#
# Indices 1 2 3 4 5 6 
#
# 1 78.6214 25.0492 38.4921 0.0000 0.0000 0.0000
# 2 25.0492 130.4410 74.2408 0.0000 0.0000 0.0000
# 3 38.4921 74.2408 207.0353 0.0000 0.0000 0.0000
# 4 0.0000 0.0000 0.0000 33.3414 0.0000 0.0000
# 5 0.0000 0.0000 0.0000 0.0000 19.8362 0.0000
# 6 0.0000 0.0000 0.0000 0.0000 0.0000 47.3282
#
#
#
# Elastic Compliance Matrix: (Units=1/GPa)
#
#
# Indices 1 2 3 4 5 6 
#
# 1 0.014236 -0.001542 -0.002094 0.000000 0.000000 0.000000
# 2 -0.001542 0.009799 -0.003227 0.000000 0.000000 0.000000
# 3 -0.002094 -0.003227 0.006377 0.000000 0.000000 0.000000
# 4 0.000000 0.000000 0.000000 0.029993 0.000000 0.000000
# 5 0.000000 0.000000 0.000000 0.000000 0.050413 0.000000
# 6 0.000000 0.000000 0.000000 0.000000 0.000000 0.021129
#
#
# Mechanical properties :
#
#
# Convention : Reuss Voigt Hill
#
# Bulk Modulus (GPa) = 59.93271 76.85134 68.39202
# Shear Modulus (GPa) = 33.06141 38.65554 35.85848
#
# Velocity S-wave (km/s) = 3.72300 4.02567 3.87729
# Velocity P-wave (km/s) = 6.60358 7.33671 6.97978
#
# Compressibility (1/GPa) = 0.01668538
#
# Stress axis : x y z
#
# Youngs Moduli (GPa) = 70.24671 102.04918 156.82352
#
# Poissons Ratio (x) = 0.15737 0.32834
# Poissons Ratio (y) = 0.10833 0.50610
# Poissons Ratio (z) = 0.14708 0.32933
#
# Static dielectric constant tensor:
#      x y z
#    x 1.885720 0.000000 0.000000 
#    y 0.000000 2.051440 0.000000 
#    z 0.000000 0.000000 1.519210 
# 
# From -- ./inp_files/2336.got.cif
#   From: 2010.05.17/outbox.cif.g08.bks.cpg/sg49_2_cif.got.tgz:2336.got - 2010.06.03 21:02:19.
