data_PCOD9393331
_publ_section_title
;
Structure prediction by ZEFSAII (Michael W. Deem and Ramdas Pophale) SiO2 
 PCOD9393331
Probable space group: P C C M
;
_chemical_formula_sum "Si O2"
_cell_formula_units_Z 56
_cell_length_a 7.395361
_cell_length_b 16.087481
_cell_length_c 21.334055
_cell_angle_alpha 90.000000
_cell_angle_beta 90.000000
_cell_angle_gamma 90.000000
_cell_volume 2538.170756
_symmetry_space_group_name_H-M "P C C M"
_symmetry_group_IT_number 49
_symmetry_cell_setting 'orthorhombic'
loop_
_space_group_symop_operation_xyz
x,y,z
-x,-y,z
x,-y,1/2-z
-x,y,1/2-z
-x,-y,-z
x,y,-z
-x,y,1/2+z
x,-y,1/2+z
loop_
_atom_site_type_symbol
_atom_site_label
_atom_site_fract_x
_atom_site_fract_y
_atom_site_fract_z
Si Si1 0.420362 0.822214 0.880150
Si Si2 0.743676 0.760249 0.206376
Si Si3 0.962875 0.100105 0.000000
Si Si4 0.873632 0.581234 0.069227
Si Si5 0.798528 0.418722 0.717955
Si Si6 0.032620 0.241424 0.597804
Si Si7 0.701555 0.080709 0.221521
Si Si8 0.531123 0.902570 0.500000
O O1 0.563675 0.783098 0.832722
O O2 0.249710 0.763925 0.894363
O O3 0.329301 0.906961 0.851726
O O4 0.532437 0.853218 0.939417
O O5 0.717916 0.670133 0.235545
O O6 0.779540 0.833235 0.255020
O O7 0.915478 0.758746 0.160777
O O8 0.020931 0.157979 0.941098
O O9 0.746734 0.107407 0.000000
O O10 0.000000 0.000000 0.000000
O O11 0.978834 0.669512 0.068838
O O12 0.000000 0.500000 0.068384
O O13 0.792341 0.577145 0.141085
O O14 0.773995 0.579314 0.000000
O O15 0.715373 0.500000 0.750000
O O16 0.000000 0.415145 0.750000
O O17 0.500000 0.079218 0.250000
O O18 0.793475 0.000000 0.250000
O O19 0.500000 0.000000 0.500000
#
# Coordination Sequence:
#
# PCOD9393331 Si02
#       8
#     8   8   4   8   8   8   8   4
#     4  10  23  41  59  91 128 167 217 263 325 379
#     4  10  23  37  67  93 119 175 211 259 324 383
#     4  10  22  38  57  95 133 173 214 273 319 372
#     4  10  19  35  64  94 121 167 210 250 322 386
#     4  10  20  38  63  97 132 159 212 270 322 393
#     4  10  22  39  61  89 133 162 214 269 312 381
#     4   9  20  37  59  83 123 161 208 259 310 374
#     4  10  24  38  64  87 125 179 218 268 327 379
#
# _framework density 22.063133000000001
#
# number of rings (size 3 to 8) (size 9 to 14) (size 15 to 20)
#    0.000    2.143    2.143    0.000   10.000    1.143 
#    1.286    0.714    0.000   21.000    0.000    8.000 
#    0.000    0.000    0.000    0.000    0.000    0.000 
#
# Total GULP energy -311817.240196 kJ/mol
# GULP energy per Si atom -5568.165003 kJ/mol
# Density = 2.201292 g / cm^3
# Si number density = 22.063133 Si / 1000 Ang^3
#
#
#
# Elastic Constant Matrix: (Units=GPa)
#
#
# Indices 1 2 3 4 5 6 
#
# 1 70.3336 17.1102 8.3520 0.0000 0.0000 0.0000
# 2 17.1102 198.5150 50.1982 0.0000 0.0000 0.0000
# 3 8.3520 50.1982 116.1436 0.0000 0.0000 0.0000
# 4 0.0000 0.0000 0.0000 -85.3059 0.0000 0.0000
# 5 0.0000 0.0000 0.0000 0.0000 15.1650 0.0000
# 6 0.0000 0.0000 0.0000 0.0000 0.0000 -652.2354
#
#
#
# Elastic Compliance Matrix: (Units=1/GPa)
#
#
# Indices 1 2 3 4 5 6 
#
# 1 0.014556 -0.001111 -0.000566 0.000000 0.000000 0.000000
# 2 -0.001111 0.005740 -0.002401 0.000000 0.000000 0.000000
# 3 -0.000566 -0.002401 0.009689 0.000000 0.000000 0.000000
# 4 0.000000 0.000000 0.000000 -0.011723 0.000000 0.000000
# 5 0.000000 0.000000 0.000000 0.000000 0.065941 0.000000
# 6 0.000000 0.000000 0.000000 0.000000 0.000000 -0.001533
#
#
# Mechanical properties :
#
#
# Convention : Reuss Voigt Hill
#
# Bulk Modulus (GPa) = 45.81523 59.59034 52.70279
# Shear Modulus (GPa) = 50.96672 -123.85315 -36.44321
#
# Velocity S-wave (km/s) = 4.81150 -7.50051 -4.06861
# Velocity P-wave (km/s) = 7.18874 6.92406 1.36664
#
# Compressibility (1/GPa) = 0.02182680
#
# Stress axis : x y z
#
# Youngs Moduli (GPa) = 68.70227 174.20520 103.21466
#
# Poissons Ratio (x) = 0.19360 0.05846
# Poissons Ratio (y) = 0.07635 0.24783
# Poissons Ratio (z) = 0.03891 0.41829
#
# Static dielectric constant tensor:
#      x y z
#    x 1.836900 0.000000 0.000000 
#    y 0.000000 1.819820 0.000000 
#    z 0.000000 0.000000 1.976400 
# 
# From -- ./inp_files/19925.got.cif
#   From: 2010.05.17/outbox.cif.g08.bks.cpg/sg49_10_cif.got.tgz:19925.got - 2010.06.03 21:02:19.
