data_PCOD9393469
_publ_section_title
;
Structure prediction by ZEFSAII (Michael W. Deem and Ramdas Pophale) SiO2 
 PCOD9393469
Probable space group: P C C M
;
_chemical_formula_sum "Si O2"
_cell_formula_units_Z 58
_cell_length_a 12.356239
_cell_length_b 16.150666
_cell_length_c 15.301829
_cell_angle_alpha 90.000000
_cell_angle_beta 90.000000
_cell_angle_gamma 90.000000
_cell_volume 3053.655781
_symmetry_space_group_name_H-M "P C C M"
_symmetry_group_IT_number 49
_symmetry_cell_setting 'orthorhombic'
loop_
_space_group_symop_operation_xyz
x,y,z
-x,-y,z
x,-y,1/2-z
-x,y,1/2-z
-x,-y,-z
x,y,-z
-x,y,1/2+z
x,-y,1/2+z
loop_
_atom_site_type_symbol
_atom_site_label
_atom_site_fract_x
_atom_site_fract_y
_atom_site_fract_z
Si Si1 0.500000 0.000000 0.500000
Si Si2 0.267972 0.222022 0.101422
Si Si3 0.828157 0.337467 0.900059
Si Si4 0.611991 0.599336 0.899221
Si Si5 0.060036 0.691108 0.605368
Si Si6 0.472027 0.133946 0.845375
Si Si7 0.588925 0.694344 0.393008
Si Si8 0.175135 0.479786 0.152457
O O1 0.497253 0.927961 0.576667
O O2 0.330694 0.310140 0.099927
O O3 0.149075 0.243026 0.136913
O O4 0.345393 0.159067 0.150521
O O5 0.260139 0.194949 0.000000
O O6 0.711257 0.317658 0.859792
O O7 0.841608 0.436522 0.900897
O O8 0.938368 0.302706 0.858788
O O9 0.822581 0.307282 0.000000
O O10 0.491521 0.619343 0.866594
O O11 0.697474 0.542399 0.850494
O O12 0.606927 0.569890 0.000000
O O13 0.054986 0.700358 0.500000
O O14 0.108681 0.599643 0.620897
O O15 0.500000 0.101512 0.750000
O O16 0.539457 0.219293 0.860552
O O17 0.587022 0.694290 0.500000
O O18 0.141125 0.500000 0.250000
#
# Coordination Sequence:
#
# PCOD9393469 Si02
#       8
#     2   8   8   8   8   8   8   8
#     4  12  22  40  60  90 126 142 166 212 256 330
#     4   8  14  31  54  75 103 137 176 222 259 307
#     4  10  20  32  49  72 100 142 188 229 279 325
#     4   8  15  30  51  66  89 136 179 217 270 326
#     4   9  18  33  53  72  96 139 192 232 273 328
#     4  11  21  35  60  89 117 147 173 208 265 321
#     4   9  18  35  53  74 108 141 175 225 272 321
#     4  11  21  30  42  65 100 135 181 247 294 314
#
# _framework density 18.993628999999999
#
# number of rings (size 3 to 8) (size 9 to 14) (size 15 to 20)
#    0.000    2.483    1.379    3.517    0.000    6.069 
#    0.000    2.759    0.000    0.000    0.000    1.931 
#    0.000    2.207    0.000    0.000    0.000    0.000 
#
# Total GULP energy -323015.721225 kJ/mol
# GULP energy per Si atom -5569.236573 kJ/mol
# Density = 1.895040 g / cm^3
# Si number density = 18.993629 Si / 1000 Ang^3
#
#
#
# Elastic Constant Matrix: (Units=GPa)
#
#
# Indices 1 2 3 4 5 6 
#
# 1 167.6481 27.2260 21.1897 0.0000 0.0000 0.0000
# 2 27.2260 34.3803 16.2771 0.0000 0.0000 0.0000
# 3 21.1897 16.2771 65.2949 0.0000 0.0000 0.0000
# 4 0.0000 0.0000 0.0000 923.0030 0.0000 0.0000
# 5 0.0000 0.0000 0.0000 0.0000 6.8759 0.0000
# 6 0.0000 0.0000 0.0000 0.0000 0.0000 -2.5114
#
#
#
# Elastic Compliance Matrix: (Units=1/GPa)
#
#
# Indices 1 2 3 4 5 6 
#
# 1 0.006902 -0.004995 -0.000995 0.000000 0.000000 0.000000
# 2 -0.004995 0.036593 -0.007501 0.000000 0.000000 0.000000
# 3 -0.000995 -0.007501 0.017508 0.000000 0.000000 0.000000
# 4 0.000000 0.000000 0.000000 0.001083 0.000000 0.000000
# 5 0.000000 0.000000 0.000000 0.000000 0.145435 0.000000
# 6 0.000000 0.000000 0.000000 0.000000 0.000000 -0.398187
#
#
# Mechanical properties :
#
#
# Convention : Reuss Voigt Hill
#
# Bulk Modulus (GPa) = 29.39309 44.07878 36.73594
# Shear Modulus (GPa) = -32.82040 198.98221 83.08090
#
# Velocity S-wave (km/s) = -4.16139 10.24646 6.62091
# Velocity P-wave (km/s) = 2.75332 12.77671 8.82223
#
# Compressibility (1/GPa) = 0.03402160
#
# Stress axis : x y z
#
# Youngs Moduli (GPa) = 144.89142 27.32752 57.11713
#
# Poissons Ratio (x) = 0.13649 0.05681
# Poissons Ratio (y) = 0.72367 0.42845
# Poissons Ratio (z) = 0.14412 0.20499
#
# Static dielectric constant tensor:
#      x y z
#    x 1.738880 0.000000 0.000000 
#    y 0.000000 1.624980 0.000000 
#    z 0.000000 0.000000 1.706040 
# 
# From -- ./inp_files/13035.got.cif
#   From: 2010.05.17/outbox.cif.g08.bks.cpg/sg49_7_cif.got.tgz:13035.got - 2010.06.03 21:02:19.
