data_PCOD9393949
_publ_section_title
;
Structure prediction by ZEFSAII (Michael W. Deem and Ramdas Pophale) SiO2 
 PCOD9393949
Probable space group: P C C M
;
_chemical_formula_sum "Si O2"
_cell_formula_units_Z 40
_cell_length_a 10.139844
_cell_length_b 26.376025
_cell_length_c 8.637347
_cell_angle_alpha 90.000000
_cell_angle_beta 90.000000
_cell_angle_gamma 90.000000
_cell_volume 2310.047908
_symmetry_space_group_name_H-M "P C C M"
_symmetry_group_IT_number 49
_symmetry_cell_setting 'orthorhombic'
loop_
_space_group_symop_operation_xyz
x,y,z
-x,-y,z
x,-y,1/2-z
-x,y,1/2-z
-x,-y,-z
x,y,-z
-x,y,1/2+z
x,-y,1/2+z
loop_
_atom_site_type_symbol
_atom_site_label
_atom_site_fract_x
_atom_site_fract_y
_atom_site_fract_z
Si Si1 0.148330 0.663516 0.686953
Si Si2 0.644971 0.252253 0.313396
Si Si3 0.646001 0.135407 0.686173
Si Si4 0.145969 0.055502 0.685133
Si Si5 0.149413 0.448534 0.814967
O O1 0.140916 0.665277 0.500000
O O2 0.245357 0.707896 0.740816
O O3 0.202023 0.607198 0.728631
O O4 0.000000 0.669242 0.750000
O O5 0.500000 0.264432 0.250000
O O6 0.640223 0.254413 0.500000
O O7 0.676175 0.193985 0.270536
O O8 0.500000 0.124101 0.750000
O O9 0.646368 0.131447 0.500000
O O10 0.751379 0.097224 0.757128
O O11 0.141591 0.053674 0.500000
O O12 0.000000 0.066846 0.750000
O O13 0.183011 0.000000 0.750000
O O14 0.213368 0.500000 0.750000
O O15 0.000000 0.447787 0.750000
O O16 0.145132 0.452291 0.000000
#
# Coordination Sequence:
#
# PCOD9393949 Si02
#       5
#     8   8   8   8   8
#     4   9  18  31  47  71  99 127 161 204 247 293
#     4   9  19  35  53  73 100 132 167 205 248 296
#     4  10  20  36  56  79 105 135 172 213 254 300
#     4  11  22  38  58  81 109 140 172 208 252 301
#     4   9  15  24  40  62  91 122 155 195 242 290
#
# _framework density 17.315657999999999
#
# number of rings (size 3 to 8) (size 9 to 14) (size 15 to 20)
#    0.000    2.400    0.000    4.200    0.000    3.600 
#    0.000    4.000    0.000    0.600    0.000    4.200 
#    0.000    0.000    0.000    0.000    0.000    0.000 
#
# Total GULP energy -223008.193068 kJ/mol
# GULP energy per Si atom -5575.204827 kJ/mol
# Density = 1.727625 g / cm^3
# Si number density = 17.315658 Si / 1000 Ang^3
#
#
#
# Elastic Constant Matrix: (Units=GPa)
#
#
# Indices 1 2 3 4 5 6 
#
# 1 91.7561 111.8483 36.0808 0.0000 0.0000 0.0000
# 2 111.8483 169.9248 54.9868 0.0000 0.0000 0.0000
# 3 36.0808 54.9868 70.8497 0.0000 0.0000 0.0000
# 4 0.0000 0.0000 0.0000 27.8685 0.0000 0.0000
# 5 0.0000 0.0000 0.0000 0.0000 25.2345 0.0000
# 6 0.0000 0.0000 0.0000 0.0000 0.0000 -27.1356
#
#
#
# Elastic Compliance Matrix: (Units=1/GPa)
#
#
# Indices 1 2 3 4 5 6 
#
# 1 0.055142 -0.036334 0.000117 0.000000 0.000000 0.000000
# 2 -0.036334 0.031799 -0.006176 0.000000 0.000000 0.000000
# 3 0.000117 -0.006176 0.018848 0.000000 0.000000 0.000000
# 4 0.000000 0.000000 0.000000 0.035883 0.000000 0.000000
# 5 0.000000 0.000000 0.000000 0.000000 0.039628 0.000000
# 6 0.000000 0.000000 0.000000 0.000000 0.000000 -0.036852
#
#
# Mechanical properties :
#
#
# Convention : Reuss Voigt Hill
#
# Bulk Modulus (GPa) = 47.61014 82.04025 64.82520
# Shear Modulus (GPa) = 21.16523 13.83445 17.49984
#
# Velocity S-wave (km/s) = 3.49996 2.82965 3.18250
# Velocity P-wave (km/s) = 6.62481 7.62614 7.14304
#
# Compressibility (1/GPa) = 0.02100393
#
# Stress axis : x y z
#
# Youngs Moduli (GPa) = 18.13485 31.44720 53.05556
#
# Poissons Ratio (x) = 1.14260 -0.00622
# Poissons Ratio (y) = 0.65891 0.32769
# Poissons Ratio (z) = -0.00212 0.19423
#
# Static dielectric constant tensor:
#      x y z
#    x 1.545050 0.000000 0.000000 
#    y 0.000000 1.626500 0.000000 
#    z 0.000000 0.000000 1.580520 
# 
# From -- ./inp_files/1679.got.cif
#   From: 2010.05.17/outbox.cif.g08.bks.cpg/sg49_1_cif.got.tgz:1679.got - 2010.06.03 21:02:19.
