data_PCOD9393592
_publ_section_title
;
Structure prediction by ZEFSAII (Michael W. Deem and Ramdas Pophale) SiO2 
 PCOD9393592
Probable space group: P C C M
;
_chemical_formula_sum "Si O2"
_cell_formula_units_Z 40
_cell_length_a 11.887341
_cell_length_b 7.190549
_cell_length_c 20.310168
_cell_angle_alpha 90.000000
_cell_angle_beta 90.000000
_cell_angle_gamma 90.000000
_cell_volume 1736.042236
_symmetry_space_group_name_H-M "P C C M"
_symmetry_group_IT_number 49
_symmetry_cell_setting 'orthorhombic'
loop_
_space_group_symop_operation_xyz
x,y,z
-x,-y,z
x,-y,1/2-z
-x,y,1/2-z
-x,-y,-z
x,y,-z
-x,y,1/2+z
x,-y,1/2+z
loop_
_atom_site_type_symbol
_atom_site_label
_atom_site_fract_x
_atom_site_fract_y
_atom_site_fract_z
Si Si1 0.247767 0.718713 0.423877
Si Si2 0.824868 0.416789 0.184056
Si Si3 0.579497 0.683783 0.300264
Si Si4 0.491389 0.218807 0.432540
Si Si5 0.879045 0.101629 0.076719
O O1 0.214949 0.672250 0.500000
O O2 0.199507 0.583254 0.368068
O O3 0.383142 0.708721 0.420161
O O4 0.209283 0.932236 0.413305
O O5 0.883157 0.500000 0.250000
O O6 0.708301 0.339936 0.217298
O O7 0.872479 0.254664 0.135391
O O8 0.500000 0.500000 0.309260
O O9 0.500000 0.794269 0.250000
O O10 0.589443 0.753767 0.373092
O O11 0.445845 0.300466 0.500000
O O12 0.500000 0.000000 0.438367
O O13 0.864267 0.171705 0.000000
O O14 0.000000 0.000000 0.079070
#
# Coordination Sequence:
#
# PCOD9393592 Si02
#       5
#     8   8   8   8   8
#     4  10  21  39  63  92 124 168 224 273 328 399
#     4  12  23  40  67  96 133 175 220 276 340 410
#     4  11  20  37  56  85 129 172 212 250 316 410
#     4  10  20  33  53  85 123 162 211 268 318 377
#     4  10  24  47  71  95 128 172 227 290 351 408
#
# _framework density 23.040914999999998
#
# number of rings (size 3 to 8) (size 9 to 14) (size 15 to 20)
#    0.000    1.400    4.000    1.800    0.000    5.600 
#    0.000   10.000    0.000    0.000    0.000    0.000 
#    0.000    0.000    0.000    0.000    0.000    0.000 
#
# Total GULP energy -222831.243829 kJ/mol
# GULP energy per Si atom -5570.781096 kJ/mol
# Density = 2.298847 g / cm^3
# Si number density = 23.040915 Si / 1000 Ang^3
#
#
#
# Elastic Constant Matrix: (Units=GPa)
#
#
# Indices 1 2 3 4 5 6 
#
# 1 84.9519 7.8208 38.6329 0.0000 0.0000 0.0000
# 2 7.8208 92.7055 62.3279 0.0000 0.0000 0.0000
# 3 38.6329 62.3279 182.9932 0.0000 0.0000 0.0000
# 4 0.0000 0.0000 0.0000 49.1333 0.0000 0.0000
# 5 0.0000 0.0000 0.0000 0.0000 5.2443 0.0000
# 6 0.0000 0.0000 0.0000 0.0000 0.0000 3.3914
#
#
#
# Elastic Compliance Matrix: (Units=1/GPa)
#
#
# Indices 1 2 3 4 5 6 
#
# 1 0.013089 0.000977 -0.003096 0.000000 0.000000 0.000000
# 2 0.000977 0.014064 -0.004996 0.000000 0.000000 0.000000
# 3 -0.003096 -0.004996 0.007820 0.000000 0.000000 0.000000
# 4 0.000000 0.000000 0.000000 0.020353 0.000000 0.000000
# 5 0.000000 0.000000 0.000000 0.000000 0.190682 0.000000
# 6 0.000000 0.000000 0.000000 0.000000 0.000000 0.294861
#
#
# Mechanical properties :
#
#
# Convention : Reuss Voigt Hill
#
# Bulk Modulus (GPa) = 48.20989 64.24597 56.22793
# Shear Modulus (GPa) = 8.89658 28.34507 18.62083
#
# Velocity S-wave (km/s) = 1.96713 3.51123 2.84591
# Velocity P-wave (km/s) = 5.11160 6.66201 5.93763
#
# Compressibility (1/GPa) = 0.02074263
#
# Stress axis : x y z
#
# Youngs Moduli (GPa) = 76.39723 71.10547 127.87431
#
# Poissons Ratio (x) = -0.06950 0.39594
# Poissons Ratio (y) = -0.07468 0.63892
# Poissons Ratio (z) = 0.23655 0.35528
#
# Static dielectric constant tensor:
#      x y z
#    x 1.732800 0.000000 0.000000 
#    y 0.000000 1.851150 0.000000 
#    z 0.000000 0.000000 3.059200 
# 
# From -- ./inp_files/16829.got.cif
#   From: 2010.05.17/outbox.cif.g08.bks.cpg/sg49_9_cif.got.tgz:16829.got - 2010.06.03 21:02:19.
