data_PCOD9393420
_publ_section_title
;
Structure prediction by ZEFSAII (Michael W. Deem and Ramdas Pophale) SiO2 
 PCOD9393420
Probable space group: P C C M
;
_chemical_formula_sum "Si O2"
_cell_formula_units_Z 28
_cell_length_a 7.354347
_cell_length_b 7.051604
_cell_length_c 19.971228
_cell_angle_alpha 90.000000
_cell_angle_beta 90.000000
_cell_angle_gamma 90.000000
_cell_volume 1035.706740
_symmetry_space_group_name_H-M "P C C M"
_symmetry_group_IT_number 49
_symmetry_cell_setting 'orthorhombic'
loop_
_space_group_symop_operation_xyz
x,y,z
-x,-y,z
x,-y,1/2-z
-x,y,1/2-z
-x,-y,-z
x,y,-z
-x,y,1/2+z
x,-y,1/2+z
loop_
_atom_site_type_symbol
_atom_site_label
_atom_site_fract_x
_atom_site_fract_y
_atom_site_fract_z
Si Si1 0.000000 0.000000 0.250000
Si Si2 0.716743 0.977478 0.852909
Si Si3 0.716353 0.472275 0.500000
Si Si4 0.795509 0.476914 0.649805
Si Si5 0.500000 0.500000 0.750000
Si Si6 0.716841 0.028805 0.500000
O O1 0.147629 0.919321 0.197845
O O2 0.749569 0.749444 0.846903
O O3 0.773581 0.041713 0.927532
O O4 0.500000 0.000000 0.842403
O O5 0.500000 0.500000 0.500000
O O6 0.783251 0.541029 0.572209
O O7 0.759706 0.250214 0.500000
O O8 0.645191 0.578936 0.695864
O O9 0.000000 0.500000 0.673431
O O10 0.500000 0.000000 0.500000
#
# Coordination Sequence:
#
# PCOD9393420 Si02
#       6
#     2   8   4   8   2   4
#     4  12  26  38  66  98 136 174 234 278 348 424
#     4  10  24  44  68  95 137 180 229 285 348 413
#     4  10  19  43  67  99 129 182 230 288 348 413
#     4  11  25  43  69 100 137 179 236 288 351 419
#     4  12  26  38  66  94 148 178 218 290 360 428
#     4   8  18  42  67  90 127 174 227 279 333 406
#
# _framework density 27.034679000000001
#
# number of rings (size 3 to 8) (size 9 to 14) (size 15 to 20)
#    0.000    1.714    1.429    1.286    8.000    0.571 
#    5.143    0.000    0.000    0.000    0.000    0.000 
#    0.000    0.000    0.000    0.000    0.000    0.000 
#
# Total GULP energy -156484.679386 kJ/mol
# GULP energy per Si atom -5588.738549 kJ/mol
# Density = 2.697315 g / cm^3
# Si number density = 27.034679 Si / 1000 Ang^3
#
#
#
# Elastic Constant Matrix: (Units=GPa)
#
#
# Indices 1 2 3 4 5 6 
#
# 1 253.3594 41.5676 103.0106 0.0000 0.0000 0.0000
# 2 41.5676 156.0895 7.8646 0.0000 0.0000 0.0000
# 3 103.0106 7.8646 290.6617 0.0000 0.0000 0.0000
# 4 0.0000 0.0000 0.0000 -24.4689 0.0000 0.0000
# 5 0.0000 0.0000 0.0000 0.0000 49.5384 0.0000
# 6 0.0000 0.0000 0.0000 0.0000 0.0000 40.6225
#
#
#
# Elastic Compliance Matrix: (Units=1/GPa)
#
#
# Indices 1 2 3 4 5 6 
#
# 1 0.004826 -0.001201 -0.001678 0.000000 0.000000 0.000000
# 2 -0.001201 0.006714 0.000244 0.000000 0.000000 0.000000
# 3 -0.001678 0.000244 0.004028 0.000000 0.000000 0.000000
# 4 0.000000 0.000000 0.000000 -0.040868 0.000000 0.000000
# 5 0.000000 0.000000 0.000000 0.000000 0.020186 0.000000
# 6 0.000000 0.000000 0.000000 0.000000 0.000000 0.024617
#
#
# Mechanical properties :
#
#
# Convention : Reuss Voigt Hill
#
# Bulk Modulus (GPa) = 97.09487 111.66624 104.38056
# Shear Modulus (GPa) = 177.26533 49.64959 113.45746
#
# Velocity S-wave (km/s) = 8.10629 4.29011 6.48525
# Velocity P-wave (km/s) = 11.11795 8.12001 9.73507
#
# Compressibility (1/GPa) = 0.01029921
#
# Stress axis : x y z
#
# Youngs Moduli (GPa) = 207.20424 148.94152 248.23273
#
# Poissons Ratio (x) = 0.17883 0.41651
# Poissons Ratio (y) = 0.24879 -0.06053
# Poissons Ratio (z) = 0.34767 -0.03632
#
# Static dielectric constant tensor:
#      x y z
#    x 2.015750 0.000000 0.000000 
#    y 0.000000 2.478680 0.000000 
#    z 0.000000 0.000000 2.123950 
# 
# From -- ./inp_files/18698.got.cif
#   From: 2010.05.17/outbox.cif.g08.bks.cpg/sg49_10_cif.got.tgz:18698.got - 2010.06.03 21:02:19.
