data_PCOD9393881
_publ_section_title
;
Structure prediction by ZEFSAII (Michael W. Deem and Ramdas Pophale) SiO2 
 PCOD9393881
Probable space group: P C C M
;
_chemical_formula_sum "Si O2"
_cell_formula_units_Z 64
_cell_length_a 9.299264
_cell_length_b 21.074628
_cell_length_c 15.231964
_cell_angle_alpha 90.000000
_cell_angle_beta 90.000000
_cell_angle_gamma 90.000000
_cell_volume 2985.137906
_symmetry_space_group_name_H-M "P C C M"
_symmetry_group_IT_number 49
_symmetry_cell_setting 'orthorhombic'
loop_
_space_group_symop_operation_xyz
x,y,z
-x,-y,z
x,-y,1/2-z
-x,y,1/2-z
-x,-y,-z
x,y,-z
-x,y,1/2+z
x,-y,1/2+z
loop_
_atom_site_type_symbol
_atom_site_label
_atom_site_fract_x
_atom_site_fract_y
_atom_site_fract_z
Si Si1 0.059712 0.173453 0.343776
Si Si2 0.610287 0.818857 0.393396
Si Si3 0.927329 0.437642 0.654045
Si Si4 0.398283 0.560337 0.393613
Si Si5 0.922302 0.687073 0.398372
Si Si6 0.597852 0.675651 0.606622
Si Si7 0.901439 0.054636 0.600048
Si Si8 0.418233 0.935938 0.607468
O O1 0.230691 0.170514 0.355758
O O2 0.021954 0.247482 0.357859
O O3 0.000000 0.154508 0.250000
O O4 0.983864 0.121290 0.403865
O O5 0.623436 0.820928 0.500000
O O6 0.558478 0.747912 0.370656
O O7 0.503133 0.873513 0.363946
O O8 0.756288 0.445219 0.651913
O O9 0.000000 0.500000 0.611436
O O10 0.000000 0.433601 0.750000
O O11 0.971498 0.371736 0.609663
O O12 0.500000 0.500000 0.377075
O O13 0.373733 0.563298 0.500000
O O14 0.485948 0.622624 0.363858
O O15 0.899421 0.703107 0.500000
O O16 0.763883 0.667228 0.363160
O O17 0.598849 0.670049 0.500000
O O18 0.872546 0.032485 0.500000
O O19 0.744646 0.062914 0.640841
O O20 0.000000 0.000000 0.641285
O O21 0.417724 0.933205 0.500000
O O22 0.500000 0.000000 0.632522
#
# Coordination Sequence:
#
# PCOD9393881 Si02
#       8
#     8   8   8   8   8   8   8   8
#     4  11  22  36  56  83 119 156 190 234 292 355
#     4   9  17  33  56  81 112 149 189 232 285 347
#     4  11  24  40  57  85 126 163 196 238 297 363
#     4  10  20  36  61  90 117 151 201 254 299 348
#     4  10  20  38  63  86 113 153 201 248 294 347
#     4   8  16  31  53  82 110 141 188 243 291 336
#     4  10  20  35  57  84 113 148 196 247 291 342
#     4   9  17  30  52  80 107 140 187 242 290 335
#
# _framework density 21.439544999999999
#
# number of rings (size 3 to 8) (size 9 to 14) (size 15 to 20)
#    0.000    2.250    0.000    4.125    0.000    5.250 
#    0.000    7.500    0.000    3.750    0.000    0.000 
#    0.000    0.000    0.000    0.000    0.000    0.000 
#
# Total GULP energy -357392.664000 kJ/mol
# GULP energy per Si atom -5584.260375 kJ/mol
# Density = 2.139075 g / cm^3
# Si number density = 21.439545 Si / 1000 Ang^3
#
#
#
# Elastic Constant Matrix: (Units=GPa)
#
#
# Indices 1 2 3 4 5 6 
#
# 1 158.4933 109.6860 14.0555 0.0000 0.0000 0.0000
# 2 109.6860 159.4757 5.2690 0.0000 0.0000 0.0000
# 3 14.0555 5.2690 48.1789 0.0000 0.0000 0.0000
# 4 0.0000 0.0000 0.0000 -1.2986 0.0000 0.0000
# 5 0.0000 0.0000 0.0000 0.0000 16.4068 0.0000
# 6 0.0000 0.0000 0.0000 0.0000 0.0000 43.0073
#
#
#
# Elastic Compliance Matrix: (Units=1/GPa)
#
#
# Indices 1 2 3 4 5 6 
#
# 1 0.012378 -0.008425 -0.002690 0.000000 0.000000 0.000000
# 2 -0.008425 0.012027 0.001142 0.000000 0.000000 0.000000
# 3 -0.002690 0.001142 0.021416 0.000000 0.000000 0.000000
# 4 0.000000 0.000000 0.000000 -0.770065 0.000000 0.000000
# 5 0.000000 0.000000 0.000000 0.000000 0.060950 0.000000
# 6 0.000000 0.000000 0.000000 0.000000 0.000000 0.023252
#
#
# Mechanical properties :
#
#
# Convention : Reuss Voigt Hill
#
# Bulk Modulus (GPa) = 38.64433 69.35208 53.99821
# Shear Modulus (GPa) = -8.17700 27.43227 9.62763
#
# Velocity S-wave (km/s) = -1.95506 3.58091 2.12140
# Velocity P-wave (km/s) = 3.60105 7.03671 5.58940
#
# Compressibility (1/GPa) = 0.02587702
#
# Stress axis : x y z
#
# Youngs Moduli (GPa) = 80.78552 83.14359 46.69464
#
# Poissons Ratio (x) = 0.70048 0.12560
# Poissons Ratio (y) = 0.68061 -0.05335
# Poissons Ratio (z) = 0.21730 -0.09499
#
# Static dielectric constant tensor:
#      x y z
#    x 1.772950 0.000000 0.000000 
#    y 0.000000 1.774520 0.000000 
#    z 0.000000 0.000000 1.859990 
# 
# From -- ./inp_files/16584.got.cif
#   From: 2010.05.17/outbox.cif.g08.bks.cpg/sg49_9_cif.got.tgz:16584.got - 2010.06.03 21:02:19.
