data_PCOD9393168
_publ_section_title
;
Structure prediction by ZEFSAII (Michael W. Deem and Ramdas Pophale) SiO2 
 PCOD9393168
Probable space group: P C C M
;
_chemical_formula_sum "Si O2"
_cell_formula_units_Z 60
_cell_length_a 16.603599
_cell_length_b 22.726072
_cell_length_c 8.096372
_cell_angle_alpha 90.000000
_cell_angle_beta 90.000000
_cell_angle_gamma 90.000000
_cell_volume 3055.041179
_symmetry_space_group_name_H-M "P C C M"
_symmetry_group_IT_number 49
_symmetry_cell_setting 'orthorhombic'
loop_
_space_group_symop_operation_xyz
x,y,z
-x,-y,z
x,-y,1/2-z
-x,y,1/2-z
-x,-y,-z
x,y,-z
-x,y,1/2+z
x,-y,1/2+z
loop_
_atom_site_type_symbol
_atom_site_label
_atom_site_fract_x
_atom_site_fract_y
_atom_site_fract_z
Si Si1 0.590994 0.144927 0.300274
Si Si2 0.000000 0.644764 0.750000
Si Si3 0.863650 0.566238 0.191686
Si Si4 0.589204 0.279889 0.303102
Si Si5 0.911032 0.124786 0.803425
Si Si6 0.742688 0.932729 0.196825
Si Si7 0.115237 0.740467 0.800022
Si Si8 0.742794 0.657979 0.691617
O O1 0.500000 0.126177 0.250000
O O2 0.592387 0.144539 0.500000
O O3 0.602571 0.212529 0.242983
O O4 0.666384 0.105714 0.239928
O O5 0.068455 0.598341 0.804088
O O6 0.063349 0.694858 0.691236
O O7 0.852065 0.500000 0.250000
O O8 0.783709 0.605313 0.208492
O O9 0.891749 0.568396 0.000000
O O10 0.500000 0.296287 0.250000
O O11 0.596240 0.278942 0.500000
O O12 0.652830 0.325472 0.233353
O O13 0.831258 0.090415 0.747615
O O14 0.900839 0.192986 0.749384
O O15 0.000000 0.103283 0.750000
O O16 0.910474 0.124741 0.000000
O O17 0.733459 0.000000 0.250000
O O18 0.739888 0.929448 0.000000
O O19 0.205747 0.717770 0.778930
O O20 0.096762 0.733348 0.000000
O O21 0.751842 0.642609 0.500000
#
# Coordination Sequence:
#
# PCOD9393168 Si02
#       8
#     8   4   8   8   8   8   8   8
#     4   9  20  37  60  89 121 152 186 229 285 348
#     4  10  19  34  54  82 113 146 186 228 278 332
#     4  11  23  37  55  78 111 153 195 237 279 327
#     4  10  19  34  57  87 118 148 182 224 278 335
#     4  11  22  38  59  84 113 149 190 239 292 343
#     4  11  24  42  60  83 112 149 195 241 287 342
#     4   9  18  32  52  80 113 145 180 224 280 337
#     4  10  20  35  55  81 113 149 189 232 278 333
#
# _framework density 19.639671
#
# number of rings (size 3 to 8) (size 9 to 14) (size 15 to 20)
#    0.000    1.867    0.667    3.400    0.000    4.267 
#    0.000    4.000    0.000    0.400    0.000    2.800 
#    0.000    0.000    0.000    0.000    0.000    0.000 
#
# Total GULP energy -334270.750415 kJ/mol
# GULP energy per Si atom -5571.179174 kJ/mol
# Density = 1.959497 g / cm^3
# Si number density = 19.639671 Si / 1000 Ang^3
#
#
#
# Elastic Constant Matrix: (Units=GPa)
#
#
# Indices 1 2 3 4 5 6 
#
# 1 150.1179 68.2657 14.2204 0.0000 0.0000 0.0000
# 2 68.2657 81.0450 9.5151 0.0000 0.0000 0.0000
# 3 14.2204 9.5151 46.7906 0.0000 0.0000 0.0000
# 4 0.0000 0.0000 0.0000 9.9391 0.0000 0.0000
# 5 0.0000 0.0000 0.0000 0.0000 14.4507 0.0000
# 6 0.0000 0.0000 0.0000 0.0000 0.0000 19.6978
#
#
#
# Elastic Compliance Matrix: (Units=1/GPa)
#
#
# Indices 1 2 3 4 5 6 
#
# 1 0.010896 -0.009004 -0.001480 0.000000 0.000000 0.000000
# 2 -0.009004 0.020082 -0.001347 0.000000 0.000000 0.000000
# 3 -0.001480 -0.001347 0.022096 0.000000 0.000000 0.000000
# 4 0.000000 0.000000 0.000000 0.100613 0.000000 0.000000
# 5 0.000000 0.000000 0.000000 0.000000 0.069201 0.000000
# 6 0.000000 0.000000 0.000000 0.000000 0.000000 0.050767
#
#
# Mechanical properties :
#
#
# Convention : Reuss Voigt Hill
#
# Bulk Modulus (GPa) = 34.00250 51.32845 42.66548
# Shear Modulus (GPa) = 16.28018 21.21433 18.74726
#
# Velocity S-wave (km/s) = 2.88226 3.29017 3.09295
# Velocity P-wave (km/s) = 5.33173 6.37381 5.87592
#
# Compressibility (1/GPa) = 0.02940960
#
# Stress axis : x y z
#
# Youngs Moduli (GPa) = 91.77337 49.79690 45.25771
#
# Poissons Ratio (x) = 0.44839 0.06700
# Poissons Ratio (y) = 0.82637 0.06097
# Poissons Ratio (z) = 0.13587 0.06708
#
# Static dielectric constant tensor:
#      x y z
#    x 1.700110 0.000000 0.000000 
#    y 0.000000 1.728600 0.000000 
#    z 0.000000 0.000000 1.764960 
# 
# From -- ./inp_files/4248.got.cif
#   From: 2010.05.17/outbox.cif.g08.bks.cpg/sg49_3_cif.got.tgz:4248.got - 2010.06.03 21:02:19.
