data_PCOD9393120
_publ_section_title
;
Structure prediction by ZEFSAII (Michael W. Deem and Ramdas Pophale) SiO2 
 PCOD9393120
Probable space group: P C C M
;
_chemical_formula_sum "Si O2"
_cell_formula_units_Z 56
_cell_length_a 4.992248
_cell_length_b 15.922243
_cell_length_c 34.797314
_cell_angle_alpha 90.000000
_cell_angle_beta 90.000000
_cell_angle_gamma 90.000000
_cell_volume 2765.961441
_symmetry_space_group_name_H-M "P C C M"
_symmetry_group_IT_number 49
_symmetry_cell_setting 'orthorhombic'
loop_
_space_group_symop_operation_xyz
x,y,z
-x,-y,z
x,-y,1/2-z
-x,y,1/2-z
-x,-y,-z
x,y,-z
-x,y,1/2+z
x,-y,1/2+z
loop_
_atom_site_type_symbol
_atom_site_label
_atom_site_fract_x
_atom_site_fract_y
_atom_site_fract_z
Si Si1 0.481155 0.186513 0.205944
Si Si2 0.985743 0.186052 0.090271
Si Si3 0.068110 0.633265 0.127911
Si Si4 0.430568 0.589144 0.580611
Si Si5 0.976339 0.303182 0.794107
Si Si6 0.485697 0.230712 0.955887
Si Si7 0.249843 0.054145 0.648179
O O1 0.500000 0.156515 0.250000
O O2 0.186765 0.225884 0.199766
O O3 0.598667 0.115833 0.178059
O O4 0.680711 0.265093 0.201615
O O5 0.956549 0.267902 0.117313
O O6 0.783209 0.202823 0.055248
O O7 0.891528 0.107393 0.114771
O O8 0.283025 0.185094 0.073382
O O9 0.361400 0.604273 0.115614
O O10 0.860036 0.589161 0.099592
O O11 0.992460 0.628502 0.172493
O O12 0.500000 0.500000 0.562167
O O13 0.457993 0.669792 0.553239
O O14 0.000000 0.331940 0.750000
O O15 0.422910 0.213952 0.000000
O O16 0.500000 0.000000 0.632951
O O17 0.000000 0.000000 0.665355
#
# Coordination Sequence:
#
# PCOD9393120 Si02
#       7
#     8   8   8   8   8   8   8
#     4  10  21  36  54  81 115 150 188 241 293 335
#     4  10  21  37  60  83 112 146 198 234 272 344
#     4  10  19  34  59  79 110 155 193 233 274 328
#     4  10  21  35  56  89 120 148 179 223 283 349
#     4  10  19  33  57  82 109 146 198 248 282 319
#     4  10  21  38  63  89 112 147 184 230 285 340
#     4  12  24  37  59  83 117 156 193 238 293 341
#
# _framework density 20.246127000000001
#
# number of rings (size 3 to 8) (size 9 to 14) (size 15 to 20)
#    0.000    1.714    1.429    3.429    4.000    0.571 
#    0.000    0.714    0.000   16.286    0.000    0.000 
#    0.000    0.000    0.000    0.000    0.000    0.000 
#
# Total GULP energy -312672.223372 kJ/mol
# GULP energy per Si atom -5583.432560 kJ/mol
# Density = 2.020005 g / cm^3
# Si number density = 20.246127 Si / 1000 Ang^3
#
#
#
# Elastic Constant Matrix: (Units=GPa)
#
#
# Indices 1 2 3 4 5 6 
#
# 1 72.6910 -3.5103 -8.4236 0.0000 0.0000 0.0000
# 2 -3.5103 20.4182 0.2250 0.0000 0.0000 0.0000
# 3 -8.4236 0.2250 59.7459 0.0000 0.0000 0.0000
# 4 0.0000 0.0000 0.0000 5.1704 0.0000 0.0000
# 5 0.0000 0.0000 0.0000 0.0000 19.1633 0.0000
# 6 0.0000 0.0000 0.0000 0.0000 0.0000 20.5676
#
#
#
# Elastic Compliance Matrix: (Units=1/GPa)
#
#
# Indices 1 2 3 4 5 6 
#
# 1 0.014102 0.002403 0.001979 0.000000 0.000000 0.000000
# 2 0.002403 0.049387 0.000153 0.000000 0.000000 0.000000
# 3 0.001979 0.000153 0.017016 0.000000 0.000000 0.000000
# 4 0.000000 0.000000 0.000000 0.193407 0.000000 0.000000
# 5 0.000000 0.000000 0.000000 0.000000 0.052183 0.000000
# 6 0.000000 0.000000 0.000000 0.000000 0.000000 0.048620
#
#
# Mechanical properties :
#
#
# Convention : Reuss Voigt Hill
#
# Bulk Modulus (GPa) = 11.16386 14.38193 12.77289
# Shear Modulus (GPa) = 12.64207 19.95122 16.29664
#
# Velocity S-wave (km/s) = 2.50155 3.14257 2.84020
# Velocity P-wave (km/s) = 3.72421 4.50407 4.13257
#
# Compressibility (1/GPa) = 0.08957477
#
# Stress axis : x y z
#
# Youngs Moduli (GPa) = 70.91073 20.24816 58.76816
#
# Poissons Ratio (x) = -0.04865 -0.11632
# Poissons Ratio (y) = -0.17037 -0.00898
# Poissons Ratio (z) = -0.14035 -0.00309
#
# Static dielectric constant tensor:
#      x y z
#    x 1.706130 0.000000 0.000000 
#    y 0.000000 1.748740 0.000000 
#    z 0.000000 0.000000 1.703940 
# 
# From -- ./inp_files/25845.got.cif
#   From: 2010.05.17/outbox.cif.g08.bks.cpg/sg49_13_cif.got.tgz:25845.got - 2010.06.03 21:02:19.
