data_PCOD9393532
_publ_section_title
;
Structure prediction by ZEFSAII (Michael W. Deem and Ramdas Pophale) SiO2 
 PCOD9393532
Probable space group: P C C M
;
_chemical_formula_sum "Si O2"
_cell_formula_units_Z 64
_cell_length_a 14.916502
_cell_length_b 21.791974
_cell_length_c 9.021621
_cell_angle_alpha 90.000000
_cell_angle_beta 90.000000
_cell_angle_gamma 90.000000
_cell_volume 2932.568337
_symmetry_space_group_name_H-M "P C C M"
_symmetry_group_IT_number 49
_symmetry_cell_setting 'orthorhombic'
loop_
_space_group_symop_operation_xyz
x,y,z
-x,-y,z
x,-y,1/2-z
-x,y,1/2-z
-x,-y,-z
x,y,-z
-x,y,1/2+z
x,-y,1/2+z
loop_
_atom_site_type_symbol
_atom_site_label
_atom_site_fract_x
_atom_site_fract_y
_atom_site_fract_z
Si Si1 0.401719 0.060315 0.676936
Si Si2 0.140258 0.303968 0.672760
Si Si3 0.855731 0.183375 0.335594
Si Si4 0.359024 0.561697 0.826882
Si Si5 0.644269 0.183375 0.335594
Si Si6 0.140976 0.561697 0.173118
Si Si7 0.359742 0.303968 0.327240
Si Si8 0.098281 0.939685 0.823064
O O1 0.500000 0.061722 0.750000
O O2 0.403837 0.054165 0.500000
O O3 0.363553 0.125352 0.727909
O O4 0.356975 0.000000 0.750000
O O5 0.114430 0.298032 0.500000
O O6 0.107367 0.246008 0.765971
O O7 0.112569 0.371257 0.731165
O O8 0.250000 0.303348 0.674176
O O9 0.893752 0.169944 0.500000
O O10 0.750000 0.193717 0.352020
O O11 0.863553 0.125352 0.227909
O O12 0.392201 0.500000 0.750000
O O13 0.250000 0.560942 0.816385
O O14 0.387431 0.628743 0.768835
O O15 0.381644 0.559554 0.000000
O O16 0.606248 0.169944 0.500000
O O17 0.607367 0.246008 0.265971
O O18 0.107799 0.500000 0.250000
O O19 0.118356 0.559554 0.000000
O O20 0.385570 0.298032 0.500000
O O21 0.000000 0.938278 0.750000
O O22 0.143025 0.000000 0.750000
O O23 0.096163 0.945835 0.000000
#
# Coordination Sequence:
#
# PCOD9393532 Si02
#       8
#     8   8   8   8   8   8   8   8
#     4  11  22  38  58  77 100 128 160 198 241 289
#     4   8  14  25  39  57  85 121 158 196 240 286
#     4  10  20  33  50  74 102 131 165 203 243 289
#     4   8  13  20  31  49  76 112 153 193 233 280
#     4  10  20  33  50  74 102 131 165 203 243 289
#     4   8  13  20  31  49  76 112 153 193 233 280
#     4   8  14  25  39  57  85 121 158 196 240 286
#     4  11  22  38  58  77 100 128 160 198 241 289
#
# _framework density 21.823874
#
# number of rings (size 3 to 8) (size 9 to 14) (size 15 to 20)
#    0.000    2.750    0.000    5.250    0.000    3.000 
#    0.000    5.000    0.000    0.000    0.000    0.000 
#    0.000    1.000    0.000   10.500    0.000   15.250 
#
# Total GULP energy -356977.473171 kJ/mol
# GULP energy per Si atom -5577.773018 kJ/mol
# Density = 2.177420 g / cm^3
# Si number density = 21.823874 Si / 1000 Ang^3
#
#
#
# Elastic Constant Matrix: (Units=GPa)
#
#
# Indices 1 2 3 4 5 6 
#
# 1 39.2147 6.9769 8.5182 0.0000 0.0000 0.0000
# 2 6.9769 229.0192 103.3966 0.0000 0.0000 0.0000
# 3 8.5182 103.3966 149.8190 0.0000 0.0000 0.0000
# 4 0.0000 0.0000 0.0000 26.5878 0.0000 0.0000
# 5 0.0000 0.0000 0.0000 0.0000 9.0886 0.0000
# 6 0.0000 0.0000 0.0000 0.0000 0.0000 23.7028
#
#
#
# Elastic Compliance Matrix: (Units=1/GPa)
#
#
# Indices 1 2 3 4 5 6 
#
# 1 0.025825 -0.000180 -0.001344 0.000000 0.000000 0.000000
# 2 -0.000180 0.006344 -0.004368 0.000000 0.000000 0.000000
# 3 -0.001344 -0.004368 0.009766 0.000000 0.000000 0.000000
# 4 0.000000 0.000000 0.000000 0.037611 0.000000 0.000000
# 5 0.000000 0.000000 0.000000 0.000000 0.110028 0.000000
# 6 0.000000 0.000000 0.000000 0.000000 0.000000 0.042189
#
#
# Mechanical properties :
#
#
# Convention : Reuss Voigt Hill
#
# Bulk Modulus (GPa) = 33.16727 72.87069 53.01898
# Shear Modulus (GPa) = 19.71636 31.81993 25.76814
#
# Velocity S-wave (km/s) = 3.00897 3.82256 3.43991
# Velocity P-wave (km/s) = 5.22519 7.27637 6.33435
#
# Compressibility (1/GPa) = 0.03015020
#
# Stress axis : x y z
#
# Youngs Moduli (GPa) = 38.72270 157.62966 102.39906
#
# Poissons Ratio (x) = 0.02835 0.13764
# Poissons Ratio (y) = 0.00696 0.44728
# Poissons Ratio (z) = 0.05205 0.68853
#
# Static dielectric constant tensor:
#      x y z
#    x 1.911100 0.000000 0.000000 
#    y 0.000000 1.845270 0.000000 
#    z 0.000000 0.000000 1.767540 
# 
# From -- ./inp_files/5319.got.cif
#   From: 2010.05.17/outbox.cif.g08.bks.cpg/sg49_3_cif.got.tgz:5319.got - 2010.06.03 21:02:19.
