data_PCOD9393266
_publ_section_title
;
Structure prediction by ZEFSAII (Michael W. Deem and Ramdas Pophale) SiO2 
 PCOD9393266
Probable space group: P C C M
;
_chemical_formula_sum "Si O2"
_cell_formula_units_Z 64
_cell_length_a 17.785362
_cell_length_b 21.521754
_cell_length_c 8.492418
_cell_angle_alpha 90.000000
_cell_angle_beta 90.000000
_cell_angle_gamma 90.000000
_cell_volume 3250.661400
_symmetry_space_group_name_H-M "P C C M"
_symmetry_group_IT_number 49
_symmetry_cell_setting 'orthorhombic'
loop_
_space_group_symop_operation_xyz
x,y,z
-x,-y,z
x,-y,1/2-z
-x,y,1/2-z
-x,-y,-z
x,y,-z
-x,y,1/2+z
x,-y,1/2+z
loop_
_atom_site_type_symbol
_atom_site_label
_atom_site_fract_x
_atom_site_fract_y
_atom_site_fract_z
Si Si1 0.926320 0.653317 0.815373
Si Si2 0.198774 0.567130 0.812530
Si Si3 0.080068 0.909774 0.318286
Si Si4 0.245295 0.934577 0.812445
Si Si5 0.710133 0.799689 0.689522
Si Si6 0.883789 0.218119 0.816453
Si Si7 0.622899 0.567457 0.687376
Si Si8 0.580624 0.295219 0.808714
O O1 0.850687 0.616744 0.777631
O O2 0.921033 0.716730 0.717603
O O3 0.000000 0.618534 0.750000
O O4 0.932971 0.665147 0.000000
O O5 0.175315 0.500000 0.750000
O O6 0.287693 0.572764 0.781492
O O7 0.187448 0.573146 0.000000
O O8 0.084945 0.927126 0.500000
O O9 0.156869 0.930653 0.233537
O O10 0.083518 0.835385 0.293693
O O11 0.000000 0.930666 0.250000
O O12 0.286424 0.871544 0.752802
O O13 0.275437 0.000000 0.750000
O O14 0.249601 0.934202 0.000000
O O15 0.700677 0.802720 0.500000
O O16 0.794699 0.775434 0.717038
O O17 0.647031 0.751382 0.746441
O O18 0.892279 0.199364 0.000000
O O19 0.596978 0.500000 0.750000
O O20 0.611600 0.565698 0.500000
O O21 0.589922 0.632966 0.747341
O O22 0.500000 0.272358 0.750000
O O23 0.583007 0.296582 0.000000
#
# Coordination Sequence:
#
# PCOD9393266 Si02
#       8
#     8   8   8   8   8   8   8   8
#     4  12  24  36  50  72 100 134 175 224 275 327
#     4  10  20  37  57  76  97 129 171 219 270 325
#     4  11  21  34  51  76 110 147 184 226 272 325
#     4  10  20  36  57  82 108 142 184 231 281 333
#     4   8  17  35  59  80 106 142 180 219 270 327
#     4  10  19  35  56  77 101 136 179 225 273 325
#     4   9  19  35  57  81 111 146 182 219 264 319
#     4  10  20  36  56  83 114 147 180 217 263 317
#
# _framework density 19.688303000000001
#
# number of rings (size 3 to 8) (size 9 to 14) (size 15 to 20)
#    0.000    2.000    0.000    5.250    0.000    3.750 
#    0.000    8.750    0.000    0.375    0.000    2.625 
#    0.000    0.000    0.000    0.000    0.000    0.000 
#
# Total GULP energy -357238.115755 kJ/mol
# GULP energy per Si atom -5581.845559 kJ/mol
# Density = 1.964349 g / cm^3
# Si number density = 19.688303 Si / 1000 Ang^3
#
#
#
# Elastic Constant Matrix: (Units=GPa)
#
#
# Indices 1 2 3 4 5 6 
#
# 1 78.8398 48.6317 19.4863 0.0000 0.0000 0.0000
# 2 48.6317 110.3322 9.3443 0.0000 0.0000 0.0000
# 3 19.4863 9.3443 41.9076 0.0000 0.0000 0.0000
# 4 0.0000 0.0000 0.0000 28.7932 0.0000 0.0000
# 5 0.0000 0.0000 0.0000 0.0000 22.1704 0.0000
# 6 0.0000 0.0000 0.0000 0.0000 0.0000 -108.2202
#
#
#
# Elastic Compliance Matrix: (Units=1/GPa)
#
#
# Indices 1 2 3 4 5 6 
#
# 1 0.019357 -0.007919 -0.007235 0.000000 0.000000 0.000000
# 2 -0.007919 0.012478 0.000900 0.000000 0.000000 0.000000
# 3 -0.007235 0.000900 0.027025 0.000000 0.000000 0.000000
# 4 0.000000 0.000000 0.000000 0.034730 0.000000 0.000000
# 5 0.000000 0.000000 0.000000 0.000000 0.045105 0.000000
# 6 0.000000 0.000000 0.000000 0.000000 0.000000 -0.009240
#
#
# Mechanical properties :
#
#
# Convention : Reuss Voigt Hill
#
# Bulk Modulus (GPa) = 32.94657 42.88935 37.91796
# Shear Modulus (GPa) = 29.74743 -1.21018 14.26863
#
# Velocity S-wave (km/s) = 3.89127 -0.78486 2.69499
# Velocity P-wave (km/s) = 6.07945 4.58368 5.38377
#
# Compressibility (1/GPa) = 0.03035217
#
# Stress axis : x y z
#
# Youngs Moduli (GPa) = 51.66039 80.14111 37.00216
#
# Poissons Ratio (x) = 0.63467 0.26771
# Poissons Ratio (y) = 0.40912 -0.03331
# Poissons Ratio (z) = 0.37376 -0.07214
#
# Static dielectric constant tensor:
#      x y z
#    x 1.693430 0.000000 0.000000 
#    y 0.000000 1.717630 0.000000 
#    z 0.000000 0.000000 1.681960 
# 
# From -- ./inp_files/4308.got.cif
#   From: 2010.05.17/outbox.cif.g08.bks.cpg/sg49_3_cif.got.tgz:4308.got - 2010.06.03 21:02:19.
