data_PCOD9393345
_publ_section_title
;
Structure prediction by ZEFSAII (Michael W. Deem and Ramdas Pophale) SiO2 
 PCOD9393345
Probable space group: P C C M
;
_chemical_formula_sum "Si O2"
_cell_formula_units_Z 56
_cell_length_a 26.667922
_cell_length_b 14.690895
_cell_length_c 8.773060
_cell_angle_alpha 90.000000
_cell_angle_beta 90.000000
_cell_angle_gamma 90.000000
_cell_volume 3437.071214
_symmetry_space_group_name_H-M "P C C M"
_symmetry_group_IT_number 49
_symmetry_cell_setting 'orthorhombic'
loop_
_space_group_symop_operation_xyz
x,y,z
-x,-y,z
x,-y,1/2-z
-x,y,1/2-z
-x,-y,-z
x,y,-z
-x,y,1/2+z
x,-y,1/2+z
loop_
_atom_site_type_symbol
_atom_site_label
_atom_site_fract_x
_atom_site_fract_y
_atom_site_fract_z
Si Si1 0.086453 0.597306 0.317239
Si Si2 0.753864 0.788428 0.816270
Si Si3 0.052317 0.214307 0.317982
Si Si4 0.661646 0.898132 0.317696
Si Si5 0.794585 0.403934 0.682400
Si Si6 0.550253 0.102151 0.182110
Si Si7 0.144832 0.101086 0.816775
O O1 0.070385 0.500000 0.250000
O O2 0.079931 0.599497 0.500000
O O3 0.059562 0.682362 0.240286
O O4 0.146108 0.607437 0.282825
O O5 0.705214 0.834319 0.744978
O O6 0.764782 0.685120 0.764665
O O7 0.803253 0.847579 0.779309
O O8 0.748961 0.788300 0.000000
O O9 0.051537 0.211590 0.500000
O O10 0.098638 0.156589 0.253364
O O11 0.000000 0.179178 0.250000
O O12 0.665059 0.905272 0.500000
O O13 0.605657 0.861177 0.279863
O O14 0.666923 0.000000 0.250000
O O15 0.777768 0.500000 0.750000
O O16 0.790831 0.408160 0.500000
O O17 0.500000 0.146854 0.250000
O O18 0.551419 0.000000 0.250000
O O19 0.545390 0.097529 0.000000
O O20 0.145885 0.000000 0.750000
O O21 0.139915 0.099208 0.000000
#
# Coordination Sequence:
#
# PCOD9393345 Si02
#       7
#     8   8   8   8   8   8   8
#     4  10  19  36  58  83 110 134 163 202 247 303
#     4  10  20  35  54  76 105 136 167 206 250 296
#     4  12  25  41  60  81 103 133 167 207 255 303
#     4  10  20  31  45  70 102 137 177 217 254 296
#     4   9  18  33  53  78 104 132 162 199 243 295
#     4   9  16  26  41  62  91 129 173 215 254 295
#     4  11  23  41  59  79 104 132 169 211 251 301
#
# _framework density 16.292940999999999
#
# number of rings (size 3 to 8) (size 9 to 14) (size 15 to 20)
#    0.000    1.857    1.429    3.857    0.000    5.714 
#    0.000    2.857    0.000    0.000    0.000    0.000 
#    0.000    0.571    0.000    6.286    0.000    4.571 
#
# Total GULP energy -312588.336539 kJ/mol
# GULP energy per Si atom -5581.934581 kJ/mol
# Density = 1.625586 g / cm^3
# Si number density = 16.292941 Si / 1000 Ang^3
#
#
#
# Elastic Constant Matrix: (Units=GPa)
#
#
# Indices 1 2 3 4 5 6 
#
# 1 146.6834 63.3916 58.9683 0.0000 0.0000 0.0000
# 2 63.3916 101.7510 38.0161 0.0000 0.0000 0.0000
# 3 58.9683 38.0161 67.7672 0.0000 0.0000 0.0000
# 4 0.0000 0.0000 0.0000 27.1877 0.0000 0.0000
# 5 0.0000 0.0000 0.0000 0.0000 29.6305 0.0000
# 6 0.0000 0.0000 0.0000 0.0000 0.0000 26.4213
#
#
#
# Elastic Compliance Matrix: (Units=1/GPa)
#
#
# Indices 1 2 3 4 5 6 
#
# 1 0.011912 -0.004490 -0.007847 0.000000 0.000000 0.000000
# 2 -0.004490 0.014126 -0.004018 0.000000 0.000000 0.000000
# 3 -0.007847 -0.004018 0.023838 0.000000 0.000000 0.000000
# 4 0.000000 0.000000 0.000000 0.036781 0.000000 0.000000
# 5 0.000000 0.000000 0.000000 0.000000 0.033749 0.000000
# 6 0.000000 0.000000 0.000000 0.000000 0.000000 0.037848
#
#
# Mechanical properties :
#
#
# Convention : Reuss Voigt Hill
#
# Bulk Modulus (GPa) = 58.24785 70.77263 64.51024
# Shear Modulus (GPa) = 25.42115 27.03628 26.22871
#
# Velocity S-wave (km/s) = 3.95429 4.07798 4.01661
# Velocity P-wave (km/s) = 7.52838 8.10587 7.82246
#
# Compressibility (1/GPa) = 0.01716802
#
# Stress axis : x y z
#
# Youngs Moduli (GPa) = 83.94734 70.79097 41.94916
#
# Poissons Ratio (x) = 0.31783 0.32917
# Poissons Ratio (y) = 0.37689 0.16854
# Poissons Ratio (z) = 0.65873 0.28442
#
# Static dielectric constant tensor:
#      x y z
#    x 1.569540 0.000000 0.000000 
#    y 0.000000 1.529960 0.000000 
#    z 0.000000 0.000000 1.543190 
# 
# From -- ./inp_files/5791.got.cif
#   From: 2010.05.17/outbox.cif.g08.bks.cpg/sg49_3_cif.got.tgz:5791.got - 2010.06.03 21:02:19.
