data_PCOD9393418
_publ_section_title
;
Structure prediction by ZEFSAII (Michael W. Deem and Ramdas Pophale) SiO2 
 PCOD9393418
Probable space group: P C C M
;
_chemical_formula_sum "Si O2"
_cell_formula_units_Z 22
_cell_length_a 5.190508
_cell_length_b 6.119420
_cell_length_c 30.224355
_cell_angle_alpha 90.000000
_cell_angle_beta 90.000000
_cell_angle_gamma 90.000000
_cell_volume 960.013119
_symmetry_space_group_name_H-M "P C C M"
_symmetry_group_IT_number 49
_symmetry_cell_setting 'orthorhombic'
loop_
_space_group_symop_operation_xyz
x,y,z
-x,-y,z
x,-y,1/2-z
-x,y,1/2-z
-x,-y,-z
x,y,-z
-x,y,1/2+z
x,-y,1/2+z
loop_
_atom_site_type_symbol
_atom_site_label
_atom_site_fract_x
_atom_site_fract_y
_atom_site_fract_z
Si Si1 0.249267 0.655089 0.404460
Si Si2 0.248972 0.142420 0.190649
Si Si3 0.500000 0.500000 0.750000
Si Si4 0.250331 0.343821 0.000000
O O1 0.500000 0.500000 0.401353
O O2 0.236988 0.802741 0.361366
O O3 0.253023 0.774048 0.452438
O O4 0.000000 0.500000 0.403466
O O5 0.310752 0.358326 0.218779
O O6 0.500000 0.000000 0.198494
O O7 0.000000 0.000000 0.202102
O O8 0.500000 0.500000 0.000000
O O9 0.000000 0.500000 0.000000
#
# Coordination Sequence:
#
# PCOD9393418 Si02
#       4
#     8   8   2   4
#     4  10  19  40  67  98 139 181 220 280 340 404
#     4  12  28  48  73 105 136 181 238 287 353 426
#     4  12  30  54  72  98 148 186 234 306 372 402
#     4   8  16  30  62  98 130 179 225 256 335 416
#
# _framework density 22.916353999999998
#
# number of rings (size 3 to 8) (size 9 to 14) (size 15 to 20)
#    0.000    1.455    1.818    2.727    0.000    4.364 
#    0.000    1.818    0.000    0.000    0.000    0.000 
#    0.000    0.000    0.000    0.000    0.000    0.000 
#
# Total GULP energy -123061.440558 kJ/mol
# GULP energy per Si atom -5593.701844 kJ/mol
# Density = 2.286420 g / cm^3
# Si number density = 22.916354 Si / 1000 Ang^3
#
#
#
# Elastic Constant Matrix: (Units=GPa)
#
#
# Indices 1 2 3 4 5 6 
#
# 1 211.7621 51.1799 38.5957 0.0000 0.0000 0.0000
# 2 51.1799 73.7798 70.0595 0.0000 0.0000 0.0000
# 3 38.5957 70.0595 254.1676 0.0000 0.0000 0.0000
# 4 0.0000 0.0000 0.0000 6.8694 0.0000 0.0000
# 5 0.0000 0.0000 0.0000 0.0000 14.7035 0.0000
# 6 0.0000 0.0000 0.0000 0.0000 0.0000 28.2731
#
#
#
# Elastic Compliance Matrix: (Units=1/GPa)
#
#
# Indices 1 2 3 4 5 6 
#
# 1 0.005691 -0.004236 0.000303 0.000000 0.000000 0.000000
# 2 -0.004236 0.021512 -0.005286 0.000000 0.000000 0.000000
# 3 0.000303 -0.005286 0.005346 0.000000 0.000000 0.000000
# 4 0.000000 0.000000 0.000000 0.145574 0.000000 0.000000
# 5 0.000000 0.000000 0.000000 0.000000 0.068011 0.000000
# 6 0.000000 0.000000 0.000000 0.000000 0.000000 0.035369
#
#
# Mechanical properties :
#
#
# Convention : Reuss Voigt Hill
#
# Bulk Modulus (GPa) = 70.86792 95.48661 83.17726
# Shear Modulus (GPa) = 16.41265 35.29417 25.85341
#
# Velocity S-wave (km/s) = 2.67909 3.92871 3.36246
# Velocity P-wave (km/s) = 6.36881 7.89541 7.17284
#
# Compressibility (1/GPa) = 0.01411076
#
# Stress axis : x y z
#
# Youngs Moduli (GPa) = 175.72614 46.48603 187.07313
#
# Poissons Ratio (x) = 0.19690 -0.05675
# Poissons Ratio (y) = 0.74431 0.98894
# Poissons Ratio (z) = -0.05331 0.24574
#
# Static dielectric constant tensor:
#      x y z
#    x 1.787210 0.000000 0.000000 
#    y 0.000000 1.856520 0.000000 
#    z 0.000000 0.000000 1.941740 
# 
# From -- ./inp_files/25333.got.cif
#   From: 2010.05.17/outbox.cif.g08.bks.cpg/sg49_13_cif.got.tgz:25333.got - 2010.06.03 21:02:19.
