data_PCOD9393736
_publ_section_title
;
Structure prediction by ZEFSAII (Michael W. Deem and Ramdas Pophale) SiO2 
 PCOD9393736
Probable space group: P C C M
;
_chemical_formula_sum "Si O2"
_cell_formula_units_Z 64
_cell_length_a 14.772699
_cell_length_b 24.740900
_cell_length_c 8.910107
_cell_angle_alpha 90.000000
_cell_angle_beta 90.000000
_cell_angle_gamma 90.000000
_cell_volume 3256.553837
_symmetry_space_group_name_H-M "P C C M"
_symmetry_group_IT_number 49
_symmetry_cell_setting 'orthorhombic'
loop_
_space_group_symop_operation_xyz
x,y,z
-x,-y,z
x,-y,1/2-z
-x,y,1/2-z
-x,-y,-z
x,y,-z
-x,y,1/2+z
x,-y,1/2+z
loop_
_atom_site_type_symbol
_atom_site_label
_atom_site_fract_x
_atom_site_fract_y
_atom_site_fract_z
Si Si1 0.262577 0.838004 0.176417
Si Si2 0.706916 0.058297 0.672998
Si Si3 0.409300 0.347753 0.830538
Si Si4 0.100844 0.764896 0.818800
Si Si5 0.100384 0.556433 0.680936
Si Si6 0.787575 0.345408 0.819234
Si Si7 0.588231 0.219717 0.330923
Si Si8 0.918437 0.058512 0.328259
O O1 0.322222 0.888439 0.239975
O O2 0.163473 0.816304 0.228923
O O3 0.327386 0.789030 0.222025
O O4 0.253259 0.847526 0.000000
O O5 0.678843 0.055294 0.500000
O O6 0.814200 0.073569 0.678220
O O7 0.692767 0.000000 0.750000
O O8 0.500000 0.369915 0.750000
O O9 0.315737 0.350385 0.738357
O O10 0.425394 0.283506 0.846286
O O11 0.398321 0.369817 0.000000
O O12 0.158791 0.710634 0.781242
O O13 0.000000 0.764318 0.750000
O O14 0.092638 0.766896 0.000000
O O15 0.135784 0.500000 0.750000
O O16 0.096612 0.554028 0.500000
O O17 0.158646 0.606382 0.739117
O O18 0.000000 0.562986 0.750000
O O19 0.789682 0.350199 0.000000
O O20 0.500000 0.196292 0.250000
O O21 0.604351 0.197954 0.500000
O O22 0.944065 0.053517 0.500000
O O23 0.000000 0.090206 0.250000
O O24 0.914791 0.000000 0.250000
#
# Coordination Sequence:
#
# PCOD9393736 Si02
#       8
#     8   8   8   8   8   8   8   8
#     4  11  22  38  57  81 112 148 186 232 283 340
#     4  10  21  36  53  75 100 135 178 225 276 334
#     4  10  20  34  56  87 120 156 195 243 295 353
#     4  10  23  38  55  80 115 155 194 234 286 345
#     4  11  22  38  59  87 120 161 212 263 310 356
#     4  11  21  37  59  86 121 161 202 250 301 356
#     4  10  20  35  58  86 115 147 184 231 284 342
#     4   9  16  26  42  62  86 114 154 203 252 301
#
# _framework density 19.652677000000001
#
# number of rings (size 3 to 8) (size 9 to 14) (size 15 to 20)
#    0.000    1.750    1.250    4.500    0.000    6.000 
#    0.000    2.500    0.000    0.750    0.000    5.250 
#    0.000    0.000    0.000    0.000    0.000    0.000 
#
# Total GULP energy -356363.315920 kJ/mol
# GULP energy per Si atom -5568.176811 kJ/mol
# Density = 1.960795 g / cm^3
# Si number density = 19.652677 Si / 1000 Ang^3
#
#
#
# Elastic Constant Matrix: (Units=GPa)
#
#
# Indices 1 2 3 4 5 6 
#
# 1 82.1299 22.9022 13.1451 0.0000 0.0000 0.0000
# 2 22.9022 95.0451 47.4159 0.0000 0.0000 0.0000
# 3 13.1451 47.4159 78.1695 0.0000 0.0000 0.0000
# 4 0.0000 0.0000 0.0000 6.0523 0.0000 0.0000
# 5 0.0000 0.0000 0.0000 0.0000 20.9985 0.0000
# 6 0.0000 0.0000 0.0000 0.0000 0.0000 -3.1739
#
#
#
# Elastic Compliance Matrix: (Units=1/GPa)
#
#
# Indices 1 2 3 4 5 6 
#
# 1 0.013062 -0.002942 -0.000412 0.000000 0.000000 0.000000
# 2 -0.002942 0.015749 -0.009058 0.000000 0.000000 0.000000
# 3 -0.000412 -0.009058 0.018357 0.000000 0.000000 0.000000
# 4 0.000000 0.000000 0.000000 0.165227 0.000000 0.000000
# 5 0.000000 0.000000 0.000000 0.000000 0.047623 0.000000
# 6 0.000000 0.000000 0.000000 0.000000 0.000000 -0.315070
#
#
# Mechanical properties :
#
#
# Convention : Reuss Voigt Hill
#
# Bulk Modulus (GPa) = 44.75624 46.91901 45.83762
# Shear Modulus (GPa) = -219.49357 16.23412 -101.62973
#
# Velocity S-wave (km/s) = -10.57964 2.87723 -7.19897
# Velocity P-wave (km/s) = 11.24346 5.91302 6.76208
#
# Compressibility (1/GPa) = 0.02234325
#
# Stress axis : x y z
#
# Youngs Moduli (GPa) = 76.55706 63.49498 54.47615
#
# Poissons Ratio (x) = 0.18680 0.02245
# Poissons Ratio (y) = 0.22522 0.49347
# Poissons Ratio (z) = 0.03155 0.57517
#
# Static dielectric constant tensor:
#      x y z
#    x 2.136020 0.000000 0.000000 
#    y 0.000000 2.075860 0.000000 
#    z 0.000000 0.000000 1.732640 
# 
# From -- ./inp_files/4384.got.cif
#   From: 2010.05.17/outbox.cif.g08.bks.cpg/sg49_3_cif.got.tgz:4384.got - 2010.06.03 21:02:19.
