data_PCOD9393181
_publ_section_title
;
Structure prediction by ZEFSAII (Michael W. Deem and Ramdas Pophale) SiO2 
 PCOD9393181
Probable space group: P C C M
;
_chemical_formula_sum "Si O2"
_cell_formula_units_Z 48
_cell_length_a 9.536653
_cell_length_b 32.034617
_cell_length_c 8.581527
_cell_angle_alpha 90.000000
_cell_angle_beta 90.000000
_cell_angle_gamma 90.000000
_cell_volume 2621.682469
_symmetry_space_group_name_H-M "P C C M"
_symmetry_group_IT_number 49
_symmetry_cell_setting 'orthorhombic'
loop_
_space_group_symop_operation_xyz
x,y,z
-x,-y,z
x,-y,1/2-z
-x,y,1/2-z
-x,-y,-z
x,y,-z
-x,y,1/2+z
x,-y,1/2+z
loop_
_atom_site_type_symbol
_atom_site_label
_atom_site_fract_x
_atom_site_fract_y
_atom_site_fract_z
Si Si1 0.340278 0.696800 0.811912
Si Si2 0.654586 0.453663 0.186500
Si Si3 0.157252 0.620549 0.313867
Si Si4 0.340782 0.879729 0.187768
Si Si5 0.157680 0.044511 0.814161
Si Si6 0.658496 0.788516 0.312705
O O1 0.500000 0.693141 0.750000
O O2 0.245821 0.660517 0.742004
O O3 0.283596 0.743151 0.766199
O O4 0.342287 0.693626 0.000000
O O5 0.685644 0.500000 0.250000
O O6 0.500000 0.442118 0.250000
O O7 0.765818 0.420275 0.246541
O O8 0.650838 0.454372 0.000000
O O9 0.156170 0.618623 0.500000
O O10 0.000000 0.623145 0.250000
O O11 0.500000 0.882348 0.250000
O O12 0.251077 0.917226 0.256561
O O13 0.281582 0.833665 0.234514
O O14 0.341978 0.882345 0.000000
O O15 0.000000 0.049560 0.750000
O O16 0.211130 0.000000 0.750000
O O17 0.154011 0.042983 0.000000
O O18 0.500000 0.788625 0.250000
O O19 0.654581 0.788540 0.500000
#
# Coordination Sequence:
#
# PCOD9393181 Si02
#       6
#     8   8   8   8   8   8
#     4  10  19  35  58  85 112 146 187 229 272 323
#     4  11  22  40  64  91 118 149 187 231 275 325
#     4  12  25  41  58  82 114 151 189 232 281 332
#     4  10  19  34  55  83 113 143 178 223 272 324
#     4  11  22  38  57  78 104 140 180 223 270 325
#     4   8  16  30  52  79 110 142 178 221 270 321
#
# _framework density 18.308852999999999
#
# number of rings (size 3 to 8) (size 9 to 14) (size 15 to 20)
#    0.000    1.667    0.000    7.000    0.000    2.000 
#    0.000    4.167    0.000    0.000    0.000    0.000 
#    0.000    0.000    0.000    0.000    0.000    0.000 
#
# Total GULP energy -267968.170926 kJ/mol
# GULP energy per Si atom -5582.670228 kJ/mol
# Density = 1.826718 g / cm^3
# Si number density = 18.308853 Si / 1000 Ang^3
#
#
#
# Elastic Constant Matrix: (Units=GPa)
#
#
# Indices 1 2 3 4 5 6 
#
# 1 87.1914 97.1312 48.0159 0.0000 0.0000 0.0000
# 2 97.1312 167.0429 70.9110 0.0000 0.0000 0.0000
# 3 48.0159 70.9110 146.7371 0.0000 0.0000 0.0000
# 4 0.0000 0.0000 0.0000 21.7757 0.0000 0.0000
# 5 0.0000 0.0000 0.0000 0.0000 30.2054 0.0000
# 6 0.0000 0.0000 0.0000 0.0000 0.0000 11.7405
#
#
#
# Elastic Compliance Matrix: (Units=1/GPa)
#
#
# Indices 1 2 3 4 5 6 
#
# 1 0.032984 -0.018365 -0.001918 0.000000 0.000000 0.000000
# 2 -0.018365 0.017757 -0.002572 0.000000 0.000000 0.000000
# 3 -0.001918 -0.002572 0.008685 0.000000 0.000000 0.000000
# 4 0.000000 0.000000 0.000000 0.045923 0.000000 0.000000
# 5 0.000000 0.000000 0.000000 0.000000 0.033107 0.000000
# 6 0.000000 0.000000 0.000000 0.000000 0.000000 0.085175
#
#
# Mechanical properties :
#
#
# Convention : Reuss Voigt Hill
#
# Bulk Modulus (GPa) = 72.90453 92.56531 82.73492
# Shear Modulus (GPa) = 18.25394 25.07185 21.66289
#
# Velocity S-wave (km/s) = 3.16096 3.70453 3.44349
# Velocity P-wave (km/s) = 7.29575 8.30455 7.81644
#
# Compressibility (1/GPa) = 0.01371657
#
# Stress axis : x y z
#
# Youngs Moduli (GPa) = 30.31758 56.31572 115.13673
#
# Poissons Ratio (x) = 1.03425 0.22086
# Poissons Ratio (y) = 0.55679 0.29608
# Poissons Ratio (z) = 0.05816 0.14482
#
# Static dielectric constant tensor:
#      x y z
#    x 1.583570 0.000000 0.000000 
#    y 0.000000 1.661660 0.000000 
#    z 0.000000 0.000000 1.589610 
# 
# From -- ./inp_files/2125.got.cif
#   From: 2010.05.17/outbox.cif.g08.bks.cpg/sg49_2_cif.got.tgz:2125.got - 2010.06.03 21:02:19.
