data_PCOD9393719
_publ_section_title
;
Structure prediction by ZEFSAII (Michael W. Deem and Ramdas Pophale) SiO2 
 PCOD9393719
Probable space group: P C C M
;
_chemical_formula_sum "Si O2"
_cell_formula_units_Z 58
_cell_length_a 25.945120
_cell_length_b 14.789886
_cell_length_c 8.910368
_cell_angle_alpha 90.000000
_cell_angle_beta 90.000000
_cell_angle_gamma 90.000000
_cell_volume 3419.134231
_symmetry_space_group_name_H-M "P C C M"
_symmetry_group_IT_number 49
_symmetry_cell_setting 'orthorhombic'
loop_
_space_group_symop_operation_xyz
x,y,z
-x,-y,z
x,-y,1/2-z
-x,y,1/2-z
-x,-y,-z
x,y,-z
-x,y,1/2+z
x,-y,1/2+z
loop_
_atom_site_type_symbol
_atom_site_label
_atom_site_fract_x
_atom_site_fract_y
_atom_site_fract_z
Si Si1 0.443580 0.097055 0.180788
Si Si2 0.254374 0.900872 0.180240
Si Si3 0.322238 0.595877 0.677745
Si Si4 0.801585 0.595415 0.822994
Si Si5 0.157758 0.778252 0.820113
Si Si6 0.644519 0.781878 0.319660
Si Si7 0.000000 0.000000 0.750000
Si Si8 0.949442 0.822744 0.831747
O O1 0.500000 0.115604 0.250000
O O2 0.403092 0.170676 0.237420
O O3 0.427455 0.000000 0.250000
O O4 0.445906 0.091957 0.000000
O O5 0.202539 0.848357 0.228379
O O6 0.303938 0.839443 0.217820
O O7 0.258075 0.000000 0.250000
O O8 0.253031 0.909489 0.000000
O O9 0.337373 0.500000 0.750000
O O10 0.333254 0.597245 0.500000
O O11 0.260277 0.604656 0.696731
O O12 0.347602 0.680410 0.761150
O O13 0.816854 0.500000 0.750000
O O14 0.828044 0.680282 0.744458
O O15 0.812465 0.595063 0.000000
O O16 0.102217 0.807846 0.760391
O O17 0.157835 0.775164 0.000000
O O18 0.637928 0.783544 0.500000
O O19 0.036381 0.929688 0.663596
O O20 0.000000 0.782357 0.750000
O O21 0.943649 0.788189 0.000000
#
# Coordination Sequence:
#
# PCOD9393719 Si02
#       8
#     8   8   8   8   8   8   2   8
#     4  11  22  38  59  85 113 149 195 242 286 336
#     4  10  23  36  50  75 111 151 186 223 275 332
#     4  10  20  34  55  83 113 149 189 234 282 338
#     4  10  20  35  57  83 112 147 186 232 281 334
#     4  11  22  37  55  81 113 148 187 231 279 334
#     4  11  21  37  57  81 114 152 189 235 284 337
#     4   8  22  36  58  76 104 140 190 236 276 328
#     4  10  21  36  55  78 105 139 182 230 276 325
#
# _framework density 16.963357999999999
#
# number of rings (size 3 to 8) (size 9 to 14) (size 15 to 20)
#    0.414    1.241    1.379    4.345    0.966    4.414 
#    0.000    0.000    0.000    0.828    0.000    5.793 
#    0.000    0.000    0.000    0.000    0.000    0.000 
#
# Total GULP energy -323652.669028 kJ/mol
# GULP energy per Si atom -5580.218432 kJ/mol
# Density = 1.692475 g / cm^3
# Si number density = 16.963358 Si / 1000 Ang^3
#
#
#
# Elastic Constant Matrix: (Units=GPa)
#
#
# Indices 1 2 3 4 5 6 
#
# 1 78.4402 66.7764 52.7821 0.0000 0.0000 0.0000
# 2 66.7764 146.7216 62.5775 0.0000 0.0000 0.0000
# 3 52.7821 62.5775 110.7420 0.0000 0.0000 0.0000
# 4 0.0000 0.0000 0.0000 34.2549 0.0000 0.0000
# 5 0.0000 0.0000 0.0000 0.0000 32.3537 0.0000
# 6 0.0000 0.0000 0.0000 0.0000 0.0000 24.2940
#
#
#
# Elastic Compliance Matrix: (Units=1/GPa)
#
#
# Indices 1 2 3 4 5 6 
#
# 1 0.024377 -0.008088 -0.007048 0.000000 0.000000 0.000000
# 2 -0.008088 0.011664 -0.002736 0.000000 0.000000 0.000000
# 3 -0.007048 -0.002736 0.013935 0.000000 0.000000 0.000000
# 4 0.000000 0.000000 0.000000 0.029193 0.000000 0.000000
# 5 0.000000 0.000000 0.000000 0.000000 0.030908 0.000000
# 6 0.000000 0.000000 0.000000 0.000000 0.000000 0.041162
#
#
# Mechanical properties :
#
#
# Convention : Reuss Voigt Hill
#
# Bulk Modulus (GPa) = 70.26746 77.79731 74.03239
# Shear Modulus (GPa) = 26.07870 28.43170 27.25520
#
# Velocity S-wave (km/s) = 3.92517 4.09842 4.01273
# Velocity P-wave (km/s) = 7.87754 8.26787 8.07506
#
# Compressibility (1/GPa) = 0.01423134
#
# Stress axis : x y z
#
# Youngs Moduli (GPa) = 41.02257 85.73636 71.76131
#
# Poissons Ratio (x) = 0.69348 0.50577
# Poissons Ratio (y) = 0.33181 0.19632
# Poissons Ratio (z) = 0.28913 0.23455
#
# Static dielectric constant tensor:
#      x y z
#    x 1.557560 0.000000 0.000000 
#    y 0.000000 1.551340 0.000000 
#    z 0.000000 0.000000 1.574030 
# 
# From -- ./inp_files/6476.got.cif
#   From: 2010.05.17/outbox.cif.g08.bks.cpg/sg49_4_cif.got.tgz:6476.got - 2010.06.03 21:02:19.
