data_PCOD9393019
_publ_section_title
;
Structure prediction by ZEFSAII (Michael W. Deem and Ramdas Pophale) SiO2 
 PCOD9393019
Probable space group: P C C M
;
_chemical_formula_sum "Si O2"
_cell_formula_units_Z 56
_cell_length_a 20.005316
_cell_length_b 16.324212
_cell_length_c 8.525686
_cell_angle_alpha 90.000000
_cell_angle_beta 90.000000
_cell_angle_gamma 90.000000
_cell_volume 2784.241969
_symmetry_space_group_name_H-M "P C C M"
_symmetry_group_IT_number 49
_symmetry_cell_setting 'orthorhombic'
loop_
_space_group_symop_operation_xyz
x,y,z
-x,-y,z
x,-y,1/2-z
-x,y,1/2-z
-x,-y,-z
x,y,-z
-x,y,1/2+z
x,-y,1/2+z
loop_
_atom_site_type_symbol
_atom_site_label
_atom_site_fract_x
_atom_site_fract_y
_atom_site_fract_z
Si Si1 0.714125 0.155879 0.689353
Si Si2 0.849946 0.412619 0.688249
Si Si3 0.569660 0.406989 0.688494
Si Si4 0.075401 0.250927 0.688865
Si Si5 0.430572 0.907157 0.687759
Si Si6 0.152916 0.913295 0.813294
Si Si7 0.287606 0.341312 0.809406
O O1 0.717687 0.150121 0.500000
O O2 0.638265 0.135600 0.736443
O O3 0.770292 0.098103 0.760714
O O4 0.729312 0.248897 0.737791
O O5 0.874959 0.500000 0.750000
O O6 0.852009 0.412721 0.500000
O O7 0.889834 0.333537 0.748622
O O8 0.772657 0.399712 0.741278
O O9 0.572368 0.500000 0.750000
O O10 0.500000 0.370121 0.750000
O O11 0.567839 0.406987 0.500000
O O12 0.638080 0.364683 0.743109
O O13 0.076507 0.252789 0.500000
O O14 0.113638 0.168031 0.742329
O O15 0.000000 0.248077 0.750000
O O16 0.500000 0.870071 0.750000
O O17 0.433429 0.907968 0.500000
O O18 0.427422 0.000000 0.750000
O O19 0.126871 0.000000 0.750000
O O20 0.149594 0.915128 0.000000
O O21 0.289149 0.342976 0.000000
#
# Coordination Sequence:
#
# PCOD9393019 Si02
#       7
#     8   8   8   8   8   8   8
#     4  10  20  37  59  84 116 156 202 252 308 367
#     4  11  22  40  67  95 128 168 208 256 309 365
#     4  10  19  33  51  75 108 149 198 249 304 362
#     4  11  25  45  68  98 131 164 205 250 301 363
#     4  10  20  33  52  75 107 148 195 249 302 363
#     4  11  24  41  65  96 128 164 207 254 303 365
#     4   9  19  35  57  83 115 156 199 248 307 364
#
# _framework density 20.113194
#
# number of rings (size 3 to 8) (size 9 to 14) (size 15 to 20)
#    0.000    1.714    1.429    3.857    0.000    5.143 
#    0.000    6.429    0.000    0.000    0.000    0.000 
#    0.000    0.000    0.000    0.000    0.000    0.000 
#
# Total GULP energy -312795.889960 kJ/mol
# GULP energy per Si atom -5585.640892 kJ/mol
# Density = 2.006742 g / cm^3
# Si number density = 20.113194 Si / 1000 Ang^3
#
#
#
# Elastic Constant Matrix: (Units=GPa)
#
#
# Indices 1 2 3 4 5 6 
#
# 1 131.6435 62.1058 30.3207 0.0000 0.0000 0.0000
# 2 62.1058 141.3950 30.1541 0.0000 0.0000 0.0000
# 3 30.3207 30.1541 47.5927 0.0000 0.0000 0.0000
# 4 0.0000 0.0000 0.0000 24.6382 0.0000 0.0000
# 5 0.0000 0.0000 0.0000 0.0000 67.8961 0.0000
# 6 0.0000 0.0000 0.0000 0.0000 0.0000 25.6688
#
#
#
# Elastic Compliance Matrix: (Units=1/GPa)
#
#
# Indices 1 2 3 4 5 6 
#
# 1 0.010280 -0.003606 -0.004264 0.000000 0.000000 0.000000
# 2 -0.003606 0.009442 -0.003685 0.000000 0.000000 0.000000
# 3 -0.004264 -0.003685 0.026063 0.000000 0.000000 0.000000
# 4 0.000000 0.000000 0.000000 0.040587 0.000000 0.000000
# 5 0.000000 0.000000 0.000000 0.000000 0.014728 0.000000
# 6 0.000000 0.000000 0.000000 0.000000 0.000000 0.038958
#
#
# Mechanical properties :
#
#
# Convention : Reuss Voigt Hill
#
# Bulk Modulus (GPa) = 44.10291 62.86583 53.48437
# Shear Modulus (GPa) = 29.28646 36.84400 33.06523
#
# Velocity S-wave (km/s) = 3.82000 4.28463 4.05897
# Velocity P-wave (km/s) = 6.43673 7.47003 6.97255
#
# Compressibility (1/GPa) = 0.02267424
#
# Stress axis : x y z
#
# Youngs Moduli (GPa) = 97.28048 105.90915 38.36801
#
# Poissons Ratio (x) = 0.38188 0.16362
# Poissons Ratio (y) = 0.35076 0.14139
# Poissons Ratio (z) = 0.41485 0.39030
#
# Static dielectric constant tensor:
#      x y z
#    x 1.721410 0.000000 0.000000 
#    y 0.000000 1.709990 0.000000 
#    z 0.000000 0.000000 1.683710 
# 
# From -- ./inp_files/5807.got.cif
#   From: 2010.05.17/outbox.cif.g08.bks.cpg/sg49_3_cif.got.tgz:5807.got - 2010.06.03 21:02:19.
