data_PCOD9393925
_publ_section_title
;
Structure prediction by ZEFSAII (Michael W. Deem and Ramdas Pophale) SiO2 
 PCOD9393925
Probable space group: P C C M
;
_chemical_formula_sum "Si O2"
_cell_formula_units_Z 48
_cell_length_a 15.009032
_cell_length_b 8.273028
_cell_length_c 18.447656
_cell_angle_alpha 90.000000
_cell_angle_beta 90.000000
_cell_angle_gamma 90.000000
_cell_volume 2290.648065
_symmetry_space_group_name_H-M "P C C M"
_symmetry_group_IT_number 49
_symmetry_cell_setting 'orthorhombic'
loop_
_space_group_symop_operation_xyz
x,y,z
-x,-y,z
x,-y,1/2-z
-x,y,1/2-z
-x,-y,-z
x,y,-z
-x,y,1/2+z
x,-y,1/2+z
loop_
_atom_site_type_symbol
_atom_site_label
_atom_site_fract_x
_atom_site_fract_y
_atom_site_fract_z
Si Si1 0.219168 0.078768 0.670395
Si Si2 0.134979 0.219701 0.083519
Si Si3 0.028309 0.192308 0.672788
Si Si4 0.680124 0.346246 0.584186
Si Si5 0.471777 0.188028 0.169793
Si Si6 0.635530 0.279094 0.916308
O O1 0.134342 0.199847 0.669571
O O2 0.303409 0.169026 0.636156
O O3 0.234225 0.000000 0.750000
O O4 0.180959 0.934668 0.621176
O O5 0.213300 0.347880 0.093745
O O6 0.038818 0.264832 0.114617
O O7 0.123179 0.181052 0.000000
O O8 0.000000 0.258497 0.750000
O O9 0.000000 0.000000 0.671821
O O10 0.663220 0.292377 0.500000
O O11 0.627264 0.234910 0.642480
O O12 0.652596 0.531216 0.592037
O O13 0.500000 0.251150 0.250000
O O14 0.534115 0.258916 0.107442
O O15 0.500000 0.000000 0.171087
O O16 0.651005 0.232244 0.000000
#
# Coordination Sequence:
#
# PCOD9393925 Si02
#       6
#     8   8   8   8   8   8
#     4  11  21  36  62  91 125 163 204 264 314 374
#     4  10  20  35  62  90 118 161 212 260 312 373
#     4   9  16  33  55  85 119 155 195 255 317 361
#     4  10  23  44  63  88 129 171 213 261 318 379
#     4  11  25  41  65  96 128 164 213 266 317 373
#     4  11  25  42  63  92 128 171 213 260 318 381
#
# _framework density 20.95477
#
# number of rings (size 3 to 8) (size 9 to 14) (size 15 to 20)
#    0.000    1.667    3.333    2.500    4.667    9.000 
#    0.000    0.833    0.000    4.000    0.000    0.000 
#    0.000    0.000    0.000    0.000    0.000    0.000 
#
# Total GULP energy -267706.776553 kJ/mol
# GULP energy per Si atom -5577.224512 kJ/mol
# Density = 2.090708 g / cm^3
# Si number density = 20.954770 Si / 1000 Ang^3
#
#
#
# Elastic Constant Matrix: (Units=GPa)
#
#
# Indices 1 2 3 4 5 6 
#
# 1 87.6315 3.3172 45.8424 0.0000 0.0000 0.0000
# 2 3.3172 29.2548 25.6034 0.0000 0.0000 0.0000
# 3 45.8424 25.6034 131.9174 0.0000 0.0000 0.0000
# 4 0.0000 0.0000 0.0000 23.2333 0.0000 0.0000
# 5 0.0000 0.0000 0.0000 0.0000 28.9489 0.0000
# 6 0.0000 0.0000 0.0000 0.0000 0.0000 15.5272
#
#
#
# Elastic Compliance Matrix: (Units=1/GPa)
#
#
# Indices 1 2 3 4 5 6 
#
# 1 0.014201 0.003263 -0.005568 0.000000 0.000000 0.000000
# 2 0.003263 0.041926 -0.009271 0.000000 0.000000 0.000000
# 3 -0.005568 -0.009271 0.011315 0.000000 0.000000 0.000000
# 4 0.000000 0.000000 0.000000 0.043042 0.000000 0.000000
# 5 0.000000 0.000000 0.000000 0.000000 0.034544 0.000000
# 6 0.000000 0.000000 0.000000 0.000000 0.000000 0.064403
#
#
# Mechanical properties :
#
#
# Convention : Reuss Voigt Hill
#
# Bulk Modulus (GPa) = 22.57889 44.25886 33.41887
# Shear Modulus (GPa) = 20.21455 25.14459 22.67957
#
# Velocity S-wave (km/s) = 3.10929 3.46778 3.29342
# Velocity P-wave (km/s) = 4.86711 6.09926 5.51769
#
# Compressibility (1/GPa) = 0.04428917
#
# Stress axis : x y z
#
# Youngs Moduli (GPa) = 70.41869 23.85128 88.37888
#
# Poissons Ratio (x) = -0.07783 0.49211
# Poissons Ratio (y) = -0.22977 0.81938
# Poissons Ratio (z) = 0.39210 0.22113
#
# Static dielectric constant tensor:
#      x y z
#    x 1.878370 0.000000 0.000000 
#    y 0.000000 1.770200 0.000000 
#    z 0.000000 0.000000 1.764720 
# 
# From -- ./inp_files/16316.got.cif
#   From: 2010.05.17/outbox.cif.g08.bks.cpg/sg49_9_cif.got.tgz:16316.got - 2010.06.03 21:02:19.
