data_PCOD9393913
_publ_section_title
;
Structure prediction by ZEFSAII (Michael W. Deem and Ramdas Pophale) SiO2 
 PCOD9393913
Probable space group: P C C M
;
_chemical_formula_sum "Si O2"
_cell_formula_units_Z 32
_cell_length_a 7.293035
_cell_length_b 18.773714
_cell_length_c 10.674219
_cell_angle_alpha 90.000000
_cell_angle_beta 90.000000
_cell_angle_gamma 90.000000
_cell_volume 1461.485814
_symmetry_space_group_name_H-M "P C C M"
_symmetry_group_IT_number 49
_symmetry_cell_setting 'orthorhombic'
loop_
_space_group_symop_operation_xyz
x,y,z
-x,-y,z
x,-y,1/2-z
-x,y,1/2-z
-x,-y,-z
x,y,-z
-x,y,1/2+z
x,-y,1/2+z
loop_
_atom_site_type_symbol
_atom_site_label
_atom_site_fract_x
_atom_site_fract_y
_atom_site_fract_z
Si Si1 0.299513 0.963842 0.633096
Si Si2 0.722722 0.428923 0.500000
Si Si3 0.151530 0.815687 0.352969
Si Si4 0.720221 0.338619 0.261327
Si Si5 0.276776 0.593451 0.000000
O O1 0.208674 0.978191 0.500000
O O2 0.301810 0.878816 0.649069
O O3 0.500000 0.000000 0.627217
O O4 0.205436 0.000000 0.750000
O O5 0.782529 0.391475 0.371616
O O6 0.500265 0.416155 0.500000
O O7 0.779708 0.511027 0.500000
O O8 0.091301 0.809681 0.500000
O O9 0.222886 0.739902 0.304350
O O10 0.000000 0.837093 0.250000
O O11 0.500000 0.340379 0.250000
O O12 0.783318 0.364547 0.124485
#
# Coordination Sequence:
#
# PCOD9393913 Si02
#       5
#     8   4   8   8   4
#     4   9  20  40  64  93 119 157 199 255 301 360
#     4   9  16  34  55  87 129 162 205 268 316 363
#     4  11  25  43  63  90 130 170 206 250 306 371
#     4  10  20  35  59  93 123 164 212 263 311 366
#     4   9  18  30  57  93 123 160 211 264 322 359
#
# _framework density 21.895524999999999
#
# number of rings (size 3 to 8) (size 9 to 14) (size 15 to 20)
#    0.000    2.250    1.250    0.750    5.250    4.500 
#    0.000    2.500    0.000    4.500    0.000    0.000 
#    0.000    0.000    0.000    0.000    0.000    0.000 
#
# Total GULP energy -178502.431143 kJ/mol
# GULP energy per Si atom -5578.200973 kJ/mol
# Density = 2.184569 g / cm^3
# Si number density = 21.895525 Si / 1000 Ang^3
#
#
#
# Elastic Constant Matrix: (Units=GPa)
#
#
# Indices 1 2 3 4 5 6 
#
# 1 78.1195 26.2418 28.4358 0.0000 0.0000 0.0000
# 2 26.2418 181.7016 116.0161 0.0000 0.0000 0.0000
# 3 28.4358 116.0161 254.0431 0.0000 0.0000 0.0000
# 4 0.0000 0.0000 0.0000 41.5706 0.0000 0.0000
# 5 0.0000 0.0000 0.0000 0.0000 -6.5654 0.0000
# 6 0.0000 0.0000 0.0000 0.0000 0.0000 -15.7609
#
#
#
# Elastic Compliance Matrix: (Units=1/GPa)
#
#
# Indices 1 2 3 4 5 6 
#
# 1 0.013592 -0.001400 -0.000882 0.000000 0.000000 0.000000
# 2 -0.001400 0.007913 -0.003457 0.000000 0.000000 0.000000
# 3 -0.000882 -0.003457 0.005614 0.000000 0.000000 0.000000
# 4 0.000000 0.000000 0.000000 0.024055 0.000000 0.000000
# 5 0.000000 0.000000 0.000000 0.000000 -0.152315 0.000000
# 6 0.000000 0.000000 0.000000 0.000000 0.000000 -0.063448
#
#
# Mechanical properties :
#
#
# Convention : Reuss Voigt Hill
#
# Bulk Modulus (GPa) = 63.93398 95.02795 79.48096
# Shear Modulus (GPa) = -33.80741 26.72690 -3.54025
#
# Velocity S-wave (km/s) = -3.93368 3.49758 -1.27295
# Velocity P-wave (km/s) = 2.93788 7.73341 5.84965
#
# Compressibility (1/GPa) = 0.01564113
#
# Stress axis : x y z
#
# Youngs Moduli (GPa) = 73.57154 126.37463 178.13157
#
# Poissons Ratio (x) = 0.17689 0.15714
# Poissons Ratio (y) = 0.10298 0.61580
# Poissons Ratio (z) = 0.06490 0.43688
#
# Static dielectric constant tensor:
#      x y z
#    x 1.822680 0.000000 0.000000 
#    y 0.000000 1.763610 0.000000 
#    z 0.000000 0.000000 1.800310 
# 
# From -- ./inp_files/7973.got.cif
#   From: 2010.05.17/outbox.cif.g08.bks.cpg/sg49_4_cif.got.tgz:7973.got - 2010.06.03 21:02:19.
