data_PCOD9393608
_publ_section_title
;
Structure prediction by ZEFSAII (Michael W. Deem and Ramdas Pophale) SiO2 
 PCOD9393608
Probable space group: P C C M
;
_chemical_formula_sum "Si O2"
_cell_formula_units_Z 64
_cell_length_a 25.123244
_cell_length_b 14.970129
_cell_length_c 8.988047
_cell_angle_alpha 90.000000
_cell_angle_beta 90.000000
_cell_angle_gamma 90.000000
_cell_volume 3380.388330
_symmetry_space_group_name_H-M "P C C M"
_symmetry_group_IT_number 49
_symmetry_cell_setting 'orthorhombic'
loop_
_space_group_symop_operation_xyz
x,y,z
-x,-y,z
x,-y,1/2-z
-x,y,1/2-z
-x,-y,-z
x,y,-z
-x,y,1/2+z
x,-y,1/2+z
loop_
_atom_site_type_symbol
_atom_site_label
_atom_site_fract_x
_atom_site_fract_y
_atom_site_fract_z
Si Si1 0.051974 0.631960 0.835514
Si Si2 0.172213 0.402406 0.679968
Si Si3 0.355051 0.241441 0.820794
Si Si4 0.558663 0.093358 0.320107
Si Si5 0.049791 0.158072 0.663504
Si Si6 0.849547 0.903555 0.823811
Si Si7 0.291649 0.599774 0.179789
Si Si8 0.268036 0.096609 0.178065
O O1 0.112491 0.628176 0.771472
O O2 0.040445 0.736917 0.853223
O O3 0.000000 0.596993 0.750000
O O4 0.053923 0.589864 0.000000
O O5 0.175482 0.500000 0.750000
O O6 0.170958 0.401381 0.500000
O O7 0.231333 0.364027 0.719242
O O8 0.408490 0.184266 0.786857
O O9 0.336911 0.333021 0.741901
O O10 0.310399 0.169263 0.776873
O O11 0.353740 0.255443 0.000000
O O12 0.500000 0.101505 0.250000
O O13 0.557042 0.083169 0.500000
O O14 0.581335 0.000000 0.250000
O O15 0.056471 0.117568 0.500000
O O16 0.102810 0.151376 0.757588
O O17 0.000000 0.117337 0.750000
O O18 0.791038 0.869527 0.784159
O O19 0.853946 0.000000 0.750000
O O20 0.853688 0.910052 0.000000
O O21 0.297004 0.500000 0.250000
O O22 0.294829 0.593819 0.000000
O O23 0.275974 0.000000 0.250000
O O24 0.271199 0.085351 0.000000
#
# Coordination Sequence:
#
# PCOD9393608 Si02
#       8
#     8   8   8   8   8   8   8   8
#     4   9  19  34  50  70  97 125 161 207 260 323
#     4   9  19  35  52  74 101 131 168 213 267 327
#     4  10  21  36  56  85 117 153 193 234 281 331
#     4  10  20  35  58  88 127 167 203 242 280 325
#     4  10  20  34  51  68  90 120 157 206 254 309
#     4  10  20  34  50  70  95 125 161 203 255 311
#     4  10  21  37  58  82 112 149 191 240 290 341
#     4   9  19  34  51  76 111 144 177 221 269 326
#
# _framework density 18.932735999999998
#
# number of rings (size 3 to 8) (size 9 to 14) (size 15 to 20)
#    0.000    2.375    0.000    2.250    1.750    4.000 
#    0.000    2.500    0.000    0.375    0.000    2.625 
#    0.000    0.000    0.000    0.000    0.000    0.000 
#
# Total GULP energy -356283.087606 kJ/mol
# GULP energy per Si atom -5566.923244 kJ/mol
# Density = 1.888964 g / cm^3
# Si number density = 18.932736 Si / 1000 Ang^3
#
#
#
# Elastic Constant Matrix: (Units=GPa)
#
#
# Indices 1 2 3 4 5 6 
#
# 1 102.9566 55.1199 43.0653 0.0000 0.0000 0.0000
# 2 55.1199 68.3305 31.4087 0.0000 0.0000 0.0000
# 3 43.0653 31.4087 50.9705 0.0000 0.0000 0.0000
# 4 0.0000 0.0000 0.0000 20.0349 0.0000 0.0000
# 5 0.0000 0.0000 0.0000 0.0000 58.6264 0.0000
# 6 0.0000 0.0000 0.0000 0.0000 0.0000 39.2882
#
#
#
# Elastic Compliance Matrix: (Units=1/GPa)
#
#
# Indices 1 2 3 4 5 6 
#
# 1 0.020044 -0.011698 -0.009727 0.000000 0.000000 0.000000
# 2 -0.011698 0.027245 -0.006905 0.000000 0.000000 0.000000
# 3 -0.009727 -0.006905 0.032093 0.000000 0.000000 0.000000
# 4 0.000000 0.000000 0.000000 0.049913 0.000000 0.000000
# 5 0.000000 0.000000 0.000000 0.000000 0.017057 0.000000
# 6 0.000000 0.000000 0.000000 0.000000 0.000000 0.025453
#
#
# Mechanical properties :
#
#
# Convention : Reuss Voigt Hill
#
# Bulk Modulus (GPa) = 44.01073 53.49395 48.75234
# Shear Modulus (GPa) = 21.18290 29.76746 25.47518
#
# Velocity S-wave (km/s) = 3.34855 3.96949 3.67217
# Velocity P-wave (km/s) = 6.18439 7.02319 6.61710
#
# Compressibility (1/GPa) = 0.02272173
#
# Stress axis : x y z
#
# Youngs Moduli (GPa) = 49.88965 36.70395 31.15962
#
# Poissons Ratio (x) = 0.42936 0.30309
# Poissons Ratio (y) = 0.58360 0.21516
# Poissons Ratio (z) = 0.48528 0.25345
#
# Static dielectric constant tensor:
#      x y z
#    x 1.720090 0.000000 0.000000 
#    y 0.000000 1.640810 0.000000 
#    z 0.000000 0.000000 1.682510 
# 
# From -- ./inp_files/6534.got.cif
#   From: 2010.05.17/outbox.cif.g08.bks.cpg/sg49_4_cif.got.tgz:6534.got - 2010.06.03 21:02:19.
