data_PCOD9393866
_publ_section_title
;
Structure prediction by ZEFSAII (Michael W. Deem and Ramdas Pophale) SiO2 
 PCOD9393866
Probable space group: P C C M
;
_chemical_formula_sum "Si O2"
_cell_formula_units_Z 34
_cell_length_a 7.650471
_cell_length_b 23.016913
_cell_length_c 8.898000
_cell_angle_alpha 90.000000
_cell_angle_beta 90.000000
_cell_angle_gamma 90.000000
_cell_volume 1566.850826
_symmetry_space_group_name_H-M "P C C M"
_symmetry_group_IT_number 49
_symmetry_cell_setting 'orthorhombic'
loop_
_space_group_symop_operation_xyz
x,y,z
-x,-y,z
x,-y,1/2-z
-x,y,1/2-z
-x,-y,-z
x,y,-z
-x,y,1/2+z
x,-y,1/2+z
loop_
_atom_site_type_symbol
_atom_site_label
_atom_site_fract_x
_atom_site_fract_y
_atom_site_fract_z
Si Si1 0.817432 0.195438 0.320933
Si Si2 0.695872 0.442332 0.179797
Si Si3 0.306584 0.685234 0.180468
Si Si4 0.000000 0.000000 0.250000
Si Si5 0.325954 0.083388 0.325813
O O1 0.819305 0.197411 0.500000
O O2 0.779456 0.259106 0.255490
O O3 0.696400 0.144125 0.261657
O O4 0.000000 0.177938 0.250000
O O5 0.780533 0.500000 0.250000
O O6 0.500000 0.440328 0.250000
O O7 0.774270 0.378584 0.212319
O O8 0.683489 0.448689 0.000000
O O9 0.500000 0.683980 0.250000
O O10 0.313241 0.692300 0.000000
O O11 0.146659 0.044687 0.318729
O O12 0.500000 0.057563 0.250000
O O13 0.360389 0.094312 0.500000
#
# Coordination Sequence:
#
# PCOD9393866 Si02
#       5
#     8   8   8   2   8
#     4  12  25  43  67  94 127 169 217 273 335 397
#     4   9  16  26  45  74 112 155 201 256 318 383
#     4  10  20  35  56  86 122 162 210 265 325 391
#     4  12  28  48  80 108 146 188 234 276 334 390
#     4  12  27  48  75 107 144 185 231 280 337 400
#
# _framework density 21.699577000000001
#
# number of rings (size 3 to 8) (size 9 to 14) (size 15 to 20)
#    0.000    1.176    1.176    6.353    0.000    6.588 
#    0.000    0.000    0.000    0.706    0.000    4.941 
#    0.000    0.000    0.000    0.000    0.000    0.000 
#
# Total GULP energy -189617.956581 kJ/mol
# GULP energy per Si atom -5576.998723 kJ/mol
# Density = 2.165019 g / cm^3
# Si number density = 21.699577 Si / 1000 Ang^3
#
#
#
# Elastic Constant Matrix: (Units=GPa)
#
#
# Indices 1 2 3 4 5 6 
#
# 1 105.9452 43.1745 39.0267 0.0000 0.0000 0.0000
# 2 43.1745 198.3933 92.0941 0.0000 0.0000 0.0000
# 3 39.0267 92.0941 181.0979 0.0000 0.0000 0.0000
# 4 0.0000 0.0000 0.0000 51.7013 0.0000 0.0000
# 5 0.0000 0.0000 0.0000 0.0000 21.5911 0.0000
# 6 0.0000 0.0000 0.0000 0.0000 0.0000 33.1225
#
#
#
# Elastic Compliance Matrix: (Units=1/GPa)
#
#
# Indices 1 2 3 4 5 6 
#
# 1 0.010645 -0.001638 -0.001461 0.000000 0.000000 0.000000
# 2 -0.001638 0.006850 -0.003130 0.000000 0.000000 0.000000
# 3 -0.001461 -0.003130 0.007429 0.000000 0.000000 0.000000
# 4 0.000000 0.000000 0.000000 0.019342 0.000000 0.000000
# 5 0.000000 0.000000 0.000000 0.000000 0.046315 0.000000
# 6 0.000000 0.000000 0.000000 0.000000 0.000000 0.030191
#
#
# Mechanical properties :
#
#
# Convention : Reuss Voigt Hill
#
# Bulk Modulus (GPa) = 80.22983 92.66966 86.44975
# Shear Modulus (GPa) = 36.39392 42.02571 39.20982
#
# Velocity S-wave (km/s) = 4.09977 4.40558 4.25542
# Velocity P-wave (km/s) = 7.71130 8.28717 8.00442
#
# Compressibility (1/GPa) = 0.01246419
#
# Stress axis : x y z
#
# Youngs Moduli (GPa) = 93.94421 145.98090 134.61472
#
# Poissons Ratio (x) = 0.23918 0.19664
# Poissons Ratio (y) = 0.15392 0.42141
# Poissons Ratio (z) = 0.13723 0.45699
#
# Static dielectric constant tensor:
#      x y z
#    x 1.791570 0.000000 0.000000 
#    y 0.000000 1.866790 0.000000 
#    z 0.000000 0.000000 1.718960 
# 
# From -- ./inp_files/1528.got.cif
#   From: 2010.05.17/outbox.cif.g08.bks.cpg/sg49_1_cif.got.tgz:1528.got - 2010.06.03 21:02:19.
