data_PCOD9393821
_publ_section_title
;
Structure prediction by ZEFSAII (Michael W. Deem and Ramdas Pophale) SiO2 
 PCOD9393821
Probable space group: P C C M
;
_chemical_formula_sum "Si O2"
_cell_formula_units_Z 48
_cell_length_a 10.703756
_cell_length_b 14.713201
_cell_length_c 17.538296
_cell_angle_alpha 90.000000
_cell_angle_beta 90.000000
_cell_angle_gamma 90.000000
_cell_volume 2762.045089
_symmetry_space_group_name_H-M "P C C M"
_symmetry_group_IT_number 49
_symmetry_cell_setting 'orthorhombic'
loop_
_space_group_symop_operation_xyz
x,y,z
-x,-y,z
x,-y,1/2-z
-x,y,1/2-z
-x,-y,-z
x,y,-z
-x,y,1/2+z
x,-y,1/2+z
loop_
_atom_site_type_symbol
_atom_site_label
_atom_site_fract_x
_atom_site_fract_y
_atom_site_fract_z
Si Si1 0.627124 0.458991 0.663969
Si Si2 0.612262 0.245914 0.308123
Si Si3 0.890646 0.068064 0.591445
Si Si4 0.391437 0.931352 0.591397
Si Si5 0.892774 0.750528 0.187633
Si Si6 0.882988 0.565898 0.090243
O O1 0.500000 0.500000 0.631055
O O2 0.640493 0.500000 0.750000
O O3 0.606729 0.350493 0.665517
O O4 0.753031 0.478479 0.617900
O O5 0.500000 0.231057 0.250000
O O6 0.598935 0.168810 0.372466
O O7 0.753941 0.238396 0.276571
O O8 0.897503 0.079024 0.500000
O O9 0.749491 0.034882 0.609426
O O10 0.909397 0.164088 0.631992
O O11 0.000000 0.000000 0.615486
O O12 0.401639 0.924223 0.500000
O O13 0.500000 0.000000 0.618277
O O14 0.895672 0.658300 0.138400
O O15 0.000000 0.748277 0.250000
O O16 0.000000 0.500000 0.104979
O O17 0.877769 0.585183 0.000000
#
# Coordination Sequence:
#
# PCOD9393821 Si02
#       6
#     8   8   8   8   8   8
#     4  10  20  36  60  83 112 149 185 233 281 343
#     4  10  20  35  55  80 110 141 180 224 275 325
#     4   9  18  35  57  78 107 144 181 227 276 326
#     4   9  19  36  56  79 106 142 184 223 272 327
#     4  10  22  35  56  81 108 148 184 229 278 334
#     4  10  23  38  56  83 113 146 188 235 280 335
#
# _framework density 17.378428
#
# number of rings (size 3 to 8) (size 9 to 14) (size 15 to 20)
#    0.000    2.333    1.667    0.500    4.667    6.333 
#    0.000    3.333    0.000    5.000    0.000    0.000 
#    0.000    0.000    0.000    0.000    0.000    0.000 
#
# Total GULP energy -267539.707004 kJ/mol
# GULP energy per Si atom -5573.743896 kJ/mol
# Density = 1.733887 g / cm^3
# Si number density = 17.378428 Si / 1000 Ang^3
#
#
#
# Elastic Constant Matrix: (Units=GPa)
#
#
# Indices 1 2 3 4 5 6 
#
# 1 183.1203 79.5418 63.8001 0.0000 0.0000 0.0000
# 2 79.5418 95.5550 26.8828 0.0000 0.0000 0.0000
# 3 63.8001 26.8828 37.8685 0.0000 0.0000 0.0000
# 4 0.0000 0.0000 0.0000 121.7931 0.0000 0.0000
# 5 0.0000 0.0000 0.0000 0.0000 30.9427 0.0000
# 6 0.0000 0.0000 0.0000 0.0000 0.0000 33.4739
#
#
#
# Elastic Compliance Matrix: (Units=1/GPa)
#
#
# Indices 1 2 3 4 5 6 
#
# 1 0.016586 -0.007429 -0.022671 0.000000 0.000000 0.000000
# 2 -0.007429 0.016404 0.000871 0.000000 0.000000 0.000000
# 3 -0.022671 0.000871 0.063984 0.000000 0.000000 0.000000
# 4 0.000000 0.000000 0.000000 0.008211 0.000000 0.000000
# 5 0.000000 0.000000 0.000000 0.000000 0.032318 0.000000
# 6 0.000000 0.000000 0.000000 0.000000 0.000000 0.029874
#
#
# Mechanical properties :
#
#
# Convention : Reuss Voigt Hill
#
# Bulk Modulus (GPa) = 25.96256 72.99924 49.48090
# Shear Modulus (GPa) = 20.94912 46.99655 33.97284
#
# Velocity S-wave (km/s) = 3.47575 5.20593 4.42621
# Velocity P-wave (km/s) = 5.57492 8.84491 7.39298
#
# Compressibility (1/GPa) = 0.03851700
#
# Stress axis : x y z
#
# Youngs Moduli (GPa) = 60.29088 60.96044 15.62886
#
# Poissons Ratio (x) = 0.45286 0.35432
# Poissons Ratio (y) = 0.44788 -0.01361
# Poissons Ratio (z) = 1.36683 -0.05307
#
# Static dielectric constant tensor:
#      x y z
#    x 1.612520 0.000000 0.000000 
#    y 0.000000 1.587840 0.000000 
#    z 0.000000 0.000000 1.568470 
# 
# From -- ./inp_files/19764.got.cif
#   From: 2010.05.17/outbox.cif.g08.bks.cpg/sg49_10_cif.got.tgz:19764.got - 2010.06.03 21:02:19.
