data_PCOD9393203
_publ_section_title
;
Structure prediction by ZEFSAII (Michael W. Deem and Ramdas Pophale) SiO2 
 PCOD9393203
Probable space group: P C C M
;
_chemical_formula_sum "Si O2"
_cell_formula_units_Z 48
_cell_length_a 14.762123
_cell_length_b 20.938362
_cell_length_c 8.665346
_cell_angle_alpha 90.000000
_cell_angle_beta 90.000000
_cell_angle_gamma 90.000000
_cell_volume 2678.412308
_symmetry_space_group_name_H-M "P C C M"
_symmetry_group_IT_number 49
_symmetry_cell_setting 'orthorhombic'
loop_
_space_group_symop_operation_xyz
x,y,z
-x,-y,z
x,-y,1/2-z
-x,y,1/2-z
-x,-y,-z
x,y,-z
-x,y,1/2+z
x,-y,1/2+z
loop_
_atom_site_type_symbol
_atom_site_label
_atom_site_fract_x
_atom_site_fract_y
_atom_site_fract_z
Si Si1 0.713651 0.183859 0.314135
Si Si2 0.716784 0.566655 0.185263
Si Si3 0.601036 0.309647 0.686064
Si Si4 0.401594 0.070386 0.683669
Si Si5 0.094950 0.758351 0.314658
Si Si6 0.903409 0.385327 0.815651
O O1 0.706350 0.177490 0.500000
O O2 0.655458 0.246107 0.266822
O O3 0.672107 0.121678 0.236250
O O4 0.818090 0.198878 0.277009
O O5 0.680333 0.500000 0.250000
O O6 0.656023 0.627135 0.234036
O O7 0.817684 0.577148 0.250099
O O8 0.720132 0.565083 0.000000
O O9 0.500000 0.309314 0.750000
O O10 0.597942 0.309758 0.500000
O O11 0.500000 0.090045 0.750000
O O12 0.407470 0.067043 0.500000
O O13 0.382158 0.000000 0.750000
O O14 0.090230 0.750924 0.500000
O O15 0.107142 0.687999 0.241819
O O16 0.000000 0.783910 0.250000
O O17 0.000000 0.408202 0.750000
O O18 0.904802 0.387428 0.000000
#
# Coordination Sequence:
#
# PCOD9393203 Si02
#       6
#     8   8   8   8   8   8
#     4  10  20  37  59  85 117 153 187 233 282 329
#     4  11  23  41  58  79 109 145 186 234 287 340
#     4  10  22  39  58  80 111 144 185 233 282 333
#     4  11  22  37  58  86 120 157 194 234 279 336
#     4  10  19  34  56  84 118 150 186 231 280 331
#     4  11  21  35  57  83 111 145 183 228 281 340
#
# _framework density 17.921063
#
# number of rings (size 3 to 8) (size 9 to 14) (size 15 to 20)
#    0.000    1.500    1.667    6.000    0.000    5.333 
#    0.000    3.333    0.000    0.500    0.000    3.500 
#    0.000    0.000    0.000    0.000    0.000    0.000 
#
# Total GULP energy -268271.507719 kJ/mol
# GULP energy per Si atom -5588.989744 kJ/mol
# Density = 1.788027 g / cm^3
# Si number density = 17.921063 Si / 1000 Ang^3
#
#
#
# Elastic Constant Matrix: (Units=GPa)
#
#
# Indices 1 2 3 4 5 6 
#
# 1 129.3884 60.9771 44.7401 0.0000 0.0000 0.0000
# 2 60.9771 84.0565 37.6777 0.0000 0.0000 0.0000
# 3 44.7401 37.6777 86.4454 0.0000 0.0000 0.0000
# 4 0.0000 0.0000 0.0000 29.8013 0.0000 0.0000
# 5 0.0000 0.0000 0.0000 0.0000 12.8875 0.0000
# 6 0.0000 0.0000 0.0000 0.0000 0.0000 10.5001
#
#
#
# Elastic Compliance Matrix: (Units=1/GPa)
#
#
# Indices 1 2 3 4 5 6 
#
# 1 0.012377 -0.007590 -0.003097 0.000000 0.000000 0.000000
# 2 -0.007590 0.019440 -0.004545 0.000000 0.000000 0.000000
# 3 -0.003097 -0.004545 0.015152 0.000000 0.000000 0.000000
# 4 0.000000 0.000000 0.000000 0.033556 0.000000 0.000000
# 5 0.000000 0.000000 0.000000 0.000000 0.077595 0.000000
# 6 0.000000 0.000000 0.000000 0.000000 0.000000 0.095237
#
#
# Mechanical properties :
#
#
# Convention : Reuss Voigt Hill
#
# Bulk Modulus (GPa) = 60.59093 65.18668 62.88881
# Shear Modulus (GPa) = 17.28180 21.07080 19.17630
#
# Velocity S-wave (km/s) = 3.10873 3.43265 3.27470
# Velocity P-wave (km/s) = 6.83878 7.22247 7.03324
#
# Compressibility (1/GPa) = 0.01650412
#
# Stress axis : x y z
#
# Youngs Moduli (GPa) = 80.79732 51.44053 65.99810
#
# Poissons Ratio (x) = 0.39043 0.20443
# Poissons Ratio (y) = 0.61325 0.29995
# Poissons Ratio (z) = 0.25026 0.23379
#
# Static dielectric constant tensor:
#      x y z
#    x 1.604450 0.000000 0.000000 
#    y 0.000000 1.603490 0.000000 
#    z 0.000000 0.000000 1.601540 
# 
# From -- ./inp_files/3728.got.cif
#   From: 2010.05.17/outbox.cif.g08.bks.cpg/sg49_2_cif.got.tgz:3728.got - 2010.06.03 21:02:19.
