data_PCOD9393461
_publ_section_title
;
Structure prediction by ZEFSAII (Michael W. Deem and Ramdas Pophale) SiO2 
 PCOD9393461
Probable space group: P C C M
;
_chemical_formula_sum "Si O2"
_cell_formula_units_Z 48
_cell_length_a 13.830256
_cell_length_b 24.919137
_cell_length_c 8.803979
_cell_angle_alpha 90.000000
_cell_angle_beta 90.000000
_cell_angle_gamma 90.000000
_cell_volume 3034.186102
_symmetry_space_group_name_H-M "P C C M"
_symmetry_group_IT_number 49
_symmetry_cell_setting 'orthorhombic'
loop_
_space_group_symop_operation_xyz
x,y,z
-x,-y,z
x,-y,1/2-z
-x,y,1/2-z
-x,-y,-z
x,y,-z
-x,y,1/2+z
x,-y,1/2+z
loop_
_atom_site_type_symbol
_atom_site_label
_atom_site_fract_x
_atom_site_fract_y
_atom_site_fract_z
Si Si1 0.398156 0.886883 0.818831
Si Si2 0.698616 0.216878 0.316992
Si Si3 0.196654 0.942067 0.818034
Si Si4 0.392372 0.671845 0.682960
Si Si5 0.608704 0.446093 0.682047
Si Si6 0.101464 0.162214 0.181664
O O1 0.500000 0.904597 0.750000
O O2 0.370383 0.828010 0.756051
O O3 0.307115 0.924727 0.778762
O O4 0.405601 0.884689 0.000000
O O5 0.688974 0.213043 0.500000
O O6 0.669251 0.276625 0.268980
O O7 0.808289 0.200573 0.277944
O O8 0.129082 0.895918 0.748998
O O9 0.175041 0.000000 0.750000
O O10 0.187607 0.942441 0.000000
O O11 0.500000 0.676588 0.750000
O O12 0.400244 0.673059 0.500000
O O13 0.350655 0.612834 0.722331
O O14 0.655364 0.500000 0.750000
O O15 0.500000 0.444559 0.750000
O O16 0.603981 0.451014 0.500000
O O17 0.000000 0.180291 0.250000
O O18 0.095332 0.158798 0.000000
#
# Coordination Sequence:
#
# PCOD9393461 Si02
#       6
#     8   8   8   8   8   8
#     4  10  20  32  47  67  92 121 150 181 216 255
#     4   9  18  32  48  66  89 116 147 182 220 263
#     4  10  21  36  52  71  93 116 146 181 216 257
#     4   9  17  27  40  61  88 119 152 183 215 251
#     4   9  15  23  35  52  79 114 151 185 214 246
#     4  10  20  35  54  72  91 114 140 175 221 270
#
# _framework density 15.819728
#
# number of rings (size 3 to 8) (size 9 to 14) (size 15 to 20)
#    0.000    2.500    0.000    3.000    0.000    6.000 
#    0.000    3.333    0.000    0.000    0.000    0.000 
#    0.000    0.667    0.000    8.333    0.000    0.000 
#
# Total GULP energy -267575.151683 kJ/mol
# GULP energy per Si atom -5574.482327 kJ/mol
# Density = 1.578372 g / cm^3
# Si number density = 15.819728 Si / 1000 Ang^3
#
#
#
# Elastic Constant Matrix: (Units=GPa)
#
#
# Indices 1 2 3 4 5 6 
#
# 1 53.4605 14.8477 16.0018 0.0000 0.0000 0.0000
# 2 14.8477 116.2123 22.2922 0.0000 0.0000 0.0000
# 3 16.0018 22.2922 30.7629 0.0000 0.0000 0.0000
# 4 0.0000 0.0000 0.0000 12.6608 0.0000 0.0000
# 5 0.0000 0.0000 0.0000 0.0000 22.2579 0.0000
# 6 0.0000 0.0000 0.0000 0.0000 0.0000 9.6496
#
#
#
# Elastic Compliance Matrix: (Units=1/GPa)
#
#
# Indices 1 2 3 4 5 6 
#
# 1 0.022207 -0.000722 -0.011028 0.000000 0.000000 0.000000
# 2 -0.000722 0.010018 -0.006884 0.000000 0.000000 0.000000
# 3 -0.011028 -0.006884 0.043231 0.000000 0.000000 0.000000
# 4 0.000000 0.000000 0.000000 0.078984 0.000000 0.000000
# 5 0.000000 0.000000 0.000000 0.000000 0.044928 0.000000
# 6 0.000000 0.000000 0.000000 0.000000 0.000000 0.103632
#
#
# Mechanical properties :
#
#
# Convention : Reuss Voigt Hill
#
# Bulk Modulus (GPa) = 26.18592 34.07988 30.13290
# Shear Modulus (GPa) = 14.16445 18.73325 16.44885
#
# Velocity S-wave (km/s) = 2.99551 3.44491 3.22804
# Velocity P-wave (km/s) = 5.34348 6.11659 5.74306
#
# Compressibility (1/GPa) = 0.03818846
#
# Stress axis : x y z
#
# Youngs Moduli (GPa) = 45.03122 99.82405 23.13131
#
# Poissons Ratio (x) = 0.07205 0.25510
# Poissons Ratio (y) = 0.03250 0.15923
# Poissons Ratio (z) = 0.49661 0.68717
#
# Static dielectric constant tensor:
#      x y z
#    x 1.510850 0.000000 0.000000 
#    y 0.000000 1.556320 0.000000 
#    z 0.000000 0.000000 1.527790 
# 
# From -- ./inp_files/2886.got.cif
#   From: 2010.05.17/outbox.cif.g08.bks.cpg/sg49_2_cif.got.tgz:2886.got - 2010.06.03 21:02:19.
