data_PCOD9393604
_publ_section_title
;
Structure prediction by ZEFSAII (Michael W. Deem and Ramdas Pophale) SiO2 
 PCOD9393604
Probable space group: P C C M
;
_chemical_formula_sum "Si O2"
_cell_formula_units_Z 58
_cell_length_a 14.891212
_cell_length_b 11.099105
_cell_length_c 18.576649
_cell_angle_alpha 90.000000
_cell_angle_beta 90.000000
_cell_angle_gamma 90.000000
_cell_volume 3070.332303
_symmetry_space_group_name_H-M "P C C M"
_symmetry_group_IT_number 49
_symmetry_cell_setting 'orthorhombic'
loop_
_space_group_symop_operation_xyz
x,y,z
-x,-y,z
x,-y,1/2-z
-x,y,1/2-z
-x,-y,-z
x,y,-z
-x,y,1/2+z
x,-y,1/2+z
loop_
_atom_site_type_symbol
_atom_site_label
_atom_site_fract_x
_atom_site_fract_y
_atom_site_fract_z
Si Si1 0.304765 0.600925 0.309885
Si Si2 0.896844 0.999709 0.084231
Si Si3 0.385230 0.772971 0.197888
Si Si4 0.593750 0.569586 0.582202
Si Si5 0.859155 0.783172 0.170935
Si Si6 0.022674 0.372599 0.664656
Si Si7 0.500000 0.000000 0.250000
Si Si8 0.175027 0.210998 0.669025
O O1 0.281858 0.500000 0.250000
O O2 0.378352 0.690437 0.271250
O O3 0.340634 0.524332 0.377013
O O4 0.218322 0.682279 0.327743
O O5 0.838904 0.898023 0.123394
O O6 0.854368 0.125660 0.105411
O O7 0.898003 0.978140 0.000000
O O8 0.000000 0.000000 0.110943
O O9 0.418197 0.686827 0.133185
O O10 0.436366 0.900712 0.208676
O O11 0.280462 0.791899 0.179674
O O12 0.500000 0.500000 0.579022
O O13 0.621847 0.598717 0.500000
O O14 0.867730 0.826143 0.253829
O O15 0.951627 0.727671 0.140685
O O16 0.125966 0.337871 0.655338
O O17 0.000000 0.500000 0.631114
O O18 0.000000 0.379859 0.750000
#
# Coordination Sequence:
#
# PCOD9393604 Si02
#       8
#     8   8   8   8   8   8   2   8
#     4   9  20  36  62  93 117 146 192 252 303 361
#     4  11  23  38  54  77 117 161 201 240 286 341
#     4  10  23  38  63  88 123 150 200 250 311 360
#     4  10  21  40  64  87 116 155 194 240 306 376
#     4  10  20  33  59  85 113 145 196 242 284 345
#     4   9  18  29  53  85 117 143 181 236 291 338
#     4  12  24  40  60  92 118 160 192 272 320 364
#     4  10  21  37  59  86 111 153 198 248 287 353
#
# _framework density 18.890463
#
# number of rings (size 3 to 8) (size 9 to 14) (size 15 to 20)
#    0.000    2.069    1.379    1.241   11.586    3.586 
#    0.000    0.345    0.000    0.828    0.000    0.000 
#    0.000    0.000    0.000    0.000    0.000    0.000 
#
# Total GULP energy -323139.973850 kJ/mol
# GULP energy per Si atom -5571.378859 kJ/mol
# Density = 1.884747 g / cm^3
# Si number density = 18.890463 Si / 1000 Ang^3
#
#
#
# Elastic Constant Matrix: (Units=GPa)
#
#
# Indices 1 2 3 4 5 6 
#
# 1 76.1922 28.2869 18.0100 0.0000 0.0000 0.0000
# 2 28.2869 103.6586 27.5630 0.0000 0.0000 0.0000
# 3 18.0100 27.5630 59.6883 0.0000 0.0000 0.0000
# 4 0.0000 0.0000 0.0000 -48.0368 0.0000 0.0000
# 5 0.0000 0.0000 0.0000 0.0000 14.5985 0.0000
# 6 0.0000 0.0000 0.0000 0.0000 0.0000 31.5910
#
#
#
# Elastic Compliance Matrix: (Units=1/GPa)
#
#
# Indices 1 2 3 4 5 6 
#
# 1 0.015067 -0.003309 -0.003018 0.000000 0.000000 0.000000
# 2 -0.003309 0.011724 -0.004416 0.000000 0.000000 0.000000
# 3 -0.003018 -0.004416 0.019703 0.000000 0.000000 0.000000
# 4 0.000000 0.000000 0.000000 -0.020817 0.000000 0.000000
# 5 0.000000 0.000000 0.000000 0.000000 0.068500 0.000000
# 6 0.000000 0.000000 0.000000 0.000000 0.000000 0.031655
#
#
# Mechanical properties :
#
#
# Convention : Reuss Voigt Hill
#
# Bulk Modulus (GPa) = 39.98578 43.02877 41.50728
# Shear Modulus (GPa) = 32.12275 10.67583 21.39929
#
# Velocity S-wave (km/s) = 4.12815 2.37985 3.36937
# Velocity P-wave (km/s) = 6.62837 5.51172 6.09567
#
# Compressibility (1/GPa) = 0.02500889
#
# Stress axis : x y z
#
# Youngs Moduli (GPa) = 66.37209 85.29429 50.75267
#
# Poissons Ratio (x) = 0.28223 0.15318
# Poissons Ratio (y) = 0.21962 0.22410
# Poissons Ratio (z) = 0.20032 0.37662
#
# Static dielectric constant tensor:
#      x y z
#    x 1.687190 0.000000 0.000000 
#    y 0.000000 1.702080 0.000000 
#    z 0.000000 0.000000 1.657090 
# 
# From -- ./inp_files/17888.got.cif
#   From: 2010.05.17/outbox.cif.g08.bks.cpg/sg49_9_cif.got.tgz:17888.got - 2010.06.03 21:02:19.
