data_PCOD9393492
_publ_section_title
;
Structure prediction by ZEFSAII (Michael W. Deem and Ramdas Pophale) SiO2 
 PCOD9393492
Probable space group: P C C M
;
_chemical_formula_sum "Si O2"
_cell_formula_units_Z 58
_cell_length_a 16.669166
_cell_length_b 7.468809
_cell_length_c 17.825211
_cell_angle_alpha 90.000000
_cell_angle_beta 90.000000
_cell_angle_gamma 90.000000
_cell_volume 2219.217683
_symmetry_space_group_name_H-M "P C C M"
_symmetry_group_IT_number 49
_symmetry_cell_setting 'orthorhombic'
loop_
_space_group_symop_operation_xyz
x,y,z
-x,-y,z
x,-y,1/2-z
-x,y,1/2-z
-x,-y,-z
x,y,-z
-x,y,1/2+z
x,-y,1/2+z
loop_
_atom_site_type_symbol
_atom_site_label
_atom_site_fract_x
_atom_site_fract_y
_atom_site_fract_z
Si Si1 0.446319 0.187126 0.825738
Si Si2 0.252622 0.512554 0.087652
Si Si3 0.500000 0.500000 0.750000
Si Si4 0.012860 0.717630 0.084787
Si Si5 0.840873 0.840256 0.868734
Si Si6 0.860259 0.315482 0.791076
Si Si7 0.587054 0.359305 0.914465
Si Si8 0.310633 0.002081 0.913907
O O1 0.433576 0.332595 0.759327
O O2 0.503078 0.316694 0.875645
O O3 0.362894 0.120389 0.857408
O O4 0.500000 0.000000 0.820688
O O5 0.206164 0.326477 0.093848
O O6 0.211645 0.625265 0.154161
O O7 0.347080 0.492036 0.104175
O O8 0.244036 0.575795 0.000000
O O9 0.072115 0.758219 0.153200
O O10 0.000000 0.500000 0.087480
O O11 0.930195 0.822173 0.099771
O O12 0.042063 0.756472 0.000000
O O13 0.840919 0.809511 0.779377
O O14 0.782483 0.000266 0.892318
O O15 0.889006 0.500000 0.750000
O O16 0.644553 0.186448 0.909144
O O17 0.566112 0.381023 0.000000
O O18 0.319924 0.064634 0.000000
#
# Coordination Sequence:
#
# PCOD9393492 Si02
#       8
#     8   8   2   8   8   8   8   8
#     4  10  23  42  65  88 127 162 208 254 311 368
#     4  10  20  35  56  86 120 158 204 256 314 370
#     4   8  24  40  56  96 128 148 194 268 320 356
#     4  11  19  32  55  86 123 161 208 257 313 382
#     4  11  23  35  57  93 126 159 203 266 321 373
#     4  10  20  32  54  84 123 157 201 253 315 368
#     4  10  23  42  65  89 122 166 216 259 307 375
#     4  11  24  43  64  91 126 168 213 260 315 377
#
# _framework density 26.135338000000001
#
# number of rings (size 3 to 8) (size 9 to 14) (size 15 to 20)
#    0.414    1.241    2.759    2.897    3.862    2.207 
#    2.483    0.690    0.000    0.828    0.000    9.655 
#    0.000    0.000    0.000    0.000    0.000    0.000 
#
# Total GULP energy -323862.642240 kJ/mol
# GULP energy per Si atom -5583.838659 kJ/mol
# Density = 2.607585 g / cm^3
# Si number density = 26.135338 Si / 1000 Ang^3
#
#
#
# Elastic Constant Matrix: (Units=GPa)
#
#
# Indices 1 2 3 4 5 6 
#
# 1 156.0564 -0.4621 43.3977 0.0000 0.0000 0.0000
# 2 -0.4621 118.7290 -3.5907 0.0000 0.0000 0.0000
# 3 43.3977 -3.5907 123.7674 0.0000 0.0000 0.0000
# 4 0.0000 0.0000 0.0000 32.7471 0.0000 0.0000
# 5 0.0000 0.0000 0.0000 0.0000 33.9486 0.0000
# 6 0.0000 0.0000 0.0000 0.0000 0.0000 40.9696
#
#
#
# Elastic Compliance Matrix: (Units=1/GPa)
#
#
# Indices 1 2 3 4 5 6 
#
# 1 0.007101 -0.000048 -0.002491 0.000000 0.000000 0.000000
# 2 -0.000048 0.008430 0.000261 0.000000 0.000000 0.000000
# 3 -0.002491 0.000261 0.008961 0.000000 0.000000 0.000000
# 4 0.000000 0.000000 0.000000 0.030537 0.000000 0.000000
# 5 0.000000 0.000000 0.000000 0.000000 0.029456 0.000000
# 6 0.000000 0.000000 0.000000 0.000000 0.000000 0.024408
#
#
# Mechanical properties :
#
#
# Convention : Reuss Voigt Hill
#
# Bulk Modulus (GPa) = 50.15920 53.02694 51.59307
# Shear Modulus (GPa) = 41.63413 45.48026 43.55720
#
# Velocity S-wave (km/s) = 3.99560 4.17608 4.08683
# Velocity P-wave (km/s) = 6.36554 6.60199 6.48484
#
# Compressibility (1/GPa) = 0.01993652
#
# Stress axis : x y z
#
# Youngs Moduli (GPa) = 140.83413 118.62033 111.59802
#
# Poissons Ratio (x) = 0.00566 0.27800
# Poissons Ratio (y) = 0.00672 -0.02916
# Poissons Ratio (z) = 0.35083 -0.03100
#
# Static dielectric constant tensor:
#      x y z
#    x 2.029650 0.000000 0.000000 
#    y 0.000000 2.279910 0.000000 
#    z 0.000000 0.000000 2.429870 
# 
# From -- ./inp_files/18185.got.cif
#   From: 2010.05.17/outbox.cif.g08.bks.cpg/sg49_10_cif.got.tgz:18185.got - 2010.06.03 21:02:19.
