data_PCOD9393448
_publ_section_title
;
Structure prediction by ZEFSAII (Michael W. Deem and Ramdas Pophale) SiO2 
 PCOD9393448
Probable space group: P C C M
;
_chemical_formula_sum "Si O2"
_cell_formula_units_Z 58
_cell_length_a 14.782602
_cell_length_b 24.089474
_cell_length_c 9.171549
_cell_angle_alpha 90.000000
_cell_angle_beta 90.000000
_cell_angle_gamma 90.000000
_cell_volume 3266.035434
_symmetry_space_group_name_H-M "P C C M"
_symmetry_group_IT_number 49
_symmetry_cell_setting 'orthorhombic'
loop_
_space_group_symop_operation_xyz
x,y,z
-x,-y,z
x,-y,1/2-z
-x,y,1/2-z
-x,-y,-z
x,y,-z
-x,y,1/2+z
x,-y,1/2+z
loop_
_atom_site_type_symbol
_atom_site_label
_atom_site_fract_x
_atom_site_fract_y
_atom_site_fract_z
Si Si1 0.500000 0.500000 0.750000
Si Si2 0.087306 0.274496 0.173175
Si Si3 0.288400 0.317177 0.826725
Si Si4 0.412906 0.391113 0.335081
Si Si5 0.790835 0.057975 0.325984
Si Si6 0.412712 0.899159 0.672804
Si Si7 0.146620 0.834749 0.165812
Si Si8 0.352804 0.790574 0.834339
O O1 0.564112 0.543210 0.665462
O O2 0.182180 0.305917 0.200438
O O3 0.098648 0.213430 0.243042
O O4 0.000000 0.300754 0.250000
O O5 0.074426 0.270624 0.000000
O O6 0.325697 0.373277 0.755499
O O7 0.344087 0.267522 0.749277
O O8 0.303064 0.316089 0.000000
O O9 0.500000 0.366732 0.250000
O O10 0.406864 0.371105 0.500000
O O11 0.805012 0.056806 0.500000
O O12 0.683582 0.070875 0.301072
O O13 0.847378 0.107476 0.251534
O O14 0.812650 0.000000 0.250000
O O15 0.500000 0.925660 0.750000
O O16 0.426965 0.896199 0.500000
O O17 0.402141 0.837809 0.741664
O O18 0.250078 0.813318 0.155583
O O19 0.111759 0.840211 0.000000
O O20 0.387924 0.785154 0.000000
#
# Coordination Sequence:
#
# PCOD9393448 Si02
#       8
#     2   8   8   8   8   8   8   8
#     4   8  22  36  58  80 112 148 194 236 276 308
#     4  10  20  34  54  81 112 145 178 217 263 320
#     4  10  20  33  51  78 111 143 180 223 269 316
#     4  10  20  34  54  78 109 146 187 230 271 313
#     4  10  20  33  49  68  90 119 159 208 259 314
#     4  10  20  32  45  62  87 120 159 204 257 314
#     4   9  17  31  51  72  95 125 160 201 250 308
#     4   9  17  30  47  66  91 123 161 202 250 308
#
# _framework density 17.758533
#
# number of rings (size 3 to 8) (size 9 to 14) (size 15 to 20)
#    0.414    1.931    0.000    3.103    0.000    7.448 
#    0.000    4.138    0.000    0.414    0.000    3.379 
#    0.000    3.310    0.000    0.000    0.000    0.000 
#
# Total GULP energy -323270.545870 kJ/mol
# GULP energy per Si atom -5573.630101 kJ/mol
# Density = 1.771811 g / cm^3
# Si number density = 17.758533 Si / 1000 Ang^3
#
#
#
# Elastic Constant Matrix: (Units=GPa)
#
#
# Indices 1 2 3 4 5 6 
#
# 1 62.0808 24.5207 44.9328 0.0000 0.0000 0.0000
# 2 24.5207 77.1092 39.7715 0.0000 0.0000 0.0000
# 3 44.9328 39.7715 118.9548 0.0000 0.0000 0.0000
# 4 0.0000 0.0000 0.0000 23.5706 0.0000 0.0000
# 5 0.0000 0.0000 0.0000 0.0000 23.4802 0.0000
# 6 0.0000 0.0000 0.0000 0.0000 0.0000 14.2775
#
#
#
# Elastic Compliance Matrix: (Units=1/GPa)
#
#
# Indices 1 2 3 4 5 6 
#
# 1 0.022886 -0.003406 -0.007506 0.000000 0.000000 0.000000
# 2 -0.003406 0.016178 -0.004122 0.000000 0.000000 0.000000
# 3 -0.007506 -0.004122 0.012620 0.000000 0.000000 0.000000
# 4 0.000000 0.000000 0.000000 0.042426 0.000000 0.000000
# 5 0.000000 0.000000 0.000000 0.000000 0.042589 0.000000
# 6 0.000000 0.000000 0.000000 0.000000 0.000000 0.070040
#
#
# Mechanical properties :
#
#
# Convention : Reuss Voigt Hill
#
# Bulk Modulus (GPa) = 46.26407 52.95497 49.60952
# Shear Modulus (GPa) = 20.49070 22.19366 21.34218
#
# Velocity S-wave (km/s) = 3.40052 3.53901 3.47046
# Velocity P-wave (km/s) = 6.44410 6.82522 6.63739
#
# Compressibility (1/GPa) = 0.02161505
#
# Stress axis : x y z
#
# Youngs Moduli (GPa) = 43.69469 61.81215 79.23932
#
# Poissons Ratio (x) = 0.21056 0.59476
# Poissons Ratio (y) = 0.14884 0.32665
# Poissons Ratio (z) = 0.32797 0.25481
#
# Static dielectric constant tensor:
#      x y z
#    x 1.638940 0.000000 0.000000 
#    y 0.000000 1.601000 0.000000 
#    z 0.000000 0.000000 1.602490 
# 
# From -- ./inp_files/4254.got.cif
#   From: 2010.05.17/outbox.cif.g08.bks.cpg/sg49_3_cif.got.tgz:4254.got - 2010.06.03 21:02:19.
