data_PCOD9393176
_publ_section_title
;
Structure prediction by ZEFSAII (Michael W. Deem and Ramdas Pophale) SiO2 
 PCOD9393176
Probable space group: P C C M
;
_chemical_formula_sum "Si O2"
_cell_formula_units_Z 56
_cell_length_a 14.657772
_cell_length_b 10.784810
_cell_length_c 15.389352
_cell_angle_alpha 90.000000
_cell_angle_beta 90.000000
_cell_angle_gamma 90.000000
_cell_volume 2432.768556
_symmetry_space_group_name_H-M "P C C M"
_symmetry_group_IT_number 49
_symmetry_cell_setting 'orthorhombic'
loop_
_space_group_symop_operation_xyz
x,y,z
-x,-y,z
x,-y,1/2-z
-x,y,1/2-z
-x,-y,-z
x,y,-z
-x,y,1/2+z
x,-y,1/2+z
loop_
_atom_site_type_symbol
_atom_site_label
_atom_site_fract_x
_atom_site_fract_y
_atom_site_fract_z
Si Si1 0.298561 0.931848 0.397806
Si Si2 0.620828 0.174295 0.904113
Si Si3 0.399126 0.448687 0.396379
Si Si4 0.194165 0.275536 0.360819
Si Si5 0.098035 0.967454 0.148784
Si Si6 0.896128 0.517551 0.143515
Si Si7 0.266454 0.333459 0.168024
O O1 0.314778 0.934922 0.500000
O O2 0.312161 0.792165 0.365669
O O3 0.366959 0.038830 0.360589
O O4 0.191647 0.966932 0.382360
O O5 0.590206 0.305488 0.863731
O O6 0.727613 0.208668 0.913281
O O7 0.576891 0.163082 0.000000
O O8 0.500000 0.500000 0.389359
O O9 0.374438 0.443666 0.500000
O O10 0.330013 0.545703 0.349560
O O11 0.112117 0.179746 0.355428
O O12 0.159333 0.403833 0.396009
O O13 0.238854 0.304205 0.267093
O O14 0.094719 0.000000 0.250000
O O15 0.000000 0.000000 0.108656
O O16 0.896004 0.500000 0.250000
O O17 0.833289 0.636706 0.125616
O O18 0.000000 0.500000 0.116215
#
# Coordination Sequence:
#
# PCOD9393176 Si02
#       7
#     8   8   8   8   8   8   8
#     4  10  21  36  55  81 111 151 194 241 295 343
#     4   9  19  37  57  78 112 150 187 233 290 354
#     4  10  21  39  63  88 116 153 194 239 300 371
#     4  10  19  34  55  81 112 150 195 236 290 340
#     4  10  20  32  53  80 110 153 201 239 280 341
#     4   9  19  30  51  79 113 150 189 237 287 342
#     4  11  20  35  58  85 115 149 191 248 294 349
#
# _framework density 23.019041999999999
#
# number of rings (size 3 to 8) (size 9 to 14) (size 15 to 20)
#    0.000    2.143    2.857    0.429    2.000    1.429 
#    0.000    2.143    0.000    5.571    0.000    2.000 
#    0.000    0.000    0.000    0.000    0.000    0.000 
#
# Total GULP energy -311858.373587 kJ/mol
# GULP energy per Si atom -5568.899528 kJ/mol
# Density = 2.296665 g / cm^3
# Si number density = 23.019042 Si / 1000 Ang^3
#
#
#
# Elastic Constant Matrix: (Units=GPa)
#
#
# Indices 1 2 3 4 5 6 
#
# 1 62.7329 30.9340 4.8253 0.0000 0.0000 0.0000
# 2 30.9340 174.2340 17.4526 0.0000 0.0000 0.0000
# 3 4.8253 17.4526 51.7638 0.0000 0.0000 0.0000
# 4 0.0000 0.0000 0.0000 -925.0140 0.0000 0.0000
# 5 0.0000 0.0000 0.0000 0.0000 6.7681 0.0000
# 6 0.0000 0.0000 0.0000 0.0000 0.0000 43.8602
#
#
#
# Elastic Compliance Matrix: (Units=1/GPa)
#
#
# Indices 1 2 3 4 5 6 
#
# 1 0.017488 -0.003044 -0.000604 0.000000 0.000000 0.000000
# 2 -0.003044 0.006470 -0.001898 0.000000 0.000000 0.000000
# 3 -0.000604 -0.001898 0.020015 0.000000 0.000000 0.000000
# 4 0.000000 0.000000 0.000000 -0.001081 0.000000 0.000000
# 5 0.000000 0.000000 0.000000 0.000000 0.147752 0.000000
# 6 0.000000 0.000000 0.000000 0.000000 0.000000 0.022800
#
#
# Mechanical properties :
#
#
# Convention : Reuss Voigt Hill
#
# Bulk Modulus (GPa) = 30.41248 43.90605 37.15927
# Shear Modulus (GPa) = 21.23183 -159.17588 -68.97202
#
# Velocity S-wave (km/s) = 3.04033 -8.32465 -5.47979
# Velocity P-wave (km/s) = 5.05622 8.56064 4.88462
#
# Compressibility (1/GPa) = 0.03288124
#
# Stress axis : x y z
#
# Youngs Moduli (GPa) = 57.18121 154.55941 49.96350
#
# Poissons Ratio (x) = 0.47055 0.03017
# Poissons Ratio (y) = 0.17408 0.09481
# Poissons Ratio (z) = 0.03452 0.29329
#
# Static dielectric constant tensor:
#      x y z
#    x 1.880540 0.000000 0.000000 
#    y 0.000000 1.977810 0.000000 
#    z 0.000000 0.000000 1.843400 
# 
# From -- ./inp_files/20834.got.cif
#   From: 2010.05.17/outbox.cif.g08.bks.cpg/sg49_11_cif.got.tgz:20834.got - 2010.06.03 21:02:19.
