data_PCOD9393900
_publ_section_title
;
Structure prediction by ZEFSAII (Michael W. Deem and Ramdas Pophale) SiO2 
 PCOD9393900
Probable space group: P C C M
;
_chemical_formula_sum "Si O2"
_cell_formula_units_Z 58
_cell_length_a 21.889151
_cell_length_b 15.993920
_cell_length_c 8.859074
_cell_angle_alpha 90.000000
_cell_angle_beta 90.000000
_cell_angle_gamma 90.000000
_cell_volume 3101.502717
_symmetry_space_group_name_H-M "P C C M"
_symmetry_group_IT_number 49
_symmetry_cell_setting 'orthorhombic'
loop_
_space_group_symop_operation_xyz
x,y,z
-x,-y,z
x,-y,1/2-z
-x,y,1/2-z
-x,-y,-z
x,y,-z
-x,y,1/2+z
x,-y,1/2+z
loop_
_atom_site_type_symbol
_atom_site_label
_atom_site_fract_x
_atom_site_fract_y
_atom_site_fract_z
Si Si1 0.766623 0.088710 0.680005
Si Si2 0.312686 0.589790 0.182083
Si Si3 0.566634 0.088538 0.180412
Si Si4 0.672955 0.219788 0.818596
Si Si5 0.895628 0.120169 0.170186
Si Si6 0.828862 0.585913 0.680912
Si Si7 0.000000 0.000000 0.250000
Si Si8 0.937773 0.701415 0.318447
O O1 0.761253 0.085103 0.500000
O O2 0.728918 0.168592 0.743016
O O3 0.837686 0.096183 0.728992
O O4 0.744309 0.000000 0.750000
O O5 0.334736 0.500000 0.250000
O O6 0.337255 0.682529 0.225864
O O7 0.241215 0.597547 0.227067
O O8 0.317594 0.582783 0.000000
O O9 0.500000 0.105419 0.250000
O O10 0.613705 0.162937 0.213160
O O11 0.587738 0.000000 0.250000
O O12 0.561690 0.079446 0.000000
O O13 0.683953 0.220369 0.000000
O O14 0.926813 0.203884 0.230252
O O15 0.871502 0.134475 0.000000
O O16 0.951425 0.056124 0.161918
O O17 0.851083 0.500000 0.750000
O O18 0.828890 0.582296 0.500000
O O19 0.876310 0.655265 0.729329
O O20 0.942518 0.698537 0.500000
O O21 0.000000 0.666869 0.250000
#
# Coordination Sequence:
#
# PCOD9393900 Si02
#       8
#     8   8   8   8   8   8   2   8
#     4  12  25  38  56  82 113 147 187 234 286 342
#     4   9  18  35  58  82 110 142 182 230 281 338
#     4  10  20  35  58  87 121 162 201 237 278 328
#     4  10  21  38  60  86 119 156 192 235 288 336
#     4  11  23  39  57  77 105 137 179 227 278 337
#     4   9  18  33  53  73  98 130 166 209 264 323
#     4  12  22  36  64  78  96 136 184 224 278 332
#     4  10  21  36  52  72  97 129 164 210 268 326
#
# _framework density 18.700613000000001
#
# number of rings (size 3 to 8) (size 9 to 14) (size 15 to 20)
#    0.000    1.793    1.379    3.517    0.000    6.897 
#    0.000    4.138    0.000    0.414    0.000    2.897 
#    0.000    0.000    0.000    0.000    0.000    0.000 
#
# Total GULP energy -323354.152697 kJ/mol
# GULP energy per Si atom -5575.071598 kJ/mol
# Density = 1.865805 g / cm^3
# Si number density = 18.700613 Si / 1000 Ang^3
#
#
#
# Elastic Constant Matrix: (Units=GPa)
#
#
# Indices 1 2 3 4 5 6 
#
# 1 78.8072 57.0940 30.8253 0.0000 0.0000 0.0000
# 2 57.0940 150.7766 39.1323 0.0000 0.0000 0.0000
# 3 30.8253 39.1323 50.1073 0.0000 0.0000 0.0000
# 4 0.0000 0.0000 0.0000 12.7968 0.0000 0.0000
# 5 0.0000 0.0000 0.0000 0.0000 9.2935 0.0000
# 6 0.0000 0.0000 0.0000 0.0000 0.0000 8.7882
#
#
#
# Elastic Compliance Matrix: (Units=1/GPa)
#
#
# Indices 1 2 3 4 5 6 
#
# 1 0.019695 -0.005410 -0.007891 0.000000 0.000000 0.000000
# 2 -0.005410 0.009804 -0.004329 0.000000 0.000000 0.000000
# 3 -0.007891 -0.004329 0.028193 0.000000 0.000000 0.000000
# 4 0.000000 0.000000 0.000000 0.078144 0.000000 0.000000
# 5 0.000000 0.000000 0.000000 0.000000 0.107602 0.000000
# 6 0.000000 0.000000 0.000000 0.000000 0.000000 0.113789
#
#
# Mechanical properties :
#
#
# Convention : Reuss Voigt Hill
#
# Bulk Modulus (GPa) = 44.57899 59.31048 51.94474
# Shear Modulus (GPa) = 12.50110 16.35166 14.42638
#
# Velocity S-wave (km/s) = 2.58831 2.96022 2.78049
# Velocity P-wave (km/s) = 5.72909 6.59307 6.17620
#
# Compressibility (1/GPa) = 0.02243209
#
# Stress axis : x y z
#
# Youngs Moduli (GPa) = 50.77393 101.99556 35.47038
#
# Poissons Ratio (x) = 0.55177 0.27991
# Poissons Ratio (y) = 0.27468 0.15355
# Poissons Ratio (z) = 0.40067 0.44153
#
# Static dielectric constant tensor:
#      x y z
#    x 1.634330 0.000000 0.000000 
#    y 0.000000 1.685440 0.000000 
#    z 0.000000 0.000000 1.655100 
# 
# From -- ./inp_files/6441.got.cif
#   From: 2010.05.17/outbox.cif.g08.bks.cpg/sg49_4_cif.got.tgz:6441.got - 2010.06.03 21:02:19.
