data_PCOD9393838
_publ_section_title
;
Structure prediction by ZEFSAII (Michael W. Deem and Ramdas Pophale) SiO2 
 PCOD9393838
Probable space group: P C C M
;
_chemical_formula_sum "Si O2"
_cell_formula_units_Z 40
_cell_length_a 9.877433
_cell_length_b 25.855897
_cell_length_c 8.635858
_cell_angle_alpha 90.000000
_cell_angle_beta 90.000000
_cell_angle_gamma 90.000000
_cell_volume 2205.510827
_symmetry_space_group_name_H-M "P C C M"
_symmetry_group_IT_number 49
_symmetry_cell_setting 'orthorhombic'
loop_
_space_group_symop_operation_xyz
x,y,z
-x,-y,z
x,-y,1/2-z
-x,y,1/2-z
-x,-y,-z
x,y,-z
-x,y,1/2+z
x,-y,1/2+z
loop_
_atom_site_type_symbol
_atom_site_label
_atom_site_fract_x
_atom_site_fract_y
_atom_site_fract_z
Si Si1 0.351078 0.239299 0.813499
Si Si2 0.848535 0.444709 0.184957
Si Si3 0.151434 0.851214 0.313047
Si Si4 0.647531 0.942699 0.813918
Si Si5 0.649701 0.641636 0.186143
O O1 0.500000 0.226211 0.750000
O O2 0.237630 0.198839 0.761187
O O3 0.319311 0.298665 0.770167
O O4 0.357942 0.236978 0.000000
O O5 0.798951 0.500000 0.250000
O O6 0.754696 0.398437 0.242722
O O7 0.000000 0.437526 0.250000
O O8 0.852603 0.446742 0.000000
O O9 0.145723 0.850321 0.500000
O O10 0.237974 0.901765 0.267503
O O11 0.000000 0.851675 0.250000
O O12 0.500000 0.926861 0.750000
O O13 0.675787 0.000000 0.750000
O O14 0.640300 0.944572 0.000000
O O15 0.500000 0.630372 0.250000
O O16 0.650665 0.637835 0.000000
#
# Coordination Sequence:
#
# PCOD9393838 Si02
#       5
#     8   8   8   8   8
#     4   9  19  36  57  80 107 139 178 220 265 317
#     4  11  22  38  58  81 110 145 183 223 269 322
#     4  10  22  37  53  78 109 142 178 219 265 316
#     4  10  20  35  56  80 106 137 178 220 264 316
#     4  10  20  36  57  83 112 142 179 224 271 321
#
# _framework density 18.136388
#
# number of rings (size 3 to 8) (size 9 to 14) (size 15 to 20)
#    0.000    2.000    0.000    4.800    0.000    4.800 
#    0.000    6.000    0.000    0.000    0.000    0.000 
#    0.000    0.000    0.000    0.000    0.000    0.000 
#
# Total GULP energy -223404.440079 kJ/mol
# GULP energy per Si atom -5585.111002 kJ/mol
# Density = 1.809511 g / cm^3
# Si number density = 18.136388 Si / 1000 Ang^3
#
#
#
# Elastic Constant Matrix: (Units=GPa)
#
#
# Indices 1 2 3 4 5 6 
#
# 1 157.1142 126.4617 46.6079 0.0000 0.0000 0.0000
# 2 126.4617 140.8002 48.8909 0.0000 0.0000 0.0000
# 3 46.6079 48.8909 72.6851 0.0000 0.0000 0.0000
# 4 0.0000 0.0000 0.0000 24.5863 0.0000 0.0000
# 5 0.0000 0.0000 0.0000 0.0000 37.4534 0.0000
# 6 0.0000 0.0000 0.0000 0.0000 0.0000 103.4178
#
#
#
# Elastic Compliance Matrix: (Units=1/GPa)
#
#
# Indices 1 2 3 4 5 6 
#
# 1 0.023041 -0.020308 -0.001115 0.000000 0.000000 0.000000
# 2 -0.020308 0.027165 -0.005250 0.000000 0.000000 0.000000
# 3 -0.001115 -0.005250 0.018005 0.000000 0.000000 0.000000
# 4 0.000000 0.000000 0.000000 0.040673 0.000000 0.000000
# 5 0.000000 0.000000 0.000000 0.000000 0.026700 0.000000
# 6 0.000000 0.000000 0.000000 0.000000 0.000000 0.009670
#
#
# Mechanical properties :
#
#
# Convention : Reuss Voigt Hill
#
# Bulk Modulus (GPa) = 67.27333 90.50227 78.88780
# Shear Modulus (GPa) = 24.56345 43.00076 33.78211
#
# Velocity S-wave (km/s) = 3.68417 4.87454 4.32055
# Velocity P-wave (km/s) = 7.43445 9.03830 8.27532
#
# Compressibility (1/GPa) = 0.01486473
#
# Stress axis : x y z
#
# Youngs Moduli (GPa) = 43.40027 36.81198 55.54153
#
# Poissons Ratio (x) = 0.74757 0.06193
# Poissons Ratio (y) = 0.88136 0.29161
# Poissons Ratio (z) = 0.04839 0.19328
#
# Static dielectric constant tensor:
#      x y z
#    x 1.585640 0.000000 0.000000 
#    y 0.000000 1.625110 0.000000 
#    z 0.000000 0.000000 1.611910 
# 
# From -- ./inp_files/1672.got.cif
#   From: 2010.05.17/outbox.cif.g08.bks.cpg/sg49_1_cif.got.tgz:1672.got - 2010.06.03 21:02:19.
