data_PCOD9393710
_publ_section_title
;
Structure prediction by ZEFSAII (Michael W. Deem and Ramdas Pophale) SiO2 
 PCOD9393710
Probable space group: P C C M
;
_chemical_formula_sum "Si O2"
_cell_formula_units_Z 56
_cell_length_a 26.049570
_cell_length_b 14.632733
_cell_length_c 8.672056
_cell_angle_alpha 90.000000
_cell_angle_beta 90.000000
_cell_angle_gamma 90.000000
_cell_volume 3305.583109
_symmetry_space_group_name_H-M "P C C M"
_symmetry_group_IT_number 49
_symmetry_cell_setting 'orthorhombic'
loop_
_space_group_symop_operation_xyz
x,y,z
-x,-y,z
x,-y,1/2-z
-x,y,1/2-z
-x,-y,-z
x,y,-z
-x,y,1/2+z
x,-y,1/2+z
loop_
_atom_site_type_symbol
_atom_site_label
_atom_site_fract_x
_atom_site_fract_y
_atom_site_fract_z
Si Si1 0.656331 0.787189 0.184621
Si Si2 0.149818 0.213877 0.815832
Si Si3 0.444973 0.101403 0.184569
Si Si4 0.188092 0.598933 0.184148
Si Si5 0.310122 0.598738 0.816180
Si Si6 0.056572 0.100381 0.684783
Si Si7 0.753094 0.102486 0.184634
O O1 0.601935 0.832544 0.225767
O O2 0.660848 0.682917 0.238873
O O3 0.702093 0.843841 0.263778
O O4 0.662842 0.792622 0.000000
O O5 0.158689 0.317826 0.762921
O O6 0.098508 0.171586 0.743680
O O7 0.197908 0.155580 0.752365
O O8 0.148278 0.207539 0.000000
O O9 0.500000 0.131662 0.250000
O O10 0.434878 0.000000 0.250000
O O11 0.448292 0.095540 0.000000
O O12 0.173270 0.500000 0.250000
O O13 0.249108 0.611004 0.216101
O O14 0.181203 0.601574 0.000000
O O15 0.325066 0.500000 0.750000
O O16 0.316844 0.600493 0.000000
O O17 0.055240 0.096953 0.500000
O O18 0.000000 0.121556 0.750000
O O19 0.070553 0.000000 0.750000
O O20 0.751678 0.000000 0.250000
O O21 0.756499 0.100930 0.000000
#
# Coordination Sequence:
#
# PCOD9393710 Si02
#       7
#     8   8   8   8   8   8   8
#     4  11  22  36  55  81 111 144 182 225 275 330
#     4  12  23  37  57  82 113 149 185 229 278 328
#     4  10  21  36  56  80 107 143 185 229 272 322
#     4  10  20  35  55  82 112 147 186 227 275 328
#     4  10  20  34  55  80 111 146 183 225 273 327
#     4  11  22  39  60  84 113 147 191 235 277 329
#     4  12  24  37  52  77 111 148 183 222 274 331
#
# _framework density 16.941034999999999
#
# number of rings (size 3 to 8) (size 9 to 14) (size 15 to 20)
#    0.000    1.143    1.429    7.286    0.000    4.571 
#    0.000    0.000    0.000    0.857    0.000    6.000 
#    0.000    0.000    0.000    0.000    0.000    0.000 
#
# Total GULP energy -313109.521145 kJ/mol
# GULP energy per Si atom -5591.241449 kJ/mol
# Density = 1.690248 g / cm^3
# Si number density = 16.941035 Si / 1000 Ang^3
#
#
#
# Elastic Constant Matrix: (Units=GPa)
#
#
# Indices 1 2 3 4 5 6 
#
# 1 98.1933 83.6350 63.0453 0.0000 0.0000 0.0000
# 2 83.6350 149.6237 70.0721 0.0000 0.0000 0.0000
# 3 63.0453 70.0721 130.9329 0.0000 0.0000 0.0000
# 4 0.0000 0.0000 0.0000 32.1185 0.0000 0.0000
# 5 0.0000 0.0000 0.0000 0.0000 32.8085 0.0000
# 6 0.0000 0.0000 0.0000 0.0000 0.0000 2.4956
#
#
#
# Elastic Compliance Matrix: (Units=1/GPa)
#
#
# Indices 1 2 3 4 5 6 
#
# 1 0.021914 -0.009752 -0.005333 0.000000 0.000000 0.000000
# 2 -0.009752 0.013258 -0.002400 0.000000 0.000000 0.000000
# 3 -0.005333 -0.002400 0.011490 0.000000 0.000000 0.000000
# 4 0.000000 0.000000 0.000000 0.031135 0.000000 0.000000
# 5 0.000000 0.000000 0.000000 0.000000 0.030480 0.000000
# 6 0.000000 0.000000 0.000000 0.000000 0.000000 0.400711
#
#
# Mechanical properties :
#
#
# Convention : Reuss Voigt Hill
#
# Bulk Modulus (GPa) = 85.52248 90.25049 87.88648
# Shear Modulus (GPa) = 9.12653 24.28435 16.70544
#
# Velocity S-wave (km/s) = 2.32356 3.79022 3.14362
# Velocity P-wave (km/s) = 7.60201 8.51723 8.07260
#
# Compressibility (1/GPa) = 0.01169283
#
# Stress axis : x y z
#
# Youngs Moduli (GPa) = 45.63336 75.42459 87.03426
#
# Poissons Ratio (x) = 0.73551 0.46414
# Poissons Ratio (y) = 0.44500 0.20888
# Poissons Ratio (z) = 0.24336 0.18102
#
# Static dielectric constant tensor:
#      x y z
#    x 1.551610 0.000000 0.000000 
#    y 0.000000 1.553420 0.000000 
#    z 0.000000 0.000000 1.564060 
# 
# From -- ./inp_files/5799.got.cif
#   From: 2010.05.17/outbox.cif.g08.bks.cpg/sg49_3_cif.got.tgz:5799.got - 2010.06.03 21:02:19.
