data_PCOD9393836
_publ_section_title
;
Structure prediction by ZEFSAII (Michael W. Deem and Ramdas Pophale) SiO2 
 PCOD9393836
Probable space group: P C C M
;
_chemical_formula_sum "Si O2"
_cell_formula_units_Z 48
_cell_length_a 8.912363
_cell_length_b 30.025449
_cell_length_c 9.161686
_cell_angle_alpha 90.000000
_cell_angle_beta 90.000000
_cell_angle_gamma 90.000000
_cell_volume 2451.646108
_symmetry_space_group_name_H-M "P C C M"
_symmetry_group_IT_number 49
_symmetry_cell_setting 'orthorhombic'
loop_
_space_group_symop_operation_xyz
x,y,z
-x,-y,z
x,-y,1/2-z
-x,y,1/2-z
-x,-y,-z
x,y,-z
-x,y,1/2+z
x,-y,1/2+z
loop_
_atom_site_type_symbol
_atom_site_label
_atom_site_fract_x
_atom_site_fract_y
_atom_site_fract_z
Si Si1 0.156649 0.309691 0.667779
Si Si2 0.203812 0.538616 0.000000
Si Si3 0.322820 0.601203 0.230626
Si Si4 0.336852 0.857971 0.175269
Si Si5 0.859745 0.566104 0.000000
Si Si6 0.664357 0.957248 0.325984
Si Si7 0.164217 0.222941 0.823710
O O1 0.126538 0.295792 0.500000
O O2 0.259090 0.353211 0.664978
O O3 0.229768 0.269333 0.760044
O O4 0.000000 0.320243 0.750000
O O5 0.294329 0.557487 0.135090
O O6 0.185232 0.486005 0.000000
O O7 0.040319 0.562998 0.000000
O O8 0.500000 0.605921 0.250000
O O9 0.215708 0.591335 0.366680
O O10 0.500000 0.858232 0.250000
O O11 0.269336 0.907830 0.195731
O O12 0.247342 0.819548 0.257238
O O13 0.346885 0.850231 0.000000
O O14 0.500000 0.954893 0.250000
O O15 0.649425 0.964428 0.500000
O O16 0.740348 0.000000 0.250000
O O17 0.000000 0.222286 0.750000
O O18 0.161379 0.222343 0.000000
#
# Coordination Sequence:
#
# PCOD9393836 Si02
#       7
#     8   4   8   8   4   8   8
#     4  11  23  42  66  89 118 156 203 246 296 368
#     4  11  23  47  63  99 117 169 215 245 300 359
#     4  12  26  41  63  96 130 161 198 254 317 360
#     4  10  20  35  55  84 120 158 201 252 311 366
#     4  11  25  41  73  87 129 163 211 255 288 371
#     4   9  16  26  45  73 109 151 196 247 300 361
#     4  11  23  40  63  90 118 156 203 249 304 364
#
# _framework density 19.578683000000002
#
# number of rings (size 3 to 8) (size 9 to 14) (size 15 to 20)
#    0.000    1.333    0.833    7.000    2.333    6.000 
#    0.000    1.667    0.000    0.500    0.000    3.500 
#    0.000    0.000    0.000    0.000    0.000    0.000 
#
# Total GULP energy -267749.293093 kJ/mol
# GULP energy per Si atom -5578.110273 kJ/mol
# Density = 1.953412 g / cm^3
# Si number density = 19.578683 Si / 1000 Ang^3
#
#
#
# Elastic Constant Matrix: (Units=GPa)
#
#
# Indices 1 2 3 4 5 6 
#
# 1 59.3127 46.3193 20.8584 0.0000 0.0000 0.0000
# 2 46.3193 136.5948 53.7069 0.0000 0.0000 0.0000
# 3 20.8584 53.7069 156.0966 0.0000 0.0000 0.0000
# 4 0.0000 0.0000 0.0000 38.8326 0.0000 0.0000
# 5 0.0000 0.0000 0.0000 0.0000 20.9539 0.0000
# 6 0.0000 0.0000 0.0000 0.0000 0.0000 34.2844
#
#
#
# Elastic Compliance Matrix: (Units=1/GPa)
#
#
# Indices 1 2 3 4 5 6 
#
# 1 0.022960 -0.007609 -0.000450 0.000000 0.000000 0.000000
# 2 -0.007609 0.010988 -0.002764 0.000000 0.000000 0.000000
# 3 -0.000450 -0.002764 0.007417 0.000000 0.000000 0.000000
# 4 0.000000 0.000000 0.000000 0.025752 0.000000 0.000000
# 5 0.000000 0.000000 0.000000 0.000000 0.047724 0.000000
# 6 0.000000 0.000000 0.000000 0.000000 0.000000 0.029168
#
#
# Mechanical properties :
#
#
# Convention : Reuss Voigt Hill
#
# Bulk Modulus (GPa) = 50.71043 65.97482 58.34262
# Shear Modulus (GPa) = 29.03147 34.22213 31.62680
#
# Velocity S-wave (km/s) = 3.85490 4.18536 4.02353
# Velocity P-wave (km/s) = 6.76541 7.55822 7.17278
#
# Compressibility (1/GPa) = 0.01971981
#
# Stress axis : x y z
#
# Youngs Moduli (GPa) = 43.55391 91.01076 134.81930
#
# Poissons Ratio (x) = 0.69248 0.06069
# Poissons Ratio (y) = 0.33139 0.37260
# Poissons Ratio (z) = 0.01961 0.25153
#
# Static dielectric constant tensor:
#      x y z
#    x 1.670760 0.000000 0.000000 
#    y 0.000000 1.726590 0.000000 
#    z 0.000000 0.000000 1.665900 
# 
# From -- ./inp_files/2160.got.cif
#   From: 2010.05.17/outbox.cif.g08.bks.cpg/sg49_2_cif.got.tgz:2160.got - 2010.06.03 21:02:19.
