data_PCOD9393360
_publ_section_title
;
Structure prediction by ZEFSAII (Michael W. Deem and Ramdas Pophale) SiO2 
 PCOD9393360
Probable space group: P C C M
;
_chemical_formula_sum "Si O2"
_cell_formula_units_Z 64
_cell_length_a 19.721765
_cell_length_b 10.396118
_cell_length_c 16.789265
_cell_angle_alpha 90.000000
_cell_angle_beta 90.000000
_cell_angle_gamma 90.000000
_cell_volume 3442.299580
_symmetry_space_group_name_H-M "P C C M"
_symmetry_group_IT_number 49
_symmetry_cell_setting 'orthorhombic'
loop_
_space_group_symop_operation_xyz
x,y,z
-x,-y,z
x,-y,1/2-z
-x,y,1/2-z
-x,-y,-z
x,y,-z
-x,y,1/2+z
x,-y,1/2+z
loop_
_atom_site_type_symbol
_atom_site_label
_atom_site_fract_x
_atom_site_fract_y
_atom_site_fract_z
Si Si1 0.200311 0.888767 0.316474
Si Si2 0.307852 0.485777 0.091903
Si Si3 0.942759 0.102249 0.403459
Si Si4 0.177887 0.409227 0.817444
Si Si5 0.518453 0.860455 0.157090
Si Si6 0.553003 0.392917 0.904305
Si Si7 0.335260 0.180638 0.091341
Si Si8 0.955531 0.384436 0.594292
O O1 0.130932 0.918534 0.364610
O O2 0.192536 0.737727 0.289616
O O3 0.267314 0.880776 0.371838
O O4 0.208334 0.000000 0.250000
O O5 0.243970 0.482419 0.149835
O O6 0.370929 0.570956 0.121935
O O7 0.328853 0.335626 0.089271
O O8 0.291188 0.522614 0.000000
O O9 0.934813 0.102475 0.500000
O O10 0.970429 0.241324 0.375971
O O11 0.000000 0.000000 0.382154
O O12 0.147622 0.500000 0.750000
O O13 0.123715 0.401756 0.888210
O O14 0.500000 0.857621 0.250000
O O15 0.476172 0.745337 0.117761
O O16 0.598257 0.845499 0.142760
O O17 0.500000 0.000000 0.123637
O O18 0.500000 0.500000 0.873697
O O19 0.554789 0.404342 0.000000
O O20 0.344758 0.137458 0.000000
O O21 0.967183 0.382042 0.500000
O O22 0.000000 0.500000 0.628546
#
# Coordination Sequence:
#
# PCOD9393360 Si02
#       8
#     8   8   8   8   8   8   8   8
#     4  10  22  37  59  84 114 152 192 241 285 345
#     4   9  18  35  60  84 107 141 186 239 278 328
#     4   9  18  35  59  86 114 147 194 243 285 336
#     4  10  21  36  54  81 114 150 185 227 282 341
#     4  11  25  39  56  83 118 153 185 237 290 350
#     4  10  19  36  60  85 109 140 190 236 282 340
#     4  10  20  39  63  82 109 152 195 232 284 347
#     4   9  18  34  57  82 109 147 190 230 277 336
#
# _framework density 18.592224000000002
#
# number of rings (size 3 to 8) (size 9 to 14) (size 15 to 20)
#    0.000    2.250    1.250    1.125    1.750    7.750 
#    0.000    2.500    0.000    1.500    0.000    0.000 
#    0.000    0.000    0.000    0.000    0.000    0.000 
#
# Total GULP energy -356669.649498 kJ/mol
# GULP energy per Si atom -5572.963273 kJ/mol
# Density = 1.854991 g / cm^3
# Si number density = 18.592224 Si / 1000 Ang^3
#
#
#
# Elastic Constant Matrix: (Units=GPa)
#
#
# Indices 1 2 3 4 5 6 
#
# 1 121.3186 65.8316 26.3067 0.0000 0.0000 0.0000
# 2 65.8316 101.1649 20.9748 0.0000 0.0000 0.0000
# 3 26.3067 20.9748 30.5883 0.0000 0.0000 0.0000
# 4 0.0000 0.0000 0.0000 57.4669 0.0000 0.0000
# 5 0.0000 0.0000 0.0000 0.0000 7.6336 0.0000
# 6 0.0000 0.0000 0.0000 0.0000 0.0000 36.9927
#
#
#
# Elastic Compliance Matrix: (Units=1/GPa)
#
#
# Indices 1 2 3 4 5 6 
#
# 1 0.013817 -0.007609 -0.006665 0.000000 0.000000 0.000000
# 2 -0.007609 0.015714 -0.004231 0.000000 0.000000 0.000000
# 3 -0.006665 -0.004231 0.041326 0.000000 0.000000 0.000000
# 4 0.000000 0.000000 0.000000 0.017401 0.000000 0.000000
# 5 0.000000 0.000000 0.000000 0.000000 0.131000 0.000000
# 6 0.000000 0.000000 0.000000 0.000000 0.000000 0.027032
#
#
# Mechanical properties :
#
#
# Convention : Reuss Voigt Hill
#
# Bulk Modulus (GPa) = 29.54595 53.25534 41.40064
# Shear Modulus (GPa) = 16.97316 29.74922 23.36119
#
# Velocity S-wave (km/s) = 3.02473 4.00445 3.54856
# Velocity P-wave (km/s) = 5.30327 7.07721 6.25346
#
# Compressibility (1/GPa) = 0.03384559
#
# Stress axis : x y z
#
# Youngs Moduli (GPa) = 72.37369 63.63846 24.19804
#
# Poissons Ratio (x) = 0.48425 0.16129
# Poissons Ratio (y) = 0.55072 0.10238
# Poissons Ratio (z) = 0.48239 0.26925
#
# Static dielectric constant tensor:
#      x y z
#    x 1.644410 0.000000 0.000000 
#    y 0.000000 1.655370 0.000000 
#    z 0.000000 0.000000 1.650580 
# 
# From -- ./inp_files/21082.got.cif
#   From: 2010.05.17/outbox.cif.g08.bks.cpg/sg49_11_cif.got.tgz:21082.got - 2010.06.03 21:02:19.
