data_PCOD9393840
_publ_section_title
;
Structure prediction by ZEFSAII (Michael W. Deem and Ramdas Pophale) SiO2 
 PCOD9393840
Probable space group: P C C M
;
_chemical_formula_sum "Si O2"
_cell_formula_units_Z 58
_cell_length_a 19.672494
_cell_length_b 19.672501
_cell_length_c 8.686385
_cell_angle_alpha 90.000000
_cell_angle_beta 90.000000
_cell_angle_gamma 90.000000
_cell_volume 3361.693171
_symmetry_space_group_name_H-M "P C C M"
_symmetry_group_IT_number 49
_symmetry_cell_setting 'orthorhombic'
loop_
_space_group_symop_operation_xyz
x,y,z
-x,-y,z
x,-y,1/2-z
-x,y,1/2-z
-x,-y,-z
x,y,-z
-x,y,1/2+z
x,-y,1/2+z
loop_
_atom_site_type_symbol
_atom_site_label
_atom_site_fract_x
_atom_site_fract_y
_atom_site_fract_z
Si Si1 0.790823 0.821289 0.816027
Si Si2 0.263167 0.573647 0.182788
Si Si3 0.073647 0.236833 0.317212
Si Si4 0.321289 0.709177 0.683973
Si Si5 0.313258 0.075245 0.315675
Si Si6 0.575245 0.186742 0.184325
Si Si7 0.000000 0.500000 0.250000
Si Si8 0.104302 0.395698 0.684512
O O1 0.865900 0.806693 0.755915
O O2 0.743040 0.756960 0.771314
O O3 0.753948 0.886816 0.745583
O O4 0.790662 0.826334 0.000000
O O5 0.279661 0.500000 0.250000
O O6 0.306693 0.634100 0.255915
O O7 0.183212 0.588902 0.212823
O O8 0.272393 0.573888 0.000000
O O9 0.073888 0.227607 0.500000
O O10 0.088902 0.316788 0.287177
O O11 0.000000 0.220339 0.250000
O O12 0.326334 0.709338 0.500000
O O13 0.386816 0.746052 0.754417
O O14 0.311374 0.073067 0.500000
O O15 0.376694 0.123306 0.268407
O O16 0.319637 0.000000 0.250000
O O17 0.500000 0.180363 0.250000
O O18 0.573067 0.188626 0.000000
O O19 0.942845 0.557155 0.207712
O O20 0.089516 0.410484 0.500000
#
# Coordination Sequence:
#
# PCOD9393840 Si02
#       8
#     8   8   8   8   8   8   2   8
#     4  10  20  35  56  81 108 144 188 235 281 333
#     4  11  21  35  51  74 103 139 185 236 289 338
#     4  11  21  35  51  74 103 139 185 236 289 338
#     4  10  20  35  56  81 108 144 188 235 281 333
#     4  10  21  37  59  88 121 156 188 224 267 319
#     4  10  21  37  59  88 121 156 188 224 267 319
#     4  12  18  36  44  66 100 148 186 224 290 352
#     4  10  21  31  45  66  97 137 179 227 280 339
#
# _framework density 17.253211
#
# number of rings (size 3 to 8) (size 9 to 14) (size 15 to 20)
#    0.000    1.655    2.759    2.690    0.000    3.034 
#    0.000    1.379    0.000    0.828    0.000    5.793 
#    0.000    0.000    0.000    0.000    0.000    0.000 
#
# Total GULP energy -323588.760015 kJ/mol
# GULP energy per Si atom -5579.116552 kJ/mol
# Density = 1.721394 g / cm^3
# Si number density = 17.253211 Si / 1000 Ang^3
#
#
#
# Elastic Constant Matrix: (Units=GPa)
#
#
# Indices 1 2 3 4 5 6 
#
# 1 129.3032 80.7033 44.7861 0.0000 0.0000 0.0000
# 2 80.7033 129.3032 44.7861 0.0000 0.0000 0.0000
# 3 44.7861 44.7861 49.2308 0.0000 0.0000 0.0000
# 4 0.0000 0.0000 0.0000 24.2577 0.0000 0.0000
# 5 0.0000 0.0000 0.0000 0.0000 24.2577 0.0000
# 6 0.0000 0.0000 0.0000 0.0000 0.0000 17.1408
#
#
#
# Elastic Compliance Matrix: (Units=1/GPa)
#
#
# Indices 1 2 3 4 5 6 
#
# 1 0.014179 -0.006398 -0.007078 0.000000 0.000000 0.000000
# 2 -0.006398 0.014179 -0.007078 0.000000 0.000000 0.000000
# 3 -0.007078 -0.007078 0.033191 0.000000 0.000000 0.000000
# 4 0.000000 0.000000 0.000000 0.041224 0.000000 0.000000
# 5 0.000000 0.000000 0.000000 0.000000 0.041224 0.000000
# 6 0.000000 0.000000 0.000000 0.000000 0.000000 0.058340
#
#
# Mechanical properties :
#
#
# Convention : Reuss Voigt Hill
#
# Bulk Modulus (GPa) = 48.92524 72.04313 60.48419
# Shear Modulus (GPa) = 19.97934 22.30201 21.14067
#
# Velocity S-wave (km/s) = 3.40664 3.59922 3.50425
# Velocity P-wave (km/s) = 6.62513 7.68892 7.17676
#
# Compressibility (1/GPa) = 0.02043935
#
# Stress axis : x y z
#
# Youngs Moduli (GPa) = 70.52928 70.52928 30.12853
#
# Poissons Ratio (x) = 0.45122 0.21326
# Poissons Ratio (y) = 0.45122 0.21326
# Poissons Ratio (z) = 0.49923 0.49923
#
# Static dielectric constant tensor:
#      x y z
#    x 1.562840 0.000000 0.000000 
#    y 0.000000 1.562840 0.000000 
#    z 0.000000 0.000000 1.598210 
# 
# From -- ./inp_files/5082.got.cif
#   From: 2010.05.17/outbox.cif.g08.bks.cpg/sg49_3_cif.got.tgz:5082.got - 2010.06.03 21:02:19.
