data_PCOD9393113
_publ_section_title
;
Structure prediction by ZEFSAII (Michael W. Deem and Ramdas Pophale) SiO2 
 PCOD9393113
Probable space group: P C C M
;
_chemical_formula_sum "Si O2"
_cell_formula_units_Z 56
_cell_length_a 31.024547
_cell_length_b 5.325600
_cell_length_c 17.558687
_cell_angle_alpha 90.000000
_cell_angle_beta 90.000000
_cell_angle_gamma 90.000000
_cell_volume 2901.122251
_symmetry_space_group_name_H-M "P C C M"
_symmetry_group_IT_number 49
_symmetry_cell_setting 'orthorhombic'
loop_
_space_group_symop_operation_xyz
x,y,z
-x,-y,z
x,-y,1/2-z
-x,y,1/2-z
-x,-y,-z
x,y,-z
-x,y,1/2+z
x,-y,1/2+z
loop_
_atom_site_type_symbol
_atom_site_label
_atom_site_fract_x
_atom_site_fract_y
_atom_site_fract_z
Si Si1 0.603331 0.313769 0.090282
Si Si2 0.111211 0.749781 0.802049
Si Si3 0.028634 0.749876 0.088825
Si Si4 0.345485 0.182422 0.907419
Si Si5 0.751912 0.257067 0.592225
Si Si6 0.804839 0.245401 0.092324
Si Si7 0.451290 0.250712 0.281772
O O1 0.624315 0.580679 0.110909
O O2 0.556997 0.267549 0.129095
O O3 0.634317 0.084640 0.115138
O O4 0.599268 0.305310 0.000000
O O5 0.112139 0.500000 0.750000
O O6 0.068015 0.751979 0.852856
O O7 0.151237 0.745686 0.860492
O O8 0.113026 0.000000 0.750000
O O9 0.000000 0.500000 0.100304
O O10 0.043349 0.748081 0.000000
O O11 0.000000 0.000000 0.099404
O O12 0.296965 0.228258 0.879091
O O13 0.343336 0.175039 0.000000
O O14 0.749379 0.264166 0.500000
O O15 0.775515 0.514645 0.614035
O O16 0.779833 0.011966 0.611211
O O17 0.811925 0.252259 0.000000
O O18 0.430167 0.500000 0.250000
O O19 0.500000 0.250499 0.250000
O O20 0.430876 0.000000 0.250000
#
# Coordination Sequence:
#
# PCOD9393113 Si02
#       7
#     8   8   8   8   8   8   8
#     4  10  19  33  56  83 110 140 180 229 276 326
#     4  12  25  39  58  84 117 155 189 230 286 339
#     4  10  22  41  64  88 114 145 187 240 289 339
#     4   9  17  30  53  86 114 136 175 234 285 322
#     4   9  17  31  55  84 110 141 184 232 278 323
#     4  10  20  36  58  81 109 149 194 231 267 328
#     4  10  21  38  56  76 106 145 179 217 268 323
#
# _framework density 19.302876000000001
#
# number of rings (size 3 to 8) (size 9 to 14) (size 15 to 20)
#    0.000    2.000    0.000    3.857    0.000    5.143 
#    0.000    8.571    0.000   17.143    0.000    0.000 
#    0.000    0.000    0.000    0.000    0.000    0.000 
#
# Total GULP energy -312301.182049 kJ/mol
# GULP energy per Si atom -5576.806822 kJ/mol
# Density = 1.925894 g / cm^3
# Si number density = 19.302876 Si / 1000 Ang^3
#
#
#
# Elastic Constant Matrix: (Units=GPa)
#
#
# Indices 1 2 3 4 5 6 
#
# 1 43.4021 -20.2646 23.8511 0.0000 0.0000 0.0000
# 2 -20.2646 116.3748 5.9765 0.0000 0.0000 0.0000
# 3 23.8511 5.9765 41.0893 0.0000 0.0000 0.0000
# 4 0.0000 0.0000 0.0000 14.0788 0.0000 0.0000
# 5 0.0000 0.0000 0.0000 0.0000 23.6025 0.0000
# 6 0.0000 0.0000 0.0000 0.0000 0.0000 46.4504
#
#
#
# Elastic Compliance Matrix: (Units=1/GPa)
#
#
# Indices 1 2 3 4 5 6 
#
# 1 0.040518 0.008325 -0.024730 0.000000 0.000000 0.000000
# 2 0.008325 0.010368 -0.006341 0.000000 0.000000 0.000000
# 3 -0.024730 -0.006341 0.039615 0.000000 0.000000 0.000000
# 4 0.000000 0.000000 0.000000 0.071029 0.000000 0.000000
# 5 0.000000 0.000000 0.000000 0.000000 0.042368 0.000000
# 6 0.000000 0.000000 0.000000 0.000000 0.000000 0.021528
#
#
# Mechanical properties :
#
#
# Convention : Reuss Voigt Hill
#
# Bulk Modulus (GPa) = 22.21749 24.44359 23.33054
# Shear Modulus (GPa) = 17.48735 29.57989 23.53362
#
# Velocity S-wave (km/s) = 3.01316 3.91885 3.49546
# Velocity P-wave (km/s) = 4.86214 5.75909 5.32952
#
# Compressibility (1/GPa) = 0.04500958
#
# Stress axis : x y z
#
# Youngs Moduli (GPa) = 24.68049 96.44791 25.24314
#
# Poissons Ratio (x) = -0.80298 0.62427
# Poissons Ratio (y) = -0.20548 0.16006
# Poissons Ratio (z) = 0.61036 0.61155
#
# Static dielectric constant tensor:
#      x y z
#    x 1.654680 0.000000 0.000000 
#    y 0.000000 1.684250 0.000000 
#    z 0.000000 0.000000 1.681330 
# 
# From -- ./inp_files/10759.got.cif
#   From: 2010.05.17/outbox.cif.g08.bks.cpg/sg49_6_cif.got.tgz:10759.got - 2010.06.03 21:02:19.
