data_PCOD9393643
_publ_section_title
;
Structure prediction by ZEFSAII (Michael W. Deem and Ramdas Pophale) SiO2 
 PCOD9393643
Probable space group: P C C M
;
_chemical_formula_sum "Si O2"
_cell_formula_units_Z 64
_cell_length_a 16.521126
_cell_length_b 10.872108
_cell_length_c 14.430159
_cell_angle_alpha 90.000000
_cell_angle_beta 90.000000
_cell_angle_gamma 90.000000
_cell_volume 2591.937456
_symmetry_space_group_name_H-M "P C C M"
_symmetry_group_IT_number 49
_symmetry_cell_setting 'orthorhombic'
loop_
_space_group_symop_operation_xyz
x,y,z
-x,-y,z
x,-y,1/2-z
-x,y,1/2-z
-x,-y,-z
x,y,-z
-x,y,1/2+z
x,-y,1/2+z
loop_
_atom_site_type_symbol
_atom_site_label
_atom_site_fract_x
_atom_site_fract_y
_atom_site_fract_z
Si Si1 0.547016 0.875892 0.112632
Si Si2 0.717183 0.285535 0.105359
Si Si3 0.825870 0.941632 0.610964
Si Si4 0.120807 0.400322 0.633657
Si Si5 0.868828 0.665548 0.148128
Si Si6 0.988278 0.177717 0.139964
Si Si7 0.453876 0.375519 0.612918
Si Si8 0.271234 0.173760 0.112126
O O1 0.501759 0.749323 0.135366
O O2 0.638913 0.857422 0.146260
O O3 0.500000 0.000000 0.142922
O O4 0.549843 0.883693 0.000000
O O5 0.767673 0.169662 0.146380
O O6 0.787243 0.385848 0.102333
O O7 0.637104 0.345792 0.147713
O O8 0.694156 0.247298 0.000000
O O9 0.817841 0.938531 0.500000
O O10 0.922657 0.931009 0.626230
O O11 0.213055 0.934491 0.647131
O O12 0.119586 0.367902 0.743469
O O13 0.098665 0.537922 0.607427
O O14 0.064880 0.290674 0.599642
O O15 0.922002 0.779665 0.110200
O O16 0.775016 0.700260 0.135833
O O17 0.000000 0.178766 0.250000
O O18 0.500000 0.500000 0.643714
O O19 0.449733 0.386355 0.500000
O O20 0.274832 0.170302 0.000000
#
# Coordination Sequence:
#
# PCOD9393643 Si02
#       8
#     8   8   8   8   8   8   8   8
#     4   9  17  31  51  75 107 146 182 217 265 326
#     4   9  17  31  53  77 104 139 179 222 273 330
#     4   9  18  34  53  78 112 146 178 221 279 332
#     4   9  19  35  54  75 103 141 180 224 275 328
#     4  10  20  34  52  76 105 140 179 228 276 324
#     4   9  18  35  56  76 101 139 189 228 263 323
#     4   9  17  27  45  77 110 136 174 230 275 312
#     4  10  21  34  53  81 112 143 180 225 273 330
#
# _framework density 24.691953000000002
#
# number of rings (size 3 to 8) (size 9 to 14) (size 15 to 20)
#    0.000    2.750    0.000    1.125    1.750    6.000 
#    0.000    8.750    0.000    4.500    0.000    0.875 
#    0.000    0.000    0.000    0.000    0.000    0.000 
#
# Total GULP energy -356812.925271 kJ/mol
# GULP energy per Si atom -5575.201957 kJ/mol
# Density = 2.463575 g / cm^3
# Si number density = 24.691953 Si / 1000 Ang^3
#
#
#
# Elastic Constant Matrix: (Units=GPa)
#
#
# Indices 1 2 3 4 5 6 
#
# 1 181.2118 41.8304 -2.8100 0.0000 0.0000 0.0000
# 2 41.8304 91.0142 1.8171 0.0000 0.0000 0.0000
# 3 -2.8100 1.8171 79.8465 0.0000 0.0000 0.0000
# 4 0.0000 0.0000 0.0000 5.3303 0.0000 0.0000
# 5 0.0000 0.0000 0.0000 0.0000 23.5625 0.0000
# 6 0.0000 0.0000 0.0000 0.0000 0.0000 34.8504
#
#
#
# Elastic Compliance Matrix: (Units=1/GPa)
#
#
# Indices 1 2 3 4 5 6 
#
# 1 0.006180 -0.002846 0.000282 0.000000 0.000000 0.000000
# 2 -0.002846 0.012303 -0.000380 0.000000 0.000000 0.000000
# 3 0.000282 -0.000380 0.012543 0.000000 0.000000 0.000000
# 4 0.000000 0.000000 0.000000 0.187607 0.000000 0.000000
# 5 0.000000 0.000000 0.000000 0.000000 0.042440 0.000000
# 6 0.000000 0.000000 0.000000 0.000000 0.000000 0.028694
#
#
# Mechanical properties :
#
#
# Convention : Reuss Voigt Hill
#
# Bulk Modulus (GPa) = 39.78089 48.19416 43.98752
# Shear Modulus (GPa) = 16.44558 33.49762 24.97160
#
# Velocity S-wave (km/s) = 2.58356 3.68723 3.18358
# Velocity P-wave (km/s) = 5.00455 6.13906 5.60061
#
# Compressibility (1/GPa) = 0.02513770
#
# Stress axis : x y z
#
# Youngs Moduli (GPa) = 161.81999 81.28200 79.72816
#
# Poissons Ratio (x) = 0.23132 -0.02250
# Poissons Ratio (y) = 0.46051 0.03031
# Poissons Ratio (z) = -0.04567 0.03090
#
# Static dielectric constant tensor:
#      x y z
#    x 1.951440 0.000000 0.000000 
#    y 0.000000 2.002710 0.000000 
#    z 0.000000 0.000000 2.013090 
# 
# From -- ./inp_files/23031.got.cif
#   From: 2010.05.17/outbox.cif.g08.bks.cpg/sg49_12_cif.got.tgz:23031.got - 2010.06.03 21:02:19.
