data_PCOD9393759
_publ_section_title
;
Structure prediction by ZEFSAII (Michael W. Deem and Ramdas Pophale) SiO2 
 PCOD9393759
Probable space group: P C C M
;
_chemical_formula_sum "Si O2"
_cell_formula_units_Z 40
_cell_length_a 11.816752
_cell_length_b 8.889631
_cell_length_c 17.977999
_cell_angle_alpha 90.000000
_cell_angle_beta 90.000000
_cell_angle_gamma 90.000000
_cell_volume 1888.527039
_symmetry_space_group_name_H-M "P C C M"
_symmetry_group_IT_number 49
_symmetry_cell_setting 'orthorhombic'
loop_
_space_group_symop_operation_xyz
x,y,z
-x,-y,z
x,-y,1/2-z
-x,y,1/2-z
-x,-y,-z
x,y,-z
-x,y,1/2+z
x,-y,1/2+z
loop_
_atom_site_type_symbol
_atom_site_label
_atom_site_fract_x
_atom_site_fract_y
_atom_site_fract_z
Si Si1 0.396924 0.879494 0.911978
Si Si2 0.752781 0.902182 0.819701
Si Si3 0.048164 0.832846 0.582112
Si Si4 0.927554 0.348214 0.815411
Si Si5 0.660996 0.338506 0.218074
O O1 0.397705 0.735907 0.855137
O O2 0.500000 0.000000 0.904973
O O3 0.294486 0.979768 0.879433
O O4 0.386538 0.840895 0.000000
O O5 0.847990 0.810676 0.862365
O O6 0.661250 0.790203 0.782435
O O7 0.797493 0.000000 0.750000
O O8 0.087307 0.798398 0.500000
O O9 0.943417 0.733825 0.607357
O O10 0.000000 0.000000 0.586564
O O11 0.795840 0.360171 0.798228
O O12 0.000000 0.500000 0.823245
O O13 0.000000 0.266449 0.750000
O O14 0.622264 0.500000 0.250000
#
# Coordination Sequence:
#
# PCOD9393759 Si02
#       5
#     8   8   8   8   8
#     4  10  23  44  66  89 126 170 214 274 341 390
#     4  10  20  34  59  85 117 166 213 266 319 376
#     4  11  22  32  49  83 119 159 212 262 305 367
#     4  11  20  36  58  83 127 173 204 247 316 385
#     4  11  21  38  66  96 124 165 218 265 320 391
#
# _framework density 21.180529
#
# number of rings (size 3 to 8) (size 9 to 14) (size 15 to 20)
#    0.000    1.400    4.000    3.000    0.000    6.400 
#    0.000    6.000    0.000    2.400    0.000    0.000 
#    0.000    0.000    0.000    0.000    0.000    0.000 
#
# Total GULP energy -222960.787002 kJ/mol
# GULP energy per Si atom -5574.019675 kJ/mol
# Density = 2.113232 g / cm^3
# Si number density = 21.180529 Si / 1000 Ang^3
#
#
#
# Elastic Constant Matrix: (Units=GPa)
#
#
# Indices 1 2 3 4 5 6 
#
# 1 80.6661 8.5764 42.7391 0.0000 0.0000 0.0000
# 2 8.5764 104.5023 62.7269 0.0000 0.0000 0.0000
# 3 42.7391 62.7269 164.6772 0.0000 0.0000 0.0000
# 4 0.0000 0.0000 0.0000 -114.7703 0.0000 0.0000
# 5 0.0000 0.0000 0.0000 0.0000 28.7424 0.0000
# 6 0.0000 0.0000 0.0000 0.0000 0.0000 6.1000
#
#
#
# Elastic Compliance Matrix: (Units=1/GPa)
#
#
# Indices 1 2 3 4 5 6 
#
# 1 0.014527 0.001388 -0.004299 0.000000 0.000000 0.000000
# 2 0.001388 0.012538 -0.005136 0.000000 0.000000 0.000000
# 3 -0.004299 -0.005136 0.009145 0.000000 0.000000 0.000000
# 4 0.000000 0.000000 0.000000 -0.008713 0.000000 0.000000
# 5 0.000000 0.000000 0.000000 0.000000 0.034792 0.000000
# 6 0.000000 0.000000 0.000000 0.000000 0.000000 0.163935
#
#
# Mechanical properties :
#
#
# Convention : Reuss Voigt Hill
#
# Bulk Modulus (GPa) = 49.71208 64.21448 56.96328
# Shear Modulus (GPa) = 20.07846 -0.26536 9.90655
#
# Velocity S-wave (km/s) = 3.08225 -0.35434 2.16503
# Velocity P-wave (km/s) = 6.01570 5.49692 5.76215
#
# Compressibility (1/GPa) = 0.02011584
#
# Stress axis : x y z
#
# Youngs Moduli (GPa) = 68.83780 79.75625 109.35375
#
# Poissons Ratio (x) = -0.11072 0.47011
# Poissons Ratio (y) = -0.09556 0.56166
# Poissons Ratio (z) = 0.29593 0.40964
#
# Static dielectric constant tensor:
#      x y z
#    x 1.905530 0.000000 0.000000 
#    y 0.000000 1.866340 0.000000 
#    z 0.000000 0.000000 1.801640 
# 
# From -- ./inp_files/15982.got.cif
#   From: 2010.05.17/outbox.cif.g08.bks.cpg/sg49_8_cif.got.tgz:15982.got - 2010.06.03 21:02:19.
