data_PCOD9393445
_publ_section_title
;
Structure prediction by ZEFSAII (Michael W. Deem and Ramdas Pophale) SiO2 
 PCOD9393445
Probable space group: P C C M
;
_chemical_formula_sum "Si O2"
_cell_formula_units_Z 56
_cell_length_a 23.606889
_cell_length_b 14.893718
_cell_length_c 8.607510
_cell_angle_alpha 90.000000
_cell_angle_beta 90.000000
_cell_angle_gamma 90.000000
_cell_volume 3026.351863
_symmetry_space_group_name_H-M "P C C M"
_symmetry_group_IT_number 49
_symmetry_cell_setting 'orthorhombic'
loop_
_space_group_symop_operation_xyz
x,y,z
-x,-y,z
x,-y,1/2-z
-x,y,1/2-z
-x,-y,-z
x,y,-z
-x,y,1/2+z
x,-y,1/2+z
loop_
_atom_site_type_symbol
_atom_site_label
_atom_site_fract_x
_atom_site_fract_y
_atom_site_fract_z
Si Si1 0.164041 0.711176 0.685768
Si Si2 0.938630 0.400655 0.815865
Si Si3 0.603174 0.409016 0.813026
Si Si4 0.205852 0.092435 0.183692
Si Si5 0.288162 0.667391 0.684440
Si Si6 0.678015 0.145152 0.181388
Si Si7 0.560727 0.210190 0.186931
O O1 0.154599 0.713434 0.500000
O O2 0.110544 0.667096 0.766258
O O3 0.178171 0.813453 0.738413
O O4 0.221521 0.653187 0.711639
O O5 0.926036 0.500000 0.750000
O O6 0.000000 0.373434 0.750000
O O7 0.942338 0.406637 0.000000
O O8 0.574960 0.500000 0.750000
O O9 0.665030 0.404157 0.731844
O O10 0.573246 0.314542 0.768087
O O11 0.607666 0.411651 0.000000
O O12 0.272483 0.096049 0.226805
O O13 0.181526 0.000000 0.250000
O O14 0.200710 0.091255 0.000000
O O15 0.293981 0.690015 0.500000
O O16 0.304856 0.751024 0.793159
O O17 0.613023 0.146535 0.238141
O O18 0.680565 0.120673 0.000000
O O19 0.500000 0.183007 0.250000
O O20 0.561020 0.208226 0.000000
#
# Coordination Sequence:
#
# PCOD9393445 Si02
#       7
#     8   8   8   8   8   8   8
#     4   9  19  35  54  80 112 143 180 221 265 317
#     4  11  22  37  58  81 110 148 189 231 272 312
#     4  10  20  32  44  62  89 122 161 207 260 317
#     4  10  20  34  56  85 115 146 177 216 265 320
#     4   9  17  30  48  69  94 126 162 204 254 308
#     4   9  17  31  49  71  99 128 162 203 249 305
#     4   9  19  32  47  66  88 120 162 208 257 312
#
# _framework density 18.504128000000001
#
# number of rings (size 3 to 8) (size 9 to 14) (size 15 to 20)
#    0.000    2.429    0.000    5.143    0.000    7.714 
#    0.000    1.429    0.000    0.857    0.000    6.000 
#    0.000    0.000    0.000    0.000    0.000    0.000 
#
# Total GULP energy -312065.287604 kJ/mol
# GULP energy per Si atom -5572.594421 kJ/mol
# Density = 1.846201 g / cm^3
# Si number density = 18.504128 Si / 1000 Ang^3
#
#
#
# Elastic Constant Matrix: (Units=GPa)
#
#
# Indices 1 2 3 4 5 6 
#
# 1 123.2820 38.3131 38.2119 0.0000 0.0000 0.0000
# 2 38.3131 47.2691 11.4718 0.0000 0.0000 0.0000
# 3 38.2119 11.4718 54.8190 0.0000 0.0000 0.0000
# 4 0.0000 0.0000 0.0000 25.1061 0.0000 0.0000
# 5 0.0000 0.0000 0.0000 0.0000 25.1550 0.0000
# 6 0.0000 0.0000 0.0000 0.0000 0.0000 11.2305
#
#
#
# Elastic Compliance Matrix: (Units=1/GPa)
#
#
# Indices 1 2 3 4 5 6 
#
# 1 0.013130 -0.008872 -0.007296 0.000000 0.000000 0.000000
# 2 -0.008872 0.028282 0.000266 0.000000 0.000000 0.000000
# 3 -0.007296 0.000266 0.023272 0.000000 0.000000 0.000000
# 4 0.000000 0.000000 0.000000 0.039831 0.000000 0.000000
# 5 0.000000 0.000000 0.000000 0.000000 0.039753 0.000000
# 6 0.000000 0.000000 0.000000 0.000000 0.000000 0.089043
#
#
# Mechanical properties :
#
#
# Convention : Reuss Voigt Hill
#
# Bulk Modulus (GPa) = 30.41370 44.59595 37.50483
# Shear Modulus (GPa) = 18.11105 21.45656 19.78380
#
# Velocity S-wave (km/s) = 3.13190 3.40892 3.27334
# Velocity P-wave (km/s) = 5.43602 6.29660 5.88207
#
# Compressibility (1/GPa) = 0.03287992
#
# Stress axis : x y z
#
# Youngs Moduli (GPa) = 76.16195 35.35853 42.97046
#
# Poissons Ratio (x) = 0.31369 0.31350
# Poissons Ratio (y) = 0.67568 -0.01141
# Poissons Ratio (z) = 0.55566 -0.00939
#
# Static dielectric constant tensor:
#      x y z
#    x 1.649490 0.000000 0.000000 
#    y 0.000000 1.689200 0.000000 
#    z 0.000000 0.000000 1.624990 
# 
# From -- ./inp_files/5796.got.cif
#   From: 2010.05.17/outbox.cif.g08.bks.cpg/sg49_3_cif.got.tgz:5796.got - 2010.06.03 21:02:19.
