data_PCOD9393245
_publ_section_title
;
Structure prediction by ZEFSAII (Michael W. Deem and Ramdas Pophale) SiO2 
 PCOD9393245
Probable space group: P C C M
;
_chemical_formula_sum "Si O2"
_cell_formula_units_Z 56
_cell_length_a 12.729133
_cell_length_b 12.407066
_cell_length_c 15.353989
_cell_angle_alpha 90.000000
_cell_angle_beta 90.000000
_cell_angle_gamma 90.000000
_cell_volume 2424.873804
_symmetry_space_group_name_H-M "P C C M"
_symmetry_group_IT_number 49
_symmetry_cell_setting 'orthorhombic'
loop_
_space_group_symop_operation_xyz
x,y,z
-x,-y,z
x,-y,1/2-z
-x,y,1/2-z
-x,-y,-z
x,y,-z
-x,y,1/2+z
x,-y,1/2+z
loop_
_atom_site_type_symbol
_atom_site_label
_atom_site_fract_x
_atom_site_fract_y
_atom_site_fract_z
Si Si1 0.741823 0.122834 0.396026
Si Si2 0.182326 0.465277 0.851056
Si Si3 0.393923 0.698487 0.837839
Si Si4 0.060774 0.751992 0.607022
Si Si5 0.615111 0.655731 0.137382
Si Si6 0.843103 0.692307 0.402784
Si Si7 0.395158 0.930124 0.898585
O O1 0.746177 0.109162 0.500000
O O2 0.857785 0.155574 0.365331
O O3 0.665859 0.226853 0.382503
O O4 0.694191 0.010704 0.363878
O O5 0.189300 0.500000 0.750000
O O6 0.113675 0.358507 0.860860
O O7 0.298223 0.433154 0.887758
O O8 0.130638 0.565470 0.899813
O O9 0.493179 0.649380 0.890555
O O10 0.392063 0.650823 0.741698
O O11 0.274251 0.692697 0.867769
O O12 0.413869 0.826391 0.840049
O O13 0.059992 0.748912 0.500000
O O14 0.940798 0.754648 0.639445
O O15 0.836098 0.734410 0.500000
O O16 0.500000 0.000000 0.900948
O O17 0.374327 0.896327 0.000000
#
# Coordination Sequence:
#
# PCOD9393245 Si02
#       7
#     8   8   8   8   8   8   8
#     4   9  18  36  59  86 116 148 190 244 293 342
#     4  11  21  39  59  84 113 155 204 248 294 352
#     4  11  22  38  55  83 122 157 190 243 300 354
#     4   9  20  38  61  86 118 154 196 247 294 347
#     4  10  22  38  56  83 116 155 195 242 301 356
#     4  11  23  39  58  87 120 156 199 244 294 353
#     4  10  19  34  60  89 115 149 198 244 288 355
#
# _framework density 23.093985
#
# number of rings (size 3 to 8) (size 9 to 14) (size 15 to 20)
#    0.000    1.857    2.857    1.286    0.000    4.571 
#    0.000    1.429    0.000    3.429    0.000    2.000 
#    0.000    0.000    0.000    0.000    0.000    0.000 
#
# Total GULP energy -312590.255493 kJ/mol
# GULP energy per Si atom -5581.968848 kJ/mol
# Density = 2.304142 g / cm^3
# Si number density = 23.093985 Si / 1000 Ang^3
#
#
#
# Elastic Constant Matrix: (Units=GPa)
#
#
# Indices 1 2 3 4 5 6 
#
# 1 188.3824 11.8748 16.5735 0.0000 0.0000 0.0000
# 2 11.8748 27.3705 -3.3174 0.0000 0.0000 0.0000
# 3 16.5735 -3.3174 32.7229 0.0000 0.0000 0.0000
# 4 0.0000 0.0000 0.0000 17.8308 0.0000 0.0000
# 5 0.0000 0.0000 0.0000 0.0000 12.6504 0.0000
# 6 0.0000 0.0000 0.0000 0.0000 0.0000 31.5294
#
#
#
# Elastic Compliance Matrix: (Units=1/GPa)
#
#
# Indices 1 2 3 4 5 6 
#
# 1 0.005774 -0.002895 -0.003218 0.000000 0.000000 0.000000
# 2 -0.002895 0.038442 0.005364 0.000000 0.000000 0.000000
# 3 -0.003218 0.005364 0.032733 0.000000 0.000000 0.000000
# 4 0.000000 0.000000 0.000000 0.056083 0.000000 0.000000
# 5 0.000000 0.000000 0.000000 0.000000 0.079049 0.000000
# 6 0.000000 0.000000 0.000000 0.000000 0.000000 0.031716
#
#
# Mechanical properties :
#
#
# Convention : Reuss Voigt Hill
#
# Bulk Modulus (GPa) = 13.25381 33.19305 23.22343
# Shear Modulus (GPa) = 18.48798 27.29177 22.88987
#
# Velocity S-wave (km/s) = 2.83248 3.44142 3.15169
# Velocity P-wave (km/s) = 4.05571 5.49503 4.82929
#
# Compressibility (1/GPa) = 0.07545003
#
# Stress axis : x y z
#
# Youngs Moduli (GPa) = 173.19175 26.01335 30.55003
#
# Poissons Ratio (x) = 0.07531 0.09831
# Poissons Ratio (y) = 0.50140 -0.16386
# Poissons Ratio (z) = 0.55731 -0.13952
#
# Static dielectric constant tensor:
#      x y z
#    x 1.971930 0.000000 0.000000 
#    y 0.000000 1.868990 0.000000 
#    z 0.000000 0.000000 1.901080 
# 
# From -- ./inp_files/20485.got.cif
#   From: 2010.05.17/outbox.cif.g08.bks.cpg/sg49_11_cif.got.tgz:20485.got - 2010.06.03 21:02:19.
