data_PCOD9393134
_publ_section_title
;
Structure prediction by ZEFSAII (Michael W. Deem and Ramdas Pophale) SiO2 
 PCOD9393134
Probable space group: P C C M
;
_chemical_formula_sum "Si O2"
_cell_formula_units_Z 44
_cell_length_a 17.144605
_cell_length_b 5.199345
_cell_length_c 30.818846
_cell_angle_alpha 90.000000
_cell_angle_beta 90.000000
_cell_angle_gamma 90.000000
_cell_volume 2747.214007
_symmetry_space_group_name_H-M "P C C M"
_symmetry_group_IT_number 49
_symmetry_cell_setting 'orthorhombic'
loop_
_space_group_symop_operation_xyz
x,y,z
-x,-y,z
x,-y,1/2-z
-x,y,1/2-z
-x,-y,-z
x,y,-z
-x,y,1/2+z
x,-y,1/2+z
loop_
_atom_site_type_symbol
_atom_site_label
_atom_site_fract_x
_atom_site_fract_y
_atom_site_fract_z
Si Si1 0.088355 0.253108 0.769680
Si Si2 0.147975 0.137521 0.586402
Si Si3 0.054388 0.250366 0.500000
Si Si4 0.411754 0.523972 0.947764
Si Si5 0.084527 0.622416 0.629081
Si Si6 0.685524 0.031627 0.447815
O O1 0.129171 0.500000 0.750000
O O2 0.084538 0.284449 0.821017
O O3 0.000000 0.251923 0.750000
O O4 0.125798 0.000000 0.750000
O O5 0.108338 0.239904 0.542370
O O6 0.141409 0.380840 0.619057
O O7 0.102892 0.880426 0.602222
O O8 0.235072 0.045195 0.575930
O O9 0.000000 0.500000 0.500000
O O10 0.000000 0.000000 0.500000
O O11 0.500000 0.500000 0.930948
O O12 0.352741 0.299990 0.933144
O O13 0.376271 0.804001 0.940235
O O14 0.415966 0.489530 0.000000
O O15 0.000000 0.500000 0.619263
O O16 0.701101 0.044911 0.500000
#
# Coordination Sequence:
#
# PCOD9393134 Si02
#       6
#     8   8   4   8   8   8
#     4  10  19  34  54  73  93 113 150 211 270 322
#     4  12  24  36  51  70  98 138 176 213 272 290
#     4  12  24  40  48  62  89 134 187 228 250 282
#     4   9  17  29  51  75  92 118 165 217 255 294
#     4  12  23  36  53  75  96 123 175 231 253 302
#     4  10  19  34  49  66 100 134 167 208 257 312
#
# _framework density 16.016227000000001
#
# number of rings (size 3 to 8) (size 9 to 14) (size 15 to 20)
#    0.000    1.273    2.727    6.000    2.545    2.182 
#    0.000    0.000    0.000    0.000    0.000    0.000 
#    0.000    0.000    0.000    0.000    0.000  190.909 
#
# Total GULP energy -245472.252537 kJ/mol
# GULP energy per Si atom -5578.914830 kJ/mol
# Density = 1.597977 g / cm^3
# Si number density = 16.016227 Si / 1000 Ang^3
#
#
#
# Elastic Constant Matrix: (Units=GPa)
#
#
# Indices 1 2 3 4 5 6 
#
# 1 38.2840 -1.3740 17.2371 0.0000 0.0000 0.0000
# 2 -1.3740 108.5528 23.7202 0.0000 0.0000 0.0000
# 3 17.2371 23.7202 65.5306 0.0000 0.0000 0.0000
# 4 0.0000 0.0000 0.0000 29.2009 0.0000 0.0000
# 5 0.0000 0.0000 0.0000 0.0000 5.0422 0.0000
# 6 0.0000 0.0000 0.0000 0.0000 0.0000 11.3693
#
#
#
# Elastic Compliance Matrix: (Units=1/GPa)
#
#
# Indices 1 2 3 4 5 6 
#
# 1 0.030148 0.002296 -0.008761 0.000000 0.000000 0.000000
# 2 0.002296 0.010178 -0.004288 0.000000 0.000000 0.000000
# 3 -0.008761 -0.004288 0.019117 0.000000 0.000000 0.000000
# 4 0.000000 0.000000 0.000000 0.034246 0.000000 0.000000
# 5 0.000000 0.000000 0.000000 0.000000 0.198325 0.000000
# 6 0.000000 0.000000 0.000000 0.000000 0.000000 0.087956
#
#
# Mechanical properties :
#
#
# Convention : Reuss Voigt Hill
#
# Bulk Modulus (GPa) = 26.36016 32.39266 29.37641
# Shear Modulus (GPa) = 12.07376 20.64142 16.35759
#
# Velocity S-wave (km/s) = 2.74860 3.59386 3.19927
# Velocity P-wave (km/s) = 5.15434 6.12290 5.65938
#
# Compressibility (1/GPa) = 0.03793604
#
# Stress axis : x y z
#
# Youngs Moduli (GPa) = 33.17016 98.24932 52.31013
#
# Poissons Ratio (x) = -0.22558 0.45829
# Poissons Ratio (y) = -0.07616 0.22431
# Poissons Ratio (z) = 0.29061 0.42131
#
# Static dielectric constant tensor:
#      x y z
#    x 1.521220 0.000000 0.000000 
#    y 0.000000 1.566440 0.000000 
#    z 0.000000 0.000000 1.549910 
# 
# From -- ./inp_files/24993.got.cif
#   From: 2010.05.17/outbox.cif.g08.bks.cpg/sg49_13_cif.got.tgz:24993.got - 2010.06.03 21:02:19.
