data_PCOD9393834
_publ_section_title
;
Structure prediction by ZEFSAII (Michael W. Deem and Ramdas Pophale) SiO2 
 PCOD9393834
Probable space group: P C C M
;
_chemical_formula_sum "Si O2"
_cell_formula_units_Z 40
_cell_length_a 26.559139
_cell_length_b 9.296003
_cell_length_c 8.609566
_cell_angle_alpha 90.000000
_cell_angle_beta 90.000000
_cell_angle_gamma 90.000000
_cell_volume 2125.648774
_symmetry_space_group_name_H-M "P C C M"
_symmetry_group_IT_number 49
_symmetry_cell_setting 'orthorhombic'
loop_
_space_group_symop_operation_xyz
x,y,z
-x,-y,z
x,-y,1/2-z
-x,y,1/2-z
-x,-y,-z
x,y,-z
-x,y,1/2+z
x,-y,1/2+z
loop_
_atom_site_type_symbol
_atom_site_label
_atom_site_fract_x
_atom_site_fract_y
_atom_site_fract_z
Si Si1 0.555139 0.160603 0.313706
Si Si2 0.351649 0.339046 0.685983
Si Si3 0.743019 0.161363 0.314294
Si Si4 0.948908 0.663073 0.314833
Si Si5 0.162747 0.336610 0.312938
O O1 0.500000 0.201386 0.250000
O O2 0.554476 0.157551 0.500000
O O3 0.597849 0.266496 0.252059
O O4 0.565739 0.000000 0.250000
O O5 0.346833 0.500000 0.750000
O O6 0.352989 0.340065 0.500000
O O7 0.304276 0.246792 0.744283
O O8 0.739441 0.160461 0.500000
O O9 0.793722 0.241476 0.260946
O O10 0.742834 0.000000 0.250000
O O11 0.948125 0.500000 0.250000
O O12 0.952778 0.657132 0.500000
O O13 0.893511 0.721422 0.274165
O O14 0.000000 0.733126 0.250000
O O15 0.166722 0.500000 0.250000
O O16 0.167728 0.339256 0.500000
#
# Coordination Sequence:
#
# PCOD9393834 Si02
#       5
#     8   8   8   8   8
#     4  11  22  40  64  93 125 162 202 242 287 340
#     4  12  25  43  64  90 121 155 194 241 291 343
#     4  12  25  42  62  85 113 150 191 237 288 346
#     4   9  16  26  45  73 108 144 183 227 277 331
#     4  10  20  35  55  83 115 150 189 235 285 339
#
# _framework density 18.817785000000001
#
# number of rings (size 3 to 8) (size 9 to 14) (size 15 to 20)
#    0.000    1.200    0.000    9.000    0.000    2.800 
#    0.000    2.000    0.000    0.600    0.000    4.200 
#    0.000    0.000    0.000    0.000    0.000    0.000 
#
# Total GULP energy -223588.882088 kJ/mol
# GULP energy per Si atom -5589.722052 kJ/mol
# Density = 1.877495 g / cm^3
# Si number density = 18.817785 Si / 1000 Ang^3
#
#
#
# Elastic Constant Matrix: (Units=GPa)
#
#
# Indices 1 2 3 4 5 6 
#
# 1 171.7589 104.5501 83.4635 0.0000 0.0000 0.0000
# 2 104.5501 113.0572 60.9663 0.0000 0.0000 0.0000
# 3 83.4635 60.9663 185.5249 0.0000 0.0000 0.0000
# 4 0.0000 0.0000 0.0000 27.7472 0.0000 0.0000
# 5 0.0000 0.0000 0.0000 0.0000 37.4060 0.0000
# 6 0.0000 0.0000 0.0000 0.0000 0.0000 3.9919
#
#
#
# Elastic Compliance Matrix: (Units=1/GPa)
#
#
# Indices 1 2 3 4 5 6 
#
# 1 0.014231 -0.011798 -0.002525 0.000000 0.000000 0.000000
# 2 -0.011798 0.020532 -0.001439 0.000000 0.000000 0.000000
# 3 -0.002525 -0.001439 0.006999 0.000000 0.000000 0.000000
# 4 0.000000 0.000000 0.000000 0.036040 0.000000 0.000000
# 5 0.000000 0.000000 0.000000 0.000000 0.026734 0.000000
# 6 0.000000 0.000000 0.000000 0.000000 0.000000 0.250505
#
#
# Mechanical properties :
#
#
# Convention : Reuss Voigt Hill
#
# Bulk Modulus (GPa) = 97.69075 107.58898 102.63986
# Shear Modulus (GPa) = 12.82126 28.58644 20.70385
#
# Velocity S-wave (km/s) = 2.61308 3.90181 3.32057
# Velocity P-wave (km/s) = 7.81863 8.80892 8.32851
#
# Compressibility (1/GPa) = 0.01023638
#
# Stress axis : x y z
#
# Youngs Moduli (GPa) = 70.27012 48.70493 142.87754
#
# Poissons Ratio (x) = 0.57464 0.36076
# Poissons Ratio (y) = 0.82907 0.20563
# Poissons Ratio (z) = 0.17743 0.07010
#
# Static dielectric constant tensor:
#      x y z
#    x 1.672630 0.000000 0.000000 
#    y 0.000000 1.545340 0.000000 
#    z 0.000000 0.000000 1.626320 
# 
# From -- ./inp_files/6189.got.cif
#   From: 2010.05.17/outbox.cif.g08.bks.cpg/sg49_4_cif.got.tgz:6189.got - 2010.06.03 21:02:19.
