data_PCOD9393781
_publ_section_title
;
Structure prediction by ZEFSAII (Michael W. Deem and Ramdas Pophale) SiO2 
 PCOD9393781
Probable space group: P C C M
;
_chemical_formula_sum "Si O2"
_cell_formula_units_Z 56
_cell_length_a 15.946577
_cell_length_b 20.824358
_cell_length_c 8.492580
_cell_angle_alpha 90.000000
_cell_angle_beta 90.000000
_cell_angle_gamma 90.000000
_cell_volume 2820.192428
_symmetry_space_group_name_H-M "P C C M"
_symmetry_group_IT_number 49
_symmetry_cell_setting 'orthorhombic'
loop_
_space_group_symop_operation_xyz
x,y,z
-x,-y,z
x,-y,1/2-z
-x,y,1/2-z
-x,-y,-z
x,y,-z
-x,y,1/2+z
x,-y,1/2+z
loop_
_atom_site_type_symbol
_atom_site_label
_atom_site_fract_x
_atom_site_fract_y
_atom_site_fract_z
Si Si1 0.371844 0.065989 0.690431
Si Si2 0.722856 0.318622 0.189831
Si Si3 0.187128 0.933057 0.683300
Si Si4 0.592215 0.571459 0.311492
Si Si5 0.918125 0.826686 0.317566
Si Si6 0.909260 0.686143 0.816672
Si Si7 0.589552 0.213179 0.811304
O O1 0.359872 0.062570 0.500000
O O2 0.285822 0.064658 0.788563
O O3 0.406759 0.137121 0.726341
O O4 0.414209 0.000000 0.750000
O O5 0.662428 0.377390 0.236128
O O6 0.817831 0.331229 0.247122
O O7 0.671475 0.254214 0.243392
O O8 0.727857 0.314752 0.000000
O O9 0.166490 0.924707 0.500000
O O10 0.157185 0.873920 0.787472
O O11 0.151798 0.000000 0.750000
O O12 0.610741 0.500000 0.250000
O O13 0.500000 0.589627 0.250000
O O14 0.589077 0.570003 0.500000
O O15 0.926134 0.809504 0.500000
O O16 0.910539 0.762531 0.216427
O O17 0.000000 0.861656 0.250000
O O18 0.000000 0.662319 0.750000
O O19 0.908947 0.671923 0.000000
O O20 0.500000 0.238822 0.750000
O O21 0.588857 0.218823 0.000000
#
# Coordination Sequence:
#
# PCOD9393781 Si02
#       7
#     8   8   8   8   8   8   8
#     4  10  20  35  53  73  98 136 180 229 282 337
#     4  10  21  38  59  86 119 156 194 240 292 344
#     4  11  21  34  51  72  95 126 169 219 277 341
#     4  10  20  35  59  89 126 166 204 244 289 343
#     4  11  21  35  52  72 100 133 171 220 276 339
#     4  11  22  37  59  86 114 149 189 235 285 340
#     4  10  22  37  55  79 110 145 186 235 289 342
#
# _framework density 19.8568
#
# number of rings (size 3 to 8) (size 9 to 14) (size 15 to 20)
#    0.000    1.571    0.000    8.143    0.000    4.571 
#    0.000    2.857    0.000    0.429    0.000    3.000 
#    0.000    0.000    0.000    0.000    0.000    0.000 
#
# Total GULP energy -312292.309244 kJ/mol
# GULP energy per Si atom -5576.648379 kJ/mol
# Density = 1.981161 g / cm^3
# Si number density = 19.856800 Si / 1000 Ang^3
#
#
#
# Elastic Constant Matrix: (Units=GPa)
#
#
# Indices 1 2 3 4 5 6 
#
# 1 143.4062 61.4717 25.5147 0.0000 0.0000 0.0000
# 2 61.4717 83.2847 24.6952 0.0000 0.0000 0.0000
# 3 25.5147 24.6952 49.9034 0.0000 0.0000 0.0000
# 4 0.0000 0.0000 0.0000 24.3120 0.0000 0.0000
# 5 0.0000 0.0000 0.0000 0.0000 126.6597 0.0000
# 6 0.0000 0.0000 0.0000 0.0000 0.0000 31.6310
#
#
#
# Elastic Compliance Matrix: (Units=1/GPa)
#
#
# Indices 1 2 3 4 5 6 
#
# 1 0.010332 -0.007102 -0.001768 0.000000 0.000000 0.000000
# 2 -0.007102 0.018953 -0.005748 0.000000 0.000000 0.000000
# 3 -0.001768 -0.005748 0.023787 0.000000 0.000000 0.000000
# 4 0.000000 0.000000 0.000000 0.041132 0.000000 0.000000
# 5 0.000000 0.000000 0.000000 0.000000 0.007895 0.000000
# 6 0.000000 0.000000 0.000000 0.000000 0.000000 0.031615
#
#
# Mechanical properties :
#
#
# Convention : Reuss Voigt Hill
#
# Bulk Modulus (GPa) = 41.95287 55.55083 48.75185
# Shear Modulus (GPa) = 29.25764 47.51471 38.38618
#
# Velocity S-wave (km/s) = 3.84270 4.89700 4.40153
# Velocity P-wave (km/s) = 6.39234 7.74665 7.10185
#
# Compressibility (1/GPa) = 0.02383627
#
# Stress axis : x y z
#
# Youngs Moduli (GPa) = 96.78736 52.76195 42.03918
#
# Poissons Ratio (x) = 0.37469 0.07434
# Poissons Ratio (y) = 0.68734 0.24165
# Poissons Ratio (z) = 0.17114 0.30329
#
# Static dielectric constant tensor:
#      x y z
#    x 1.809170 0.000000 0.000000 
#    y 0.000000 1.707330 0.000000 
#    z 0.000000 0.000000 1.690420 
# 
# From -- ./inp_files/4067.got.cif
#   From: 2010.05.17/outbox.cif.g08.bks.cpg/sg49_3_cif.got.tgz:4067.got - 2010.06.03 21:02:19.
