data_PCOD9393323
_publ_section_title
;
Structure prediction by ZEFSAII (Michael W. Deem and Ramdas Pophale) SiO2 
 PCOD9393323
Probable space group: P C C M
;
_chemical_formula_sum "Si O2"
_cell_formula_units_Z 58
_cell_length_a 10.610074
_cell_length_b 17.250927
_cell_length_c 14.898362
_cell_angle_alpha 90.000000
_cell_angle_beta 90.000000
_cell_angle_gamma 90.000000
_cell_volume 2726.901010
_symmetry_space_group_name_H-M "P C C M"
_symmetry_group_IT_number 49
_symmetry_cell_setting 'orthorhombic'
loop_
_space_group_symop_operation_xyz
x,y,z
-x,-y,z
x,-y,1/2-z
-x,y,1/2-z
-x,-y,-z
x,y,-z
-x,y,1/2+z
x,-y,1/2+z
loop_
_atom_site_type_symbol
_atom_site_label
_atom_site_fract_x
_atom_site_fract_y
_atom_site_fract_z
Si Si1 0.230726 0.500101 0.140897
Si Si2 0.996387 0.912834 0.603339
Si Si3 0.640582 0.662031 0.360998
Si Si4 0.645925 0.663705 0.856797
Si Si5 0.510743 0.088728 0.640463
Si Si6 0.738357 0.821734 0.367383
Si Si7 0.000000 0.500000 0.500000
Si Si8 0.758612 0.178597 0.653025
O O1 0.206655 0.500000 0.250000
O O2 0.312266 0.576293 0.118143
O O3 0.303657 0.420580 0.119181
O O4 0.108774 0.502745 0.079321
O O5 0.032617 0.921812 0.500000
O O6 0.860663 0.871443 0.607286
O O7 0.104175 0.857464 0.641586
O O8 0.000000 0.000000 0.643238
O O9 0.640643 0.665577 0.252085
O O10 0.496572 0.676196 0.389381
O O11 0.729417 0.731688 0.395178
O O12 0.736301 0.734795 0.883603
O O13 0.500000 0.090260 0.750000
O O14 0.391541 0.136813 0.605654
O O15 0.645281 0.125312 0.616001
O O16 0.500000 0.000000 0.612303
O O17 0.738752 0.819716 0.259632
#
# Coordination Sequence:
#
# PCOD9393323 Si02
#       8
#     8   8   8   8   8   8   2   8
#     4  10  22  41  67  93 129 174 209 256 316 369
#     4  11  25  42  55  76 118 165 206 247 306 377
#     4   9  17  35  64  95 123 153 197 252 315 379
#     4   9  17  35  64  95 123 153 197 252 315 379
#     4   9  16  28  53  88 118 143 184 253 318 360
#     4  10  19  35  61  90 117 149 199 258 305 363
#     4  12  26  44  58  90 132 168 224 262 292 374
#     4  10  19  35  61  90 117 149 199 258 305 363
#
# _framework density 21.269566000000001
#
# number of rings (size 3 to 8) (size 9 to 14) (size 15 to 20)
#    0.000    2.207    1.379    1.862    0.000    4.966 
#    4.966    6.207    0.000    2.483    0.000    0.000 
#    0.000    0.000    0.000    0.000    0.000    0.000 
#
# Total GULP energy -323297.728988 kJ/mol
# GULP energy per Si atom -5574.098776 kJ/mol
# Density = 2.122116 g / cm^3
# Si number density = 21.269566 Si / 1000 Ang^3
#
#
#
# Elastic Constant Matrix: (Units=GPa)
#
#
# Indices 1 2 3 4 5 6 
#
# 1 124.8344 63.7286 4.7632 0.0000 0.0000 0.0000
# 2 63.7286 182.9162 10.5672 0.0000 0.0000 0.0000
# 3 4.7632 10.5672 67.2434 0.0000 0.0000 0.0000
# 4 0.0000 0.0000 0.0000 -15.1336 0.0000 0.0000
# 5 0.0000 0.0000 0.0000 0.0000 416.4985 0.0000
# 6 0.0000 0.0000 0.0000 0.0000 0.0000 -179.9291
#
#
#
# Elastic Compliance Matrix: (Units=1/GPa)
#
#
# Indices 1 2 3 4 5 6 
#
# 1 0.009745 -0.003386 -0.000158 0.000000 0.000000 0.000000
# 2 -0.003386 0.006694 -0.000812 0.000000 0.000000 0.000000
# 3 -0.000158 -0.000812 0.015010 0.000000 0.000000 0.000000
# 4 0.000000 0.000000 0.000000 -0.066078 0.000000 0.000000
# 5 0.000000 0.000000 0.000000 0.000000 0.002401 0.000000
# 6 0.000000 0.000000 0.000000 0.000000 0.000000 -0.005558
#
#
# Mechanical properties :
#
#
# Convention : Reuss Voigt Hill
#
# Bulk Modulus (GPa) = 43.98241 59.23465 51.60853
# Shear Modulus (GPa) = -232.61815 64.01617 -84.30099
#
# Velocity S-wave (km/s) = -10.46920 5.49207 -6.30243
# Velocity P-wave (km/s) = 11.19890 8.25392 5.35202
#
# Compressibility (1/GPa) = 0.02273636
#
# Stress axis : x y z
#
# Youngs Moduli (GPa) = 102.61357 149.39544 66.62154
#
# Poissons Ratio (x) = 0.50588 0.01054
# Poissons Ratio (y) = 0.34747 0.05410
# Poissons Ratio (z) = 0.01623 0.12131
#
# Static dielectric constant tensor:
#      x y z
#    x 1.709040 0.000000 0.000000 
#    y 0.000000 1.777370 0.000000 
#    z 0.000000 0.000000 1.855500 
# 
# From -- ./inp_files/16484.got.cif
#   From: 2010.05.17/outbox.cif.g08.bks.cpg/sg49_9_cif.got.tgz:16484.got - 2010.06.03 21:02:19.
