data_PCOD9393155
_publ_section_title
;
Structure prediction by ZEFSAII (Michael W. Deem and Ramdas Pophale) SiO2 
 PCOD9393155
Probable space group: P C C M
;
_chemical_formula_sum "Si O2"
_cell_formula_units_Z 48
_cell_length_a 9.201183
_cell_length_b 33.040041
_cell_length_c 8.654335
_cell_angle_alpha 90.000000
_cell_angle_beta 90.000000
_cell_angle_gamma 90.000000
_cell_volume 2630.982432
_symmetry_space_group_name_H-M "P C C M"
_symmetry_group_IT_number 49
_symmetry_cell_setting 'orthorhombic'
loop_
_space_group_symop_operation_xyz
x,y,z
-x,-y,z
x,-y,1/2-z
-x,y,1/2-z
-x,-y,-z
x,y,-z
-x,y,1/2+z
x,-y,1/2+z
loop_
_atom_site_type_symbol
_atom_site_label
_atom_site_fract_x
_atom_site_fract_y
_atom_site_fract_z
Si Si1 0.834345 0.458683 0.814557
Si Si2 0.835573 0.717330 0.686202
Si Si3 0.164565 0.959021 0.815561
Si Si4 0.164067 0.869626 0.814307
Si Si5 0.661712 0.793580 0.815722
Si Si6 0.835790 0.628751 0.685982
O O1 0.765882 0.500000 0.750000
O O2 0.769145 0.414798 0.768226
O O3 0.000000 0.457919 0.750000
O O4 0.839504 0.461309 0.000000
O O5 0.838730 0.720206 0.500000
O O6 0.744511 0.753938 0.754689
O O7 0.773988 0.672655 0.730854
O O8 0.000000 0.719889 0.750000
O O9 0.224960 0.914591 0.775205
O O10 0.000000 0.958234 0.750000
O O11 0.235103 0.000000 0.750000
O O12 0.157995 0.962254 0.000000
O O13 0.256303 0.833491 0.743978
O O14 0.000000 0.867002 0.750000
O O15 0.159726 0.866156 0.000000
O O16 0.500000 0.793516 0.750000
O O17 0.660126 0.793364 0.000000
O O18 0.842873 0.628464 0.500000
O O19 0.000000 0.628843 0.750000
#
# Coordination Sequence:
#
# PCOD9393155 Si02
#       6
#     8   8   8   8   8   8
#     4   9  14  20  30  49  78 115 153 188 228 277
#     4  10  19  34  54  76 101 131 167 209 252 299
#     4   9  16  26  45  73 106 137 168 205 246 287
#     4  10  20  35  55  81 109 140 175 211 249 295
#     4  12  25  40  56  75 100 132 167 209 257 307
#     4   8  15  25  39  59  86 119 156 195 237 283
#
# _framework density 18.244133999999999
#
# number of rings (size 3 to 8) (size 9 to 14) (size 15 to 20)
#    0.000    2.333    0.000    5.000    0.000    3.333 
#    0.000    0.000    0.000    0.500    0.000    3.500 
#    0.000    0.667    0.000    7.667    0.000    4.500 
#
# Total GULP energy -267389.279057 kJ/mol
# GULP energy per Si atom -5570.609980 kJ/mol
# Density = 1.820261 g / cm^3
# Si number density = 18.244134 Si / 1000 Ang^3
#
#
#
# Elastic Constant Matrix: (Units=GPa)
#
#
# Indices 1 2 3 4 5 6 
#
# 1 41.8334 59.1871 22.2071 0.0000 0.0000 0.0000
# 2 59.1871 254.5849 75.6765 0.0000 0.0000 0.0000
# 3 22.2071 75.6765 87.6538 0.0000 0.0000 0.0000
# 4 0.0000 0.0000 0.0000 34.6979 0.0000 0.0000
# 5 0.0000 0.0000 0.0000 0.0000 18.4961 0.0000
# 6 0.0000 0.0000 0.0000 0.0000 0.0000 -6.2659
#
#
#
# Elastic Compliance Matrix: (Units=1/GPa)
#
#
# Indices 1 2 3 4 5 6 
#
# 1 0.036040 -0.007620 -0.002552 0.000000 0.000000 0.000000
# 2 -0.007620 0.006895 -0.004022 0.000000 0.000000 0.000000
# 3 -0.002552 -0.004022 0.015528 0.000000 0.000000 0.000000
# 4 0.000000 0.000000 0.000000 0.028820 0.000000 0.000000
# 5 0.000000 0.000000 0.000000 0.000000 0.054065 0.000000
# 6 0.000000 0.000000 0.000000 0.000000 0.000000 -0.159594
#
#
# Mechanical properties :
#
#
# Convention : Reuss Voigt Hill
#
# Bulk Modulus (GPa) = 33.25093 77.57929 55.41511
# Shear Modulus (GPa) = 247.90822 24.51905 136.21364
#
# Velocity S-wave (km/s) = 11.66957 3.66996 8.65007
# Velocity P-wave (km/s) = 14.13637 7.78289 11.41074
#
# Compressibility (1/GPa) = 0.03007434
#
# Stress axis : x y z
#
# Youngs Moduli (GPa) = 27.74669 145.02702 64.40052
#
# Poissons Ratio (x) = 1.10515 0.16433
# Poissons Ratio (y) = 0.21144 0.25905
# Poissons Ratio (z) = 0.07080 0.58337
#
# Static dielectric constant tensor:
#      x y z
#    x 1.553980 0.000000 0.000000 
#    y 0.000000 1.719620 0.000000 
#    z 0.000000 0.000000 1.604110 
# 
# From -- ./inp_files/2066.got.cif
#   From: 2010.05.17/outbox.cif.g08.bks.cpg/sg49_2_cif.got.tgz:2066.got - 2010.06.03 21:02:19.
