data_PCOD9393743
_publ_section_title
;
Structure prediction by ZEFSAII (Michael W. Deem and Ramdas Pophale) SiO2 
 PCOD9393743
Probable space group: P C C M
;
_chemical_formula_sum "Si O2"
_cell_formula_units_Z 48
_cell_length_a 19.379351
_cell_length_b 8.571314
_cell_length_c 15.658366
_cell_angle_alpha 90.000000
_cell_angle_beta 90.000000
_cell_angle_gamma 90.000000
_cell_volume 2600.956412
_symmetry_space_group_name_H-M "P C C M"
_symmetry_group_IT_number 49
_symmetry_cell_setting 'orthorhombic'
loop_
_space_group_symop_operation_xyz
x,y,z
-x,-y,z
x,-y,1/2-z
-x,y,1/2-z
-x,-y,-z
x,y,-z
-x,y,1/2+z
x,-y,1/2+z
loop_
_atom_site_type_symbol
_atom_site_label
_atom_site_fract_x
_atom_site_fract_y
_atom_site_fract_z
Si Si1 0.579987 0.686162 0.256099
Si Si2 0.824719 0.326030 0.100314
Si Si3 0.673441 0.796241 0.405596
Si Si4 0.824154 0.700119 0.100148
Si Si5 0.081139 0.813155 0.749705
Si Si6 0.308011 0.111675 0.166763
O O1 0.585390 0.500000 0.250000
O O2 0.500000 0.731259 0.250000
O O3 0.613835 0.735967 0.345038
O O4 0.628106 0.776176 0.188469
O O5 0.749541 0.257979 0.123624
O O6 0.819056 0.512918 0.105700
O O7 0.879612 0.260165 0.168305
O O8 0.839355 0.285219 0.000000
O O9 0.664332 0.733196 0.500000
O O10 0.673788 0.983014 0.403252
O O11 0.885657 0.750677 0.162329
O O12 0.756814 0.786156 0.137977
O O13 0.833157 0.741695 0.000000
O O14 0.000000 0.776926 0.750000
O O15 0.090142 0.000000 0.750000
O O16 0.294266 0.000000 0.250000
#
# Coordination Sequence:
#
# PCOD9393743 Si02
#       6
#     8   8   8   8   8   8
#     4  10  21  38  57  78 110 151 187 224 275 331
#     4  10  22  39  61  85 112 145 186 233 279 327
#     4  10  20  36  58  84 111 142 182 231 276 322
#     4  11  22  37  59  87 114 146 186 230 277 331
#     4  11  24  40  58  82 114 151 187 227 278 333
#     4  10  20  34  57  84 112 147 186 227 274 328
#
# _framework density 18.454749
#
# number of rings (size 3 to 8) (size 9 to 14) (size 15 to 20)
#    0.000    1.667    0.000    5.500    0.000    7.000 
#    0.000    8.333    0.000    0.000    0.000    0.000 
#    0.000    0.000    0.000    0.000    0.000    0.000 
#
# Total GULP energy -267960.601857 kJ/mol
# GULP energy per Si atom -5582.512539 kJ/mol
# Density = 1.841275 g / cm^3
# Si number density = 18.454749 Si / 1000 Ang^3
#
#
#
# Elastic Constant Matrix: (Units=GPa)
#
#
# Indices 1 2 3 4 5 6 
#
# 1 177.6757 76.5087 93.3123 0.0000 0.0000 0.0000
# 2 76.5087 92.2277 49.5444 0.0000 0.0000 0.0000
# 3 93.3123 49.5444 119.4181 0.0000 0.0000 0.0000
# 4 0.0000 0.0000 0.0000 11.3586 0.0000 0.0000
# 5 0.0000 0.0000 0.0000 0.0000 13.5212 0.0000
# 6 0.0000 0.0000 0.0000 0.0000 0.0000 34.2627
#
#
#
# Elastic Compliance Matrix: (Units=1/GPa)
#
#
# Indices 1 2 3 4 5 6 
#
# 1 0.011788 -0.006216 -0.006632 0.000000 0.000000 0.000000
# 2 -0.006216 0.017230 -0.002291 0.000000 0.000000 0.000000
# 3 -0.006632 -0.002291 0.014507 0.000000 0.000000 0.000000
# 4 0.000000 0.000000 0.000000 0.088039 0.000000 0.000000
# 5 0.000000 0.000000 0.000000 0.000000 0.073958 0.000000
# 6 0.000000 0.000000 0.000000 0.000000 0.000000 0.029186
#
#
# Mechanical properties :
#
#
# Convention : Reuss Voigt Hill
#
# Bulk Modulus (GPa) = 75.49414 92.00581 83.74998
# Shear Modulus (GPa) = 18.55956 23.15891 20.85924
#
# Velocity S-wave (km/s) = 3.17469 3.54630 3.36563
# Velocity P-wave (km/s) = 7.37799 8.16893 7.78351
#
# Compressibility (1/GPa) = 0.01324606
#
# Stress axis : x y z
#
# Youngs Moduli (GPa) = 84.83180 58.03734 68.93318
#
# Poissons Ratio (x) = 0.36077 0.45717
# Poissons Ratio (y) = 0.52733 0.15794
# Poissons Ratio (z) = 0.56261 0.13298
#
# Static dielectric constant tensor:
#      x y z
#    x 1.599930 0.000000 0.000000 
#    y 0.000000 1.639310 0.000000 
#    z 0.000000 0.000000 1.661170 
# 
# From -- ./inp_files/14048.got.cif
#   From: 2010.05.17/outbox.cif.g08.bks.cpg/sg49_8_cif.got.tgz:14048.got - 2010.06.03 21:02:19.
