data_PCOD9393512
_publ_section_title
;
Structure prediction by ZEFSAII (Michael W. Deem and Ramdas Pophale) SiO2 
 PCOD9393512
Probable space group: P C C M
;
_chemical_formula_sum "Si O2"
_cell_formula_units_Z 64
_cell_length_a 21.420374
_cell_length_b 21.118084
_cell_length_c 8.987591
_cell_angle_alpha 90.000000
_cell_angle_beta 90.000000
_cell_angle_gamma 90.000000
_cell_volume 4065.602016
_symmetry_space_group_name_H-M "P C C M"
_symmetry_group_IT_number 49
_symmetry_cell_setting 'orthorhombic'
loop_
_space_group_symop_operation_xyz
x,y,z
-x,-y,z
x,-y,1/2-z
-x,y,1/2-z
-x,-y,-z
x,y,-z
-x,y,1/2+z
x,-y,1/2+z
loop_
_atom_site_type_symbol
_atom_site_label
_atom_site_fract_x
_atom_site_fract_y
_atom_site_fract_z
Si Si1 0.419566 0.809863 0.665986
Si Si2 0.939017 0.569958 0.177236
Si Si3 0.736424 0.066253 0.829108
Si Si4 0.415541 0.935689 0.830239
Si Si5 0.269746 0.803327 0.331378
Si Si6 0.292985 0.329289 0.320774
Si Si7 0.799124 0.430149 0.678246
Si Si8 0.563104 0.319381 0.824307
O O1 0.444126 0.797368 0.500000
O O2 0.436212 0.877215 0.731209
O O3 0.344532 0.811182 0.656375
O O4 0.436179 0.754491 0.779313
O O5 0.936501 0.500000 0.250000
O O6 0.869618 0.596178 0.205235
O O7 0.000000 0.601845 0.250000
O O8 0.947786 0.564882 0.000000
O O9 0.660517 0.065851 0.833602
O O10 0.754098 0.131838 0.745619
O O11 0.754956 0.000000 0.750000
O O12 0.758162 0.067224 0.000000
O O13 0.432833 0.000000 0.750000
O O14 0.437407 0.931848 0.000000
O O15 0.245036 0.796391 0.500000
O O16 0.266025 0.737890 0.239241
O O17 0.290896 0.329027 0.500000
O O18 0.251393 0.384504 0.251476
O O19 0.366396 0.339314 0.276640
O O20 0.794971 0.500000 0.750000
O O21 0.790817 0.434648 0.500000
O O22 0.500000 0.347010 0.750000
O O23 0.558536 0.327998 0.000000
#
# Coordination Sequence:
#
# PCOD9393512 Si02
#       8
#     8   8   8   8   8   8   8   8
#     4   9  16  26  40  57  76  98 126 163 209 260
#     4   9  16  26  43  68  98 131 164 194 221 251
#     4   9  15  22  33  51  76 105 138 176 218 266
#     4   9  15  22  33  50  72  97 125 158 199 250
#     4   9  16  26  40  58  81 109 141 179 224 272
#     4  10  20  33  49  69  92 118 150 189 233 281
#     4  10  20  33  50  73 100 130 162 194 229 268
#     4  10  20  33  49  67  84 104 134 175 225 278
#
# _framework density 15.741827000000001
#
# number of rings (size 3 to 8) (size 9 to 14) (size 15 to 20)
#    0.000    2.625    0.000    3.375    0.000    9.000 
#    0.000    0.000    0.000    0.750    0.000    5.250 
#    0.000    0.000    0.000    0.000    0.000    0.625 
#
# Total GULP energy -356452.290338 kJ/mol
# GULP energy per Si atom -5569.567037 kJ/mol
# Density = 1.570600 g / cm^3
# Si number density = 15.741827 Si / 1000 Ang^3
#
#
#
# Elastic Constant Matrix: (Units=GPa)
#
#
# Indices 1 2 3 4 5 6 
#
# 1 76.2023 43.1304 33.3001 0.0000 0.0000 0.0000
# 2 43.1304 74.4638 36.4117 0.0000 0.0000 0.0000
# 3 33.3001 36.4117 81.0203 0.0000 0.0000 0.0000
# 4 0.0000 0.0000 0.0000 23.1014 0.0000 0.0000
# 5 0.0000 0.0000 0.0000 0.0000 17.6039 0.0000
# 6 0.0000 0.0000 0.0000 0.0000 0.0000 -1.6129
#
#
#
# Elastic Compliance Matrix: (Units=1/GPa)
#
#
# Indices 1 2 3 4 5 6 
#
# 1 0.020466 -0.009921 -0.003953 0.000000 0.000000 0.000000
# 2 -0.009921 0.022021 -0.005819 0.000000 0.000000 0.000000
# 3 -0.003953 -0.005819 0.016582 0.000000 0.000000 0.000000
# 4 0.000000 0.000000 0.000000 0.043287 0.000000 0.000000
# 5 0.000000 0.000000 0.000000 0.000000 0.056806 0.000000
# 6 0.000000 0.000000 0.000000 0.000000 0.000000 -0.619984
#
#
# Mechanical properties :
#
#
# Convention : Reuss Voigt Hill
#
# Bulk Modulus (GPa) = 50.80444 50.81898 50.81171
# Shear Modulus (GPa) = -12.05185 15.74141 1.84478
#
# Velocity S-wave (km/s) = -2.76994 3.16567 1.08372
# Velocity P-wave (km/s) = 4.70250 6.76127 5.82359
#
# Compressibility (1/GPa) = 0.01968332
#
# Stress axis : x y z
#
# Youngs Moduli (GPa) = 48.86224 45.41079 60.30485
#
# Poissons Ratio (x) = 0.45053 0.23838
# Poissons Ratio (y) = 0.48477 0.35091
# Poissons Ratio (z) = 0.19315 0.26425
#
# Static dielectric constant tensor:
#      x y z
#    x 1.555720 0.000000 0.000000 
#    y 0.000000 1.507090 0.000000 
#    z 0.000000 0.000000 1.544740 
# 
# From -- ./inp_files/6098.got.cif
#   From: 2010.05.17/outbox.cif.g08.bks.cpg/sg49_4_cif.got.tgz:6098.got - 2010.06.03 21:02:19.
