data_PCOD9393690
_publ_section_title
;
Structure prediction by ZEFSAII (Michael W. Deem and Ramdas Pophale) SiO2 
 PCOD9393690
Probable space group: P C C M
;
_chemical_formula_sum "Si O2"
_cell_formula_units_Z 56
_cell_length_a 16.330479
_cell_length_b 19.938303
_cell_length_c 8.711709
_cell_angle_alpha 90.000000
_cell_angle_beta 90.000000
_cell_angle_gamma 90.000000
_cell_volume 2836.550209
_symmetry_space_group_name_H-M "P C C M"
_symmetry_group_IT_number 49
_symmetry_cell_setting 'orthorhombic'
loop_
_space_group_symop_operation_xyz
x,y,z
-x,-y,z
x,-y,1/2-z
-x,y,1/2-z
-x,-y,-z
x,y,-z
-x,y,1/2+z
x,-y,1/2+z
loop_
_atom_site_type_symbol
_atom_site_label
_atom_site_fract_x
_atom_site_fract_y
_atom_site_fract_z
Si Si1 0.414425 0.655283 0.183334
Si Si2 0.908132 0.930838 0.684166
Si Si3 0.408142 0.931290 0.683965
Si Si4 0.343479 0.213859 0.182936
Si Si5 0.913635 0.347791 0.184208
Si Si6 0.166337 0.211706 0.684919
Si Si7 0.251363 0.574734 0.185867
O O1 0.500000 0.629051 0.250000
O O2 0.401340 0.731552 0.238686
O O3 0.333558 0.614382 0.234222
O O4 0.417867 0.653580 0.000000
O O5 0.911431 0.934901 0.500000
O O6 0.861800 0.862840 0.728330
O O7 0.000000 0.925976 0.750000
O O8 0.871806 0.000000 0.750000
O O9 0.500000 0.927033 0.750000
O O10 0.411205 0.935883 0.500000
O O11 0.363618 0.862603 0.728310
O O12 0.370775 0.000000 0.750000
O O13 0.251721 0.228588 0.236438
O O14 0.351748 0.219282 0.000000
O O15 0.897862 0.269831 0.226184
O O16 0.832727 0.388397 0.234754
O O17 0.000000 0.371610 0.250000
O O18 0.917326 0.351980 0.000000
O O19 0.177083 0.213870 0.500000
O O20 0.253062 0.500000 0.250000
O O21 0.251354 0.573815 0.000000
#
# Coordination Sequence:
#
# PCOD9393690 Si02
#       7
#     8   8   8   8   8   8   8
#     4  11  23  42  66  93 127 165 205 252 301 362
#     4  10  20  34  54  78 110 152 197 251 308 365
#     4  10  21  36  54  79 110 148 195 246 299 357
#     4  11  23  37  58  88 118 154 203 253 303 362
#     4  10  21  40  63  91 123 161 205 249 302 359
#     4  10  21  38  58  81 116 157 199 250 307 359
#     4  10  23  43  66  92 129 164 200 248 300 360
#
# _framework density 19.742291999999999
#
# number of rings (size 3 to 8) (size 9 to 14) (size 15 to 20)
#    0.000    1.714    1.429    3.429    0.000    8.000 
#    0.000    5.714    0.000    0.000    0.000    0.000 
#    0.000    0.000    0.000    0.000    0.000    0.000 
#
# Total GULP energy -312839.718307 kJ/mol
# GULP energy per Si atom -5586.423541 kJ/mol
# Density = 1.969736 g / cm^3
# Si number density = 19.742292 Si / 1000 Ang^3
#
#
#
# Elastic Constant Matrix: (Units=GPa)
#
#
# Indices 1 2 3 4 5 6 
#
# 1 138.7517 59.8317 29.3557 0.0000 0.0000 0.0000
# 2 59.8317 127.3075 29.8560 0.0000 0.0000 0.0000
# 3 29.3557 29.8560 23.2864 0.0000 0.0000 0.0000
# 4 0.0000 0.0000 0.0000 32.9220 0.0000 0.0000
# 5 0.0000 0.0000 0.0000 0.0000 21.7817 0.0000
# 6 0.0000 0.0000 0.0000 0.0000 0.0000 17.9366
#
#
#
# Elastic Compliance Matrix: (Units=1/GPa)
#
#
# Indices 1 2 3 4 5 6 
#
# 1 0.010394 -0.002591 -0.009781 0.000000 0.000000 0.000000
# 2 -0.002591 0.011878 -0.011963 0.000000 0.000000 0.000000
# 3 -0.009781 -0.011963 0.070611 0.000000 0.000000 0.000000
# 4 0.000000 0.000000 0.000000 0.030375 0.000000 0.000000
# 5 0.000000 0.000000 0.000000 0.000000 0.045910 0.000000
# 6 0.000000 0.000000 0.000000 0.000000 0.000000 0.055752
#
#
# Mechanical properties :
#
#
# Convention : Reuss Voigt Hill
#
# Bulk Modulus (GPa) = 22.61731 58.60360 40.61046
# Shear Modulus (GPa) = 17.34139 25.88155 21.61147
#
# Velocity S-wave (km/s) = 2.96698 3.62466 3.31218
# Velocity P-wave (km/s) = 4.81855 6.87505 5.93653
#
# Compressibility (1/GPa) = 0.04421392
#
# Stress axis : x y z
#
# Youngs Moduli (GPa) = 96.21208 84.18719 14.16204
#
# Poissons Ratio (x) = 0.21813 0.13851
# Poissons Ratio (y) = 0.24929 0.16942
# Poissons Ratio (z) = 0.94101 1.00713
#
# Static dielectric constant tensor:
#      x y z
#    x 1.689200 0.000000 0.000000 
#    y 0.000000 1.701410 0.000000 
#    z 0.000000 0.000000 1.667310 
# 
# From -- ./inp_files/4091.got.cif
#   From: 2010.05.17/outbox.cif.g08.bks.cpg/sg49_3_cif.got.tgz:4091.got - 2010.06.03 21:02:19.
