data_PCOD9393616
_publ_section_title
;
Structure prediction by ZEFSAII (Michael W. Deem and Ramdas Pophale) SiO2 
 PCOD9393616
Probable space group: P C C M
;
_chemical_formula_sum "Si O2"
_cell_formula_units_Z 42
_cell_length_a 5.332660
_cell_length_b 18.208893
_cell_length_c 25.085276
_cell_angle_alpha 90.000000
_cell_angle_beta 90.000000
_cell_angle_gamma 90.000000
_cell_volume 2435.826340
_symmetry_space_group_name_H-M "P C C M"
_symmetry_group_IT_number 49
_symmetry_cell_setting 'orthorhombic'
loop_
_space_group_symop_operation_xyz
x,y,z
-x,-y,z
x,-y,1/2-z
-x,y,1/2-z
-x,-y,-z
x,y,-z
-x,y,1/2+z
x,-y,1/2+z
loop_
_atom_site_type_symbol
_atom_site_label
_atom_site_fract_x
_atom_site_fract_y
_atom_site_fract_z
Si Si1 0.039329 0.129057 0.812918
Si Si2 0.500000 0.500000 0.250000
Si Si3 0.108511 0.420844 0.190912
Si Si4 0.473098 0.770169 0.936649
Si Si5 0.026061 0.721987 0.622301
Si Si6 0.540537 0.918221 0.628180
O O1 0.028056 0.213309 0.833353
O O2 0.308757 0.098425 0.831727
O O3 0.000000 0.124008 0.750000
O O4 0.807467 0.088640 0.842052
O O5 0.387297 0.442088 0.207495
O O6 0.058557 0.355855 0.150937
O O7 0.000000 0.500000 0.173586
O O8 0.000000 0.404368 0.250000
O O9 0.734419 0.737099 0.915257
O O10 0.465825 0.854490 0.916093
O O11 0.234210 0.730565 0.909507
O O12 0.457737 0.766204 0.000000
O O13 0.500000 0.000000 0.606757
#
# Coordination Sequence:
#
# PCOD9393616 Si02
#       6
#     8   2   8   8   8   8
#     4  10  20  34  50  79 111 144 176 209 260 327
#     4   8  18  32  52  86 118 144 180 208 262 320
#     4   9  19  33  54  86 117 147 177 211 260 320
#     4  10  22  39  58  78 102 138 186 234 279 314
#     4  10  21  36  58  80 108 143 181 224 266 320
#     4  10  21  35  53  78 105 138 180 222 270 323
#
# _framework density 17.242609000000002
#
# number of rings (size 3 to 8) (size 9 to 14) (size 15 to 20)
#    0.000    2.476    0.000    2.286    5.333    2.667 
#    3.429    0.000    0.000   10.286    0.000    0.000 
#    0.000    0.000    0.000    0.000    0.000    0.000 
#
# Total GULP energy -233923.886407 kJ/mol
# GULP energy per Si atom -5569.616343 kJ/mol
# Density = 1.720336 g / cm^3
# Si number density = 17.242609 Si / 1000 Ang^3
#
#
#
# Elastic Constant Matrix: (Units=GPa)
#
#
# Indices 1 2 3 4 5 6 
#
# 1 94.3189 37.9226 20.4348 0.0000 0.0000 0.0000
# 2 37.9226 131.8078 61.1073 0.0000 0.0000 0.0000
# 3 20.4348 61.1073 75.8618 0.0000 0.0000 0.0000
# 4 0.0000 0.0000 0.0000 5.5887 0.0000 0.0000
# 5 0.0000 0.0000 0.0000 0.0000 24.7902 0.0000
# 6 0.0000 0.0000 0.0000 0.0000 0.0000 25.9371
#
#
#
# Elastic Compliance Matrix: (Units=1/GPa)
#
#
# Indices 1 2 3 4 5 6 
#
# 1 0.012014 -0.003122 -0.000721 0.000000 0.000000 0.000000
# 2 -0.003122 0.012920 -0.009566 0.000000 0.000000 0.000000
# 3 -0.000721 -0.009566 0.021082 0.000000 0.000000 0.000000
# 4 0.000000 0.000000 0.000000 0.178932 0.000000 0.000000
# 5 0.000000 0.000000 0.000000 0.000000 0.040339 0.000000
# 6 0.000000 0.000000 0.000000 0.000000 0.000000 0.038555
#
#
# Mechanical properties :
#
#
# Convention : Reuss Voigt Hill
#
# Bulk Modulus (GPa) = 52.09267 60.10199 56.09733
# Shear Modulus (GPa) = 14.83418 23.43145 19.13281
#
# Velocity S-wave (km/s) = 2.93630 3.69036 3.33472
# Velocity P-wave (km/s) = 6.46321 7.28634 6.88708
#
# Compressibility (1/GPa) = 0.01919656
#
# Stress axis : x y z
#
# Youngs Moduli (GPa) = 83.23681 77.39901 47.43427
#
# Poissons Ratio (x) = 0.24165 0.03421
# Poissons Ratio (y) = 0.25988 0.45377
# Poissons Ratio (z) = 0.06003 0.74041
#
# Static dielectric constant tensor:
#      x y z
#    x 1.612540 0.000000 0.000000 
#    y 0.000000 1.570650 0.000000 
#    z 0.000000 0.000000 1.531070 
# 
# From -- ./inp_files/21796.got.cif
#   From: 2010.05.17/outbox.cif.g08.bks.cpg/sg49_11_cif.got.tgz:21796.got - 2010.06.03 21:02:19.
