data_PCOD9393922
_publ_section_title
;
Structure prediction by ZEFSAII (Michael W. Deem and Ramdas Pophale) SiO2 
 PCOD9393922
Probable space group: P C C M
;
_chemical_formula_sum "Si O2"
_cell_formula_units_Z 54
_cell_length_a 5.404661
_cell_length_b 29.338327
_cell_length_c 14.604951
_cell_angle_alpha 90.000000
_cell_angle_beta 90.000000
_cell_angle_gamma 90.000000
_cell_volume 2315.815240
_symmetry_space_group_name_H-M "P C C M"
_symmetry_group_IT_number 49
_symmetry_cell_setting 'orthorhombic'
loop_
_space_group_symop_operation_xyz
x,y,z
-x,-y,z
x,-y,1/2-z
-x,y,1/2-z
-x,-y,-z
x,y,-z
-x,y,1/2+z
x,-y,1/2+z
loop_
_atom_site_type_symbol
_atom_site_label
_atom_site_fract_x
_atom_site_fract_y
_atom_site_fract_z
Si Si1 0.757594 0.931069 0.113028
Si Si2 0.509962 0.447371 0.638566
Si Si3 0.985241 0.603648 0.639411
Si Si4 0.739419 0.117183 0.894889
Si Si5 0.500000 0.000000 0.750000
Si Si6 0.128443 0.781954 0.153632
Si Si7 0.833582 0.303969 0.403617
Si Si8 0.500000 0.718659 0.250000
O O1 0.538215 0.894608 0.136142
O O2 0.025236 0.911212 0.141134
O O3 0.674474 0.972328 0.178490
O O4 0.757904 0.939816 0.000000
O O5 0.500000 0.500000 0.609923
O O6 0.500000 0.447144 0.750000
O O7 0.259425 0.422543 0.609562
O O8 0.760211 0.421303 0.609846
O O9 0.000000 0.603995 0.750000
O O10 0.972642 0.655220 0.602964
O O11 0.799264 0.170531 0.889794
O O12 0.734377 0.103269 0.000000
O O13 0.363855 0.751651 0.179078
O O14 0.000000 0.793251 0.250000
O O15 0.950224 0.746432 0.102839
O O16 0.696203 0.307789 0.500000
O O17 0.678776 0.310622 0.311688
#
# Coordination Sequence:
#
# PCOD9393922 Si02
#       8
#     8   8   8   8   2   8   8   4
#     4  10  25  44  66 100 135 173 225 277 336 406
#     4   9  18  33  58  91 125 168 218 276 345 410
#     4  10  20  35  61  90 128 170 218 286 335 403
#     4  10  23  43  66  96 138 177 217 275 334 400
#     4  12  26  44  76  96 132 182 222 284 344 400
#     4  10  23  40  65  93 133 173 225 279 336 403
#     4  11  25  42  64  96 135 183 233 280 349 416
#     4  10  24  43  64  98 135 181 230 293 334 404
#
# _framework density 23.317921999999999
#
# number of rings (size 3 to 8) (size 9 to 14) (size 15 to 20)
#    0.000    1.926    0.000    2.444   11.407    4.148 
#    0.000    2.222    0.000    2.667    0.000    0.000 
#    0.000    0.000    0.000    0.000    0.000    0.000 
#
# Total GULP energy -301651.678856 kJ/mol
# GULP energy per Si atom -5586.142201 kJ/mol
# Density = 2.326485 g / cm^3
# Si number density = 23.317922 Si / 1000 Ang^3
#
#
#
# Elastic Constant Matrix: (Units=GPa)
#
#
# Indices 1 2 3 4 5 6 
#
# 1 78.5143 -1.3419 -0.7159 0.0000 0.0000 0.0000
# 2 -1.3419 55.5714 11.7025 0.0000 0.0000 0.0000
# 3 -0.7159 11.7025 88.5176 0.0000 0.0000 0.0000
# 4 0.0000 0.0000 0.0000 164.6250 0.0000 0.0000
# 5 0.0000 0.0000 0.0000 0.0000 23.0304 0.0000
# 6 0.0000 0.0000 0.0000 0.0000 0.0000 23.4326
#
#
#
# Elastic Compliance Matrix: (Units=1/GPa)
#
#
# Indices 1 2 3 4 5 6 
#
# 1 0.012742 0.000294 0.000064 0.000000 0.000000 0.000000
# 2 0.000294 0.018517 -0.002446 0.000000 0.000000 0.000000
# 3 0.000064 -0.002446 0.011621 0.000000 0.000000 0.000000
# 4 0.000000 0.000000 0.000000 0.006074 0.000000 0.000000
# 5 0.000000 0.000000 0.000000 0.000000 0.043421 0.000000
# 6 0.000000 0.000000 0.000000 0.000000 0.000000 0.042676
#
#
# Mechanical properties :
#
#
# Convention : Reuss Voigt Hill
#
# Bulk Modulus (GPa) = 25.83613 26.87700 26.35657
# Shear Modulus (GPa) = 32.86715 56.41484 44.64099
#
# Velocity S-wave (km/s) = 3.75843 4.92405 4.38019
# Velocity P-wave (km/s) = 5.47160 6.62418 6.07528
#
# Compressibility (1/GPa) = 0.03870548
#
# Stress axis : x y z
#
# Youngs Moduli (GPa) = 78.47967 54.00446 86.05086
#
# Poissons Ratio (x) = -0.01589 -0.00552
# Poissons Ratio (y) = -0.02309 0.21045
# Poissons Ratio (z) = -0.00503 0.13208
#
# Static dielectric constant tensor:
#      x y z
#    x 2.072940 0.000000 0.000000 
#    y 0.000000 1.829730 0.000000 
#    z 0.000000 0.000000 1.912650 
# 
# From -- ./inp_files/10784.got.cif
#   From: 2010.05.17/outbox.cif.g08.bks.cpg/sg49_6_cif.got.tgz:10784.got - 2010.06.03 21:02:19.
