data_PCOD9393482
_publ_section_title
;
Structure prediction by ZEFSAII (Michael W. Deem and Ramdas Pophale) SiO2 
 PCOD9393482
Probable space group: P C C M
;
_chemical_formula_sum "Si O2"
_cell_formula_units_Z 52
_cell_length_a 8.011883
_cell_length_b 18.009121
_cell_length_c 13.952974
_cell_angle_alpha 90.000000
_cell_angle_beta 90.000000
_cell_angle_gamma 90.000000
_cell_volume 2013.232346
_symmetry_space_group_name_H-M "P C C M"
_symmetry_group_IT_number 49
_symmetry_cell_setting 'orthorhombic'
loop_
_space_group_symop_operation_xyz
x,y,z
-x,-y,z
x,-y,1/2-z
-x,y,1/2-z
-x,-y,-z
x,y,-z
-x,y,1/2+z
x,-y,1/2+z
loop_
_atom_site_type_symbol
_atom_site_label
_atom_site_fract_x
_atom_site_fract_y
_atom_site_fract_z
Si Si1 0.289073 0.184582 0.117200
Si Si2 0.798431 0.700569 0.613904
Si Si3 0.848873 0.541891 0.648904
Si Si4 0.585176 0.338481 0.614240
Si Si5 0.930840 0.138409 0.116524
Si Si6 0.586578 0.076626 0.116536
Si Si7 0.500000 0.500000 0.130689
O O1 0.293769 0.271713 0.146799
O O2 0.458420 0.142054 0.144827
O O3 0.124161 0.138864 0.147399
O O4 0.288042 0.187312 0.000000
O O5 0.831580 0.693917 0.500000
O O6 0.879946 0.628596 0.660470
O O7 0.599373 0.695548 0.626446
O O8 0.866531 0.779676 0.642915
O O9 0.830994 0.500000 0.750000
O O10 0.672627 0.534404 0.596111
O O11 0.000000 0.500000 0.600289
O O12 0.613156 0.352919 0.500000
O O13 0.581585 0.419447 0.663145
O O14 0.779045 0.085228 0.147884
O O15 0.936287 0.132111 0.000000
O O16 0.500000 0.000000 0.143668
O O17 0.591364 0.079162 0.000000
#
# Coordination Sequence:
#
# PCOD9393482 Si02
#       7
#     8   8   8   8   8   8   4
#     4   9  16  25  39  58  86 122 157 199 249 292
#     4   9  17  31  50  70  93 125 168 214 253 298
#     4  10  22  37  50  68  97 130 164 201 260 304
#     4   9  16  28  44  66  95 121 155 209 258 290
#     4   9  16  26  41  62  88 119 160 206 248 290
#     4   9  16  26  39  57  88 128 165 198 240 298
#     4  10  20  32  50  68  87 124 167 200 243 304
#
# _framework density 25.829111999999999
#
# number of rings (size 3 to 8) (size 9 to 14) (size 15 to 20)
#    0.000    2.769    1.538    0.462    2.154    1.538 
#    0.000    3.077    0.000    0.000    0.000    0.000 
#    0.000    0.000    0.000    2.769    3.077    1.538 
#
# Total GULP energy -290124.113312 kJ/mol
# GULP energy per Si atom -5579.309871 kJ/mol
# Density = 2.577032 g / cm^3
# Si number density = 25.829112 Si / 1000 Ang^3
#
#
#
# Elastic Constant Matrix: (Units=GPa)
#
#
# Indices 1 2 3 4 5 6 
#
# 1 137.5390 28.6938 27.5937 0.0000 0.0000 0.0000
# 2 28.6938 129.8305 21.2466 0.0000 0.0000 0.0000
# 3 27.5937 21.2466 103.5673 0.0000 0.0000 0.0000
# 4 0.0000 0.0000 0.0000 -6.8542 0.0000 0.0000
# 5 0.0000 0.0000 0.0000 0.0000 2.9013 0.0000
# 6 0.0000 0.0000 0.0000 0.0000 0.0000 43.9369
#
#
#
# Elastic Compliance Matrix: (Units=1/GPa)
#
#
# Indices 1 2 3 4 5 6 
#
# 1 0.007939 -0.001457 -0.001816 0.000000 0.000000 0.000000
# 2 -0.001457 0.008237 -0.001302 0.000000 0.000000 0.000000
# 3 -0.001816 -0.001302 0.010406 0.000000 0.000000 0.000000
# 4 0.000000 0.000000 0.000000 -0.145896 0.000000 0.000000
# 5 0.000000 0.000000 0.000000 0.000000 0.344675 0.000000
# 6 0.000000 0.000000 0.000000 0.000000 0.000000 0.022760
#
#
# Mechanical properties :
#
#
# Convention : Reuss Voigt Hill
#
# Bulk Modulus (GPa) = 57.36396 58.44501 57.90449
# Shear Modulus (GPa) = 19.00543 27.55700 23.28122
#
# Velocity S-wave (km/s) = 2.71553 3.26988 3.00552
# Velocity P-wave (km/s) = 5.66475 6.07724 5.87462
#
# Compressibility (1/GPa) = 0.01743255
#
# Stress axis : x y z
#
# Youngs Moduli (GPa) = 125.95899 121.39682 96.09396
#
# Poissons Ratio (x) = 0.17692 0.17453
# Poissons Ratio (y) = 0.18357 0.12508
# Poissons Ratio (z) = 0.22877 0.15801
#
# Static dielectric constant tensor:
#      x y z
#    x 1.928180 0.000000 0.000000 
#    y 0.000000 1.986060 0.000000 
#    z 0.000000 0.000000 2.188990 
# 
# From -- ./inp_files/16462.got.cif
#   From: 2010.05.17/outbox.cif.g08.bks.cpg/sg49_9_cif.got.tgz:16462.got - 2010.06.03 21:02:19.
