data_PCOD9393352
_publ_section_title
;
Structure prediction by ZEFSAII (Michael W. Deem and Ramdas Pophale) SiO2 
 PCOD9393352
Probable space group: P C C M
;
_chemical_formula_sum "Si O2"
_cell_formula_units_Z 64
_cell_length_a 23.895548
_cell_length_b 9.250515
_cell_length_c 14.979911
_cell_angle_alpha 90.000000
_cell_angle_beta 90.000000
_cell_angle_gamma 90.000000
_cell_volume 3311.251282
_symmetry_space_group_name_H-M "P C C M"
_symmetry_group_IT_number 49
_symmetry_cell_setting 'orthorhombic'
loop_
_space_group_symop_operation_xyz
x,y,z
-x,-y,z
x,-y,1/2-z
-x,y,1/2-z
-x,-y,-z
x,y,-z
-x,y,1/2+z
x,-y,1/2+z
loop_
_atom_site_type_symbol
_atom_site_label
_atom_site_fract_x
_atom_site_fract_y
_atom_site_fract_z
Si Si1 0.563639 0.327448 0.394385
Si Si2 0.148597 0.717072 0.106544
Si Si3 0.229648 0.173986 0.750058
Si Si4 0.161475 0.368298 0.892927
Si Si5 0.971038 0.156730 0.158771
Si Si6 0.638041 0.171560 0.250798
Si Si7 0.565251 0.671082 0.605667
Si Si8 0.040035 0.615043 0.402653
O O1 0.570970 0.302830 0.500000
O O2 0.606854 0.239611 0.335658
O O3 0.499151 0.290400 0.371593
O O4 0.570826 0.499063 0.378204
O O5 0.202363 0.777898 0.157042
O O6 0.155543 0.542820 0.121560
O O7 0.094524 0.801546 0.149675
O O8 0.147229 0.741242 0.000000
O O9 0.201130 0.271495 0.829221
O O10 0.295889 0.201343 0.753085
O O11 0.220407 0.000000 0.750000
O O12 0.098099 0.326036 0.866711
O O13 0.172524 0.343815 0.000000
O O14 0.000000 0.211828 0.250000
O O15 0.999890 0.252424 0.085723
O O16 0.000000 0.000000 0.149860
O O17 0.608646 0.242303 0.164984
O O18 0.630013 0.000000 0.250000
O O19 0.572900 0.695605 0.500000
O O20 0.055353 0.548796 0.500000
O O21 0.000000 0.500000 0.355181
#
# Coordination Sequence:
#
# PCOD9393352 Si02
#       8
#     8   8   8   8   8   8   8   8
#     4   9  19  37  63  96 129 163 206 258 311 370
#     4  11  24  43  65  91 122 158 208 262 310 370
#     4  11  27  45  61  85 124 168 218 264 315 376
#     4  10  22  42  67  91 118 156 203 259 320 377
#     4  11  24  37  57  90 124 155 191 240 302 374
#     4  11  24  40  58  87 126 170 212 261 313 376
#     4   9  19  37  63  95 129 163 206 259 313 367
#     4  10  19  36  59  84 113 141 180 237 301 368
#
# _framework density 19.328040999999999
#
# number of rings (size 3 to 8) (size 9 to 14) (size 15 to 20)
#    0.000    1.750    1.250    3.000    3.500    7.250 
#    0.000    6.250    0.000    0.000    0.000    0.000 
#    0.000    0.000    0.000    0.000    0.000    0.000 
#
# Total GULP energy -356330.784232 kJ/mol
# GULP energy per Si atom -5567.668504 kJ/mol
# Density = 1.928405 g / cm^3
# Si number density = 19.328041 Si / 1000 Ang^3
#
#
#
# Elastic Constant Matrix: (Units=GPa)
#
#
# Indices 1 2 3 4 5 6 
#
# 1 156.3110 76.6756 70.1395 0.0000 0.0000 0.0000
# 2 76.6756 87.9876 55.6065 0.0000 0.0000 0.0000
# 3 70.1395 55.6065 105.9436 0.0000 0.0000 0.0000
# 4 0.0000 0.0000 0.0000 323.0379 0.0000 0.0000
# 5 0.0000 0.0000 0.0000 0.0000 75.1462 0.0000
# 6 0.0000 0.0000 0.0000 0.0000 0.0000 37.3653
#
#
#
# Elastic Compliance Matrix: (Units=1/GPa)
#
#
# Indices 1 2 3 4 5 6 
#
# 1 0.012070 -0.008182 -0.003696 0.000000 0.000000 0.000000
# 2 -0.008182 0.022553 -0.006420 0.000000 0.000000 0.000000
# 3 -0.003696 -0.006420 0.015256 0.000000 0.000000 0.000000
# 4 0.000000 0.000000 0.000000 0.003096 0.000000 0.000000
# 5 0.000000 0.000000 0.000000 0.000000 0.013307 0.000000
# 6 0.000000 0.000000 0.000000 0.000000 0.000000 0.026763
#
#
# Mechanical properties :
#
#
# Convention : Reuss Voigt Hill
#
# Bulk Modulus (GPa) = 75.29437 83.89839 79.59638
# Shear Modulus (GPa) = 37.29439 96.96459 67.12949
#
# Velocity S-wave (km/s) = 4.39743 7.09061 5.89975
# Velocity P-wave (km/s) = 8.05132 10.51368 9.36379
#
# Compressibility (1/GPa) = 0.01328121
#
# Stress axis : x y z
#
# Youngs Moduli (GPa) = 82.85314 44.34015 65.54836
#
# Poissons Ratio (x) = 0.36279 0.24228
# Poissons Ratio (y) = 0.67790 0.42085
# Poissons Ratio (z) = 0.30624 0.28469
#
# Static dielectric constant tensor:
#      x y z
#    x 1.679950 0.000000 0.000000 
#    y 0.000000 1.569640 0.000000 
#    z 0.000000 0.000000 1.973570 
# 
# From -- ./inp_files/14564.got.cif
#   From: 2010.05.17/outbox.cif.g08.bks.cpg/sg49_8_cif.got.tgz:14564.got - 2010.06.03 21:02:19.
