data_PCOD9393495
_publ_section_title
;
Structure prediction by ZEFSAII (Michael W. Deem and Ramdas Pophale) SiO2 
 PCOD9393495
Probable space group: P C C M
;
_chemical_formula_sum "Si O2"
_cell_formula_units_Z 40
_cell_length_a 7.407135
_cell_length_b 25.861806
_cell_length_c 9.628079
_cell_angle_alpha 90.000000
_cell_angle_beta 90.000000
_cell_angle_gamma 90.000000
_cell_volume 1844.372995
_symmetry_space_group_name_H-M "P C C M"
_symmetry_group_IT_number 49
_symmetry_cell_setting 'orthorhombic'
loop_
_space_group_symop_operation_xyz
x,y,z
-x,-y,z
x,-y,1/2-z
-x,y,1/2-z
-x,-y,-z
x,y,-z
-x,y,1/2+z
x,-y,1/2+z
loop_
_atom_site_type_symbol
_atom_site_label
_atom_site_fract_x
_atom_site_fract_y
_atom_site_fract_z
Si Si1 0.783496 0.661056 0.728852
Si Si2 0.000000 0.125387 0.750000
Si Si3 0.673625 0.053559 0.834288
Si Si4 0.686920 0.714094 0.000000
Si Si5 0.039488 0.195215 0.000000
Si Si6 0.305234 0.745047 0.000000
Si Si7 0.190732 0.453159 0.664956
O O1 0.740881 0.708252 0.628441
O O2 0.728321 0.604289 0.676898
O O3 0.000000 0.660778 0.750000
O O4 0.687502 0.676290 0.870132
O O5 0.846356 0.089903 0.817080
O O6 0.913628 0.162482 0.634777
O O7 0.500000 0.075334 0.750000
O O8 0.709831 0.000000 0.750000
O O9 0.639598 0.045801 0.000000
O O10 0.864579 0.749421 0.000000
O O11 0.518528 0.752895 0.000000
O O12 0.824351 0.205989 0.000000
O O13 0.283244 0.500000 0.750000
O O14 0.169718 0.464640 0.500000
O O15 0.000000 0.448568 0.750000
#
# Coordination Sequence:
#
# PCOD9393495 Si02
#       7
#     8   4   8   4   4   4   8
#     4  11  21  40  67  95 129 169 218 280 336 406
#     4  12  27  44  74 100 150 186 235 290 350 410
#     4  11  25  45  76 112 149 193 239 286 341 407
#     4  12  26  42  73  92 127 179 227 286 339 402
#     4  12  26  46  67 104 135 182 236 294 346 402
#     4  12  24  46  67  96 129 171 233 278 341 404
#     4  10  20  32  57  94 130 164 210 264 333 412
#
# _framework density 21.687584999999999
#
# number of rings (size 3 to 8) (size 9 to 14) (size 15 to 20)
#    0.000    0.800    4.000    4.500    8.400    2.400 
#    0.000    0.000    0.000    3.600    0.000    0.000 
#    0.000    0.000    0.000    0.000    0.000    0.000 
#
# Total GULP energy -223431.713351 kJ/mol
# GULP energy per Si atom -5585.792834 kJ/mol
# Density = 2.163822 g / cm^3
# Si number density = 21.687585 Si / 1000 Ang^3
#
#
#
# Elastic Constant Matrix: (Units=GPa)
#
#
# Indices 1 2 3 4 5 6 
#
# 1 71.7956 12.0195 8.7507 0.0000 0.0000 0.0000
# 2 12.0195 62.8699 35.7761 0.0000 0.0000 0.0000
# 3 8.7507 35.7761 194.0812 0.0000 0.0000 0.0000
# 4 0.0000 0.0000 0.0000 39.2534 0.0000 0.0000
# 5 0.0000 0.0000 0.0000 0.0000 29.4672 0.0000
# 6 0.0000 0.0000 0.0000 0.0000 0.0000 -0.0672
#
#
#
# Elastic Compliance Matrix: (Units=1/GPa)
#
#
# Indices 1 2 3 4 5 6 
#
# 1 0.014393 -0.002662 -0.000158 0.000000 0.000000 0.000000
# 2 -0.002662 0.018262 -0.003246 0.000000 0.000000 0.000000
# 3 -0.000158 -0.003246 0.005758 0.000000 0.000000 0.000000
# 4 0.000000 0.000000 0.000000 0.025475 0.000000 0.000000
# 5 0.000000 0.000000 0.000000 0.000000 0.033936 0.000000
# 6 0.000000 0.000000 0.000000 0.000000 0.000000-14.875268
#
#
# Mechanical properties :
#
#
# Convention : Reuss Voigt Hill
#
# Bulk Modulus (GPa) = 38.05061 49.09326 43.57193
# Shear Modulus (GPa) = -0.33883 31.87737 15.76927
#
# Velocity S-wave (km/s) = -0.39569 3.83801 2.69942
# Velocity P-wave (km/s) = 4.16824 6.50586 5.46353
#
# Compressibility (1/GPa) = 0.02628079
#
# Stress axis : x y z
#
# Youngs Moduli (GPa) = 69.47670 54.75843 173.67035
#
# Poissons Ratio (x) = 0.14575 0.02750
# Poissons Ratio (y) = 0.18492 0.56379
# Poissons Ratio (z) = 0.01100 0.17776
#
# Static dielectric constant tensor:
#      x y z
#    x 1.830160 0.000000 0.000000 
#    y 0.000000 1.757630 0.000000 
#    z 0.000000 0.000000 1.719410 
# 
# From -- ./inp_files/1824.got.cif
#   From: 2010.05.17/outbox.cif.g08.bks.cpg/sg49_1_cif.got.tgz:1824.got - 2010.06.03 21:02:19.
