data_PCOD9393280
_publ_section_title
;
Structure prediction by ZEFSAII (Michael W. Deem and Ramdas Pophale) SiO2 
 PCOD9393280
Probable space group: P C C M
;
_chemical_formula_sum "Si O2"
_cell_formula_units_Z 58
_cell_length_a 19.679735
_cell_length_b 19.811497
_cell_length_c 8.766753
_cell_angle_alpha 90.000000
_cell_angle_beta 90.000000
_cell_angle_gamma 90.000000
_cell_volume 3418.025589
_symmetry_space_group_name_H-M "P C C M"
_symmetry_group_IT_number 49
_symmetry_cell_setting 'orthorhombic'
loop_
_space_group_symop_operation_xyz
x,y,z
-x,-y,z
x,-y,1/2-z
-x,y,1/2-z
-x,-y,-z
x,y,-z
-x,y,1/2+z
x,-y,1/2+z
loop_
_atom_site_type_symbol
_atom_site_label
_atom_site_fract_x
_atom_site_fract_y
_atom_site_fract_z
Si Si1 0.500000 0.500000 0.750000
Si Si2 0.074713 0.816894 0.182063
Si Si3 0.616050 0.608570 0.683849
Si Si4 0.707721 0.178501 0.682663
Si Si5 0.763398 0.428003 0.683247
Si Si6 0.811420 0.074546 0.183118
Si Si7 0.425745 0.237504 0.317568
Si Si8 0.176790 0.713016 0.683041
O O1 0.559127 0.558485 0.746324
O O2 0.123279 0.879704 0.226841
O O3 0.113561 0.750232 0.240464
O O4 0.000000 0.822810 0.250000
O O5 0.070882 0.815352 0.000000
O O6 0.618221 0.601161 0.500000
O O7 0.688527 0.589268 0.753549
O O8 0.595617 0.685350 0.720885
O O9 0.704871 0.173792 0.500000
O O10 0.746277 0.114080 0.751248
O O11 0.633432 0.190820 0.749909
O O12 0.756069 0.242791 0.722605
O O13 0.784972 0.500000 0.750000
O O14 0.760302 0.431606 0.500000
O O15 0.810588 0.364448 0.726599
O O16 0.816542 0.000000 0.250000
O O17 0.807619 0.072393 0.000000
O O18 0.500000 0.223765 0.250000
O O19 0.427570 0.231612 0.500000
O O20 0.169119 0.716542 0.500000
#
# Coordination Sequence:
#
# PCOD9393280 Si02
#       8
#     2   8   8   8   8   8   8   8
#     4  12  22  36  48  70 102 148 186 224 290 348
#     4  10  21  36  58  87 119 152 186 221 263 317
#     4  11  23  34  48  69  99 138 181 229 279 337
#     4  10  19  35  57  80 107 144 186 233 279 328
#     4  11  22  35  52  75 103 137 181 231 283 334
#     4  10  21  37  58  88 120 154 187 221 263 317
#     4  11  22  35  51  75 104 139 184 235 285 335
#     4   9  19  35  55  78 107 143 184 229 276 329
#
# _framework density 16.968859999999999
#
# number of rings (size 3 to 8) (size 9 to 14) (size 15 to 20)
#    0.000    1.655    2.759    2.276    0.000    4.690 
#    0.000    1.379    0.000    0.828    0.000    5.793 
#    0.000    0.000    0.000    0.000    0.000    0.000 
#
# Total GULP energy -323389.751445 kJ/mol
# GULP energy per Si atom -5575.685370 kJ/mol
# Density = 1.693024 g / cm^3
# Si number density = 16.968860 Si / 1000 Ang^3
#
#
#
# Elastic Constant Matrix: (Units=GPa)
#
#
# Indices 1 2 3 4 5 6 
#
# 1 129.7446 91.6217 51.3611 0.0000 0.0000 0.0000
# 2 91.6217 147.9611 53.6268 0.0000 0.0000 0.0000
# 3 51.3611 53.6268 52.4247 0.0000 0.0000 0.0000
# 4 0.0000 0.0000 0.0000 21.9006 0.0000 0.0000
# 5 0.0000 0.0000 0.0000 0.0000 5.4526 0.0000
# 6 0.0000 0.0000 0.0000 0.0000 0.0000 17.5498
#
#
#
# Elastic Compliance Matrix: (Units=1/GPa)
#
#
# Indices 1 2 3 4 5 6 
#
# 1 0.015868 -0.006661 -0.008732 0.000000 0.000000 0.000000
# 2 -0.006661 0.013537 -0.007321 0.000000 0.000000 0.000000
# 3 -0.008732 -0.007321 0.035119 0.000000 0.000000 0.000000
# 4 0.000000 0.000000 0.000000 0.045661 0.000000 0.000000
# 5 0.000000 0.000000 0.000000 0.000000 0.183398 0.000000
# 6 0.000000 0.000000 0.000000 0.000000 0.000000 0.056981
#
#
# Mechanical properties :
#
#
# Convention : Reuss Voigt Hill
#
# Bulk Modulus (GPa) = 52.37018 80.37218 66.37118
# Shear Modulus (GPa) = 12.42672 17.88197 15.15435
#
# Velocity S-wave (km/s) = 2.70909 3.24977 2.99167
# Velocity P-wave (km/s) = 6.38083 7.84530 7.15065
#
# Compressibility (1/GPa) = 0.01909484
#
# Stress axis : x y z
#
# Youngs Moduli (GPa) = 63.01954 73.87311 28.47428
#
# Poissons Ratio (x) = 0.49207 0.24865
# Poissons Ratio (y) = 0.41977 0.20847
# Poissons Ratio (z) = 0.55031 0.54084
#
# Static dielectric constant tensor:
#      x y z
#    x 1.541380 0.000000 0.000000 
#    y 0.000000 1.211010 0.000000 
#    z 0.000000 0.000000 1.574780 
# 
# From -- ./inp_files/5121.got.cif
#   From: 2010.05.17/outbox.cif.g08.bks.cpg/sg49_3_cif.got.tgz:5121.got - 2010.06.03 21:02:19.
