data_PCOD9393392
_publ_section_title
;
Structure prediction by ZEFSAII (Michael W. Deem and Ramdas Pophale) SiO2 
 PCOD9393392
Probable space group: P C C M
;
_chemical_formula_sum "Si O2"
_cell_formula_units_Z 40
_cell_length_a 14.090210
_cell_length_b 8.510671
_cell_length_c 15.583384
_cell_angle_alpha 90.000000
_cell_angle_beta 90.000000
_cell_angle_gamma 90.000000
_cell_volume 1868.714866
_symmetry_space_group_name_H-M "P C C M"
_symmetry_group_IT_number 49
_symmetry_cell_setting 'orthorhombic'
loop_
_space_group_symop_operation_xyz
x,y,z
-x,-y,z
x,-y,1/2-z
-x,y,1/2-z
-x,-y,-z
x,y,-z
-x,y,1/2+z
x,-y,1/2+z
loop_
_atom_site_type_symbol
_atom_site_label
_atom_site_fract_x
_atom_site_fract_y
_atom_site_fract_z
Si Si1 0.232196 0.739570 0.095953
Si Si2 0.108625 0.690290 0.743855
Si Si3 0.405093 0.916178 0.160341
Si Si4 0.742054 0.362898 0.400082
Si Si5 0.473488 0.680072 0.598500
O O1 0.160851 0.760990 0.173904
O O2 0.313282 0.872311 0.106052
O O3 0.264124 0.554925 0.106689
O O4 0.191996 0.749210 0.000000
O O5 0.104895 0.500000 0.750000
O O6 0.176760 0.709033 0.660856
O O7 0.000000 0.745497 0.750000
O O8 0.453362 0.746708 0.167265
O O9 0.500000 0.000000 0.122346
O O10 0.383722 0.000000 0.250000
O O11 0.761849 0.329834 0.500000
O O12 0.637183 0.297390 0.379466
O O13 0.500000 0.500000 0.593163
O O14 0.489216 0.738873 0.500000
#
# Coordination Sequence:
#
# PCOD9393392 Si02
#       5
#     8   8   8   8   8
#     4  10  20  38  61  86 121 167 211 251 310 381
#     4   9  19  34  57  93 129 157 199 267 331 379
#     4  11  25  38  54  89 129 167 209 255 319 376
#     4   9  18  33  61  93 122 159 205 261 317 375
#     4  10  19  37  64  90 119 160 212 264 315 381
#
# _framework density 21.405083999999999
#
# number of rings (size 3 to 8) (size 9 to 14) (size 15 to 20)
#    0.000    2.200    2.000    0.600    5.600    2.400 
#    0.000    6.000    0.000    0.600    0.000    1.400 
#    0.000    0.000    0.000    0.000    0.000    0.000 
#
# Total GULP energy -222776.424678 kJ/mol
# GULP energy per Si atom -5569.410617 kJ/mol
# Density = 2.135636 g / cm^3
# Si number density = 21.405084 Si / 1000 Ang^3
#
#
#
# Elastic Constant Matrix: (Units=GPa)
#
#
# Indices 1 2 3 4 5 6 
#
# 1 131.4770 -2.2396 78.7192 0.0000 0.0000 0.0000
# 2 -2.2396 23.5817 29.8853 0.0000 0.0000 0.0000
# 3 78.7192 29.8853 142.6205 0.0000 0.0000 0.0000
# 4 0.0000 0.0000 0.0000 32.3419 0.0000 0.0000
# 5 0.0000 0.0000 0.0000 0.0000 10.6917 0.0000
# 6 0.0000 0.0000 0.0000 0.0000 0.0000 17.4372
#
#
#
# Elastic Compliance Matrix: (Units=1/GPa)
#
#
# Indices 1 2 3 4 5 6 
#
# 1 0.014757 0.015963 -0.011490 0.000000 0.000000 0.000000
# 2 0.015963 0.075006 -0.024528 0.000000 0.000000 0.000000
# 3 -0.011490 -0.024528 0.018493 0.000000 0.000000 0.000000
# 4 0.000000 0.000000 0.000000 0.030920 0.000000 0.000000
# 5 0.000000 0.000000 0.000000 0.000000 0.093531 0.000000
# 6 0.000000 0.000000 0.000000 0.000000 0.000000 0.057349
#
#
# Mechanical properties :
#
#
# Convention : Reuss Voigt Hill
#
# Bulk Modulus (GPa) = 14.67414 56.71211 35.69312
# Shear Modulus (GPa) = 14.16903 24.84844 19.50874
#
# Velocity S-wave (km/s) = 2.57562 3.41085 3.02223
# Velocity P-wave (km/s) = 3.96427 6.48568 5.37492
#
# Compressibility (1/GPa) = 0.06814710
#
# Stress axis : x y z
#
# Youngs Moduli (GPa) = 67.76246 13.33218 54.07328
#
# Poissons Ratio (x) = -0.21283 0.62132
# Poissons Ratio (y) = -1.08172 1.32632
# Poissons Ratio (z) = 0.77862 0.32701
#
# Static dielectric constant tensor:
#      x y z
#    x 1.813500 0.000000 0.000000 
#    y 0.000000 2.122420 0.000000 
#    z 0.000000 0.000000 1.796360 
# 
# From -- ./inp_files/13342.got.cif
#   From: 2010.05.17/outbox.cif.g08.bks.cpg/sg49_7_cif.got.tgz:13342.got - 2010.06.03 21:02:19.
