data_PCOD9393521
_publ_section_title
;
Structure prediction by ZEFSAII (Michael W. Deem and Ramdas Pophale) SiO2 
 PCOD9393521
Probable space group: P C C M
;
_chemical_formula_sum "Si O2"
_cell_formula_units_Z 64
_cell_length_a 21.137742
_cell_length_b 17.844351
_cell_length_c 9.017803
_cell_angle_alpha 90.000000
_cell_angle_beta 90.000000
_cell_angle_gamma 90.000000
_cell_volume 3401.418689
_symmetry_space_group_name_H-M "P C C M"
_symmetry_group_IT_number 49
_symmetry_cell_setting 'orthorhombic'
loop_
_space_group_symop_operation_xyz
x,y,z
-x,-y,z
x,-y,1/2-z
-x,y,1/2-z
-x,-y,-z
x,y,-z
-x,y,1/2+z
x,-y,1/2+z
loop_
_atom_site_type_symbol
_atom_site_label
_atom_site_fract_x
_atom_site_fract_y
_atom_site_fract_z
Si Si1 0.066526 0.618679 0.678557
Si Si2 0.437325 0.762374 0.323821
Si Si3 0.587636 0.077862 0.829437
Si Si4 0.267392 0.122104 0.331426
Si Si5 0.294973 0.278682 0.177834
Si Si6 0.064335 0.206774 0.822279
Si Si7 0.149391 0.072635 0.174486
Si Si8 0.791103 0.423265 0.678577
O O1 0.060877 0.611545 0.500000
O O2 0.072969 0.706701 0.718901
O O3 0.134734 0.585799 0.724061
O O4 0.000000 0.591821 0.750000
O O5 0.500000 0.728037 0.250000
O O6 0.445325 0.767417 0.500000
O O7 0.431521 0.846484 0.256895
O O8 0.371022 0.718866 0.295670
O O9 0.663660 0.085307 0.832319
O O10 0.570652 0.000000 0.750000
O O11 0.564644 0.079464 0.000000
O O12 0.242659 0.120544 0.500000
O O13 0.272913 0.206777 0.270809
O O14 0.221680 0.079018 0.221544
O O15 0.253095 0.351672 0.216255
O O16 0.286165 0.264844 0.000000
O O17 0.118919 0.150720 0.775307
O O18 0.000000 0.179498 0.750000
O O19 0.059879 0.205013 0.000000
O O20 0.119883 0.000000 0.250000
O O21 0.142857 0.065928 0.000000
O O22 0.766955 0.500000 0.750000
O O23 0.790683 0.428531 0.500000
#
# Coordination Sequence:
#
# PCOD9393521 Si02
#       8
#     8   8   8   8   8   8   8   8
#     4   9  18  34  55  78 106 140 177 215 257 309
#     4  10  20  35  56  80 106 139 179 223 271 321
#     4  10  20  33  49  73 106 141 178 220 266 315
#     4  10  20  33  52  77 102 132 174 220 264 315
#     4   9  19  37  59  80 107 143 178 217 267 319
#     4   9  19  35  53  70  91 125 168 215 264 315
#     4  11  22  34  48  68  97 132 172 220 273 323
#     4  10  21  37  57  83 114 145 177 214 259 311
#
# _framework density 18.815677999999998
#
# number of rings (size 3 to 8) (size 9 to 14) (size 15 to 20)
#    0.000    2.250    0.000    2.625    0.000    7.750 
#    0.000    6.250    0.000    0.375    0.000    2.625 
#    0.000    0.000    0.000    0.000    0.000    0.000 
#
# Total GULP energy -357008.513729 kJ/mol
# GULP energy per Si atom -5578.258027 kJ/mol
# Density = 1.877285 g / cm^3
# Si number density = 18.815678 Si / 1000 Ang^3
#
#
#
# Elastic Constant Matrix: (Units=GPa)
#
#
# Indices 1 2 3 4 5 6 
#
# 1 88.7084 42.0332 22.9797 0.0000 0.0000 0.0000
# 2 42.0332 88.8043 29.0082 0.0000 0.0000 0.0000
# 3 22.9797 29.0082 38.2500 0.0000 0.0000 0.0000
# 4 0.0000 0.0000 0.0000 29.8467 0.0000 0.0000
# 5 0.0000 0.0000 0.0000 0.0000 21.5744 0.0000
# 6 0.0000 0.0000 0.0000 0.0000 0.0000 -1.6170
#
#
#
# Elastic Compliance Matrix: (Units=1/GPa)
#
#
# Indices 1 2 3 4 5 6 
#
# 1 0.015188 -0.005594 -0.004882 0.000000 0.000000 0.000000
# 2 -0.005594 0.017029 -0.009554 0.000000 0.000000 0.000000
# 3 -0.004882 -0.009554 0.036323 0.000000 0.000000 0.000000
# 4 0.000000 0.000000 0.000000 0.033505 0.000000 0.000000
# 5 0.000000 0.000000 0.000000 0.000000 0.046351 0.000000
# 6 0.000000 0.000000 0.000000 0.000000 0.000000 -0.618414
#
#
# Mechanical properties :
#
#
# Convention : Reuss Voigt Hill
#
# Bulk Modulus (GPa) = 35.11307 44.86721 39.99014
# Shear Modulus (GPa) = -11.89164 18.07692 3.09264
#
# Velocity S-wave (km/s) = -2.51670 3.10294 1.28344
# Velocity P-wave (km/s) = 3.20266 6.06094 4.84727
#
# Compressibility (1/GPa) = 0.02847943
#
# Stress axis : x y z
#
# Youngs Moduli (GPa) = 65.83995 58.72180 27.53111
#
# Poissons Ratio (x) = 0.32850 0.13441
# Poissons Ratio (y) = 0.36832 0.26303
# Poissons Ratio (z) = 0.32145 0.56103
#
# Static dielectric constant tensor:
#      x y z
#    x 1.688010 0.000000 0.000000 
#    y 0.000000 1.640210 0.000000 
#    z 0.000000 0.000000 1.644180 
# 
# From -- ./inp_files/5986.got.cif
#   From: 2010.05.17/outbox.cif.g08.bks.cpg/sg49_3_cif.got.tgz:5986.got - 2010.06.03 21:02:19.
