data_PCOD9393289
_publ_section_title
;
Structure prediction by ZEFSAII (Michael W. Deem and Ramdas Pophale) SiO2 
 PCOD9393289
Probable space group: P C C M
;
_chemical_formula_sum "Si O2"
_cell_formula_units_Z 64
_cell_length_a 19.954753
_cell_length_b 20.969086
_cell_length_c 8.774379
_cell_angle_alpha 90.000000
_cell_angle_beta 90.000000
_cell_angle_gamma 90.000000
_cell_volume 3671.489129
_symmetry_space_group_name_H-M "P C C M"
_symmetry_group_IT_number 49
_symmetry_cell_setting 'orthorhombic'
loop_
_space_group_symop_operation_xyz
x,y,z
-x,-y,z
x,-y,1/2-z
-x,y,1/2-z
-x,-y,-z
x,y,-z
-x,y,1/2+z
x,-y,1/2+z
loop_
_atom_site_type_symbol
_atom_site_label
_atom_site_fract_x
_atom_site_fract_y
_atom_site_fract_z
Si Si1 0.790791 0.695190 0.182697
Si Si2 0.928259 0.890616 0.320033
Si Si3 0.928331 0.262981 0.820147
Si Si4 0.291254 0.186160 0.317900
Si Si5 0.429202 0.618679 0.317441
Si Si6 0.713017 0.432982 0.683564
Si Si7 0.210759 0.932807 0.318261
Si Si8 0.428276 0.769605 0.682767
O O1 0.866997 0.703479 0.235655
O O2 0.748512 0.751423 0.260598
O O3 0.759190 0.627100 0.225508
O O4 0.785413 0.702411 0.000000
O O5 0.926075 0.905086 0.500000
O O6 0.921085 0.813807 0.301764
O O7 0.865812 0.921854 0.235321
O O8 0.000000 0.908985 0.250000
O O9 0.000000 0.280716 0.750000
O O10 0.926362 0.276446 0.000000
O O11 0.289405 0.183311 0.500000
O O12 0.254352 0.124912 0.248598
O O13 0.366727 0.193283 0.257057
O O14 0.500000 0.596911 0.250000
O O15 0.432661 0.613712 0.500000
O O16 0.363117 0.581944 0.263616
O O17 0.420264 0.693936 0.280884
O O18 0.735945 0.500000 0.750000
O O19 0.712053 0.436306 0.500000
O O20 0.214140 0.933024 0.500000
O O21 0.233904 0.000000 0.250000
O O22 0.500000 0.789308 0.750000
O O23 0.427111 0.776054 0.500000
#
# Coordination Sequence:
#
# PCOD9393289 Si02
#       8
#     8   8   8   8   8   8   8   8
#     4  11  21  37  59  83 114 150 190 239 289 336
#     4  10  20  35  55  83 117 153 194 233 277 337
#     4  10  20  34  56  86 117 147 186 232 283 340
#     4  12  23  37  59  88 116 150 194 237 285 341
#     4   9  18  33  51  76 110 148 189 230 276 333
#     4  10  22  38  54  78 112 151 192 236 286 342
#     4  12  25  41  60  83 116 155 193 239 288 338
#     4  10  19  35  57  85 117 149 188 236 289 338
#
# _framework density 17.431618
#
# number of rings (size 3 to 8) (size 9 to 14) (size 15 to 20)
#    0.000    1.500    2.500    3.750    0.000    3.500 
#    0.000    2.500    0.000    0.750    0.000    5.250 
#    0.000    0.000    0.000    0.000    0.000    0.000 
#
# Total GULP energy -357676.735901 kJ/mol
# GULP energy per Si atom -5588.698998 kJ/mol
# Density = 1.739194 g / cm^3
# Si number density = 17.431618 Si / 1000 Ang^3
#
#
#
# Elastic Constant Matrix: (Units=GPa)
#
#
# Indices 1 2 3 4 5 6 
#
# 1 126.2264 64.8214 55.1178 0.0000 0.0000 0.0000
# 2 64.8214 111.8539 60.0587 0.0000 0.0000 0.0000
# 3 55.1178 60.0587 104.2464 0.0000 0.0000 0.0000
# 4 0.0000 0.0000 0.0000 149.0237 0.0000 0.0000
# 5 0.0000 0.0000 0.0000 0.0000 31.1367 0.0000
# 6 0.0000 0.0000 0.0000 0.0000 0.0000 11.7497
#
#
#
# Elastic Compliance Matrix: (Units=1/GPa)
#
#
# Indices 1 2 3 4 5 6 
#
# 1 0.012058 -0.005161 -0.003402 0.000000 0.000000 0.000000
# 2 -0.005161 0.015154 -0.006001 0.000000 0.000000 0.000000
# 3 -0.003402 -0.006001 0.014849 0.000000 0.000000 0.000000
# 4 0.000000 0.000000 0.000000 0.006710 0.000000 0.000000
# 5 0.000000 0.000000 0.000000 0.000000 0.032116 0.000000
# 6 0.000000 0.000000 0.000000 0.000000 0.000000 0.085109
#
#
# Mechanical properties :
#
#
# Convention : Reuss Voigt Hill
#
# Bulk Modulus (GPa) = 77.33110 78.03584 77.68347
# Shear Modulus (GPa) = 25.07063 49.20394 37.13729
#
# Velocity S-wave (km/s) = 3.79651 5.31866 4.62069
# Velocity P-wave (km/s) = 7.97978 9.08744 8.55156
#
# Compressibility (1/GPa) = 0.01293141
#
# Stress axis : x y z
#
# Youngs Moduli (GPa) = 82.93040 65.99020 67.34484
#
# Poissons Ratio (x) = 0.34060 0.22910
# Poissons Ratio (y) = 0.42803 0.40417
# Poissons Ratio (z) = 0.28213 0.39604
#
# Static dielectric constant tensor:
#      x y z
#    x 1.584340 0.000000 0.000000 
#    y 0.000000 1.583540 0.000000 
#    z 0.000000 0.000000 1.579190 
# 
# From -- ./inp_files/5256.got.cif
#   From: 2010.05.17/outbox.cif.g08.bks.cpg/sg49_3_cif.got.tgz:5256.got - 2010.06.03 21:02:19.
