data_PCOD9393653
_publ_section_title
;
Structure prediction by ZEFSAII (Michael W. Deem and Ramdas Pophale) SiO2 
 PCOD9393653
Probable space group: P C C M
;
_chemical_formula_sum "Si O2"
_cell_formula_units_Z 48
_cell_length_a 9.624730
_cell_length_b 31.755623
_cell_length_c 8.663608
_cell_angle_alpha 90.000000
_cell_angle_beta 90.000000
_cell_angle_gamma 90.000000
_cell_volume 2647.939062
_symmetry_space_group_name_H-M "P C C M"
_symmetry_group_IT_number 49
_symmetry_cell_setting 'orthorhombic'
loop_
_space_group_symop_operation_xyz
x,y,z
-x,-y,z
x,-y,1/2-z
-x,y,1/2-z
-x,-y,-z
x,y,-z
-x,y,1/2+z
x,-y,1/2+z
loop_
_atom_site_type_symbol
_atom_site_label
_atom_site_fract_x
_atom_site_fract_y
_atom_site_fract_z
Si Si1 0.344826 0.199054 0.315162
Si Si2 0.843290 0.635785 0.685657
Si Si3 0.842910 0.542580 0.684129
Si Si4 0.652613 0.045908 0.315194
Si Si5 0.155348 0.875375 0.685558
Si Si6 0.345664 0.290167 0.815373
O O1 0.500000 0.191036 0.250000
O O2 0.350126 0.199611 0.500000
O O3 0.241273 0.163437 0.255336
O O4 0.300929 0.244940 0.252627
O O5 0.846027 0.639790 0.500000
O O6 0.785067 0.588847 0.723471
O O7 0.753250 0.672590 0.759360
O O8 0.000000 0.638164 0.750000
O O9 0.775273 0.500000 0.750000
O O10 0.849552 0.539050 0.500000
O O11 0.000000 0.543411 0.750000
O O12 0.500000 0.056722 0.250000
O O13 0.643326 0.043411 0.500000
O O14 0.762592 0.081784 0.273170
O O15 0.690335 0.000000 0.250000
O O16 0.153151 0.871834 0.500000
O O17 0.000000 0.876047 0.750000
O O18 0.500000 0.297799 0.750000
O O19 0.349778 0.287774 0.000000
#
# Coordination Sequence:
#
# PCOD9393653 Si02
#       6
#     8   8   8   8   8   8
#     4  11  22  39  62  85 110 143 183 227 270 324
#     4  10  20  34  52  79 110 142 180 224 272 323
#     4   9  16  26  44  69 101 136 174 218 264 315
#     4  10  21  37  60  86 114 148 190 233 275 324
#     4  11  24  40  58  85 117 151 187 229 280 331
#     4  11  22  38  59  82 109 143 181 224 272 327
#
# _framework density 18.127306000000001
#
# number of rings (size 3 to 8) (size 9 to 14) (size 15 to 20)
#    0.000    1.667    0.000    7.500    0.000    7.000 
#    0.000    5.000    0.000    0.500    0.000    3.500 
#    0.000    0.000    0.000    0.000    0.000    0.000 
#
# Total GULP energy -268070.523201 kJ/mol
# GULP energy per Si atom -5584.802567 kJ/mol
# Density = 1.808605 g / cm^3
# Si number density = 18.127306 Si / 1000 Ang^3
#
#
#
# Elastic Constant Matrix: (Units=GPa)
#
#
# Indices 1 2 3 4 5 6 
#
# 1 86.1666 113.4908 54.3108 0.0000 0.0000 0.0000
# 2 113.4908 194.6058 86.4538 0.0000 0.0000 0.0000
# 3 54.3108 86.4538 127.6307 0.0000 0.0000 0.0000
# 4 0.0000 0.0000 0.0000 29.4259 0.0000 0.0000
# 5 0.0000 0.0000 0.0000 0.0000 29.5313 0.0000
# 6 0.0000 0.0000 0.0000 0.0000 0.0000 30.5339
#
#
#
# Elastic Compliance Matrix: (Units=1/GPa)
#
#
# Indices 1 2 3 4 5 6 
#
# 1 0.050477 -0.028459 -0.002202 0.000000 0.000000 0.000000
# 2 -0.028459 0.023396 -0.003738 0.000000 0.000000 0.000000
# 3 -0.002202 -0.003738 0.011304 0.000000 0.000000 0.000000
# 4 0.000000 0.000000 0.000000 0.033984 0.000000 0.000000
# 5 0.000000 0.000000 0.000000 0.000000 0.033862 0.000000
# 6 0.000000 0.000000 0.000000 0.000000 0.000000 0.032750
#
#
# Mechanical properties :
#
#
# Convention : Reuss Voigt Hill
#
# Bulk Modulus (GPa) = 61.05232 101.87932 81.46582
# Shear Modulus (GPa) = 19.22851 28.17475 23.70163
#
# Velocity S-wave (km/s) = 3.26045 3.94670 3.61987
# Velocity P-wave (km/s) = 6.92292 8.78025 7.90631
#
# Compressibility (1/GPa) = 0.01637939
#
# Stress axis : x y z
#
# Youngs Moduli (GPa) = 19.81095 42.74261 88.46522
#
# Poissons Ratio (x) = 1.21642 0.19481
# Poissons Ratio (y) = 0.56380 0.33064
# Poissons Ratio (z) = 0.04363 0.15975
#
# Static dielectric constant tensor:
#      x y z
#    x 1.586800 0.000000 0.000000 
#    y 0.000000 1.642970 0.000000 
#    z 0.000000 0.000000 1.605150 
# 
# From -- ./inp_files/2024.got.cif
#   From: 2010.05.17/outbox.cif.g08.bks.cpg/sg49_2_cif.got.tgz:2024.got - 2010.06.03 21:02:19.
