data_PCOD9393287
_publ_section_title
;
Structure prediction by ZEFSAII (Michael W. Deem and Ramdas Pophale) SiO2 
 PCOD9393287
Probable space group: P C C M
;
_chemical_formula_sum "Si O2"
_cell_formula_units_Z 32
_cell_length_a 8.776330
_cell_length_b 19.818281
_cell_length_c 9.959894
_cell_angle_alpha 90.000000
_cell_angle_beta 90.000000
_cell_angle_gamma 90.000000
_cell_volume 1732.342033
_symmetry_space_group_name_H-M "P C C M"
_symmetry_group_IT_number 49
_symmetry_cell_setting 'orthorhombic'
loop_
_space_group_symop_operation_xyz
x,y,z
-x,-y,z
x,-y,1/2-z
-x,y,1/2-z
-x,-y,-z
x,y,-z
-x,y,1/2+z
x,-y,1/2+z
loop_
_atom_site_type_symbol
_atom_site_label
_atom_site_fract_x
_atom_site_fract_y
_atom_site_fract_z
Si Si1 0.689601 0.916549 0.000000
Si Si2 0.683673 0.833265 0.741471
Si Si3 0.681078 0.929752 0.500000
Si Si4 0.852456 0.302427 0.157706
Si Si5 0.655406 0.561973 0.337186
O O1 0.734175 0.870966 0.124867
O O2 0.504840 0.926746 0.000000
O O3 0.741789 0.994107 0.000000
O O4 0.500000 0.825397 0.750000
O O5 0.726352 0.886559 0.627471
O O6 0.756532 0.761642 0.709205
O O7 0.754728 0.370736 0.169569
O O8 0.000000 0.308102 0.250000
O O9 0.889662 0.292775 0.000000
O O10 0.726492 0.500000 0.250000
O O11 0.500000 0.573635 0.250000
O O12 0.634042 0.547932 0.500000
#
# Coordination Sequence:
#
# PCOD9393287 Si02
#       5
#     4   8   4   8   8
#     4   9  18  28  55  89 110 147 184 241 299 348
#     4  10  19  35  57  85 115 147 192 241 294 345
#     4   9  16  32  53  83 120 141 186 241 295 348
#     4  11  25  41  58  82 118 159 198 238 282 339
#     4  10  21  40  65  95 122 150 189 234 285 339
#
# _framework density 18.472103000000001
#
# number of rings (size 3 to 8) (size 9 to 14) (size 15 to 20)
#    0.000    2.000    1.250    3.000    1.750    5.500 
#    0.000    2.500    0.000    4.500    0.000    0.000 
#    0.000    0.000    0.000    0.000    0.000    0.000 
#
# Total GULP energy -178288.545370 kJ/mol
# GULP energy per Si atom -5571.517043 kJ/mol
# Density = 1.843006 g / cm^3
# Si number density = 18.472103 Si / 1000 Ang^3
#
#
#
# Elastic Constant Matrix: (Units=GPa)
#
#
# Indices 1 2 3 4 5 6 
#
# 1 41.2570 52.5088 51.4795 0.0000 0.0000 0.0000
# 2 52.5088 194.5413 110.5159 0.0000 0.0000 0.0000
# 3 51.4795 110.5159 216.4999 0.0000 0.0000 0.0000
# 4 0.0000 0.0000 0.0000 37.4964 0.0000 0.0000
# 5 0.0000 0.0000 0.0000 0.0000 33.3081 0.0000
# 6 0.0000 0.0000 0.0000 0.0000 0.0000 -12.1771
#
#
#
# Elastic Compliance Matrix: (Units=1/GPa)
#
#
# Indices 1 2 3 4 5 6 
#
# 1 0.041606 -0.007901 -0.005860 0.000000 0.000000 0.000000
# 2 -0.007901 0.008740 -0.002583 0.000000 0.000000 0.000000
# 3 -0.005860 -0.002583 0.007331 0.000000 0.000000 0.000000
# 4 0.000000 0.000000 0.000000 0.026669 0.000000 0.000000
# 5 0.000000 0.000000 0.000000 0.000000 0.030023 0.000000
# 6 0.000000 0.000000 0.000000 0.000000 0.000000 -0.082121
#
#
# Mechanical properties :
#
#
# Convention : Reuss Voigt Hill
#
# Bulk Modulus (GPa) = 40.01704 97.92295 68.97000
# Shear Modulus (GPa) = 68.24579 27.57841 47.91210
#
# Velocity S-wave (km/s) = 6.08486 3.86810 5.09842
# Velocity P-wave (km/s) = 8.43077 8.54844 8.48981
#
# Compressibility (1/GPa) = 0.02498936
#
# Stress axis : x y z
#
# Youngs Moduli (GPa) = 24.03507 114.41490 136.41134
#
# Poissons Ratio (x) = 0.90399 0.79936
# Poissons Ratio (y) = 0.18990 0.35233
# Poissons Ratio (z) = 0.14084 0.29552
#
# Static dielectric constant tensor:
#      x y z
#    x 1.593020 0.000000 0.000000 
#    y 0.000000 1.615640 0.000000 
#    z 0.000000 0.000000 1.621500 
# 
# From -- ./inp_files/1423.got.cif
#   From: 2010.05.17/outbox.cif.g08.bks.cpg/sg49_1_cif.got.tgz:1423.got - 2010.06.03 21:02:19.
