data_PCOD9393550
_publ_section_title
;
Structure prediction by ZEFSAII (Michael W. Deem and Ramdas Pophale) SiO2 
 PCOD9393550
Probable space group: P C C M
;
_chemical_formula_sum "Si O2"
_cell_formula_units_Z 56
_cell_length_a 13.444085
_cell_length_b 21.086149
_cell_length_c 9.798801
_cell_angle_alpha 90.000000
_cell_angle_beta 90.000000
_cell_angle_gamma 90.000000
_cell_volume 2777.803102
_symmetry_space_group_name_H-M "P C C M"
_symmetry_group_IT_number 49
_symmetry_cell_setting 'orthorhombic'
loop_
_space_group_symop_operation_xyz
x,y,z
-x,-y,z
x,-y,1/2-z
-x,y,1/2-z
-x,-y,-z
x,y,-z
-x,y,1/2+z
x,-y,1/2+z
loop_
_atom_site_type_symbol
_atom_site_label
_atom_site_fract_x
_atom_site_fract_y
_atom_site_fract_z
Si Si1 0.630579 0.057443 0.000000
Si Si2 0.603824 0.089126 0.500000
Si Si3 0.867794 0.329263 0.148139
Si Si4 0.409320 0.599141 0.339458
Si Si5 0.688986 0.849865 0.268884
Si Si6 0.363567 0.711717 0.848618
Si Si7 0.089949 0.815426 0.159963
Si Si8 0.178359 0.560919 0.661438
O O1 0.676269 0.091459 0.869793
O O2 0.514022 0.076299 0.000000
O O3 0.646175 0.982463 0.000000
O O4 0.640934 0.128326 0.371001
O O5 0.751619 0.309310 0.143345
O O6 0.919159 0.261190 0.158588
O O7 0.875581 0.378005 0.272277
O O8 0.892694 0.358696 0.000000
O O9 0.500000 0.571107 0.250000
O O10 0.430772 0.595730 0.500000
O O11 0.400840 0.670585 0.278805
O O12 0.298715 0.570200 0.320027
O O13 0.634007 0.786671 0.323417
O O14 0.805398 0.832364 0.269594
O O15 0.406432 0.697338 0.000000
O O16 0.000000 0.841780 0.250000
O O17 0.091295 0.835039 0.000000
O O18 0.149410 0.500000 0.750000
O O19 0.159768 0.554860 0.500000
#
# Coordination Sequence:
#
# PCOD9393550 Si02
#       8
#     4   4   8   8   8   8   8   8
#     4  11  22  46  59  85 127 165 215 258 302 354
#     4  11  26  36  65  93 117 167 217 258 298 356
#     4   8  16  33  54  78 109 145 183 230 288 348
#     4  10  21  33  46  69 102 138 186 244 301 358
#     4  11  21  40  62  89 124 162 204 258 311 361
#     4   9  17  33  53  73 105 145 182 232 301 359
#     4  10  21  38  65  96 127 160 197 248 312 376
#     4  10  20  33  51  74 101 144 194 239 288 353
#
# _framework density 20.159817
#
# number of rings (size 3 to 8) (size 9 to 14) (size 15 to 20)
#    0.000    2.143    1.429    2.571    2.000    4.857 
#    2.571    1.429    0.000    3.000    0.000    3.000 
#    0.000    0.000    0.000    0.000    0.000    0.000 
#
# Total GULP energy -312403.274585 kJ/mol
# GULP energy per Si atom -5578.629903 kJ/mol
# Density = 2.011393 g / cm^3
# Si number density = 20.159817 Si / 1000 Ang^3
#
#
#
# Elastic Constant Matrix: (Units=GPa)
#
#
# Indices 1 2 3 4 5 6 
#
# 1 39.2320 -6.8225 14.2842 0.0000 0.0000 0.0000
# 2 -6.8225 80.0543 28.1020 0.0000 0.0000 0.0000
# 3 14.2842 28.1020 127.5185 0.0000 0.0000 0.0000
# 4 0.0000 0.0000 0.0000 29.5001 0.0000 0.0000
# 5 0.0000 0.0000 0.0000 0.0000 23.9993 0.0000
# 6 0.0000 0.0000 0.0000 0.0000 0.0000 6.6409
#
#
#
# Elastic Compliance Matrix: (Units=1/GPa)
#
#
# Indices 1 2 3 4 5 6 
#
# 1 0.027559 0.003720 -0.003907 0.000000 0.000000 0.000000
# 2 0.003720 0.014041 -0.003511 0.000000 0.000000 0.000000
# 3 -0.003907 -0.003511 0.009053 0.000000 0.000000 0.000000
# 4 0.000000 0.000000 0.000000 0.033898 0.000000 0.000000
# 5 0.000000 0.000000 0.000000 0.000000 0.041668 0.000000
# 6 0.000000 0.000000 0.000000 0.000000 0.000000 0.150581
#
#
# Mechanical properties :
#
#
# Convention : Reuss Voigt Hill
#
# Bulk Modulus (GPa) = 23.11729 35.32580 29.22155
# Shear Modulus (GPa) = 16.74396 26.11082 21.42739
#
# Velocity S-wave (km/s) = 2.88507 3.60278 3.26372
# Velocity P-wave (km/s) = 4.75290 5.90488 5.35993
#
# Compressibility (1/GPa) = 0.04325766
#
# Stress axis : x y z
#
# Youngs Moduli (GPa) = 36.28607 71.21971 110.45592
#
# Poissons Ratio (x) = -0.26495 0.43154
# Poissons Ratio (y) = -0.13499 0.38781
# Poissons Ratio (z) = 0.14177 0.25005
#
# Static dielectric constant tensor:
#      x y z
#    x 1.752300 0.000000 0.000000 
#    y 0.000000 1.692440 0.000000 
#    z 0.000000 0.000000 1.687930 
# 
# From -- ./inp_files/4114.got.cif
#   From: 2010.05.17/outbox.cif.g08.bks.cpg/sg49_3_cif.got.tgz:4114.got - 2010.06.03 21:02:19.
