data_PCOD9393101
_publ_section_title
;
Structure prediction by ZEFSAII (Michael W. Deem and Ramdas Pophale) SiO2 
 PCOD9393101
Probable space group: P C C M
;
_chemical_formula_sum "Si O2"
_cell_formula_units_Z 64
_cell_length_a 15.986802
_cell_length_b 12.384351
_cell_length_c 17.606207
_cell_angle_alpha 90.000000
_cell_angle_beta 90.000000
_cell_angle_gamma 90.000000
_cell_volume 3485.785445
_symmetry_space_group_name_H-M "P C C M"
_symmetry_group_IT_number 49
_symmetry_cell_setting 'orthorhombic'
loop_
_space_group_symop_operation_xyz
x,y,z
-x,-y,z
x,-y,1/2-z
-x,y,1/2-z
-x,-y,-z
x,y,-z
-x,y,1/2+z
x,-y,1/2+z
loop_
_atom_site_type_symbol
_atom_site_label
_atom_site_fract_x
_atom_site_fract_y
_atom_site_fract_z
Si Si1 0.407527 0.127758 0.267299
Si Si2 0.914016 0.877742 0.282683
Si Si3 0.825648 0.365951 0.408122
Si Si4 0.830942 0.970839 0.585097
Si Si5 0.763157 0.824966 0.182010
Si Si6 0.682120 0.203215 0.086324
Si Si7 0.990956 0.368933 0.087290
Si Si8 0.190880 0.615198 0.092770
O O1 0.500000 0.171653 0.250000
O O2 0.328662 0.163942 0.216652
O O3 0.383985 0.160070 0.353202
O O4 0.410284 0.000000 0.250000
O O5 0.904332 0.905594 0.371533
O O6 0.831268 0.821095 0.250026
O O7 0.000000 0.829984 0.250000
O O8 0.911097 0.000000 0.250000
O O9 0.825097 0.360905 0.500000
O O10 0.766440 0.279936 0.370024
O O11 0.804352 0.489113 0.386701
O O12 0.919806 0.334208 0.380970
O O13 0.855070 0.002692 0.500000
O O14 0.754775 0.886513 0.582231
O O15 0.795114 0.073048 0.631756
O O16 0.730347 0.311686 0.113286
O O17 0.650249 0.219165 0.000000
O O18 0.900358 0.344537 0.122073
O O19 0.000000 0.500000 0.085027
O O20 0.988396 0.330838 0.000000
O O21 0.185981 0.619956 0.000000
#
# Coordination Sequence:
#
# PCOD9393101 Si02
#       8
#     8   8   8   8   8   8   8   8
#     4  11  22  41  63  84 110 147 181 224 297 356
#     4   9  18  33  50  71 108 154 184 217 280 337
#     4   9  17  29  49  80 114 153 191 229 278 328
#     4  10  19  33  55  81 108 144 188 236 279 328
#     4  11  19  35  53  78 113 146 180 229 286 344
#     4  10  19  35  60  87 108 136 185 236 274 331
#     4   7  11  23  43  71 107 145 189 232 267 309
#     4   8  15  29  52  79 111 148 189 236 279 315
#
# _framework density 18.360281000000001
#
# number of rings (size 3 to 8) (size 9 to 14) (size 15 to 20)
#    0.000    2.625    2.500    2.250    0.000    1.000 
#    0.000   10.000    0.000    1.500    0.000    2.625 
#    0.000    0.000    0.000    0.000    0.000    0.000 
#
# Total GULP energy -356498.327166 kJ/mol
# GULP energy per Si atom -5570.286362 kJ/mol
# Density = 1.831849 g / cm^3
# Si number density = 18.360281 Si / 1000 Ang^3
#
#
#
# Elastic Constant Matrix: (Units=GPa)
#
#
# Indices 1 2 3 4 5 6 
#
# 1 117.9210 29.3917 55.4561 0.0000 0.0000 0.0000
# 2 29.3917 71.5275 27.4729 0.0000 0.0000 0.0000
# 3 55.4561 27.4729 92.7078 0.0000 0.0000 0.0000
# 4 0.0000 0.0000 0.0000 -125.1519 0.0000 0.0000
# 5 0.0000 0.0000 0.0000 0.0000 -1.1744 0.0000
# 6 0.0000 0.0000 0.0000 0.0000 0.0000 15.7772
#
#
#
# Elastic Compliance Matrix: (Units=1/GPa)
#
#
# Indices 1 2 3 4 5 6 
#
# 1 0.012180 -0.002490 -0.006548 0.000000 0.000000 0.000000
# 2 -0.002490 0.016285 -0.003336 0.000000 0.000000 0.000000
# 3 -0.006548 -0.003336 0.015692 0.000000 0.000000 0.000000
# 4 0.000000 0.000000 0.000000 -0.007990 0.000000 0.000000
# 5 0.000000 0.000000 0.000000 0.000000 -0.851523 0.000000
# 6 0.000000 0.000000 0.000000 0.000000 0.000000 0.063382
#
#
# Mechanical properties :
#
#
# Convention : Reuss Voigt Hill
#
# Bulk Modulus (GPa) = 51.52346 56.31085 53.91716
# Shear Modulus (GPa) = -6.93718 -10.78743 -8.86231
#
# Velocity S-wave (km/s) = -1.94591 -2.42656 -2.19940
# Velocity P-wave (km/s) = 4.80361 4.78389 4.79376
#
# Compressibility (1/GPa) = 0.01940864
#
# Stress axis : x y z
#
# Youngs Moduli (GPa) = 82.09917 61.40497 63.72537
#
# Poissons Ratio (x) = 0.15290 0.41729
# Poissons Ratio (y) = 0.20443 0.21262
# Poissons Ratio (z) = 0.53760 0.20488
#
# Static dielectric constant tensor:
#      x y z
#    x 1.647590 0.000000 0.000000 
#    y 0.000000 2.341560 0.000000 
#    z 0.000000 0.000000 1.716190 
# 
# From -- ./inp_files/17948.got.cif
#   From: 2010.05.17/outbox.cif.g08.bks.cpg/sg49_9_cif.got.tgz:17948.got - 2010.06.03 21:02:19.
