data_PCOD9393950
_publ_section_title
;
Structure prediction by ZEFSAII (Michael W. Deem and Ramdas Pophale) SiO2 
 PCOD9393950
Probable space group: P C C M
;
_chemical_formula_sum "Si O2"
_cell_formula_units_Z 64
_cell_length_a 20.767204
_cell_length_b 9.429444
_cell_length_c 16.225487
_cell_angle_alpha 90.000000
_cell_angle_beta 90.000000
_cell_angle_gamma 90.000000
_cell_volume 3177.326577
_symmetry_space_group_name_H-M "P C C M"
_symmetry_group_IT_number 49
_symmetry_cell_setting 'orthorhombic'
loop_
_space_group_symop_operation_xyz
x,y,z
-x,-y,z
x,-y,1/2-z
-x,y,1/2-z
-x,-y,-z
x,y,-z
-x,y,1/2+z
x,-y,1/2+z
loop_
_atom_site_type_symbol
_atom_site_label
_atom_site_fract_x
_atom_site_fract_y
_atom_site_fract_z
Si Si1 0.717428 0.532971 0.652868
Si Si2 0.399079 0.715059 0.099556
Si Si3 0.069121 0.550580 0.095152
Si Si4 0.796002 0.015584 0.593008
Si Si5 0.168613 0.259083 0.679742
Si Si6 0.527779 0.837596 0.903337
Si Si7 0.348986 0.026504 0.100490
Si Si8 0.822261 0.320400 0.373304
O O1 0.713577 0.500000 0.750000
O O2 0.647683 0.587375 0.624693
O O3 0.769452 0.659933 0.640302
O O4 0.753566 0.398966 0.610846
O O5 0.473145 0.731875 0.130315
O O6 0.367273 0.865859 0.124585
O O7 0.401863 0.714564 0.000000
O O8 0.103129 0.674643 0.145456
O O9 0.120751 0.423636 0.100018
O O10 0.000000 0.500000 0.127032
O O11 0.061065 0.593878 0.000000
O O12 0.791962 0.954228 0.500000
O O13 0.724041 0.051188 0.623971
O O14 0.829473 0.166530 0.588877
O O15 0.826498 0.903235 0.654195
O O16 0.173145 0.294934 0.775498
O O17 0.598924 0.859835 0.866761
O O18 0.500000 0.000000 0.900941
O O19 0.535084 0.800674 0.000000
O O20 0.352817 0.031562 0.000000
#
# Coordination Sequence:
#
# PCOD9393950 Si02
#       8
#     8   8   8   8   8   8   8   8
#     4   9  18  31  47  72 105 143 189 230 273 327
#     4   9  14  23  44  71 100 137 183 229 271 326
#     4  10  21  39  63  88 112 141 180 227 274 324
#     4  11  20  32  53  81 113 146 185 237 287 327
#     4  10  20  36  56  79 109 150 191 223 267 344
#     4   7  11  20  36  65 102 130 163 218 271 316
#     4   8  14  24  42  72 105 136 172 222 280 327
#     4  10  22  36  52  79 116 147 182 232 280 329
#
# _framework density 20.142719
#
# number of rings (size 3 to 8) (size 9 to 14) (size 15 to 20)
#    0.000    2.750    1.250    3.750    0.000    3.500 
#    0.000    0.625    0.000    4.500    0.000   11.375 
#    0.000    0.000    0.000    0.000    0.000    6.375 
#
# Total GULP energy -356686.270634 kJ/mol
# GULP energy per Si atom -5573.222979 kJ/mol
# Density = 2.009687 g / cm^3
# Si number density = 20.142719 Si / 1000 Ang^3
#
#
#
# Elastic Constant Matrix: (Units=GPa)
#
#
# Indices 1 2 3 4 5 6 
#
# 1 124.9831 40.7606 18.7390 0.0000 0.0000 0.0000
# 2 40.7606 78.6257 12.5543 0.0000 0.0000 0.0000
# 3 18.7390 12.5543 33.8256 0.0000 0.0000 0.0000
# 4 0.0000 0.0000 0.0000 19.5601 0.0000 0.0000
# 5 0.0000 0.0000 0.0000 0.0000 104.8908 0.0000
# 6 0.0000 0.0000 0.0000 0.0000 0.0000 22.3859
#
#
#
# Elastic Compliance Matrix: (Units=1/GPa)
#
#
# Indices 1 2 3 4 5 6 
#
# 1 0.010086 -0.004610 -0.003876 0.000000 0.000000 0.000000
# 2 -0.004610 0.015626 -0.003246 0.000000 0.000000 0.000000
# 3 -0.003876 -0.003246 0.032916 0.000000 0.000000 0.000000
# 4 0.000000 0.000000 0.000000 0.051124 0.000000 0.000000
# 5 0.000000 0.000000 0.000000 0.000000 0.009534 0.000000
# 6 0.000000 0.000000 0.000000 0.000000 0.000000 0.044671
#
#
# Mechanical properties :
#
#
# Convention : Reuss Voigt Hill
#
# Bulk Modulus (GPa) = 28.43855 42.39357 35.41606
# Shear Modulus (GPa) = 25.10769 40.39274 32.75021
#
# Velocity S-wave (km/s) = 3.53440 4.48295 4.03663
# Velocity P-wave (km/s) = 5.55024 6.92012 6.27268
#
# Compressibility (1/GPa) = 0.03516354
#
# Stress axis : x y z
#
# Youngs Moduli (GPa) = 99.15135 63.99412 30.38063
#
# Poissons Ratio (x) = 0.29498 0.11777
# Poissons Ratio (y) = 0.45704 0.09862
# Poissons Ratio (z) = 0.38436 0.20773
#
# Static dielectric constant tensor:
#      x y z
#    x 1.738390 0.000000 0.000000 
#    y 0.000000 1.719390 0.000000 
#    z 0.000000 0.000000 1.722570 
# 
# From -- ./inp_files/18303.got.cif
#   From: 2010.05.17/outbox.cif.g08.bks.cpg/sg49_10_cif.got.tgz:18303.got - 2010.06.03 21:02:19.
