data_PCOD9393225
_publ_section_title
;
Structure prediction by ZEFSAII (Michael W. Deem and Ramdas Pophale) SiO2 
 PCOD9393225
Probable space group: P C C M
;
_chemical_formula_sum "Si O2"
_cell_formula_units_Z 58
_cell_length_a 13.312695
_cell_length_b 9.604480
_cell_length_c 24.683275
_cell_angle_alpha 90.000000
_cell_angle_beta 90.000000
_cell_angle_gamma 90.000000
_cell_volume 3156.040884
_symmetry_space_group_name_H-M "P C C M"
_symmetry_group_IT_number 49
_symmetry_cell_setting 'orthorhombic'
loop_
_space_group_symop_operation_xyz
x,y,z
-x,-y,z
x,-y,1/2-z
-x,y,1/2-z
-x,-y,-z
x,y,-z
-x,y,1/2+z
x,-y,1/2+z
loop_
_atom_site_type_symbol
_atom_site_label
_atom_site_fract_x
_atom_site_fract_y
_atom_site_fract_z
Si Si1 0.078988 0.612821 0.132109
Si Si2 0.794172 0.825018 0.435794
Si Si3 0.250034 0.563675 0.306779
Si Si4 0.624943 0.356803 0.595051
Si Si5 0.404767 0.328800 0.437340
Si Si6 0.809210 0.158102 0.437138
Si Si7 0.090043 0.222605 0.824095
Si Si8 0.000000 0.000000 0.250000
O O1 0.120537 0.734838 0.093867
O O2 0.174282 0.534069 0.158004
O O3 0.000000 0.500000 0.106931
O O4 0.010596 0.685006 0.177723
O O5 0.802026 0.797063 0.500000
O O6 0.687251 0.763470 0.416705
O O7 0.796925 0.991616 0.429076
O O8 0.279345 0.500000 0.250000
O O9 0.341575 0.606917 0.344397
O O10 0.181943 0.698287 0.297125
O O11 0.625216 0.507786 0.565669
O O12 0.510735 0.306233 0.591727
O O13 0.706677 0.248058 0.571416
O O14 0.422055 0.293111 0.500000
O O15 0.842626 0.180014 0.500000
O O16 0.882077 0.203945 0.387848
O O17 0.068773 0.086270 0.790789
#
# Coordination Sequence:
#
# PCOD9393225 Si02
#       8
#     8   8   8   8   8   8   8   2
#     4  10  20  37  54  78 109 143 188 236 278 329
#     4  10  21  35  54  82 114 150 183 223 281 338
#     4  10  20  36  56  81 108 141 185 239 284 324
#     4  10  19  35  57  83 109 145 183 227 282 332
#     4  10  19  34  58  84 110 143 186 226 268 334
#     4  10  21  37  55  83 121 149 181 231 292 352
#     4  10  22  34  57  82 108 151 193 230 286 332
#     4  12  20  36  52  80 108 146 200 240 268 340
#
# _framework density 18.377455000000001
#
# number of rings (size 3 to 8) (size 9 to 14) (size 15 to 20)
#    0.000    1.931    1.379    3.310    0.000    3.310 
#    0.000    5.172    0.000    0.000    0.000    0.000 
#    8.276    0.000    0.000    0.000    0.000    0.000 
#
# Total GULP energy -323360.957316 kJ/mol
# GULP energy per Si atom -5575.188919 kJ/mol
# Density = 1.833563 g / cm^3
# Si number density = 18.377455 Si / 1000 Ang^3
#
#
#
# Elastic Constant Matrix: (Units=GPa)
#
#
# Indices 1 2 3 4 5 6 
#
# 1 87.4276 24.8180 37.0183 0.0000 0.0000 0.0000
# 2 24.8180 75.5056 27.4056 0.0000 0.0000 0.0000
# 3 37.0183 27.4056 82.7110 0.0000 0.0000 0.0000
# 4 0.0000 0.0000 0.0000 29.1740 0.0000 0.0000
# 5 0.0000 0.0000 0.0000 0.0000 9.8479 0.0000
# 6 0.0000 0.0000 0.0000 0.0000 0.0000 17.2645
#
#
#
# Elastic Compliance Matrix: (Units=1/GPa)
#
#
# Indices 1 2 3 4 5 6 
#
# 1 0.014601 -0.002759 -0.005621 0.000000 0.000000 0.000000
# 2 -0.002759 0.015576 -0.003926 0.000000 0.000000 0.000000
# 3 -0.005621 -0.003926 0.015907 0.000000 0.000000 0.000000
# 4 0.000000 0.000000 0.000000 0.034277 0.000000 0.000000
# 5 0.000000 0.000000 0.000000 0.000000 0.101544 0.000000
# 6 0.000000 0.000000 0.000000 0.000000 0.000000 0.057922
#
#
# Mechanical properties :
#
#
# Convention : Reuss Voigt Hill
#
# Bulk Modulus (GPa) = 46.57219 47.12532 46.84875
# Shear Modulus (GPa) = 18.40964 21.68410 20.04687
#
# Velocity S-wave (km/s) = 3.16848 3.43874 3.30637
# Velocity P-wave (km/s) = 6.22758 6.43935 6.33435
#
# Compressibility (1/GPa) = 0.02147204
#
# Stress axis : x y z
#
# Youngs Moduli (GPa) = 68.48760 64.20144 62.86634
#
# Poissons Ratio (x) = 0.17714 0.35335
# Poissons Ratio (y) = 0.18897 0.24682
# Poissons Ratio (z) = 0.38495 0.25206
#
# Static dielectric constant tensor:
#      x y z
#    x 1.630290 0.000000 0.000000 
#    y 0.000000 1.659840 0.000000 
#    z 0.000000 0.000000 1.638820 
# 
# From -- ./inp_files/23189.got.cif
#   From: 2010.05.17/outbox.cif.g08.bks.cpg/sg49_12_cif.got.tgz:23189.got - 2010.06.03 21:02:19.
