data_PCOD9393858
_publ_section_title
;
Structure prediction by ZEFSAII (Michael W. Deem and Ramdas Pophale) SiO2 
 PCOD9393858
Probable space group: P C C M
;
_chemical_formula_sum "Si O2"
_cell_formula_units_Z 40
_cell_length_a 26.712987
_cell_length_b 9.640226
_cell_length_c 8.626061
_cell_angle_alpha 90.000000
_cell_angle_beta 90.000000
_cell_angle_gamma 90.000000
_cell_volume 2221.376602
_symmetry_space_group_name_H-M "P C C M"
_symmetry_group_IT_number 49
_symmetry_cell_setting 'orthorhombic'
loop_
_space_group_symop_operation_xyz
x,y,z
-x,-y,z
x,-y,1/2-z
-x,y,1/2-z
-x,-y,-z
x,y,-z
-x,y,1/2+z
x,-y,1/2+z
loop_
_atom_site_type_symbol
_atom_site_label
_atom_site_fract_x
_atom_site_fract_y
_atom_site_fract_z
Si Si1 0.357918 0.656759 0.313933
Si Si2 0.753141 0.656976 0.185693
Si Si3 0.553528 0.155359 0.814969
Si Si4 0.945962 0.155526 0.314266
Si Si5 0.143078 0.657178 0.185187
O O1 0.361194 0.500000 0.250000
O O2 0.362568 0.653128 0.500000
O O3 0.302035 0.714667 0.277084
O O4 0.401422 0.748734 0.241700
O O5 0.751390 0.500000 0.250000
O O6 0.803128 0.718341 0.260966
O O7 0.759028 0.654327 0.000000
O O8 0.500000 0.205987 0.750000
O O9 0.560591 0.000000 0.750000
O O10 0.551444 0.150826 0.000000
O O11 0.947139 0.152604 0.500000
O O12 0.902005 0.253618 0.253934
O O13 0.000000 0.202603 0.250000
O O14 0.938145 0.000000 0.250000
O O15 0.139904 0.500000 0.250000
O O16 0.140896 0.653599 0.000000
#
# Coordination Sequence:
#
# PCOD9393858 Si02
#       5
#     8   8   8   8   8
#     4  10  20  35  56  83 112 142 180 222 267 317
#     4   9  17  31  52  78 109 143 177 218 267 319
#     4  11  22  38  58  79 107 142 180 221 270 323
#     4  11  22  39  59  81 109 143 181 221 270 324
#     4  11  21  35  56  83 112 144 182 224 268 317
#
# _framework density 18.006851999999999
#
# number of rings (size 3 to 8) (size 9 to 14) (size 15 to 20)
#    0.000    1.600    0.000    9.000    0.000    3.200 
#    0.000    5.000    0.000    4.800    0.000    0.000 
#    0.000    0.000    0.000    0.000    0.000    0.000 
#
# Total GULP energy -223335.242057 kJ/mol
# GULP energy per Si atom -5583.381051 kJ/mol
# Density = 1.796587 g / cm^3
# Si number density = 18.006852 Si / 1000 Ang^3
#
#
#
# Elastic Constant Matrix: (Units=GPa)
#
#
# Indices 1 2 3 4 5 6 
#
# 1 215.2932 79.3698 97.9041 0.0000 0.0000 0.0000
# 2 79.3698 47.6968 41.6007 0.0000 0.0000 0.0000
# 3 97.9041 41.6007 180.1095 0.0000 0.0000 0.0000
# 4 0.0000 0.0000 0.0000 27.3137 0.0000 0.0000
# 5 0.0000 0.0000 0.0000 0.0000 35.1031 0.0000
# 6 0.0000 0.0000 0.0000 0.0000 0.0000 -744.7077
#
#
#
# Elastic Compliance Matrix: (Units=1/GPa)
#
#
# Indices 1 2 3 4 5 6 
#
# 1 0.012903 -0.019228 -0.002573 0.000000 0.000000 0.000000
# 2 -0.019228 0.054907 -0.002230 0.000000 0.000000 0.000000
# 3 -0.002573 -0.002230 0.007466 0.000000 0.000000 0.000000
# 4 0.000000 0.000000 0.000000 0.036612 0.000000 0.000000
# 5 0.000000 0.000000 0.000000 0.000000 0.028488 0.000000
# 6 0.000000 0.000000 0.000000 0.000000 0.000000 -0.001343
#
#
# Mechanical properties :
#
#
# Convention : Reuss Voigt Hill
#
# Bulk Modulus (GPa) = 36.74536 97.87208 67.30872
# Shear Modulus (GPa) = 25.48867 -121.50987 -48.01060
#
# Velocity S-wave (km/s) = 3.76639 -8.22352 -5.16917
# Velocity P-wave (km/s) = 6.27415 5.97476 1.35411
#
# Compressibility (1/GPa) = 0.02721432
#
# Stress axis : x y z
#
# Youngs Moduli (GPa) = 77.49944 18.21266 133.94255
#
# Poissons Ratio (x) = 0.35019 0.34462
# Poissons Ratio (y) = 1.49014 0.29873
# Poissons Ratio (z) = 0.19940 0.04062
#
# Static dielectric constant tensor:
#      x y z
#    x 1.645730 0.000000 0.000000 
#    y 0.000000 1.580620 0.000000 
#    z 0.000000 0.000000 1.597540 
# 
# From -- ./inp_files/6668.got.cif
#   From: 2010.05.17/outbox.cif.g08.bks.cpg/sg49_4_cif.got.tgz:6668.got - 2010.06.03 21:02:19.
