data_PCOD9393859
_publ_section_title
;
Structure prediction by ZEFSAII (Michael W. Deem and Ramdas Pophale) SiO2 
 PCOD9393859
Probable space group: P C C M
;
_chemical_formula_sum "Si O2"
_cell_formula_units_Z 48
_cell_length_a 8.684964
_cell_length_b 17.967815
_cell_length_c 16.152819
_cell_angle_alpha 90.000000
_cell_angle_beta 90.000000
_cell_angle_gamma 90.000000
_cell_volume 2520.644601
_symmetry_space_group_name_H-M "P C C M"
_symmetry_group_IT_number 49
_symmetry_cell_setting 'orthorhombic'
loop_
_space_group_symop_operation_xyz
x,y,z
-x,-y,z
x,-y,1/2-z
-x,y,1/2-z
-x,-y,-z
x,y,-z
-x,y,1/2+z
x,-y,1/2+z
loop_
_atom_site_type_symbol
_atom_site_label
_atom_site_fract_x
_atom_site_fract_y
_atom_site_fract_z
Si Si1 0.654642 0.834330 0.600697
Si Si2 0.891461 0.704013 0.169647
Si Si3 0.197511 0.679241 0.093981
Si Si4 0.683171 0.413599 0.242080
Si Si5 0.293981 0.157618 0.899023
Si Si6 0.687274 0.994470 0.403255
O O1 0.661473 0.838514 0.500000
O O2 0.742960 0.760068 0.625259
O O3 0.474146 0.829428 0.622010
O O4 0.722054 0.912998 0.632889
O O5 0.770783 0.639468 0.192785
O O6 0.806949 0.778720 0.141873
O O7 0.000000 0.714913 0.250000
O O8 0.013483 0.679369 0.100497
O O9 0.265577 0.617054 0.153156
O O10 0.249491 0.670498 0.000000
O O11 0.726110 0.500000 0.250000
O O12 0.500000 0.406408 0.250000
O O13 0.253561 0.073399 0.870454
O O14 0.281142 0.160406 0.000000
O O15 0.733036 0.993042 0.500000
O O16 0.500000 0.000000 0.401668
#
# Coordination Sequence:
#
# PCOD9393859 Si02
#       6
#     8   8   8   8   8   8
#     4   8  14  26  48  77 105 133 172 222 263 297
#     4  10  21  34  51  75 106 141 172 211 267 324
#     4  10  20  35  56  83 113 143 178 216 258 314
#     4  10  22  42  63  81 104 137 174 216 270 324
#     4   9  15  27  49  75 102 136 181 223 257 302
#     4   7  11  21  41  71 102 131 169 218 263 297
#
# _framework density 19.042748
#
# number of rings (size 3 to 8) (size 9 to 14) (size 15 to 20)
#    0.000    3.000    0.000    3.500    0.000    3.000 
#    0.000    5.833    0.000   11.000    0.000   15.167 
#    0.000    0.000    0.000    0.000    0.000    1.500 
#
# Total GULP energy -267497.498032 kJ/mol
# GULP energy per Si atom -5572.864542 kJ/mol
# Density = 1.899941 g / cm^3
# Si number density = 19.042748 Si / 1000 Ang^3
#
#
#
# Elastic Constant Matrix: (Units=GPa)
#
#
# Indices 1 2 3 4 5 6 
#
# 1 61.2352 72.2771 17.6700 0.0000 0.0000 0.0000
# 2 72.2771 201.3963 51.5378 0.0000 0.0000 0.0000
# 3 17.6700 51.5378 34.8591 0.0000 0.0000 0.0000
# 4 0.0000 0.0000 0.0000 3.7497 0.0000 0.0000
# 5 0.0000 0.0000 0.0000 0.0000 10.9592 0.0000
# 6 0.0000 0.0000 0.0000 0.0000 0.0000 -25.0656
#
#
#
# Elastic Compliance Matrix: (Units=1/GPa)
#
#
# Indices 1 2 3 4 5 6 
#
# 1 0.028357 -0.010453 0.001081 0.000000 0.000000 0.000000
# 2 -0.010453 0.011841 -0.012207 0.000000 0.000000 0.000000
# 3 0.001081 -0.012207 0.046187 0.000000 0.000000 0.000000
# 4 0.000000 0.000000 0.000000 0.266686 0.000000 0.000000
# 5 0.000000 0.000000 0.000000 0.000000 0.091247 0.000000
# 6 0.000000 0.000000 0.000000 0.000000 0.000000 -0.039895
#
#
# Mechanical properties :
#
#
# Convention : Reuss Voigt Hill
#
# Bulk Modulus (GPa) = 23.13480 64.49559 43.81520
# Shear Modulus (GPa) = 10.82275 8.32907 9.57591
#
# Velocity S-wave (km/s) = 2.38657 2.09365 2.24490
# Velocity P-wave (km/s) = 4.44630 6.30768 5.45694
#
# Compressibility (1/GPa) = 0.04322492
#
# Stress axis : x y z
#
# Youngs Moduli (GPa) = 35.26495 84.45493 21.65113
#
# Poissons Ratio (x) = 0.88283 -0.02340
# Poissons Ratio (y) = 0.36863 0.26430
# Poissons Ratio (z) = -0.03811 1.03096
#
# Static dielectric constant tensor:
#      x y z
#    x 1.653900 0.000000 0.000000 
#    y 0.000000 1.671160 0.000000 
#    z 0.000000 0.000000 1.684770 
# 
# From -- ./inp_files/16282.got.cif
#   From: 2010.05.17/outbox.cif.g08.bks.cpg/sg49_9_cif.got.tgz:16282.got - 2010.06.03 21:02:19.
