data_PCOD9393590
_publ_section_title
;
Structure prediction by ZEFSAII (Michael W. Deem and Ramdas Pophale) SiO2 
 PCOD9393590
Probable space group: P C C M
;
_chemical_formula_sum "Si O2"
_cell_formula_units_Z 64
_cell_length_a 14.680937
_cell_length_b 27.309783
_cell_length_c 8.207356
_cell_angle_alpha 90.000000
_cell_angle_beta 90.000000
_cell_angle_gamma 90.000000
_cell_volume 3290.601535
_symmetry_space_group_name_H-M "P C C M"
_symmetry_group_IT_number 49
_symmetry_cell_setting 'orthorhombic'
loop_
_space_group_symop_operation_xyz
x,y,z
-x,-y,z
x,-y,1/2-z
-x,y,1/2-z
-x,-y,-z
x,y,-z
-x,y,1/2+z
x,-y,1/2+z
loop_
_atom_site_type_symbol
_atom_site_label
_atom_site_fract_x
_atom_site_fract_y
_atom_site_fract_z
Si Si1 0.215287 0.852543 0.196642
Si Si2 0.396193 0.406574 0.303316
Si Si3 0.894990 0.648506 0.302995
Si Si4 0.605191 0.701498 0.696029
Si Si5 0.603856 0.808826 0.303383
Si Si6 0.105211 0.243136 0.302911
Si Si7 0.788099 0.552173 0.303491
Si Si8 0.103737 0.945979 0.692511
O O1 0.320059 0.847110 0.251417
O O2 0.160243 0.804354 0.255114
O O3 0.166879 0.902181 0.247512
O O4 0.214554 0.850790 0.000000
O O5 0.500000 0.415740 0.250000
O O6 0.397676 0.406572 0.500000
O O7 0.363661 0.352009 0.248534
O O8 0.317047 0.442715 0.247008
O O9 0.890066 0.648350 0.500000
O O10 0.860789 0.702662 0.249741
O O11 0.841833 0.600372 0.245001
O O12 0.000000 0.645236 0.250000
O O13 0.500000 0.702032 0.750000
O O14 0.613755 0.701230 0.500000
O O15 0.638542 0.754647 0.751570
O O16 0.500000 0.816718 0.250000
O O17 0.602465 0.808114 0.500000
O O18 0.109123 0.242920 0.500000
O O19 0.000000 0.239000 0.250000
O O20 0.826581 0.500000 0.250000
O O21 0.788703 0.553459 0.500000
O O22 0.103100 0.946012 0.500000
O O23 0.000000 0.937837 0.750000
O O24 0.132551 0.000000 0.750000
#
# Coordination Sequence:
#
# PCOD9393590 Si02
#       8
#     8   8   8   8   8   8   8   8
#     4  10  20  33  53  83 114 149 186 223 269 322
#     4   9  18  32  51  73  98 129 166 207 255 311
#     4   9  19  36  56  76  99 131 168 210 261 316
#     4   8  14  26  45  68  94 127 167 208 252 303
#     4   9  18  31  49  74 108 146 184 224 266 315
#     4   9  18  32  52  77 107 138 170 209 259 319
#     4  10  22  37  53  73  97 128 168 213 260 315
#     4  11  22  38  60  85 116 152 189 231 273 319
#
# _framework density 19.449331000000001
#
# number of rings (size 3 to 8) (size 9 to 14) (size 15 to 20)
#    0.000    2.625    0.000    1.875    1.750    3.500 
#    0.000    2.500    0.000    0.375    0.000    2.625 
#    0.000    0.000    0.000    0.000    0.000    0.000 
#
# Total GULP energy -356758.444844 kJ/mol
# GULP energy per Si atom -5574.350701 kJ/mol
# Density = 1.940506 g / cm^3
# Si number density = 19.449331 Si / 1000 Ang^3
#
#
#
# Elastic Constant Matrix: (Units=GPa)
#
#
# Indices 1 2 3 4 5 6 
#
# 1 87.6490 87.2471 13.0638 0.0000 0.0000 0.0000
# 2 87.2471 165.8129 20.3709 0.0000 0.0000 0.0000
# 3 13.0638 20.3709 18.7854 0.0000 0.0000 0.0000
# 4 0.0000 0.0000 0.0000 19.9499 0.0000 0.0000
# 5 0.0000 0.0000 0.0000 0.0000 15.8644 0.0000
# 6 0.0000 0.0000 0.0000 0.0000 0.0000 30.1539
#
#
#
# Elastic Compliance Matrix: (Units=1/GPa)
#
#
# Indices 1 2 3 4 5 6 
#
# 1 0.024152 -0.012281 -0.003478 0.000000 0.000000 0.000000
# 2 -0.012281 0.013203 -0.005776 0.000000 0.000000 0.000000
# 3 -0.003478 -0.005776 0.061916 0.000000 0.000000 0.000000
# 4 0.000000 0.000000 0.000000 0.050126 0.000000 0.000000
# 5 0.000000 0.000000 0.000000 0.000000 0.063034 0.000000
# 6 0.000000 0.000000 0.000000 0.000000 0.000000 0.033163
#
#
# Mechanical properties :
#
#
# Convention : Reuss Voigt Hill
#
# Bulk Modulus (GPa) = 17.79393 57.06786 37.43090
# Shear Modulus (GPa) = 16.26552 23.29801 19.78176
#
# Velocity S-wave (km/s) = 2.89503 3.46480 3.19265
# Velocity P-wave (km/s) = 4.51039 6.73884 5.73392
#
# Compressibility (1/GPa) = 0.05619895
#
# Stress axis : x y z
#
# Youngs Moduli (GPa) = 41.40373 75.74268 16.15096
#
# Poissons Ratio (x) = 0.93020 0.05618
# Poissons Ratio (y) = 0.50848 0.09329
# Poissons Ratio (z) = 0.14402 0.43752
#
# Static dielectric constant tensor:
#      x y z
#    x 1.663230 0.000000 0.000000 
#    y 0.000000 1.015470 0.000000 
#    z 0.000000 0.000000 1.695180 
# 
# From -- ./inp_files/4404.got.cif
#   From: 2010.05.17/outbox.cif.g08.bks.cpg/sg49_3_cif.got.tgz:4404.got - 2010.06.03 21:02:19.
