data_PCOD9393952
_publ_section_title
;
Structure prediction by ZEFSAII (Michael W. Deem and Ramdas Pophale) SiO2 
 PCOD9393952
Probable space group: P C C M
;
_chemical_formula_sum "Si O2"
_cell_formula_units_Z 58
_cell_length_a 19.528634
_cell_length_b 19.501744
_cell_length_c 8.875917
_cell_angle_alpha 90.000000
_cell_angle_beta 90.000000
_cell_angle_gamma 90.000000
_cell_volume 3380.325718
_symmetry_space_group_name_H-M "P C C M"
_symmetry_group_IT_number 49
_symmetry_cell_setting 'orthorhombic'
loop_
_space_group_symop_operation_xyz
x,y,z
-x,-y,z
x,-y,1/2-z
-x,y,1/2-z
-x,-y,-z
x,y,-z
-x,y,1/2+z
x,-y,1/2+z
loop_
_atom_site_type_symbol
_atom_site_label
_atom_site_fract_x
_atom_site_fract_y
_atom_site_fract_z
Si Si1 0.318676 0.574582 0.820127
Si Si2 0.255685 0.072801 0.678686
Si Si3 0.884993 0.893298 0.830511
Si Si4 0.424669 0.693835 0.818244
Si Si5 0.073164 0.736057 0.320518
Si Si6 0.684778 0.207466 0.680442
Si Si7 0.000000 0.000000 0.750000
Si Si8 0.791023 0.314624 0.181022
O O1 0.323723 0.500000 0.750000
O O2 0.380302 0.626130 0.776996
O O3 0.248586 0.614973 0.781624
O O4 0.320827 0.567909 0.000000
O O5 0.264465 0.073195 0.500000
O O6 0.175580 0.086094 0.718483
O O7 0.299607 0.132642 0.755288
O O8 0.273863 0.000000 0.750000
O O9 0.911343 0.817075 0.793778
O O10 0.947239 0.947469 0.829252
O O11 0.855363 0.891826 0.000000
O O12 0.500000 0.689967 0.750000
O O13 0.382848 0.757717 0.749720
O O14 0.426183 0.698765 0.000000
O O15 0.073439 0.725718 0.500000
O O16 0.132770 0.692526 0.242249
O O17 0.000000 0.719938 0.250000
O O18 0.682599 0.207898 0.500000
O O19 0.747096 0.254861 0.739835
O O20 0.788475 0.305275 0.000000
#
# Coordination Sequence:
#
# PCOD9393952 Si02
#       8
#     8   8   8   8   8   8   2   8
#     4   9  20  36  57  86 120 154 189 226 270 329
#     4  12  24  37  55  77 106 142 185 238 289 338
#     4  11  23  35  49  72 101 138 185 228 281 343
#     4  10  21  38  59  89 123 157 192 227 271 324
#     4  11  22  35  52  76 105 140 187 237 287 341
#     4  11  21  36  58  83 111 147 191 236 283 336
#     4  12  22  36  52  66 110 148 186 228 290 352
#     4  10  20  36  56  80 110 146 189 235 283 336
#
# _framework density 17.158110000000001
#
# number of rings (size 3 to 8) (size 9 to 14) (size 15 to 20)
#    0.000    1.379    2.759    4.759    0.000    4.690 
#    0.000    1.379    0.000    0.828    0.000    5.793 
#    0.000    0.000    0.000    0.000    0.000    0.000 
#
# Total GULP energy -323918.836062 kJ/mol
# GULP energy per Si atom -5584.807518 kJ/mol
# Density = 1.711906 g / cm^3
# Si number density = 17.158110 Si / 1000 Ang^3
#
#
#
# Elastic Constant Matrix: (Units=GPa)
#
#
# Indices 1 2 3 4 5 6 
#
# 1 137.6190 81.9181 62.9531 0.0000 0.0000 0.0000
# 2 81.9181 126.5565 64.4625 0.0000 0.0000 0.0000
# 3 62.9531 64.4625 113.2843 0.0000 0.0000 0.0000
# 4 0.0000 0.0000 0.0000 25.6307 0.0000 0.0000
# 5 0.0000 0.0000 0.0000 0.0000 29.3716 0.0000
# 6 0.0000 0.0000 0.0000 0.0000 0.0000 13.7531
#
#
#
# Elastic Compliance Matrix: (Units=1/GPa)
#
#
# Indices 1 2 3 4 5 6 
#
# 1 0.012659 -0.006493 -0.003340 0.000000 0.000000 0.000000
# 2 -0.006493 0.014457 -0.004618 0.000000 0.000000 0.000000
# 3 -0.003340 -0.004618 0.013311 0.000000 0.000000 0.000000
# 4 0.000000 0.000000 0.000000 0.039016 0.000000 0.000000
# 5 0.000000 0.000000 0.000000 0.000000 0.034046 0.000000
# 6 0.000000 0.000000 0.000000 0.000000 0.000000 0.072711
#
#
# Mechanical properties :
#
#
# Convention : Reuss Voigt Hill
#
# Bulk Modulus (GPa) = 86.76882 88.45858 87.61370
# Shear Modulus (GPa) = 22.83684 24.95949 23.89817
#
# Velocity S-wave (km/s) = 3.65220 3.81816 3.73610
# Velocity P-wave (km/s) = 8.27434 8.43236 8.35372
#
# Compressibility (1/GPa) = 0.01152488
#
# Stress axis : x y z
#
# Youngs Moduli (GPa) = 78.99358 69.17261 75.12318
#
# Poissons Ratio (x) = 0.44912 0.25093
# Poissons Ratio (y) = 0.51289 0.34693
# Poissons Ratio (z) = 0.26386 0.31945
#
# Static dielectric constant tensor:
#      x y z
#    x 1.576170 0.000000 0.000000 
#    y 0.000000 1.573530 0.000000 
#    z 0.000000 0.000000 1.591110 
# 
# From -- ./inp_files/5084.got.cif
#   From: 2010.05.17/outbox.cif.g08.bks.cpg/sg49_3_cif.got.tgz:5084.got - 2010.06.03 21:02:19.
