data_PCOD9393704
_publ_section_title
;
Structure prediction by ZEFSAII (Michael W. Deem and Ramdas Pophale) SiO2 
 PCOD9393704
Probable space group: P C C M
;
_chemical_formula_sum "Si O2"
_cell_formula_units_Z 48
_cell_length_a 9.261066
_cell_length_b 31.804497
_cell_length_c 8.658543
_cell_angle_alpha 90.000000
_cell_angle_beta 90.000000
_cell_angle_gamma 90.000000
_cell_volume 2550.317957
_symmetry_space_group_name_H-M "P C C M"
_symmetry_group_IT_number 49
_symmetry_cell_setting 'orthorhombic'
loop_
_space_group_symop_operation_xyz
x,y,z
-x,-y,z
x,-y,1/2-z
-x,y,1/2-z
-x,-y,-z
x,y,-z
-x,y,1/2+z
x,-y,1/2+z
loop_
_atom_site_type_symbol
_atom_site_label
_atom_site_fract_x
_atom_site_fract_y
_atom_site_fract_z
Si Si1 0.663437 0.957440 0.684480
Si Si2 0.160887 0.623541 0.185011
Si Si3 0.660456 0.546077 0.185487
Si Si4 0.662956 0.864459 0.314747
Si Si5 0.839330 0.213726 0.315302
Si Si6 0.338468 0.702272 0.314232
O O1 0.500000 0.956715 0.750000
O O2 0.657627 0.960743 0.500000
O O3 0.722030 0.911226 0.726105
O O4 0.733701 0.000000 0.750000
O O5 0.231407 0.581305 0.253302
O O6 0.256653 0.662681 0.241397
O O7 0.000000 0.628641 0.250000
O O8 0.158909 0.621685 0.000000
O O9 0.699449 0.500000 0.250000
O O10 0.500000 0.555609 0.250000
O O11 0.656798 0.545375 0.000000
O O12 0.500000 0.860549 0.250000
O O13 0.656095 0.861792 0.500000
O O14 0.760738 0.827465 0.249650
O O15 0.845152 0.211026 0.500000
O O16 0.746973 0.255074 0.274147
O O17 0.000000 0.217369 0.250000
O O18 0.500000 0.704477 0.250000
O O19 0.340993 0.697926 0.500000
#
# Coordination Sequence:
#
# PCOD9393704 Si02
#       6
#     8   8   8   8   8   8
#     4   9  16  26  44  72 105 141 179 226 277 329
#     4  12  25  42  63  90 123 160 199 243 294 349
#     4  11  22  40  64  92 124 161 204 250 297 347
#     4  10  20  34  54  81 113 147 188 233 282 336
#     4  11  24  40  60  84 114 150 189 233 286 342
#     4  11  24  42  64  91 119 152 192 237 286 340
#
# _framework density 18.821182
#
# number of rings (size 3 to 8) (size 9 to 14) (size 15 to 20)
#    0.000    1.333    0.000    7.500    0.000    7.667 
#    0.000    1.667    0.000    0.500    0.000    3.500 
#    0.000    0.000    0.000    0.000    0.000    0.000 
#
# Total GULP energy -268304.485078 kJ/mol
# GULP energy per Si atom -5589.676772 kJ/mol
# Density = 1.877834 g / cm^3
# Si number density = 18.821182 Si / 1000 Ang^3
#
#
#
# Elastic Constant Matrix: (Units=GPa)
#
#
# Indices 1 2 3 4 5 6 
#
# 1 136.8353 106.6519 61.3312 0.0000 0.0000 0.0000
# 2 106.6519 160.5563 79.2248 0.0000 0.0000 0.0000
# 3 61.3312 79.2248 126.1100 0.0000 0.0000 0.0000
# 4 0.0000 0.0000 0.0000 29.9080 0.0000 0.0000
# 5 0.0000 0.0000 0.0000 0.0000 31.4863 0.0000
# 6 0.0000 0.0000 0.0000 0.0000 0.0000 -27.2982
#
#
#
# Elastic Compliance Matrix: (Units=1/GPa)
#
#
# Indices 1 2 3 4 5 6 
#
# 1 0.015356 -0.009443 -0.001536 0.000000 0.000000 0.000000
# 2 -0.009443 0.014833 -0.004726 0.000000 0.000000 0.000000
# 3 -0.001536 -0.004726 0.011646 0.000000 0.000000 0.000000
# 4 0.000000 0.000000 0.000000 0.033436 0.000000 0.000000
# 5 0.000000 0.000000 0.000000 0.000000 0.031760 0.000000
# 6 0.000000 0.000000 0.000000 0.000000 0.000000 -0.036632
#
#
# Mechanical properties :
#
#
# Convention : Reuss Voigt Hill
#
# Bulk Modulus (GPa) = 95.92258 101.99084 98.95671
# Shear Modulus (GPa) = 47.49110 18.57212 33.03161
#
# Velocity S-wave (km/s) = 5.02867 3.14469 4.19384
# Velocity P-wave (km/s) = 9.20829 8.21538 8.72597
#
# Compressibility (1/GPa) = 0.01042507
#
# Stress axis : x y z
#
# Youngs Moduli (GPa) = 65.11942 67.41827 85.86900
#
# Poissons Ratio (x) = 0.63661 0.13191
# Poissons Ratio (y) = 0.61490 0.40581
# Poissons Ratio (z) = 0.10004 0.31862
#
# Static dielectric constant tensor:
#      x y z
#    x 1.610370 0.000000 0.000000 
#    y 0.000000 1.666250 0.000000 
#    z 0.000000 0.000000 1.629720 
# 
# From -- ./inp_files/2059.got.cif
#   From: 2010.05.17/outbox.cif.g08.bks.cpg/sg49_2_cif.got.tgz:2059.got - 2010.06.03 21:02:19.
