data_PCOD9393649
_publ_section_title
;
Structure prediction by ZEFSAII (Michael W. Deem and Ramdas Pophale) SiO2 
 PCOD9393649
Probable space group: P C C M
;
_chemical_formula_sum "Si O2"
_cell_formula_units_Z 40
_cell_length_a 26.679574
_cell_length_b 9.787676
_cell_length_c 8.704048
_cell_angle_alpha 90.000000
_cell_angle_beta 90.000000
_cell_angle_gamma 90.000000
_cell_volume 2272.896986
_symmetry_space_group_name_H-M "P C C M"
_symmetry_group_IT_number 49
_symmetry_cell_setting 'orthorhombic'
loop_
_space_group_symop_operation_xyz
x,y,z
-x,-y,z
x,-y,1/2-z
-x,y,1/2-z
-x,-y,-z
x,y,-z
-x,y,1/2+z
x,-y,1/2+z
loop_
_atom_site_type_symbol
_atom_site_label
_atom_site_fract_x
_atom_site_fract_y
_atom_site_fract_z
Si Si1 0.661831 0.653941 0.184687
Si Si2 0.946799 0.651683 0.184051
Si Si3 0.252401 0.152451 0.316253
Si Si4 0.449554 0.653964 0.683242
Si Si5 0.854971 0.151340 0.684633
O O1 0.665667 0.500000 0.250000
O O2 0.704392 0.748185 0.256340
O O3 0.605693 0.709804 0.221418
O O4 0.666586 0.649273 0.000000
O O5 0.938721 0.500000 0.250000
O O6 0.900723 0.749473 0.225111
O O7 0.000000 0.701731 0.250000
O O8 0.950306 0.644031 0.000000
O O9 0.251866 0.147393 0.500000
O O10 0.197965 0.198779 0.254615
O O11 0.260216 0.000000 0.250000
O O12 0.448516 0.500000 0.750000
O O13 0.500000 0.721030 0.750000
O O14 0.454151 0.647146 0.500000
O O15 0.850485 0.144728 0.500000
O O16 0.864282 0.000000 0.750000
#
# Coordination Sequence:
#
# PCOD9393649 Si02
#       5
#     8   8   8   8   8
#     4  10  20  34  52  78 108 138 175 218 262 311
#     4  10  21  36  56  80 108 140 173 210 255 306
#     4  11  22  37  57  78 104 140 176 217 265 315
#     4   9  16  26  44  69 100 134 168 209 256 305
#     4  10  21  37  56  79 105 136 175 217 258 307
#
# _framework density 17.598686000000001
#
# number of rings (size 3 to 8) (size 9 to 14) (size 15 to 20)
#    0.000    2.000    0.000    6.600    0.000    6.800 
#    0.000    4.000    0.000    0.600    0.000    4.200 
#    0.000    0.000    0.000    0.000    0.000    0.000 
#
# Total GULP energy -223185.575712 kJ/mol
# GULP energy per Si atom -5579.639393 kJ/mol
# Density = 1.755863 g / cm^3
# Si number density = 17.598686 Si / 1000 Ang^3
#
#
#
# Elastic Constant Matrix: (Units=GPa)
#
#
# Indices 1 2 3 4 5 6 
#
# 1 219.8452 90.2072 86.0513 0.0000 0.0000 0.0000
# 2 90.2072 51.5796 38.6756 0.0000 0.0000 0.0000
# 3 86.0513 38.6756 101.8226 0.0000 0.0000 0.0000
# 4 0.0000 0.0000 0.0000 26.1116 0.0000 0.0000
# 5 0.0000 0.0000 0.0000 0.0000 32.7194 0.0000
# 6 0.0000 0.0000 0.0000 0.0000 0.0000 -115.4951
#
#
#
# Elastic Compliance Matrix: (Units=1/GPa)
#
#
# Indices 1 2 3 4 5 6 
#
# 1 0.017413 -0.027153 -0.004403 0.000000 0.000000 0.000000
# 2 -0.027153 0.069448 -0.003431 0.000000 0.000000 0.000000
# 3 -0.004403 -0.003431 0.014845 0.000000 0.000000 0.000000
# 4 0.000000 0.000000 0.000000 0.038297 0.000000 0.000000
# 5 0.000000 0.000000 0.000000 0.000000 0.030563 0.000000
# 6 0.000000 0.000000 0.000000 0.000000 0.000000 -0.008658
#
#
# Mechanical properties :
#
#
# Convention : Reuss Voigt Hill
#
# Bulk Modulus (GPa) = 31.51349 89.23506 60.37427
# Shear Modulus (GPa) = 20.62204 -0.77858 9.92173
#
# Velocity S-wave (km/s) = 3.42686 -0.66586 2.37697
# Velocity P-wave (km/s) = 5.79685 7.08692 6.47410
#
# Compressibility (1/GPa) = 0.03173244
#
# Stress axis : x y z
#
# Youngs Moduli (GPa) = 57.42742 14.39930 67.36236
#
# Poissons Ratio (x) = 0.39098 0.29657
# Poissons Ratio (y) = 1.55931 0.23115
# Poissons Ratio (z) = 0.25283 0.04941
#
# Static dielectric constant tensor:
#      x y z
#    x 1.629470 0.000000 0.000000 
#    y 0.000000 1.563220 0.000000 
#    z 0.000000 0.000000 1.588700 
# 
# From -- ./inp_files/1890.got.cif
#   From: 2010.05.17/outbox.cif.g08.bks.cpg/sg49_1_cif.got.tgz:1890.got - 2010.06.03 21:02:19.
