data_PCOD9393562
_publ_section_title
;
Structure prediction by ZEFSAII (Michael W. Deem and Ramdas Pophale) SiO2 
 PCOD9393562
Probable space group: P C C M
;
_chemical_formula_sum "Si O2"
_cell_formula_units_Z 48
_cell_length_a 9.758089
_cell_length_b 31.340223
_cell_length_c 8.677239
_cell_angle_alpha 90.000000
_cell_angle_beta 90.000000
_cell_angle_gamma 90.000000
_cell_volume 2653.679178
_symmetry_space_group_name_H-M "P C C M"
_symmetry_group_IT_number 49
_symmetry_cell_setting 'orthorhombic'
loop_
_space_group_symop_operation_xyz
x,y,z
-x,-y,z
x,-y,1/2-z
-x,y,1/2-z
-x,-y,-z
x,y,-z
-x,y,1/2+z
x,-y,1/2+z
loop_
_atom_site_type_symbol
_atom_site_label
_atom_site_fract_x
_atom_site_fract_y
_atom_site_fract_z
Si Si1 0.155059 0.543198 0.684228
Si Si2 0.153574 0.362813 0.184472
Si Si3 0.351942 0.952309 0.185155
Si Si4 0.349265 0.290821 0.683786
Si Si5 0.347662 0.191940 0.314869
Si Si6 0.846607 0.880764 0.815446
O O1 0.221387 0.500000 0.750000
O O2 0.149277 0.539811 0.500000
O O3 0.212106 0.589965 0.725961
O O4 0.000000 0.544031 0.750000
O O5 0.244056 0.324592 0.248105
O O6 0.000000 0.359803 0.250000
O O7 0.147230 0.360672 0.000000
O O8 0.500000 0.937694 0.250000
O O9 0.234891 0.921074 0.245986
O O10 0.330754 0.000000 0.250000
O O11 0.355943 0.952924 0.000000
O O12 0.500000 0.299163 0.750000
O O13 0.352221 0.294615 0.500000
O O14 0.314824 0.241467 0.720997
O O15 0.500000 0.183183 0.250000
O O16 0.348203 0.186345 0.500000
O O17 0.238715 0.160509 0.239021
O O18 0.000000 0.879254 0.750000
O O19 0.848925 0.883288 0.000000
#
# Coordination Sequence:
#
# PCOD9393562 Si02
#       6
#     8   8   8   8   8   8
#     4   9  16  26  43  68  98 133 171 215 262 314
#     4  10  20  33  51  77 108 140 178 221 270 322
#     4  11  22  40  64  91 120 154 195 237 278 326
#     4  10  21  37  58  81 108 142 181 223 272 326
#     4  10  21  39  61  85 110 143 185 228 272 325
#     4  12  25  41  60  86 118 153 189 231 282 333
#
# _framework density 18.088093000000001
#
# number of rings (size 3 to 8) (size 9 to 14) (size 15 to 20)
#    0.000    1.667    0.000    6.500    0.000    5.000 
#    0.000    1.667    0.000    0.500    0.000    3.500 
#    0.000    0.000    0.000    0.000    0.000    0.000 
#
# Total GULP energy -268070.779103 kJ/mol
# GULP energy per Si atom -5584.807898 kJ/mol
# Density = 1.804692 g / cm^3
# Si number density = 18.088093 Si / 1000 Ang^3
#
#
#
# Elastic Constant Matrix: (Units=GPa)
#
#
# Indices 1 2 3 4 5 6 
#
# 1 117.6279 101.8901 63.5304 0.0000 0.0000 0.0000
# 2 101.8901 142.3400 76.1987 0.0000 0.0000 0.0000
# 3 63.5304 76.1987 131.5814 0.0000 0.0000 0.0000
# 4 0.0000 0.0000 0.0000 35.6717 0.0000 0.0000
# 5 0.0000 0.0000 0.0000 0.0000 31.8401 0.0000
# 6 0.0000 0.0000 0.0000 0.0000 0.0000 31.8328
#
#
#
# Elastic Compliance Matrix: (Units=1/GPa)
#
#
# Indices 1 2 3 4 5 6 
#
# 1 0.022829 -0.015132 -0.002259 0.000000 0.000000 0.000000
# 2 -0.015132 0.020212 -0.004399 0.000000 0.000000 0.000000
# 3 -0.002259 -0.004399 0.011238 0.000000 0.000000 0.000000
# 4 0.000000 0.000000 0.000000 0.028033 0.000000 0.000000
# 5 0.000000 0.000000 0.000000 0.000000 0.031407 0.000000
# 6 0.000000 0.000000 0.000000 0.000000 0.000000 0.031414
#
#
# Mechanical properties :
#
#
# Convention : Reuss Voigt Hill
#
# Bulk Modulus (GPa) = 93.46800 97.19864 95.33332
# Shear Modulus (GPa) = 26.00364 29.86425 27.93394
#
# Velocity S-wave (km/s) = 3.79570 4.06771 3.93406
# Velocity P-wave (km/s) = 8.42590 8.71290 8.57060
#
# Compressibility (1/GPa) = 0.01069885
#
# Stress axis : x y z
#
# Youngs Moduli (GPa) = 43.80338 49.47539 88.98345
#
# Poissons Ratio (x) = 0.74867 0.20106
# Poissons Ratio (y) = 0.66284 0.39141
# Poissons Ratio (z) = 0.09897 0.21763
#
# Static dielectric constant tensor:
#      x y z
#    x 1.576910 0.000000 0.000000 
#    y 0.000000 1.650110 0.000000 
#    z 0.000000 0.000000 1.602210 
# 
# From -- ./inp_files/2073.got.cif
#   From: 2010.05.17/outbox.cif.g08.bks.cpg/sg49_2_cif.got.tgz:2073.got - 2010.06.03 21:02:19.
