data_PCOD9393903
_publ_section_title
;
Structure prediction by ZEFSAII (Michael W. Deem and Ramdas Pophale) SiO2 
 PCOD9393903
Probable space group: P C C M
;
_chemical_formula_sum "Si O2"
_cell_formula_units_Z 30
_cell_length_a 5.304284
_cell_length_b 14.544829
_cell_length_c 18.947768
_cell_angle_alpha 90.000000
_cell_angle_beta 90.000000
_cell_angle_gamma 90.000000
_cell_volume 1461.818477
_symmetry_space_group_name_H-M "P C C M"
_symmetry_group_IT_number 49
_symmetry_cell_setting 'orthorhombic'
loop_
_space_group_symop_operation_xyz
x,y,z
-x,-y,z
x,-y,1/2-z
-x,y,1/2-z
-x,-y,-z
x,y,-z
-x,y,1/2+z
x,-y,1/2+z
loop_
_atom_site_type_symbol
_atom_site_label
_atom_site_fract_x
_atom_site_fract_y
_atom_site_fract_z
Si Si1 0.500000 0.500000 0.750000
Si Si2 0.328282 0.337211 0.841766
Si Si3 0.852142 0.721579 0.583380
Si Si4 0.891150 0.096098 0.830446
Si Si5 0.500000 0.820315 0.750000
O O1 0.343041 0.431518 0.799179
O O2 0.594597 0.314937 0.880354
O O3 0.307875 0.253466 0.784911
O O4 0.092167 0.338338 0.893496
O O5 0.818719 0.724877 0.500000
O O6 0.928216 0.821617 0.614719
O O7 0.597728 0.112713 0.811188
O O8 0.000000 0.103906 0.750000
O O9 0.000000 0.000000 0.857036
#
# Coordination Sequence:
#
# PCOD9393903 Si02
#       5
#     2   8   8   8   4
#     4  10  24  42  72  98 122 146 212 254 308 356
#     4  10  22  40  65  91 118 160 200 252 303 363
#     4  11  23  42  62  89 129 167 199 240 308 371
#     4  10  20  35  58  89 117 159 208 260 293 345
#     4   9  18  36  57  84 122 150 205 257 307 347
#
# _framework density 20.522386000000001
#
# number of rings (size 3 to 8) (size 9 to 14) (size 15 to 20)
#    0.000    1.867    2.667    0.800    0.000    4.800 
#    0.000    4.000    0.000    4.800    0.000    0.000 
#    0.000    0.000    0.000    0.000    0.000    0.000 
#
# Total GULP energy -167104.690182 kJ/mol
# GULP energy per Si atom -5570.156339 kJ/mol
# Density = 2.047568 g / cm^3
# Si number density = 20.522386 Si / 1000 Ang^3
#
#
#
# Elastic Constant Matrix: (Units=GPa)
#
#
# Indices 1 2 3 4 5 6 
#
# 1 85.5229 50.6039 35.7873 0.0000 0.0000 0.0000
# 2 50.6039 148.2157 54.1824 0.0000 0.0000 0.0000
# 3 35.7873 54.1824 116.0707 0.0000 0.0000 0.0000
# 4 0.0000 0.0000 0.0000 19.9105 0.0000 0.0000
# 5 0.0000 0.0000 0.0000 0.0000 21.0443 0.0000
# 6 0.0000 0.0000 0.0000 0.0000 0.0000 4.3635
#
#
#
# Elastic Compliance Matrix: (Units=1/GPa)
#
#
# Indices 1 2 3 4 5 6 
#
# 1 0.015351 -0.004233 -0.002757 0.000000 0.000000 0.000000
# 2 -0.004233 0.009303 -0.003037 0.000000 0.000000 0.000000
# 3 -0.002757 -0.003037 0.010883 0.000000 0.000000 0.000000
# 4 0.000000 0.000000 0.000000 0.050225 0.000000 0.000000
# 5 0.000000 0.000000 0.000000 0.000000 0.047519 0.000000
# 6 0.000000 0.000000 0.000000 0.000000 0.000000 0.229172
#
#
# Mechanical properties :
#
#
# Convention : Reuss Voigt Hill
#
# Bulk Modulus (GPa) = 64.59140 70.10627 67.34884
# Shear Modulus (GPa) = 12.89762 23.01272 17.95517
#
# Velocity S-wave (km/s) = 2.50964 3.35229 2.96109
# Velocity P-wave (km/s) = 6.31979 7.01561 6.67677
#
# Compressibility (1/GPa) = 0.01548194
#
# Stress axis : x y z
#
# Youngs Moduli (GPa) = 65.14082 107.49678 91.88403
#
# Poissons Ratio (x) = 0.45508 0.25332
# Poissons Ratio (y) = 0.27577 0.27907
# Poissons Ratio (z) = 0.17959 0.32649
#
# Static dielectric constant tensor:
#      x y z
#    x 1.987720 0.000000 0.000000 
#    y 0.000000 1.761650 0.000000 
#    z 0.000000 0.000000 1.715410 
# 
# From -- ./inp_files/15089.got.cif
#   From: 2010.05.17/outbox.cif.g08.bks.cpg/sg49_8_cif.got.tgz:15089.got - 2010.06.03 21:02:19.
