data_PCOD9393733
_publ_section_title
;
Structure prediction by ZEFSAII (Michael W. Deem and Ramdas Pophale) SiO2 
 PCOD9393733
Probable space group: P C C M
;
_chemical_formula_sum "Si O2"
_cell_formula_units_Z 48
_cell_length_a 20.798813
_cell_length_b 14.726890
_cell_length_c 8.728573
_cell_angle_alpha 90.000000
_cell_angle_beta 90.000000
_cell_angle_gamma 90.000000
_cell_volume 2673.577894
_symmetry_space_group_name_H-M "P C C M"
_symmetry_group_IT_number 49
_symmetry_cell_setting 'orthorhombic'
loop_
_space_group_symop_operation_xyz
x,y,z
-x,-y,z
x,-y,1/2-z
-x,y,1/2-z
-x,-y,-z
x,y,-z
-x,y,1/2+z
x,-y,1/2+z
loop_
_atom_site_type_symbol
_atom_site_label
_atom_site_fract_x
_atom_site_fract_y
_atom_site_fract_z
Si Si1 0.682957 0.718230 0.183920
Si Si2 0.932901 0.284989 0.316519
Si Si3 0.112872 0.902755 0.817652
Si Si4 0.428846 0.401976 0.316630
Si Si5 0.808107 0.600800 0.815441
Si Si6 0.733947 0.902592 0.317359
O O1 0.620839 0.673502 0.260393
O O2 0.745167 0.658064 0.229266
O O3 0.696763 0.819838 0.239988
O O4 0.676982 0.715857 0.000000
O O5 0.935099 0.284636 0.500000
O O6 0.921739 0.182713 0.257651
O O7 0.872234 0.345680 0.265963
O O8 0.000000 0.319807 0.250000
O O9 0.189459 0.892226 0.785809
O O10 0.092690 0.000000 0.750000
O O11 0.103331 0.902150 0.000000
O O12 0.407801 0.500000 0.250000
O O13 0.500000 0.385109 0.250000
O O14 0.431348 0.406740 0.500000
O O15 0.805963 0.500000 0.750000
O O16 0.808880 0.596284 0.000000
O O17 0.725333 0.901049 0.500000
O O18 0.714517 0.000000 0.250000
#
# Coordination Sequence:
#
# PCOD9393733 Si02
#       6
#     8   8   8   8   8   8
#     4  11  21  37  60  88 119 154 192 238 286 337
#     4  11  23  40  57  79 108 145 187 235 288 345
#     4  10  20  35  57  83 111 145 182 230 284 342
#     4  11  22  38  59  88 123 161 199 239 286 340
#     4  10  23  39  58  81 110 144 186 235 285 337
#     4  10  20  34  56  86 117 151 189 234 285 340
#
# _framework density 17.953469999999999
#
# number of rings (size 3 to 8) (size 9 to 14) (size 15 to 20)
#    0.000    1.500    1.667    4.500    0.000    6.000 
#    0.000    3.333    0.000    0.500    0.000    3.500 
#    0.000    0.000    0.000    0.000    0.000    0.000 
#
# Total GULP energy -268337.333840 kJ/mol
# GULP energy per Si atom -5590.361122 kJ/mol
# Density = 1.791261 g / cm^3
# Si number density = 17.953470 Si / 1000 Ang^3
#
#
#
# Elastic Constant Matrix: (Units=GPa)
#
#
# Indices 1 2 3 4 5 6 
#
# 1 77.3266 57.4848 42.7155 0.0000 0.0000 0.0000
# 2 57.4848 130.5579 40.4588 0.0000 0.0000 0.0000
# 3 42.7155 40.4588 76.5820 0.0000 0.0000 0.0000
# 4 0.0000 0.0000 0.0000 36.8420 0.0000 0.0000
# 5 0.0000 0.0000 0.0000 0.0000 30.1751 0.0000
# 6 0.0000 0.0000 0.0000 0.0000 0.0000 1.1471
#
#
#
# Elastic Compliance Matrix: (Units=1/GPa)
#
#
# Indices 1 2 3 4 5 6 
#
# 1 0.023622 -0.007554 -0.009185 0.000000 0.000000 0.000000
# 2 -0.007554 0.011575 -0.001901 0.000000 0.000000 0.000000
# 3 -0.009185 -0.001901 0.019185 0.000000 0.000000 0.000000
# 4 0.000000 0.000000 0.000000 0.027143 0.000000 0.000000
# 5 0.000000 0.000000 0.000000 0.000000 0.033140 0.000000
# 6 0.000000 0.000000 0.000000 0.000000 0.000000 0.871742
#
#
# Mechanical properties :
#
#
# Convention : Reuss Voigt Hill
#
# Bulk Modulus (GPa) = 58.47560 62.86497 60.67028
# Shear Modulus (GPa) = 4.85726 23.22000 14.03863
#
# Velocity S-wave (km/s) = 1.64662 3.60021 2.79936
# Velocity P-wave (km/s) = 6.02133 7.23696 6.65695
#
# Compressibility (1/GPa) = 0.01710115
#
# Stress axis : x y z
#
# Youngs Moduli (GPa) = 42.33386 86.39369 52.12313
#
# Poissons Ratio (x) = 0.65266 0.47873
# Poissons Ratio (y) = 0.31981 0.09911
# Poissons Ratio (z) = 0.38882 0.16427
#
# Static dielectric constant tensor:
#      x y z
#    x 1.611150 0.000000 0.000000 
#    y 0.000000 1.583730 0.000000 
#    z 0.000000 0.000000 1.598440 
# 
# From -- ./inp_files/2915.got.cif
#   From: 2010.05.17/outbox.cif.g08.bks.cpg/sg49_2_cif.got.tgz:2915.got - 2010.06.03 21:02:19.
