data_PCOD9393939
_publ_section_title
;
Structure prediction by ZEFSAII (Michael W. Deem and Ramdas Pophale) SiO2 
 PCOD9393939
Probable space group: P C C M
;
_chemical_formula_sum "Si O2"
_cell_formula_units_Z 58
_cell_length_a 14.938527
_cell_length_b 25.771799
_cell_length_c 9.324697
_cell_angle_alpha 90.000000
_cell_angle_beta 90.000000
_cell_angle_gamma 90.000000
_cell_volume 3589.940416
_symmetry_space_group_name_H-M "P C C M"
_symmetry_group_IT_number 49
_symmetry_cell_setting 'orthorhombic'
loop_
_space_group_symop_operation_xyz
x,y,z
-x,-y,z
x,-y,1/2-z
-x,y,1/2-z
-x,-y,-z
x,y,-z
-x,y,1/2+z
x,-y,1/2+z
loop_
_atom_site_type_symbol
_atom_site_label
_atom_site_fract_x
_atom_site_fract_y
_atom_site_fract_z
Si Si1 0.596935 0.950823 0.672075
Si Si2 0.000000 0.500000 0.750000
Si Si3 0.595161 0.834396 0.329570
Si Si4 0.280778 0.262324 0.328153
Si Si5 0.852393 0.580674 0.663639
Si Si6 0.909930 0.697792 0.329185
Si Si7 0.324846 0.549506 0.667241
Si Si8 0.590864 0.660730 0.167998
O O1 0.500000 0.948026 0.750000
O O2 0.589273 0.959326 0.500000
O O3 0.632626 0.892617 0.696018
O O4 0.642695 0.000000 0.750000
O O5 0.067056 0.460855 0.668575
O O6 0.500000 0.827209 0.250000
O O7 0.577223 0.830632 0.500000
O O8 0.667511 0.790695 0.291599
O O9 0.289981 0.270765 0.500000
O O10 0.175755 0.266643 0.294829
O O11 0.330136 0.307632 0.242623
O O12 0.819062 0.584735 0.500000
O O13 0.885898 0.637848 0.708313
O O14 0.771784 0.562623 0.764476
O O15 0.924008 0.698897 0.500000
O O16 0.000000 0.713221 0.250000
O O17 0.362144 0.500000 0.750000
O O18 0.313468 0.537553 0.500000
O O19 0.386200 0.600053 0.681741
O O20 0.500000 0.673655 0.250000
O O21 0.583892 0.673585 0.000000
#
# Coordination Sequence:
#
# PCOD9393939 Si02
#       8
#     8   2   8   8   8   8   8   8
#     4   9  15  24  39  62  94 133 171 208 244 285
#     4  12  22  32  52  82 104 120 154 192 244 300
#     4   9  18  30  46  70 101 135 174 211 247 287
#     4  10  20  36  55  75 101 134 168 207 249 295
#     4  11  22  35  52  75 100 125 151 187 237 293
#     4  10  21  36  54  75  99 129 161 197 245 299
#     4  11  24  39  56  75  97 122 154 194 240 291
#     4  11  24  39  56  78 100 128 162 203 247 295
#
# _framework density 16.156255999999999
#
# number of rings (size 3 to 8) (size 9 to 14) (size 15 to 20)
#    0.000    1.793    2.759    2.276    0.000    5.793 
#    0.000    1.379    0.000    0.000    0.000    0.000 
#    0.000    0.552    0.000    6.897    0.000    0.000 
#
# Total GULP energy -323516.253106 kJ/mol
# GULP energy per Si atom -5577.866433 kJ/mol
# Density = 1.611948 g / cm^3
# Si number density = 16.156256 Si / 1000 Ang^3
#
#
#
# Elastic Constant Matrix: (Units=GPa)
#
#
# Indices 1 2 3 4 5 6 
#
# 1 77.5095 34.0190 33.3882 0.0000 0.0000 0.0000
# 2 34.0190 99.6578 40.3813 0.0000 0.0000 0.0000
# 3 33.3882 40.3813 63.5145 0.0000 0.0000 0.0000
# 4 0.0000 0.0000 0.0000 26.3899 0.0000 0.0000
# 5 0.0000 0.0000 0.0000 0.0000 18.2126 0.0000
# 6 0.0000 0.0000 0.0000 0.0000 0.0000 5.2560
#
#
#
# Elastic Compliance Matrix: (Units=1/GPa)
#
#
# Indices 1 2 3 4 5 6 
#
# 1 0.017317 -0.002994 -0.007200 0.000000 0.000000 0.000000
# 2 -0.002994 0.014034 -0.007349 0.000000 0.000000 0.000000
# 3 -0.007200 -0.007349 0.024201 0.000000 0.000000 0.000000
# 4 0.000000 0.000000 0.000000 0.037893 0.000000 0.000000
# 5 0.000000 0.000000 0.000000 0.000000 0.054907 0.000000
# 6 0.000000 0.000000 0.000000 0.000000 0.000000 0.190258
#
#
# Mechanical properties :
#
#
# Convention : Reuss Voigt Hill
#
# Bulk Modulus (GPa) = 48.85755 50.69541 49.77648
# Shear Modulus (GPa) = 13.13998 18.83126 15.98562
#
# Velocity S-wave (km/s) = 2.85495 3.41775 3.14895
# Velocity P-wave (km/s) = 6.41669 6.85719 6.64059
#
# Compressibility (1/GPa) = 0.02046767
#
# Stress axis : x y z
#
# Youngs Moduli (GPa) = 57.74648 71.25527 41.32011
#
# Poissons Ratio (x) = 0.21334 0.29749
# Poissons Ratio (y) = 0.17289 0.30365
# Poissons Ratio (z) = 0.41576 0.52363
#
# Static dielectric constant tensor:
#      x y z
#    x 1.520500 0.000000 0.000000 
#    y 0.000000 1.580730 0.000000 
#    z 0.000000 0.000000 1.545210 
# 
# From -- ./inp_files/4451.got.cif
#   From: 2010.05.17/outbox.cif.g08.bks.cpg/sg49_3_cif.got.tgz:4451.got - 2010.06.03 21:02:19.
