data_PCOD9393231
_publ_section_title
;
Structure prediction by ZEFSAII (Michael W. Deem and Ramdas Pophale) SiO2 
 PCOD9393231
Probable space group: P C C M
;
_chemical_formula_sum "Si O2"
_cell_formula_units_Z 32
_cell_length_a 7.324533
_cell_length_b 11.868010
_cell_length_c 16.840499
_cell_angle_alpha 90.000000
_cell_angle_beta 90.000000
_cell_angle_gamma 90.000000
_cell_volume 1463.904681
_symmetry_space_group_name_H-M "P C C M"
_symmetry_group_IT_number 49
_symmetry_cell_setting 'orthorhombic'
loop_
_space_group_symop_operation_xyz
x,y,z
-x,-y,z
x,-y,1/2-z
-x,y,1/2-z
-x,-y,-z
x,y,-z
-x,y,1/2+z
x,-y,1/2+z
loop_
_atom_site_type_symbol
_atom_site_label
_atom_site_fract_x
_atom_site_fract_y
_atom_site_fract_z
Si Si1 0.059498 0.127227 0.590025
Si Si2 0.319434 0.255559 0.710408
Si Si3 0.268514 0.429445 0.590523
Si Si4 0.861607 0.336034 0.630526
O O1 0.134584 0.134274 0.500000
O O2 0.885599 0.212037 0.593549
O O3 0.202247 0.170643 0.656164
O O4 0.000000 0.000000 0.605658
O O5 0.500000 0.204398 0.750000
O O6 0.381981 0.358435 0.653751
O O7 0.196230 0.310726 0.779482
O O8 0.307802 0.398843 0.500000
O O9 0.264502 0.564028 0.597678
O O10 0.063728 0.386810 0.613368
#
# Coordination Sequence:
#
# PCOD9393231 Si02
#       4
#     8   8   8   8
#     4  10  21  41  66  88 114 156 212 262 303 354
#     4  11  23  37  57  89 126 155 188 244 314 379
#     4  10  19  36  59  84 118 160 209 253 295 352
#     4  10  19  34  58  86 116 157 209 255 294 350
#
# _framework density 21.859348000000001
#
# number of rings (size 3 to 8) (size 9 to 14) (size 15 to 20)
#    0.000    1.750    0.000    9.000    0.000    8.000 
#    0.000   11.250    0.000    3.000    0.000    0.000 
#    0.000    0.000    0.000    0.000    0.000    0.000 
#
# Total GULP energy -178470.707939 kJ/mol
# GULP energy per Si atom -5577.209623 kJ/mol
# Density = 2.180959 g / cm^3
# Si number density = 21.859348 Si / 1000 Ang^3
#
#
#
# Elastic Constant Matrix: (Units=GPa)
#
#
# Indices 1 2 3 4 5 6 
#
# 1 43.8697 17.2074 46.4766 0.0000 0.0000 0.0000
# 2 17.2074 173.7094 51.6422 0.0000 0.0000 0.0000
# 3 46.4766 51.6422 175.5777 0.0000 0.0000 0.0000
# 4 0.0000 0.0000 0.0000 38.8683 0.0000 0.0000
# 5 0.0000 0.0000 0.0000 0.0000 9.3664 0.0000
# 6 0.0000 0.0000 0.0000 0.0000 0.0000 15.9832
#
#
#
# Elastic Compliance Matrix: (Units=1/GPa)
#
#
# Indices 1 2 3 4 5 6 
#
# 1 0.031758 -0.000709 -0.008198 0.000000 0.000000 0.000000
# 2 -0.000709 0.006324 -0.001673 0.000000 0.000000 0.000000
# 3 -0.008198 -0.001673 0.008358 0.000000 0.000000 0.000000
# 4 0.000000 0.000000 0.000000 0.025728 0.000000 0.000000
# 5 0.000000 0.000000 0.000000 0.000000 0.106764 0.000000
# 6 0.000000 0.000000 0.000000 0.000000 0.000000 0.062566
#
#
# Mechanical properties :
#
#
# Convention : Reuss Voigt Hill
#
# Bulk Modulus (GPa) = 39.55529 69.31213 54.43371
# Shear Modulus (GPa) = 18.44451 31.36562 24.90506
#
# Velocity S-wave (km/s) = 2.90794 3.79210 3.37906
# Velocity P-wave (km/s) = 5.42305 7.13795 6.33876
#
# Compressibility (1/GPa) = 0.02528107
#
# Stress axis : x y z
#
# Youngs Moduli (GPa) = 31.48809 158.12360 119.65282
#
# Poissons Ratio (x) = 0.11206 0.98093
# Poissons Ratio (y) = 0.02232 0.20012
# Poissons Ratio (z) = 0.25814 0.26446
#
# Static dielectric constant tensor:
#      x y z
#    x 1.894300 0.000000 0.000000 
#    y 0.000000 1.816110 0.000000 
#    z 0.000000 0.000000 1.799510 
# 
# From -- ./inp_files/11308.got.cif
#   From: 2010.05.17/outbox.cif.g08.bks.cpg/sg49_6_cif.got.tgz:11308.got - 2010.06.03 21:02:19.
