data_PCOD9393628
_publ_section_title
;
Structure prediction by ZEFSAII (Michael W. Deem and Ramdas Pophale) SiO2 
 PCOD9393628
Probable space group: P C C M
;
_chemical_formula_sum "Si O2"
_cell_formula_units_Z 56
_cell_length_a 19.444681
_cell_length_b 19.296341
_cell_length_c 8.633946
_cell_angle_alpha 90.000000
_cell_angle_beta 90.000000
_cell_angle_gamma 90.000000
_cell_volume 3239.553198
_symmetry_space_group_name_H-M "P C C M"
_symmetry_group_IT_number 49
_symmetry_cell_setting 'orthorhombic'
loop_
_space_group_symop_operation_xyz
x,y,z
-x,-y,z
x,-y,1/2-z
-x,y,1/2-z
-x,-y,-z
x,y,-z
-x,y,1/2+z
x,-y,1/2+z
loop_
_atom_site_type_symbol
_atom_site_label
_atom_site_fract_x
_atom_site_fract_y
_atom_site_fract_z
Si Si1 0.720958 0.422757 0.186133
Si Si2 0.576023 0.077271 0.185879
Si Si3 0.706090 0.843987 0.185190
Si Si4 0.075067 0.793368 0.814413
Si Si5 0.836911 0.075478 0.186155
Si Si6 0.211442 0.284426 0.688055
Si Si7 0.568694 0.421672 0.815419
O O1 0.731595 0.500000 0.250000
O O2 0.773140 0.363051 0.235526
O O3 0.644213 0.395467 0.228326
O O4 0.722674 0.428227 0.000000
O O5 0.500000 0.094777 0.250000
O O6 0.634239 0.130207 0.243751
O O7 0.592495 0.000000 0.250000
O O8 0.574521 0.075021 0.000000
O O9 0.765653 0.896639 0.242515
O O10 0.732882 0.769397 0.244694
O O11 0.702078 0.844547 0.000000
O O12 0.104007 0.869310 0.771182
O O13 0.135792 0.741305 0.764277
O O14 0.000000 0.779442 0.750000
O O15 0.071701 0.790517 0.000000
O O16 0.852330 0.000000 0.250000
O O17 0.830225 0.074950 0.000000
O O18 0.215651 0.280017 0.500000
O O19 0.569203 0.500000 0.750000
O O20 0.500000 0.386583 0.750000
O O21 0.563179 0.423971 0.000000
#
# Coordination Sequence:
#
# PCOD9393628 Si02
#       7
#     8   8   8   8   8   8   8
#     4   9  18  32  52  75 101 130 166 208 254 300
#     4  11  21  35  53  75 103 137 178 224 268 310
#     4  11  21  34  52  75 101 134 174 216 258 306
#     4   9  19  34  53  74 100 132 167 203 248 300
#     4  10  20  34  51  75 104 136 169 207 250 296
#     4   9  19  37  55  74 101 135 167 204 254 309
#     4   9  15  24  40  64  92 124 154 188 229 276
#
# _framework density 17.286334
#
# number of rings (size 3 to 8) (size 9 to 14) (size 15 to 20)
#    0.000    2.286    0.000    5.571    0.000    4.286 
#    0.000    2.143    0.000    2.143    0.000    3.000 
#    0.000    0.000    0.000    0.000    0.000    0.000 
#
# Total GULP energy -312260.823039 kJ/mol
# GULP energy per Si atom -5576.086126 kJ/mol
# Density = 1.724699 g / cm^3
# Si number density = 17.286334 Si / 1000 Ang^3
#
#
#
# Elastic Constant Matrix: (Units=GPa)
#
#
# Indices 1 2 3 4 5 6 
#
# 1 133.4961 79.9413 42.0630 0.0000 0.0000 0.0000
# 2 79.9413 113.1186 32.7501 0.0000 0.0000 0.0000
# 3 42.0630 32.7501 73.9273 0.0000 0.0000 0.0000
# 4 0.0000 0.0000 0.0000 0.3015 0.0000 0.0000
# 5 0.0000 0.0000 0.0000 0.0000 29.9995 0.0000
# 6 0.0000 0.0000 0.0000 0.0000 0.0000 11.7996
#
#
#
# Elastic Compliance Matrix: (Units=1/GPa)
#
#
# Indices 1 2 3 4 5 6 
#
# 1 0.013996 -0.008702 -0.004109 0.000000 0.000000 0.000000
# 2 -0.008702 0.015551 -0.001938 0.000000 0.000000 0.000000
# 3 -0.004109 -0.001938 0.016723 0.000000 0.000000 0.000000
# 4 0.000000 0.000000 0.000000 3.316420 0.000000 0.000000
# 5 0.000000 0.000000 0.000000 0.000000 0.033334 0.000000
# 6 0.000000 0.000000 0.000000 0.000000 0.000000 0.084749
#
#
# Mechanical properties :
#
#
# Convention : Reuss Voigt Hill
#
# Bulk Modulus (GPa) = 59.61798 70.00563 64.81180
# Shear Modulus (GPa) = 1.42213 19.47263 10.44738
#
# Velocity S-wave (km/s) = 0.90801 3.35994 2.46107
# Velocity P-wave (km/s) = 5.97182 7.45908 6.75650
#
# Compressibility (1/GPa) = 0.01677346
#
# Stress axis : x y z
#
# Youngs Moduli (GPa) = 71.44773 64.30510 59.79742
#
# Poissons Ratio (x) = 0.55956 0.24569
# Poissons Ratio (y) = 0.62171 0.11589
# Poissons Ratio (z) = 0.29356 0.12463
#
# Static dielectric constant tensor:
#      x y z
#    x 1.603890 0.000000 0.000000 
#    y 0.000000 1.578820 0.000000 
#    z 0.000000 0.000000 1.585510 
# 
# From -- ./inp_files/5174.got.cif
#   From: 2010.05.17/outbox.cif.g08.bks.cpg/sg49_3_cif.got.tgz:5174.got - 2010.06.03 21:02:19.
