data_PCOD9393124
_publ_section_title
;
Structure prediction by ZEFSAII (Michael W. Deem and Ramdas Pophale) SiO2 
 PCOD9393124
Probable space group: P C C M
;
_chemical_formula_sum "Si O2"
_cell_formula_units_Z 64
_cell_length_a 18.124070
_cell_length_b 9.935002
_cell_length_c 15.524970
_cell_angle_alpha 90.000000
_cell_angle_beta 90.000000
_cell_angle_gamma 90.000000
_cell_volume 2795.467576
_symmetry_space_group_name_H-M "P C C M"
_symmetry_group_IT_number 49
_symmetry_cell_setting 'orthorhombic'
loop_
_space_group_symop_operation_xyz
x,y,z
-x,-y,z
x,-y,1/2-z
-x,y,1/2-z
-x,-y,-z
x,y,-z
-x,y,1/2+z
x,-y,1/2+z
loop_
_atom_site_type_symbol
_atom_site_label
_atom_site_fract_x
_atom_site_fract_y
_atom_site_fract_z
Si Si1 0.560685 0.885457 0.403370
Si Si2 0.338772 0.812942 0.237552
Si Si3 0.350783 0.422962 0.401984
Si Si4 0.177208 0.209330 0.779253
Si Si5 0.925908 0.386468 0.830415
Si Si6 0.972364 0.140494 0.348030
Si Si7 0.425437 0.294649 0.100176
Si Si8 0.192574 0.440495 0.090293
O O1 0.592260 0.892640 0.500000
O O2 0.617526 0.909655 0.327125
O O3 0.510795 0.750169 0.390249
O O4 0.500000 0.000000 0.399046
O O5 0.346803 0.678819 0.177597
O O6 0.253720 0.852073 0.249681
O O7 0.377817 0.782494 0.328126
O O8 0.366615 0.372899 0.500000
O O9 0.405340 0.548900 0.387622
O O10 0.266590 0.474067 0.407737
O O11 0.129671 0.270389 0.701464
O O12 0.116502 0.136413 0.839491
O O13 0.200460 0.339751 0.832171
O O14 0.880715 0.470880 0.899450
O O15 0.000000 0.131506 0.750000
O O16 0.994846 0.293794 0.866371
O O17 0.189271 0.635552 0.500000
O O18 0.000000 0.000000 0.391009
O O19 0.405866 0.262073 0.000000
O O20 0.067706 0.500000 0.250000
#
# Coordination Sequence:
#
# PCOD9393124 Si02
#       8
#     8   8   8   8   8   8   8   8
#     4  10  24  47  67  87 124 170 220 276 329 391
#     4  12  21  36  65  95 127 162 216 273 328 399
#     4  10  20  35  58  92 130 164 207 271 340 395
#     4  10  20  33  58  90 120 157 207 268 326 394
#     4   9  18  34  57  87 120 164 215 267 330 392
#     4   9  19  37  58  84 125 169 214 269 331 397
#     4  10  22  38  60  89 128 174 209 258 328 391
#     4  10  19  33  57  88 128 163 206 272 339 398
#
# _framework density 22.894202
#
# number of rings (size 3 to 8) (size 9 to 14) (size 15 to 20)
#    0.000    2.000    2.500    1.125    0.000    7.250 
#    0.000    9.375    0.000    1.500    0.000    0.000 
#    0.000    2.000    0.000    0.000    0.000    0.000 
#
# Total GULP energy -356439.929783 kJ/mol
# GULP energy per Si atom -5569.373903 kJ/mol
# Density = 2.284209 g / cm^3
# Si number density = 22.894202 Si / 1000 Ang^3
#
#
#
# Elastic Constant Matrix: (Units=GPa)
#
#
# Indices 1 2 3 4 5 6 
#
# 1 133.1579 42.8821 48.1934 0.0000 0.0000 0.0000
# 2 42.8821 108.1713 23.3036 0.0000 0.0000 0.0000
# 3 48.1934 23.3036 90.6240 0.0000 0.0000 0.0000
# 4 0.0000 0.0000 0.0000 22.3152 0.0000 0.0000
# 5 0.0000 0.0000 0.0000 0.0000 14.0370 0.0000
# 6 0.0000 0.0000 0.0000 0.0000 0.0000 20.5528
#
#
#
# Elastic Compliance Matrix: (Units=1/GPa)
#
#
# Indices 1 2 3 4 5 6 
#
# 1 0.010159 -0.003031 -0.004623 0.000000 0.000000 0.000000
# 2 -0.003031 0.010691 -0.001137 0.000000 0.000000 0.000000
# 3 -0.004623 -0.001137 0.013786 0.000000 0.000000 0.000000
# 4 0.000000 0.000000 0.000000 0.044812 0.000000 0.000000
# 5 0.000000 0.000000 0.000000 0.000000 0.071240 0.000000
# 6 0.000000 0.000000 0.000000 0.000000 0.000000 0.048655
#
#
# Mechanical properties :
#
#
# Convention : Reuss Voigt Hill
#
# Bulk Modulus (GPa) = 58.64146 62.30125 60.47135
# Shear Modulus (GPa) = 22.46061 25.88594 24.17328
#
# Velocity S-wave (km/s) = 3.13559 3.36620 3.25294
# Velocity P-wave (km/s) = 6.22727 6.51001 6.37021
#
# Compressibility (1/GPa) = 0.01705278
#
# Stress axis : x y z
#
# Youngs Moduli (GPa) = 98.43108 93.53370 72.53948
#
# Poissons Ratio (x) = 0.28355 0.33536
# Poissons Ratio (y) = 0.29839 0.08248
# Poissons Ratio (z) = 0.45506 0.10636
#
# Static dielectric constant tensor:
#      x y z
#    x 1.923420 0.000000 0.000000 
#    y 0.000000 2.043210 0.000000 
#    z 0.000000 0.000000 1.813790 
# 
# From -- ./inp_files/14180.got.cif
#   From: 2010.05.17/outbox.cif.g08.bks.cpg/sg49_8_cif.got.tgz:14180.got - 2010.06.03 21:02:19.
