data_PCOD9393976
_publ_section_title
;
Structure prediction by ZEFSAII (Michael W. Deem and Ramdas Pophale) SiO2 
 PCOD9393976
Probable space group: P C C M
;
_chemical_formula_sum "Si O2"
_cell_formula_units_Z 64
_cell_length_a 13.052444
_cell_length_b 26.184924
_cell_length_c 8.436890
_cell_angle_alpha 90.000000
_cell_angle_beta 90.000000
_cell_angle_gamma 90.000000
_cell_volume 2883.537098
_symmetry_space_group_name_H-M "P C C M"
_symmetry_group_IT_number 49
_symmetry_cell_setting 'orthorhombic'
loop_
_space_group_symop_operation_xyz
x,y,z
-x,-y,z
x,-y,1/2-z
-x,y,1/2-z
-x,-y,-z
x,y,-z
-x,y,1/2+z
x,-y,1/2+z
loop_
_atom_site_type_symbol
_atom_site_label
_atom_site_fract_x
_atom_site_fract_y
_atom_site_fract_z
Si Si1 0.828983 0.553095 0.190066
Si Si2 0.393590 0.914229 0.809990
Si Si3 0.670552 0.693782 0.689063
Si Si4 0.327369 0.195614 0.690412
Si Si5 0.891269 0.333811 0.309601
Si Si6 0.108528 0.163793 0.812859
Si Si7 0.166811 0.945699 0.190303
Si Si8 0.392138 0.585022 0.312384
O O1 0.873199 0.500000 0.250000
O O2 0.883622 0.605857 0.234588
O O3 0.711557 0.559018 0.251313
O O4 0.827058 0.551611 0.000000
O O5 0.500000 0.936386 0.750000
O O6 0.381947 0.855645 0.749124
O O7 0.287729 0.941465 0.765171
O O8 0.396495 0.913345 0.000000
O O9 0.656548 0.689573 0.500000
O O10 0.633933 0.749376 0.746973
O O11 0.791454 0.690715 0.730405
O O12 0.619460 0.644939 0.769839
O O13 0.335523 0.195499 0.500000
O O14 0.207824 0.188907 0.733267
O O15 0.882942 0.329131 0.500000
O O16 0.000000 0.313802 0.250000
O O17 0.116076 0.103636 0.769281
O O18 0.000000 0.183324 0.750000
O O19 0.114854 0.170774 0.000000
O O20 0.127401 0.000000 0.250000
O O21 0.157550 0.941485 0.000000
O O22 0.500000 0.565360 0.250000
O O23 0.391344 0.579776 0.500000
#
# Coordination Sequence:
#
# PCOD9393976 Si02
#       8
#     8   8   8   8   8   8   8   8
#     4   9  20  36  54  77 106 139 177 222 268 319
#     4   9  19  35  54  77 108 141 175 218 262 310
#     4  10  20  36  58  81 108 143 180 223 273 321
#     4   9  20  38  56  79 110 142 179 222 267 316
#     4  10  21  37  55  79 109 141 179 221 267 320
#     4  11  22  37  58  82 109 143 180 220 268 319
#     4  10  21  38  57  80 110 142 180 225 269 317
#     4  10  21  37  55  79 110 143 181 223 268 320
#
# _framework density 22.194963000000001
#
# number of rings (size 3 to 8) (size 9 to 14) (size 15 to 20)
#    0.000    2.250    0.000    4.125    0.000    8.500 
#    0.000    6.250    0.000    0.000    0.000    0.000 
#    0.000    0.000    0.000    0.000    0.000    0.000 
#
# Total GULP energy -357677.830296 kJ/mol
# GULP energy per Si atom -5588.716098 kJ/mol
# Density = 2.214445 g / cm^3
# Si number density = 22.194963 Si / 1000 Ang^3
#
#
#
# Elastic Constant Matrix: (Units=GPa)
#
#
# Indices 1 2 3 4 5 6 
#
# 1 96.7453 -14.8699 -7.8511 0.0000 0.0000 0.0000
# 2 -14.8699 95.6405 -4.9757 0.0000 0.0000 0.0000
# 3 -7.8511 -4.9757 8.6209 0.0000 0.0000 0.0000
# 4 0.0000 0.0000 0.0000 36.2529 0.0000 0.0000
# 5 0.0000 0.0000 0.0000 0.0000 -93.1101 0.0000
# 6 0.0000 0.0000 0.0000 0.0000 0.0000 12.6878
#
#
#
# Elastic Compliance Matrix: (Units=1/GPa)
#
#
# Indices 1 2 3 4 5 6 
#
# 1 0.011691 0.002445 0.012058 0.000000 0.000000 0.000000
# 2 0.002445 0.011291 0.008743 0.000000 0.000000 0.000000
# 3 0.012058 0.008743 0.132025 0.000000 0.000000 0.000000
# 4 0.000000 0.000000 0.000000 0.027584 0.000000 0.000000
# 5 0.000000 0.000000 0.000000 0.000000 -0.010740 0.000000
# 6 0.000000 0.000000 0.000000 0.000000 0.000000 0.078816
#
#
# Mechanical properties :
#
#
# Convention : Reuss Voigt Hill
#
# Bulk Modulus (GPa) = 4.96278 16.17925 10.57102
# Shear Modulus (GPa) = 18.42702 6.41302 12.42002
#
# Velocity S-wave (km/s) = 2.88450 1.70167 2.36813
# Velocity P-wave (km/s) = 3.65167 3.34161 3.50007
#
# Compressibility (1/GPa) = 0.20149982
#
# Stress axis : x y z
#
# Youngs Moduli (GPa) = 85.53761 88.56748 7.57430
#
# Poissons Ratio (x) = -0.21654 -0.09133
# Poissons Ratio (y) = -0.20914 -0.06622
# Poissons Ratio (z) = -1.03142 -0.77438
#
# Static dielectric constant tensor:
#      x y z
#    x 1.824290 0.000000 0.000000 
#    y 0.000000 1.856290 0.000000 
#    z 0.000000 0.000000 1.723590 
# 
# From -- ./inp_files/3096.got.cif
#   From: 2010.05.17/outbox.cif.g08.bks.cpg/sg49_2_cif.got.tgz:3096.got - 2010.06.03 21:02:19.
