data_PCOD9393538
_publ_section_title
;
Structure prediction by ZEFSAII (Michael W. Deem and Ramdas Pophale) SiO2 
 PCOD9393538
Probable space group: P C C M
;
_chemical_formula_sum "Si O2"
_cell_formula_units_Z 64
_cell_length_a 24.873661
_cell_length_b 9.319893
_cell_length_c 15.207684
_cell_angle_alpha 90.000000
_cell_angle_beta 90.000000
_cell_angle_gamma 90.000000
_cell_volume 3525.443161
_symmetry_space_group_name_H-M "P C C M"
_symmetry_group_IT_number 49
_symmetry_cell_setting 'orthorhombic'
loop_
_space_group_symop_operation_xyz
x,y,z
-x,-y,z
x,-y,1/2-z
-x,y,1/2-z
-x,-y,-z
x,y,-z
-x,y,1/2+z
x,-y,1/2+z
loop_
_atom_site_type_symbol
_atom_site_label
_atom_site_fract_x
_atom_site_fract_y
_atom_site_fract_z
Si Si1 0.632013 0.329228 0.604512
Si Si2 0.435709 0.169257 0.250000
Si Si3 0.255758 0.827192 0.101679
Si Si4 0.064123 0.500000 0.098703
Si Si5 0.822486 0.164708 0.250000
Si Si6 0.936513 0.271047 0.750000
Si Si7 0.367987 0.329228 0.604512
Si Si8 0.255758 0.172808 0.101679
O O1 0.621782 0.309177 0.500000
O O2 0.589218 0.248369 0.665208
O O3 0.632743 0.500000 0.622184
O O4 0.689871 0.257478 0.624072
O O5 0.500000 0.180604 0.250000
O O6 0.410782 0.248369 0.334792
O O7 0.421204 0.000000 0.250000
O O8 0.207171 0.776258 0.163769
O O9 0.310129 0.742522 0.124072
O O10 0.265172 1.000000 0.109609
O O11 0.242633 0.799699 0.000000
O O12 0.074060 0.634859 0.162304
O O13 0.074060 0.365141 0.162304
O O14 0.000000 0.500000 0.088185
O O15 0.087754 0.500000 0.000000
O O16 0.886521 0.165921 0.250000
O O17 0.792829 0.223742 0.336231
O O18 0.806578 0.000000 0.250000
O O19 0.000000 0.227819 0.750000
O O20 0.378218 0.309177 0.500000
O O21 0.242633 0.200301 0.000000
#
# Coordination Sequence:
#
# PCOD9393538 Si02
#       8
#     8   8   8   8   8   8   8   8
#     4  10  21  38  60  86 115 145 181 231 287 334
#     4  11  24  39  57  84 116 153 196 232 264 317
#     4   9  18  34  55  77 105 143 184 222 265 324
#     4   8  15  31  52  69  91 126 165 207 252 301
#     4  10  20  33  50  74 104 138 174 215 263 311
#     4   9  18  32  49  74 102 130 173 215 257 320
#     4  10  21  38  60  86 115 145 181 231 287 334
#     4   9  18  34  55  77 105 143 184 222 265 324
#
# _framework density 18.153746999999999
#
# number of rings (size 3 to 8) (size 9 to 14) (size 15 to 20)
#    0.000    2.500    0.000    2.625    0.000    5.250 
#    4.500    2.500    0.000    0.000    0.000    7.000 
#    0.000    0.000    0.000    0.000    0.000    0.000 
#
# Total GULP energy -356312.657696 kJ/mol
# GULP energy per Si atom -5567.385276 kJ/mol
# Density = 1.811243 g / cm^3
# Si number density = 18.153747 Si / 1000 Ang^3
#
#
#
# Elastic Constant Matrix: (Units=GPa)
#
#
# Indices 1 2 3 4 5 6 
#
# 1 109.3872 43.0750 62.3852 0.0000 0.0000 0.0000
# 2 43.0750 59.1135 45.3578 0.0000 0.0000 0.0000
# 3 62.3852 45.3578 109.0348 0.0000 0.0000 0.0000
# 4 0.0000 0.0000 0.0000 16.1365 0.0000 0.0000
# 5 0.0000 0.0000 0.0000 0.0000 -7.2430 0.0000
# 6 0.0000 0.0000 0.0000 0.0000 0.0000 -22.5788
#
#
#
# Elastic Compliance Matrix: (Units=1/GPa)
#
#
# Indices 1 2 3 4 5 6 
#
# 1 0.015059 -0.006407 -0.005951 0.000000 0.000000 0.000000
# 2 -0.006407 0.027574 -0.007805 0.000000 0.000000 0.000000
# 3 -0.005951 -0.007805 0.015823 0.000000 0.000000 0.000000
# 4 0.000000 0.000000 0.000000 0.061971 0.000000 0.000000
# 5 0.000000 0.000000 0.000000 0.000000 -0.138065 0.000000
# 6 0.000000 0.000000 0.000000 0.000000 0.000000 -0.044289
#
#
# Mechanical properties :
#
#
# Convention : Reuss Voigt Hill
#
# Bulk Modulus (GPa) = 55.15564 64.35239 59.75401
# Shear Modulus (GPa) = -321.33894 5.71079 -157.81408
#
# Velocity S-wave (km/s) = -13.31893 1.77556 -9.33385
# Velocity P-wave (km/s) = 14.35538 6.30309 9.11997
#
# Compressibility (1/GPa) = 0.01813051
#
# Stress axis : x y z
#
# Youngs Moduli (GPa) = 66.40756 36.26625 63.19993
#
# Poissons Ratio (x) = 0.23236 0.37608
# Poissons Ratio (y) = 0.42547 0.49326
# Poissons Ratio (z) = 0.39516 0.28305
#
# Static dielectric constant tensor:
#      x y z
#    x 1.586760 0.000000 0.000000 
#    y 0.000000 1.651300 0.000000 
#    z 0.000000 0.000000 1.696610 
# 
# From -- ./inp_files/14545.got.cif
#   From: 2010.05.17/outbox.cif.g08.bks.cpg/sg49_8_cif.got.tgz:14545.got - 2010.06.03 21:02:19.
