data_PCOD9393249
_publ_section_title
;
Structure prediction by ZEFSAII (Michael W. Deem and Ramdas Pophale) SiO2 
 PCOD9393249
Probable space group: P C C M
;
_chemical_formula_sum "Si O2"
_cell_formula_units_Z 48
_cell_length_a 5.816690
_cell_length_b 13.521887
_cell_length_c 27.674270
_cell_angle_alpha 90.000000
_cell_angle_beta 90.000000
_cell_angle_gamma 90.000000
_cell_volume 2176.653978
_symmetry_space_group_name_H-M "P C C M"
_symmetry_group_IT_number 49
_symmetry_cell_setting 'orthorhombic'
loop_
_space_group_symop_operation_xyz
x,y,z
-x,-y,z
x,-y,1/2-z
-x,y,1/2-z
-x,-y,-z
x,y,-z
-x,y,1/2+z
x,-y,1/2+z
loop_
_atom_site_type_symbol
_atom_site_label
_atom_site_fract_x
_atom_site_fract_y
_atom_site_fract_z
Si Si1 0.642916 0.592894 0.612622
Si Si2 0.880072 0.344652 0.200641
Si Si3 0.589703 0.144883 0.800501
Si Si4 0.260327 0.754129 0.367079
Si Si5 0.899179 0.756498 0.557154
Si Si6 0.749901 0.949277 0.608696
O O1 0.500000 0.500000 0.594092
O O2 0.761935 0.575109 0.665120
O O3 0.456122 0.675583 0.623647
O O4 0.815958 0.648509 0.576269
O O5 0.705704 0.252538 0.210245
O O6 0.000000 0.377991 0.250000
O O7 0.070309 0.295239 0.166667
O O8 0.500000 0.106177 0.750000
O O9 0.371848 0.159789 0.835859
O O10 0.754106 0.079762 0.834173
O O11 0.143568 0.777853 0.417747
O O12 0.902374 0.759502 0.500000
O O13 0.747026 0.844753 0.579714
O O14 0.500000 0.000000 0.598132
O O15 0.000000 0.000000 0.597331
#
# Coordination Sequence:
#
# PCOD9393249 Si02
#       6
#     8   8   8   8   8   8
#     4  10  23  42  67  98 140 181 227 301 360 428
#     4  10  19  34  66  95 131 187 233 277 353 426
#     4  11  21  39  69 100 135 185 231 285 358 429
#     4  10  19  41  65  95 137 180 225 292 350 424
#     4  11  25  45  71  99 132 186 239 296 368 427
#     4  12  27  47  71 105 146 186 242 304 365 436
#
# _framework density 22.052195999999999
#
# number of rings (size 3 to 8) (size 9 to 14) (size 15 to 20)
#    0.000    1.333    6.667    1.000    0.000    4.667 
#    0.000    5.833    0.000    0.000    0.000    0.000 
#    0.000    0.000    0.000    0.000    0.000    0.000 
#
# Total GULP energy -267830.489811 kJ/mol
# GULP energy per Si atom -5579.801871 kJ/mol
# Density = 2.200200 g / cm^3
# Si number density = 22.052196 Si / 1000 Ang^3
#
#
#
# Elastic Constant Matrix: (Units=GPa)
#
#
# Indices 1 2 3 4 5 6 
#
# 1 96.3751 23.3542 40.5564 0.0000 0.0000 0.0000
# 2 23.3542 76.1507 39.5039 0.0000 0.0000 0.0000
# 3 40.5564 39.5039 173.5338 0.0000 0.0000 0.0000
# 4 0.0000 0.0000 0.0000 8.0170 0.0000 0.0000
# 5 0.0000 0.0000 0.0000 0.0000 22.9876 0.0000
# 6 0.0000 0.0000 0.0000 0.0000 0.0000 30.7568
#
#
#
# Elastic Compliance Matrix: (Units=1/GPa)
#
#
# Indices 1 2 3 4 5 6 
#
# 1 0.011915 -0.002505 -0.002214 0.000000 0.000000 0.000000
# 2 -0.002505 0.015417 -0.002924 0.000000 0.000000 0.000000
# 3 -0.002214 -0.002924 0.006946 0.000000 0.000000 0.000000
# 4 0.000000 0.000000 0.000000 0.124735 0.000000 0.000000
# 5 0.000000 0.000000 0.000000 0.000000 0.043502 0.000000
# 6 0.000000 0.000000 0.000000 0.000000 0.000000 0.032513
#
#
# Mechanical properties :
#
#
# Convention : Reuss Voigt Hill
#
# Bulk Modulus (GPa) = 52.65862 61.43206 57.04534
# Shear Modulus (GPa) = 19.48210 28.52861 24.00535
#
# Velocity S-wave (km/s) = 2.97552 3.60069 3.30293
# Velocity P-wave (km/s) = 5.97795 6.72344 6.36162
#
# Compressibility (1/GPa) = 0.01899024
#
# Stress axis : x y z
#
# Youngs Moduli (GPa) = 83.92717 64.86294 143.97369
#
# Poissons Ratio (x) = 0.16251 0.31880
# Poissons Ratio (y) = 0.21028 0.42099
# Poissons Ratio (z) = 0.18584 0.18966
#
# Static dielectric constant tensor:
#      x y z
#    x 1.891900 0.000000 0.000000 
#    y 0.000000 1.883860 0.000000 
#    z 0.000000 0.000000 1.770720 
# 
# From -- ./inp_files/23936.got.cif
#   From: 2010.05.17/outbox.cif.g08.bks.cpg/sg49_12_cif.got.tgz:23936.got - 2010.06.03 21:02:19.
