data_PCOD9393940
_publ_section_title
;
Structure prediction by ZEFSAII (Michael W. Deem and Ramdas Pophale) SiO2 
 PCOD9393940
Probable space group: P C C M
;
_chemical_formula_sum "Si O2"
_cell_formula_units_Z 56
_cell_length_a 15.199195
_cell_length_b 23.078162
_cell_length_c 8.615139
_cell_angle_alpha 90.000000
_cell_angle_beta 90.000000
_cell_angle_gamma 90.000000
_cell_volume 3021.927866
_symmetry_space_group_name_H-M "P C C M"
_symmetry_group_IT_number 49
_symmetry_cell_setting 'orthorhombic'
loop_
_space_group_symop_operation_xyz
x,y,z
-x,-y,z
x,-y,1/2-z
-x,y,1/2-z
-x,-y,-z
x,y,-z
-x,y,1/2+z
x,-y,1/2+z
loop_
_atom_site_type_symbol
_atom_site_label
_atom_site_fract_x
_atom_site_fract_y
_atom_site_fract_z
Si Si1 0.905192 0.395449 0.686095
Si Si2 0.596135 0.662111 0.312910
Si Si3 0.274391 0.560549 0.185859
Si Si4 0.905269 0.738875 0.813460
Si Si5 0.596591 0.795549 0.313651
Si Si6 0.225792 0.160295 0.186607
Si Si7 0.094891 0.064988 0.685750
O O1 0.905373 0.398329 0.500000
O O2 0.824276 0.430903 0.753212
O O3 0.892046 0.327898 0.735141
O O4 0.000000 0.414043 0.750000
O O5 0.500000 0.646530 0.250000
O O6 0.594035 0.661475 0.500000
O O7 0.667911 0.615523 0.260599
O O8 0.614424 0.728470 0.264394
O O9 0.310329 0.500000 0.250000
O O10 0.274297 0.559261 0.000000
O O11 0.828347 0.782036 0.763489
O O12 0.000000 0.758120 0.750000
O O13 0.908872 0.739699 0.000000
O O14 0.500000 0.810849 0.250000
O O15 0.595801 0.797946 0.500000
O O16 0.675308 0.834074 0.247801
O O17 0.171704 0.106539 0.254396
O O18 0.225588 0.157501 0.000000
O O19 0.091924 0.064040 0.500000
O O20 0.000000 0.085589 0.750000
O O21 0.107229 0.000000 0.750000
#
# Coordination Sequence:
#
# PCOD9393940 Si02
#       7
#     8   8   8   8   8   8   8
#     4  10  20  36  55  76 102 136 173 215 264 318
#     4   9  20  37  58  81 108 139 174 216 269 326
#     4  11  23  38  54  76 102 133 173 219 265 318
#     4   9  19  32  50  77 109 140 173 213 264 320
#     4  10  20  36  57  83 111 143 180 224 274 327
#     4  11  21  34  54  83 115 149 186 227 272 323
#     4  11  22  38  58  83 116 156 197 237 276 320
#
# _framework density 18.531217000000002
#
# number of rings (size 3 to 8) (size 9 to 14) (size 15 to 20)
#    0.000    1.857    0.000    4.714    0.000    5.143 
#    0.000    2.857    0.000    0.429    0.000    3.000 
#    0.000    0.000    0.000    0.000    0.000    0.000 
#
# Total GULP energy -312911.767373 kJ/mol
# GULP energy per Si atom -5587.710132 kJ/mol
# Density = 1.848904 g / cm^3
# Si number density = 18.531217 Si / 1000 Ang^3
#
#
#
# Elastic Constant Matrix: (Units=GPa)
#
#
# Indices 1 2 3 4 5 6 
#
# 1 142.5517 68.4959 42.4924 0.0000 0.0000 0.0000
# 2 68.4959 69.1150 31.4355 0.0000 0.0000 0.0000
# 3 42.4924 31.4355 70.3690 0.0000 0.0000 0.0000
# 4 0.0000 0.0000 0.0000 27.2203 0.0000 0.0000
# 5 0.0000 0.0000 0.0000 0.0000 31.8038 0.0000
# 6 0.0000 0.0000 0.0000 0.0000 0.0000 9.1824
#
#
#
# Elastic Compliance Matrix: (Units=1/GPa)
#
#
# Indices 1 2 3 4 5 6 
#
# 1 0.013817 -0.012422 -0.002794 0.000000 0.000000 0.000000
# 2 -0.012422 0.029326 -0.005600 0.000000 0.000000 0.000000
# 3 -0.002794 -0.005600 0.018399 0.000000 0.000000 0.000000
# 4 0.000000 0.000000 0.000000 0.036737 0.000000 0.000000
# 5 0.000000 0.000000 0.000000 0.000000 0.031443 0.000000
# 6 0.000000 0.000000 0.000000 0.000000 0.000000 0.108905
#
#
# Mechanical properties :
#
#
# Convention : Reuss Voigt Hill
#
# Bulk Modulus (GPa) = 50.22353 62.98703 56.60528
# Shear Modulus (GPa) = 17.42796 22.94876 20.18836
#
# Velocity S-wave (km/s) = 3.07003 3.52289 3.30422
# Velocity P-wave (km/s) = 6.30299 7.11415 6.72082
#
# Compressibility (1/GPa) = 0.01991098
#
# Stress axis : x y z
#
# Youngs Moduli (GPa) = 72.37657 34.09909 54.34954
#
# Poissons Ratio (x) = 0.42358 0.15185
# Poissons Ratio (y) = 0.89907 0.30434
# Poissons Ratio (z) = 0.20222 0.19094
#
# Static dielectric constant tensor:
#      x y z
#    x 1.615450 0.000000 0.000000 
#    y 0.000000 1.650210 0.000000 
#    z 0.000000 0.000000 1.621510 
# 
# From -- ./inp_files/4004.got.cif
#   From: 2010.05.17/outbox.cif.g08.bks.cpg/sg49_3_cif.got.tgz:4004.got - 2010.06.03 21:02:19.
