data_PCOD9393436
_publ_section_title
;
Structure prediction by ZEFSAII (Michael W. Deem and Ramdas Pophale) SiO2 
 PCOD9393436
Probable space group: P C C M
;
_chemical_formula_sum "Si O2"
_cell_formula_units_Z 64
_cell_length_a 16.589902
_cell_length_b 13.266157
_cell_length_c 14.671454
_cell_angle_alpha 90.000000
_cell_angle_beta 90.000000
_cell_angle_gamma 90.000000
_cell_volume 3228.955870
_symmetry_space_group_name_H-M "P C C M"
_symmetry_group_IT_number 49
_symmetry_cell_setting 'orthorhombic'
loop_
_space_group_symop_operation_xyz
x,y,z
-x,-y,z
x,-y,1/2-z
-x,y,1/2-z
-x,-y,-z
x,y,-z
-x,y,1/2+z
x,-y,1/2+z
loop_
_atom_site_type_symbol
_atom_site_label
_atom_site_fract_x
_atom_site_fract_y
_atom_site_fract_z
Si Si1 0.246622 0.913107 0.103802
Si Si2 0.916128 0.193333 0.330800
Si Si3 0.741024 0.133716 0.606360
Si Si4 0.149407 0.390413 0.751488
Si Si5 0.289002 0.650023 0.392171
Si Si6 0.723862 0.687105 0.388803
Si Si7 0.587606 0.529334 0.391956
Si Si8 0.060250 0.092546 0.359238
O O1 0.274627 0.804938 0.142050
O O2 0.148720 0.913390 0.099950
O O3 0.270267 0.021567 0.146155
O O4 0.276873 0.912283 0.000000
O O5 0.835150 0.164833 0.383435
O O6 0.906869 0.299896 0.282561
O O7 0.919979 0.112992 0.247436
O O8 0.999837 0.183829 0.384183
O O9 0.722488 0.123920 0.500000
O O10 0.695260 0.234406 0.638518
O O11 0.111191 0.500000 0.750000
O O12 0.217509 0.391720 0.830409
O O13 0.198178 0.361730 0.659793
O O14 0.267261 0.652575 0.500000
O O15 0.361067 0.572424 0.382271
O O16 0.730229 0.682856 0.500000
O O17 0.644850 0.622065 0.359747
O O18 0.500000 0.500000 0.354252
O O19 0.576684 0.550732 0.500000
O O20 0.000000 0.000000 0.380055
#
# Coordination Sequence:
#
# PCOD9393436 Si02
#       8
#     8   8   8   8   8   8   8   8
#     4  10  20  33  52  75 102 137 176 219 269 320
#     4  10  20  31  46  68 100 132 169 220 263 309
#     4   9  18  31  48  73  99 132 173 214 258 306
#     4  11  20  33  54  77 100 135 183 213 259 323
#     4   9  18  33  52  77 109 134 166 219 259 303
#     4  10  20  35  52  76 111 138 169 218 263 313
#     4   9  17  32  57  83 107 141 175 210 264 315
#     4  11  20  31  48  69 100 131 170 222 265 305
#
# _framework density 19.820647999999998
#
# number of rings (size 3 to 8) (size 9 to 14) (size 15 to 20)
#    0.000    2.125    3.750    0.750    0.000    0.750 
#    0.000    2.500    0.000    0.750    0.000    7.000 
#    0.000    2.250    0.000    0.250    0.000    0.000 
#
# Total GULP energy -356274.642515 kJ/mol
# GULP energy per Si atom -5566.791289 kJ/mol
# Density = 1.977554 g / cm^3
# Si number density = 19.820648 Si / 1000 Ang^3
#
#
#
# Elastic Constant Matrix: (Units=GPa)
#
#
# Indices 1 2 3 4 5 6 
#
# 1 50.5301 33.6176 1.2207 0.0000 0.0000 0.0000
# 2 33.6176 182.2986 9.4216 0.0000 0.0000 0.0000
# 3 1.2207 9.4216 52.9339 0.0000 0.0000 0.0000
# 4 0.0000 0.0000 0.0000 13.6347 0.0000 0.0000
# 5 0.0000 0.0000 0.0000 0.0000 10.2566 0.0000
# 6 0.0000 0.0000 0.0000 0.0000 0.0000 13.1016
#
#
#
# Elastic Compliance Matrix: (Units=1/GPa)
#
#
# Indices 1 2 3 4 5 6 
#
# 1 0.022560 -0.004172 0.000222 0.000000 0.000000 0.000000
# 2 -0.004172 0.006308 -0.001027 0.000000 0.000000 0.000000
# 3 0.000222 -0.001027 0.019069 0.000000 0.000000 0.000000
# 4 0.000000 0.000000 0.000000 0.073342 0.000000 0.000000
# 5 0.000000 0.000000 0.000000 0.000000 0.097498 0.000000
# 6 0.000000 0.000000 0.000000 0.000000 0.000000 0.076327
#
#
# Mechanical properties :
#
#
# Convention : Reuss Voigt Hill
#
# Bulk Modulus (GPa) = 26.32611 41.58695 33.95653
# Shear Modulus (GPa) = 15.73720 23.49875 19.61798
#
# Velocity S-wave (km/s) = 2.82082 3.44695 3.14948
# Velocity P-wave (km/s) = 4.89085 6.07199 5.51314
#
# Compressibility (1/GPa) = 0.03798511
#
# Stress axis : x y z
#
# Youngs Moduli (GPa) = 44.32566 158.53186 52.44095
#
# Poissons Ratio (x) = 0.66137 -0.01166
# Poissons Ratio (y) = 0.18492 0.05383
# Poissons Ratio (z) = -0.00985 0.16274
#
# Static dielectric constant tensor:
#      x y z
#    x 1.705870 0.000000 0.000000 
#    y 0.000000 1.809280 0.000000 
#    z 0.000000 0.000000 1.770450 
# 
# From -- ./inp_files/18237.got.cif
#   From: 2010.05.17/outbox.cif.g08.bks.cpg/sg49_10_cif.got.tgz:18237.got - 2010.06.03 21:02:19.
