data_PCOD9393720
_publ_section_title
;
Structure prediction by ZEFSAII (Michael W. Deem and Ramdas Pophale) SiO2 
 PCOD9393720
Probable space group: P C C M
;
_chemical_formula_sum "Si O2"
_cell_formula_units_Z 64
_cell_length_a 11.309363
_cell_length_b 7.455868
_cell_length_c 33.553691
_cell_angle_alpha 90.000000
_cell_angle_beta 90.000000
_cell_angle_gamma 90.000000
_cell_volume 2829.284728
_symmetry_space_group_name_H-M "P C C M"
_symmetry_group_IT_number 49
_symmetry_cell_setting 'orthorhombic'
loop_
_space_group_symop_operation_xyz
x,y,z
-x,-y,z
x,-y,1/2-z
-x,y,1/2-z
-x,-y,-z
x,y,-z
-x,y,1/2+z
x,-y,1/2+z
loop_
_atom_site_type_symbol
_atom_site_label
_atom_site_fract_x
_atom_site_fract_y
_atom_site_fract_z
Si Si1 0.248947 0.294963 0.830509
Si Si2 0.500000 0.216453 0.796747
Si Si3 1.000000 0.212623 0.547339
Si Si4 0.752571 0.794896 0.079222
Si Si5 0.860362 0.710296 0.750000
Si Si6 0.751054 0.294964 0.169491
Si Si7 0.752571 0.794896 0.579221
Si Si8 0.500000 0.217545 0.547142
O O1 0.385268 0.289752 0.818269
O O2 0.236514 0.204838 0.873098
O O3 0.185922 0.212817 0.791615
O O4 0.206641 0.500000 0.835293
O O5 0.500000 0.264741 0.750000
O O6 0.614732 0.289752 0.818269
O O7 0.500000 0.000000 0.799411
O O8 0.999999 0.225735 0.500000
O O9 0.874827 0.287355 0.562998
O O10 0.125173 0.287355 0.562998
O O11 0.000000 0.000000 0.558870
O O12 0.624251 0.717815 0.066457
O O13 0.750418 0.000000 0.063789
O O14 0.820626 0.500000 0.750000
O O15 0.814079 0.787182 0.708384
O O16 0.000000 0.715887 0.750000
O O17 0.763486 0.204839 0.126902
O O18 0.624251 0.717815 0.566457
O O19 0.500000 0.256808 0.500000
O O20 0.500000 0.000000 0.552305
#
# Coordination Sequence:
#
# PCOD9393720 Si02
#       8
#     8   8   8   8   8   8   8   8
#     4  11  22  37  59  83 113 150 193 234 281 343
#     4  11  22  37  58  82 112 145 184 236 289 335
#     4   9  18  34  57  84 115 152 194 240 290 349
#     4  10  20  34  55  84 115 145 187 241 291 338
#     4   9  20  37  55  76 106 151 198 235 270 329
#     4  11  22  37  59  83 113 150 193 234 281 343
#     4  10  20  34  55  84 115 145 187 241 291 338
#     4   9  17  32  56  81 105 140 184 227 276 338
#
# _framework density 22.620557000000002
#
# number of rings (size 3 to 8) (size 9 to 14) (size 15 to 20)
#    0.000    2.000    1.250    2.625    1.750    4.500 
#    0.000    0.000    0.000    7.500    0.000    0.000 
#    0.000    0.000    0.000    0.000    0.000    0.000 
#
# Total GULP energy -357369.632301 kJ/mol
# GULP energy per Si atom -5583.900505 kJ/mol
# Density = 2.256907 g / cm^3
# Si number density = 22.620557 Si / 1000 Ang^3
#
#
#
# Elastic Constant Matrix: (Units=GPa)
#
#
# Indices 1 2 3 4 5 6 
#
# 1 181.4129 5.9531 79.5411 0.0000 0.0000 0.0000
# 2 5.9531 72.8400 -0.5020 0.0000 0.0000 0.0000
# 3 79.5411 -0.5020 107.8258 0.0000 0.0000 0.0000
# 4 0.0000 0.0000 0.0000 130.8646 0.0000 0.0000
# 5 0.0000 0.0000 0.0000 0.0000 23.9523 0.0000
# 6 0.0000 0.0000 0.0000 0.0000 0.0000 -73.0541
#
#
#
# Elastic Compliance Matrix: (Units=1/GPa)
#
#
# Indices 1 2 3 4 5 6 
#
# 1 0.008184 -0.000711 -0.006041 0.000000 0.000000 0.000000
# 2 -0.000711 0.013791 0.000588 0.000000 0.000000 0.000000
# 3 -0.006041 0.000588 0.013733 0.000000 0.000000 0.000000
# 4 0.000000 0.000000 0.000000 0.007641 0.000000 0.000000
# 5 0.000000 0.000000 0.000000 0.000000 0.041750 0.000000
# 6 0.000000 0.000000 0.000000 0.000000 0.000000 -0.013688
#
#
# Mechanical properties :
#
#
# Convention : Reuss Voigt Hill
#
# Bulk Modulus (GPa) = 42.76712 59.11809 50.94261
# Shear Modulus (GPa) = 54.62679 34.82499 44.72589
#
# Velocity S-wave (km/s) = 4.91951 3.92794 4.45142
# Velocity P-wave (km/s) = 7.15655 6.83835 6.99926
#
# Compressibility (1/GPa) = 0.02338245
#
# Stress axis : x y z
#
# Youngs Moduli (GPa) = 122.18796 72.51186 72.81743
#
# Poissons Ratio (x) = 0.05152 0.43986
# Poissons Ratio (y) = 0.08681 -0.04284
# Poissons Ratio (z) = 0.73809 -0.04266
#
# Static dielectric constant tensor:
#      x y z
#    x 1.819260 0.000000 0.000000 
#    y 0.000000 1.897180 0.000000 
#    z 0.000000 0.000000 1.878730 
# 
# From -- ./inp_files/26685.got.cif
#   From: 2010.05.17/outbox.cif.g08.bks.cpg/sg49_14_cif.got.tgz:26685.got - 2010.06.03 21:02:19.
