data_PCOD9393864
_publ_section_title
;
Structure prediction by ZEFSAII (Michael W. Deem and Ramdas Pophale) SiO2 
 PCOD9393864
Probable space group: P C C M
;
_chemical_formula_sum "Si O2"
_cell_formula_units_Z 58
_cell_length_a 25.772131
_cell_length_b 12.865742
_cell_length_c 8.845538
_cell_angle_alpha 90.000000
_cell_angle_beta 90.000000
_cell_angle_gamma 90.000000
_cell_volume 2932.982157
_symmetry_space_group_name_H-M "P C C M"
_symmetry_group_IT_number 49
_symmetry_cell_setting 'orthorhombic'
loop_
_space_group_symop_operation_xyz
x,y,z
-x,-y,z
x,-y,1/2-z
-x,y,1/2-z
-x,-y,-z
x,y,-z
-x,y,1/2+z
x,-y,1/2+z
loop_
_atom_site_type_symbol
_atom_site_label
_atom_site_fract_x
_atom_site_fract_y
_atom_site_fract_z
Si Si1 0.228448 0.108861 0.180648
Si Si2 0.342677 0.812925 0.677564
Si Si3 0.186362 0.679984 0.176009
Si Si4 0.000000 0.500000 0.250000
Si Si5 0.302530 0.607011 0.176934
Si Si6 0.551634 0.114847 0.179455
Si Si7 0.084724 0.326205 0.827899
Si Si8 0.942199 0.106402 0.181032
O O1 0.290402 0.121689 0.211629
O O2 0.199641 0.205692 0.257929
O O3 0.211270 0.000000 0.250000
O O4 0.221086 0.112654 0.000000
O O5 0.354032 0.824936 0.500000
O O6 0.326057 0.697709 0.722261
O O7 0.393451 0.838478 0.772765
O O8 0.240211 0.618332 0.186267
O O9 0.139796 0.631244 0.271101
O O10 0.171781 0.687593 0.000000
O O11 0.040471 0.415382 0.179520
O O12 0.319138 0.500000 0.250000
O O13 0.316529 0.617656 0.000000
O O14 0.500000 0.166874 0.250000
O O15 0.553123 0.000000 0.250000
O O16 0.546468 0.110279 0.000000
O O17 0.077087 0.221398 0.728651
O O18 0.087744 0.290412 0.000000
O O19 0.000000 0.106708 0.250000
O O20 0.917289 0.000000 0.250000
O O21 0.942476 0.097874 0.000000
#
# Coordination Sequence:
#
# PCOD9393864 Si02
#       8
#     8   8   8   2   8   8   8   8
#     4  10  20  35  58  88 123 161 199 242 296 357
#     4  10  20  35  56  84 118 158 203 252 302 357
#     4  10  23  41  61  88 120 153 193 240 291 350
#     4  12  30  48  70  94 126 160 202 242 300 364
#     4  10  21  38  60  86 115 151 194 244 299 356
#     4  11  21  34  53  81 119 162 207 252 300 356
#     4  12  26  45  68  94 125 159 200 245 296 357
#     4  11  22  40  66  93 121 152 190 234 283 339
#
# _framework density 19.775093999999999
#
# number of rings (size 3 to 8) (size 9 to 14) (size 15 to 20)
#    0.000    1.379    0.690    6.000    0.966    6.621 
#    0.000    2.759    0.000    0.414    0.000    2.897 
#    0.000    0.000    0.000    0.000    0.000    0.000 
#
# Total GULP energy -323796.033628 kJ/mol
# GULP energy per Si atom -5582.690235 kJ/mol
# Density = 1.973009 g / cm^3
# Si number density = 19.775094 Si / 1000 Ang^3
#
#
#
# Elastic Constant Matrix: (Units=GPa)
#
#
# Indices 1 2 3 4 5 6 
#
# 1 89.1580 2.4547 37.9969 0.0000 0.0000 0.0000
# 2 2.4547 80.2295 21.8674 0.0000 0.0000 0.0000
# 3 37.9969 21.8674 121.8575 0.0000 0.0000 0.0000
# 4 0.0000 0.0000 0.0000 -183.7576 0.0000 0.0000
# 5 0.0000 0.0000 0.0000 0.0000 23.1357 0.0000
# 6 0.0000 0.0000 0.0000 0.0000 0.0000 84.2973
#
#
#
# Elastic Compliance Matrix: (Units=1/GPa)
#
#
# Indices 1 2 3 4 5 6 
#
# 1 0.012977 0.000742 -0.004180 0.000000 0.000000 0.000000
# 2 0.000742 0.013148 -0.002591 0.000000 0.000000 0.000000
# 3 -0.004180 -0.002591 0.009974 0.000000 0.000000 0.000000
# 4 0.000000 0.000000 0.000000 -0.005442 0.000000 0.000000
# 5 0.000000 0.000000 0.000000 0.000000 0.043223 0.000000
# 6 0.000000 0.000000 0.000000 0.000000 0.000000 0.011863
#
#
# Mechanical properties :
#
#
# Convention : Reuss Voigt Hill
#
# Bulk Modulus (GPa) = 41.59278 46.20922 43.90100
# Shear Modulus (GPa) = 47.25289 -0.00320 23.62484
#
# Velocity S-wave (km/s) = 4.89357 -0.04028 3.46016
# Velocity P-wave (km/s) = 7.28066 4.83900 6.18158
#
# Compressibility (1/GPa) = 0.02404263
#
# Stress axis : x y z
#
# Youngs Moduli (GPa) = 77.06049 76.05903 100.25608
#
# Poissons Ratio (x) = -0.05645 0.41902
# Poissons Ratio (y) = -0.05719 0.25974
# Poissons Ratio (z) = 0.32208 0.19705
#
# Static dielectric constant tensor:
#      x y z
#    x 1.746080 0.000000 0.000000 
#    y 0.000000 1.686190 0.000000 
#    z 0.000000 0.000000 1.670740 
# 
# From -- ./inp_files/6734.got.cif
#   From: 2010.05.17/outbox.cif.g08.bks.cpg/sg49_4_cif.got.tgz:6734.got - 2010.06.03 21:02:19.
