data_PCOD9393654
_publ_section_title
;
Structure prediction by ZEFSAII (Michael W. Deem and Ramdas Pophale) SiO2 
 PCOD9393654
Probable space group: P C C M
;
_chemical_formula_sum "Si O2"
_cell_formula_units_Z 48
_cell_length_a 31.593707
_cell_length_b 9.639788
_cell_length_c 8.594853
_cell_angle_alpha 90.000000
_cell_angle_beta 90.000000
_cell_angle_gamma 90.000000
_cell_volume 2617.619530
_symmetry_space_group_name_H-M "P C C M"
_symmetry_group_IT_number 49
_symmetry_cell_setting 'orthorhombic'
loop_
_space_group_symop_operation_xyz
x,y,z
-x,-y,z
x,-y,1/2-z
-x,y,1/2-z
-x,-y,-z
x,y,-z
-x,y,1/2+z
x,-y,1/2+z
loop_
_atom_site_type_symbol
_atom_site_label
_atom_site_fract_x
_atom_site_fract_y
_atom_site_fract_z
Si Si1 0.379015 0.844177 0.313737
Si Si2 0.452736 0.651907 0.813431
Si Si3 0.788490 0.345604 0.314109
Si Si4 0.696529 0.344004 0.813639
Si Si5 0.136611 0.842858 0.812756
Si Si6 0.043071 0.842523 0.185591
O O1 0.379991 0.844732 0.500000
O O2 0.420219 0.765496 0.248393
O O3 0.338572 0.758066 0.254306
O O4 0.377408 0.000000 0.250000
O O5 0.439794 0.500000 0.750000
O O6 0.500000 0.677966 0.750000
O O7 0.453155 0.648993 0.000000
O O8 0.796687 0.500000 0.250000
O O9 0.784892 0.349486 0.500000
O O10 0.743418 0.301223 0.242084
O O11 0.826233 0.246648 0.261048
O O12 0.689396 0.500000 0.750000
O O13 0.694540 0.346033 0.000000
O O14 0.089494 0.785222 0.772684
O O15 0.139125 0.000000 0.750000
O O16 0.140349 0.844109 0.000000
O O17 0.000000 0.775402 0.250000
O O18 0.043705 0.000000 0.250000
O O19 0.040020 0.848022 0.000000
#
# Coordination Sequence:
#
# PCOD9393654 Si02
#       6
#     8   8   8   8   8   8
#     4  12  25  42  61  88 121 155 192 236 287 340
#     4  11  22  40  64  92 121 157 199 242 285 333
#     4  11  22  38  59  83 110 145 184 228 277 332
#     4  11  22  40  63  87 113 147 188 232 276 330
#     4  10  20  34  52  79 110 143 181 226 275 328
#     4   9  16  26  44  69 101 136 175 219 267 319
#
# _framework density 18.337271000000001
#
# number of rings (size 3 to 8) (size 9 to 14) (size 15 to 20)
#    0.000    1.333    0.000    9.500    0.000    3.000 
#    0.000    5.000    0.000    0.500    0.000    3.500 
#    0.000    0.000    0.000    0.000    0.000    0.000 
#
# Total GULP energy -268216.197173 kJ/mol
# GULP energy per Si atom -5587.837441 kJ/mol
# Density = 1.829553 g / cm^3
# Si number density = 18.337271 Si / 1000 Ang^3
#
#
#
# Elastic Constant Matrix: (Units=GPa)
#
#
# Indices 1 2 3 4 5 6 
#
# 1 152.0770 96.8163 73.5944 0.0000 0.0000 0.0000
# 2 96.8163 87.5473 54.7231 0.0000 0.0000 0.0000
# 3 73.5944 54.7231 186.3604 0.0000 0.0000 0.0000
# 4 0.0000 0.0000 0.0000 30.2317 0.0000 0.0000
# 5 0.0000 0.0000 0.0000 0.0000 35.7613 0.0000
# 6 0.0000 0.0000 0.0000 0.0000 0.0000 32.2653
#
#
#
# Elastic Compliance Matrix: (Units=1/GPa)
#
#
# Indices 1 2 3 4 5 6 
#
# 1 0.022786 -0.023974 -0.001958 0.000000 0.000000 0.000000
# 2 -0.023974 0.039215 -0.002048 0.000000 0.000000 0.000000
# 3 -0.001958 -0.002048 0.006741 0.000000 0.000000 0.000000
# 4 0.000000 0.000000 0.000000 0.033078 0.000000 0.000000
# 5 0.000000 0.000000 0.000000 0.000000 0.027963 0.000000
# 6 0.000000 0.000000 0.000000 0.000000 0.000000 0.030993
#
#
# Mechanical properties :
#
#
# Convention : Reuss Voigt Hill
#
# Bulk Modulus (GPa) = 78.24209 97.36139 87.80174
# Shear Modulus (GPa) = 22.62474 33.04173 27.83324
#
# Velocity S-wave (km/s) = 3.51638 4.24947 3.90019
# Velocity P-wave (km/s) = 7.69724 8.79133 8.26241
#
# Compressibility (1/GPa) = 0.01278084
#
# Stress axis : x y z
#
# Youngs Moduli (GPa) = 43.88628 25.50044 148.35513
#
# Poissons Ratio (x) = 0.61136 0.29055
# Poissons Ratio (y) = 1.05215 0.30376
# Poissons Ratio (z) = 0.08595 0.05221
#
# Static dielectric constant tensor:
#      x y z
#    x 1.650880 0.000000 0.000000 
#    y 0.000000 1.595430 0.000000 
#    z 0.000000 0.000000 1.609760 
# 
# From -- ./inp_files/6866.got.cif
#   From: 2010.05.17/outbox.cif.g08.bks.cpg/sg49_4_cif.got.tgz:6866.got - 2010.06.03 21:02:19.
