data_PCOD9393895
_publ_section_title
;
Structure prediction by ZEFSAII (Michael W. Deem and Ramdas Pophale) SiO2 
 PCOD9393895
Probable space group: P C C M
;
_chemical_formula_sum "Si O2"
_cell_formula_units_Z 48
_cell_length_a 9.300341
_cell_length_b 16.263539
_cell_length_c 14.630288
_cell_angle_alpha 90.000000
_cell_angle_beta 90.000000
_cell_angle_gamma 90.000000
_cell_volume 2212.925551
_symmetry_space_group_name_H-M "P C C M"
_symmetry_group_IT_number 49
_symmetry_cell_setting 'orthorhombic'
loop_
_space_group_symop_operation_xyz
x,y,z
-x,-y,z
x,-y,1/2-z
-x,y,1/2-z
-x,-y,-z
x,y,-z
-x,y,1/2+z
x,-y,1/2+z
loop_
_atom_site_type_symbol
_atom_site_label
_atom_site_fract_x
_atom_site_fract_y
_atom_site_fract_z
Si Si1 0.909463 0.242292 0.106770
Si Si2 0.599179 0.077836 0.611074
Si Si3 0.917118 0.579421 0.611129
Si Si4 0.582082 0.580944 0.389062
Si Si5 0.929490 0.080424 0.650489
Si Si6 0.583078 0.235451 0.888204
O O1 0.967068 0.329901 0.141981
O O2 0.748952 0.222967 0.144097
O O3 0.019020 0.167497 0.111965
O O4 0.881938 0.256577 0.000000
O O5 0.613945 0.078311 0.500000
O O6 0.758920 0.071775 0.650415
O O7 0.519677 0.161449 0.640212
O O8 0.500000 0.000000 0.634874
O O9 0.928389 0.576781 0.500000
O O10 0.749484 0.573999 0.634638
O O11 0.000000 0.500000 0.645681
O O12 0.500000 0.500000 0.356285
O O13 0.572487 0.580589 0.500000
O O14 0.533648 0.672667 0.360931
O O15 0.000000 0.082430 0.750000
O O16 0.000000 0.000000 0.604148
O O17 0.582807 0.232915 0.000000
#
# Coordination Sequence:
#
# PCOD9393895 Si02
#       6
#     8   8   8   8   8   8
#     4   9  17  32  54  76 103 140 178 220 267 317
#     4  10  20  35  58  84 106 133 175 226 275 323
#     4   8  14  24  41  70 103 132 167 212 262 312
#     4   8  13  21  35  59  96 133 158 194 251 307
#     4  11  24  39  52  74 107 140 176 219 271 332
#     4   8  15  28  46  72 101 128 166 213 259 305
#
# _framework density 21.690743999999999
#
# number of rings (size 3 to 8) (size 9 to 14) (size 15 to 20)
#    0.000    3.000    0.000    3.500    0.000    4.000 
#    0.000   10.833    0.000    0.500    0.000    0.000 
#    0.000    1.333    0.000    0.000    0.000    0.000 
#
# Total GULP energy -267759.646945 kJ/mol
# GULP energy per Si atom -5578.325978 kJ/mol
# Density = 2.164138 g / cm^3
# Si number density = 21.690744 Si / 1000 Ang^3
#
#
#
# Elastic Constant Matrix: (Units=GPa)
#
#
# Indices 1 2 3 4 5 6 
#
# 1 139.9963 127.5445 17.5498 0.0000 0.0000 0.0000
# 2 127.5445 247.3910 8.6596 0.0000 0.0000 0.0000
# 3 17.5498 8.6596 56.8892 0.0000 0.0000 0.0000
# 4 0.0000 0.0000 0.0000 5.9017 0.0000 0.0000
# 5 0.0000 0.0000 0.0000 0.0000 7.6521 0.0000
# 6 0.0000 0.0000 0.0000 0.0000 0.0000 42.4021
#
#
#
# Elastic Compliance Matrix: (Units=1/GPa)
#
#
# Indices 1 2 3 4 5 6 
#
# 1 0.014042 -0.007126 -0.003247 0.000000 0.000000 0.000000
# 2 -0.007126 0.007680 0.001029 0.000000 0.000000 0.000000
# 3 -0.003247 0.001029 0.018423 0.000000 0.000000 0.000000
# 4 0.000000 0.000000 0.000000 0.169444 0.000000 0.000000
# 5 0.000000 0.000000 0.000000 0.000000 0.130683 0.000000
# 6 0.000000 0.000000 0.000000 0.000000 0.000000 0.023584
#
#
# Mechanical properties :
#
#
# Convention : Reuss Voigt Hill
#
# Bulk Modulus (GPa) = 46.60364 83.53159 65.06762
# Shear Modulus (GPa) = 12.83051 30.55934 21.69492
#
# Velocity S-wave (km/s) = 2.43476 3.75756 3.16601
# Velocity P-wave (km/s) = 5.42551 7.57757 6.58998
#
# Compressibility (1/GPa) = 0.02145755
#
# Stress axis : x y z
#
# Youngs Moduli (GPa) = 71.21372 130.20850 54.27966
#
# Poissons Ratio (x) = 0.92786 0.17626
# Poissons Ratio (y) = 0.50746 -0.05587
# Poissons Ratio (z) = 0.23125 -0.13402
#
# Static dielectric constant tensor:
#      x y z
#    x 1.735490 0.000000 0.000000 
#    y 0.000000 1.851880 0.000000 
#    z 0.000000 0.000000 1.988290 
# 
# From -- ./inp_files/16324.got.cif
#   From: 2010.05.17/outbox.cif.g08.bks.cpg/sg49_9_cif.got.tgz:16324.got - 2010.06.03 21:02:19.
