data_PCOD9393506
_publ_section_title
;
Structure prediction by ZEFSAII (Michael W. Deem and Ramdas Pophale) SiO2 
 PCOD9393506
Probable space group: P C C M
;
_chemical_formula_sum "Si O2"
_cell_formula_units_Z 64
_cell_length_a 17.095549
_cell_length_b 12.552638
_cell_length_c 14.107583
_cell_angle_alpha 90.000000
_cell_angle_beta 90.000000
_cell_angle_gamma 90.000000
_cell_volume 3027.406024
_symmetry_space_group_name_H-M "P C C M"
_symmetry_group_IT_number 49
_symmetry_cell_setting 'orthorhombic'
loop_
_space_group_symop_operation_xyz
x,y,z
-x,-y,z
x,-y,1/2-z
-x,y,1/2-z
-x,-y,-z
x,y,-z
-x,y,1/2+z
x,-y,1/2+z
loop_
_atom_site_type_symbol
_atom_site_label
_atom_site_fract_x
_atom_site_fract_y
_atom_site_fract_z
Si Si1 0.532224 0.259508 0.650159
Si Si2 0.721033 0.640946 0.383699
Si Si3 0.104835 0.414493 0.384809
Si Si4 0.334216 0.582990 0.390021
Si Si5 0.060220 0.655839 0.384383
Si Si6 0.786410 0.236013 0.384190
Si Si7 0.368933 0.159231 0.392469
Si Si8 0.344466 0.920694 0.384046
O O1 0.500000 0.295939 0.750000
O O2 0.582618 0.357529 0.611172
O O3 0.455656 0.208835 0.602519
O O4 0.592344 0.161417 0.656928
O O5 0.717637 0.646321 0.500000
O O6 0.810543 0.625019 0.355152
O O7 0.672024 0.537007 0.352379
O O8 0.684234 0.749933 0.346820
O O9 0.104833 0.413991 0.500000
O O10 0.091168 0.537712 0.358175
O O11 0.030414 0.344419 0.353660
O O12 0.312213 0.571067 0.500000
O O13 0.268823 0.665089 0.352380
O O14 0.058895 0.659768 0.500000
O O15 0.124850 0.741308 0.352828
O O16 0.787035 0.238312 0.500000
O O17 0.740779 0.127323 0.359803
O O18 0.340373 0.144937 0.500000
O O19 0.362278 0.040697 0.352604
O O20 0.353656 0.913359 0.500000
#
# Coordination Sequence:
#
# PCOD9393506 Si02
#       8
#     8   8   8   8   8   8   8   8
#     4  11  22  34  49  68  89 113 148 199 250 285
#     4   9  16  27  44  64  91 126 160 186 217 272
#     4   8  12  18  32  60  93 122 148 180 218 262
#     4   9  16  29  48  68  91 121 155 191 229 275
#     4   8  11  16  32  60  93 120 146 180 222 264
#     4   8  12  21  39  62  87 117 149 185 225 265
#     4  10  20  33  48  66  88 121 160 194 229 275
#     4   9  18  32  50  68  88 117 157 199 235 274
#
# _framework density 21.14021
#
# number of rings (size 3 to 8) (size 9 to 14) (size 15 to 20)
#    0.000    3.000    1.250    3.000    0.000    2.500 
#    0.000    3.125    0.000    0.750    0.000    5.250 
#    0.000    4.000    2.000    4.500    0.000    5.000 
#
# Total GULP energy -357054.610901 kJ/mol
# GULP energy per Si atom -5578.978295 kJ/mol
# Density = 2.109209 g / cm^3
# Si number density = 21.140210 Si / 1000 Ang^3
#
#
#
# Elastic Constant Matrix: (Units=GPa)
#
#
# Indices 1 2 3 4 5 6 
#
# 1 140.6745 61.7181 -5.1908 0.0000 0.0000 0.0000
# 2 61.7181 60.3366 -6.9082 0.0000 0.0000 0.0000
# 3 -5.1908 -6.9082 49.7133 0.0000 0.0000 0.0000
# 4 0.0000 0.0000 0.0000 5.4870 0.0000 0.0000
# 5 0.0000 0.0000 0.0000 0.0000 8.2271 0.0000
# 6 0.0000 0.0000 0.0000 0.0000 0.0000 21.3015
#
#
#
# Elastic Compliance Matrix: (Units=1/GPa)
#
#
# Indices 1 2 3 4 5 6 
#
# 1 0.012908 -0.013260 -0.000495 0.000000 0.000000 0.000000
# 2 -0.013260 0.030464 0.002849 0.000000 0.000000 0.000000
# 3 -0.000495 0.002849 0.020460 0.000000 0.000000 0.000000
# 4 0.000000 0.000000 0.000000 0.182248 0.000000 0.000000
# 5 0.000000 0.000000 0.000000 0.000000 0.121550 0.000000
# 6 0.000000 0.000000 0.000000 0.000000 0.000000 0.046945
#
#
# Mechanical properties :
#
#
# Convention : Reuss Voigt Hill
#
# Bulk Modulus (GPa) = 23.79908 38.88474 31.34191
# Shear Modulus (GPa) = 11.10141 20.41014 15.75577
#
# Velocity S-wave (km/s) = 2.29406 3.11056 2.73298
# Velocity P-wave (km/s) = 4.27775 5.59772 4.98165
#
# Compressibility (1/GPa) = 0.04201844
#
# Stress axis : x y z
#
# Youngs Moduli (GPa) = 77.47128 32.82597 48.87701
#
# Poissons Ratio (x) = 0.43528 0.02419
# Poissons Ratio (y) = 1.02729 -0.13924
# Poissons Ratio (z) = 0.03834 -0.09351
#
# Static dielectric constant tensor:
#      x y z
#    x 1.754630 0.000000 0.000000 
#    y 0.000000 1.737750 0.000000 
#    z 0.000000 0.000000 1.906640 
# 
# From -- ./inp_files/18220.got.cif
#   From: 2010.05.17/outbox.cif.g08.bks.cpg/sg49_10_cif.got.tgz:18220.got - 2010.06.03 21:02:19.
