data_PCOD9393511
_publ_section_title
;
Structure prediction by ZEFSAII (Michael W. Deem and Ramdas Pophale) SiO2 
 PCOD9393511
Probable space group: P C C M
;
_chemical_formula_sum "Si O2"
_cell_formula_units_Z 26
_cell_length_a 14.736230
_cell_length_b 5.453074
_cell_length_c 14.793470
_cell_angle_alpha 90.000000
_cell_angle_beta 90.000000
_cell_angle_gamma 90.000000
_cell_volume 1188.770003
_symmetry_space_group_name_H-M "P C C M"
_symmetry_group_IT_number 49
_symmetry_cell_setting 'orthorhombic'
loop_
_space_group_symop_operation_xyz
x,y,z
-x,-y,z
x,-y,1/2-z
-x,y,1/2-z
-x,-y,-z
x,y,-z
-x,y,1/2+z
x,-y,1/2+z
loop_
_atom_site_type_symbol
_atom_site_label
_atom_site_fract_x
_atom_site_fract_y
_atom_site_fract_z
Si Si1 0.164809 0.736731 0.845447
Si Si2 0.239902 0.239405 0.857114
Si Si3 0.000000 0.500000 0.250000
Si Si4 0.546751 0.248566 0.608728
O O1 0.201126 0.494921 0.894676
O O2 0.219281 0.750165 0.750190
O O3 0.063293 0.672281 0.812349
O O4 0.187136 0.996351 0.890232
O O5 0.346654 0.232467 0.871999
O O6 0.500000 0.500000 0.642220
O O7 0.536015 0.250591 0.500000
O O8 0.500000 0.000000 0.642894
#
# Coordination Sequence:
#
# PCOD9393511 Si02
#       4
#     8   8   2   8
#     4   9  18  29  48  70  94 120 147 186 232 279
#     4   9  17  31  44  68  95 116 152 190 229 273
#     4   8  16  30  48  74  96 122 156 182 228 292
#     4  10  20  33  49  66  88 123 163 195 224 269
#
# _framework density 21.871345000000002
#
# number of rings (size 3 to 8) (size 9 to 14) (size 15 to 20)
#    0.000    3.077    0.000    1.846    0.000    9.846 
#    0.000   18.462    0.000    0.000    0.000   35.538 
#    0.000    0.000    0.000    0.000    0.000    0.000 
#
# Total GULP energy -144982.364347 kJ/mol
# GULP energy per Si atom -5576.244783 kJ/mol
# Density = 2.182156 g / cm^3
# Si number density = 21.871345 Si / 1000 Ang^3
#
#
#
# Elastic Constant Matrix: (Units=GPa)
#
#
# Indices 1 2 3 4 5 6 
#
# 1 176.5438 119.3347 -0.2589 0.0000 0.0000 0.0000
# 2 119.3347 274.2167 17.9431 0.0000 0.0000 0.0000
# 3 -0.2589 17.9431 64.8227 0.0000 0.0000 0.0000
# 4 0.0000 0.0000 0.0000 -16.2455 0.0000 0.0000
# 5 0.0000 0.0000 0.0000 0.0000 -282.1987 0.0000
# 6 0.0000 0.0000 0.0000 0.0000 0.0000 69.1460
#
#
#
# Elastic Compliance Matrix: (Units=1/GPa)
#
#
# Indices 1 2 3 4 5 6 
#
# 1 0.008091 -0.003588 0.001026 0.000000 0.000000 0.000000
# 2 -0.003588 0.005305 -0.001483 0.000000 0.000000 0.000000
# 3 0.001026 -0.001483 0.015841 0.000000 0.000000 0.000000
# 4 0.000000 0.000000 0.000000 -0.061556 0.000000 0.000000
# 5 0.000000 0.000000 0.000000 0.000000 -0.003544 0.000000
# 6 0.000000 0.000000 0.000000 0.000000 0.000000 0.014462
#
#
# Mechanical properties :
#
#
# Convention : Reuss Voigt Hill
#
# Bulk Modulus (GPa) = 47.28866 87.73566 67.51216
# Shear Modulus (GPa) = -798.86637 -20.62200 -409.74419
#
# Velocity S-wave (km/s) = -19.13243 -3.07396 -13.70218
# Velocity P-wave (km/s) = 21.59626 5.25381 14.81209
#
# Compressibility (1/GPa) = 0.02114672
#
# Stress axis : x y z
#
# Youngs Moduli (GPa) = 123.58870 188.48839 63.12631
#
# Poissons Ratio (x) = 0.67636 -0.06474
# Poissons Ratio (y) = 0.44348 0.09361
# Poissons Ratio (z) = -0.12675 0.27950
#
# Static dielectric constant tensor:
#      x y z
#    x 1.738590 0.000000 0.000000 
#    y 0.000000 2.052860 0.000000 
#    z 0.000000 0.000000 1.752470 
# 
# From -- ./inp_files/17415.got.cif
#   From: 2010.05.17/outbox.cif.g08.bks.cpg/sg49_9_cif.got.tgz:17415.got - 2010.06.03 21:02:19.
