data_PCOD9393135
_publ_section_title
;
Structure prediction by ZEFSAII (Michael W. Deem and Ramdas Pophale) SiO2 
 PCOD9393135
Probable space group: P C C M
;
_chemical_formula_sum "Si O2"
_cell_formula_units_Z 48
_cell_length_a 15.236118
_cell_length_b 19.485124
_cell_length_c 8.514441
_cell_angle_alpha 90.000000
_cell_angle_beta 90.000000
_cell_angle_gamma 90.000000
_cell_volume 2527.747222
_symmetry_space_group_name_H-M "P C C M"
_symmetry_group_IT_number 49
_symmetry_cell_setting 'orthorhombic'
loop_
_space_group_symop_operation_xyz
x,y,z
-x,-y,z
x,-y,1/2-z
-x,y,1/2-z
-x,-y,-z
x,y,-z
-x,y,1/2+z
x,-y,1/2+z
loop_
_atom_site_type_symbol
_atom_site_label
_atom_site_fract_x
_atom_site_fract_y
_atom_site_fract_z
Si Si1 0.097384 0.922522 0.187770
Si Si2 0.404279 0.274811 0.189205
Si Si3 0.850163 0.430006 0.688869
Si Si4 0.087162 0.287787 0.813345
Si Si5 0.761660 0.185489 0.310992
Si Si6 0.650641 0.425775 0.812312
O O1 0.182248 0.878140 0.242322
O O2 0.000000 0.900395 0.250000
O O3 0.108841 0.000000 0.250000
O O4 0.093436 0.921441 0.000000
O O5 0.500000 0.254931 0.250000
O O6 0.332947 0.216397 0.238753
O O7 0.386697 0.352978 0.250020
O O8 0.400954 0.278203 0.000000
O O9 0.889921 0.500000 0.750000
O O10 0.844371 0.429721 0.500000
O O11 0.902926 0.364605 0.746806
O O12 0.751964 0.425007 0.756936
O O13 0.174150 0.248259 0.770899
O O14 0.000000 0.254209 0.750000
O O15 0.081639 0.289068 0.000000
O O16 0.758462 0.175862 0.500000
O O17 0.614687 0.500000 0.750000
O O18 0.644137 0.426666 0.000000
#
# Coordination Sequence:
#
# PCOD9393135 Si02
#       6
#     8   8   8   8   8   8
#     4  11  22  38  63  96 131 165 202 238 282 339
#     4  11  23  41  62  87 119 152 196 247 300 358
#     4  10  19  34  51  72 102 142 187 237 292 343
#     4  10  21  35  52  76 108 146 188 232 285 340
#     4  10  21  40  61  84 120 158 190 238 293 344
#     4  11  21  35  57  82 109 146 193 246 307 363
#
# _framework density 18.989241
#
# number of rings (size 3 to 8) (size 9 to 14) (size 15 to 20)
#    0.000    1.500    1.667    6.000    0.000    5.333 
#    0.000    3.333    0.000    0.500    0.000    3.500 
#    0.000    0.000    0.000    0.000    0.000    0.000 
#
# Total GULP energy -267671.679359 kJ/mol
# GULP energy per Si atom -5576.493320 kJ/mol
# Density = 1.894602 g / cm^3
# Si number density = 18.989241 Si / 1000 Ang^3
#
#
#
# Elastic Constant Matrix: (Units=GPa)
#
#
# Indices 1 2 3 4 5 6 
#
# 1 144.6594 66.6261 42.4123 0.0000 0.0000 0.0000
# 2 66.6261 136.9158 47.4502 0.0000 0.0000 0.0000
# 3 42.4123 47.4502 86.2616 0.0000 0.0000 0.0000
# 4 0.0000 0.0000 0.0000 25.8528 0.0000 0.0000
# 5 0.0000 0.0000 0.0000 0.0000 78.8172 0.0000
# 6 0.0000 0.0000 0.0000 0.0000 0.0000 8.3475
#
#
#
# Elastic Compliance Matrix: (Units=1/GPa)
#
#
# Indices 1 2 3 4 5 6 
#
# 1 0.009355 -0.003655 -0.002589 0.000000 0.000000 0.000000
# 2 -0.003655 0.010452 -0.003952 0.000000 0.000000 0.000000
# 3 -0.002589 -0.003952 0.015040 0.000000 0.000000 0.000000
# 4 0.000000 0.000000 0.000000 0.038681 0.000000 0.000000
# 5 0.000000 0.000000 0.000000 0.000000 0.012688 0.000000
# 6 0.000000 0.000000 0.000000 0.000000 0.000000 0.119796
#
#
# Mechanical properties :
#
#
# Convention : Reuss Voigt Hill
#
# Bulk Modulus (GPa) = 69.18516 75.64598 72.41557
# Shear Modulus (GPa) = 21.62413 36.69338 29.15876
#
# Velocity S-wave (km/s) = 3.37821 4.40059 3.92285
# Velocity P-wave (km/s) = 7.19231 8.10820 7.66395
#
# Compressibility (1/GPa) = 0.01445397
#
# Stress axis : x y z
#
# Youngs Moduli (GPa) = 106.89030 95.67360 66.49074
#
# Poissons Ratio (x) = 0.34971 0.17215
# Poissons Ratio (y) = 0.39071 0.26279
# Poissons Ratio (z) = 0.27675 0.37813
#
# Static dielectric constant tensor:
#      x y z
#    x 1.654610 0.000000 0.000000 
#    y 0.000000 1.690520 0.000000 
#    z 0.000000 0.000000 1.648770 
# 
# From -- ./inp_files/3860.got.cif
#   From: 2010.05.17/outbox.cif.g08.bks.cpg/sg49_2_cif.got.tgz:3860.got - 2010.06.03 21:02:19.
