data_PCOD9393768
_publ_section_title
;
Structure prediction by ZEFSAII (Michael W. Deem and Ramdas Pophale) SiO2 
 PCOD9393768
Probable space group: P C C M
;
_chemical_formula_sum "Si O2"
_cell_formula_units_Z 48
_cell_length_a 14.061933
_cell_length_b 24.278603
_cell_length_c 8.620654
_cell_angle_alpha 90.000000
_cell_angle_beta 90.000000
_cell_angle_gamma 90.000000
_cell_volume 2943.126523
_symmetry_space_group_name_H-M "P C C M"
_symmetry_group_IT_number 49
_symmetry_cell_setting 'orthorhombic'
loop_
_space_group_symop_operation_xyz
x,y,z
-x,-y,z
x,-y,1/2-z
-x,y,1/2-z
-x,-y,-z
x,y,-z
-x,y,1/2+z
x,-y,1/2+z
loop_
_atom_site_type_symbol
_atom_site_label
_atom_site_fract_x
_atom_site_fract_y
_atom_site_fract_z
Si Si1 0.104003 0.726892 0.314094
Si Si2 0.604565 0.774327 0.685728
Si Si3 0.293691 0.333741 0.186966
Si Si4 0.606339 0.440212 0.185526
Si Si5 0.215858 0.163529 0.186892
Si Si6 0.105469 0.060557 0.685653
O O1 0.099449 0.726521 0.500000
O O2 0.186495 0.683965 0.268012
O O3 0.142882 0.787295 0.267380
O O4 0.000000 0.715787 0.250000
O O5 0.500000 0.786231 0.750000
O O6 0.604427 0.773493 0.500000
O O7 0.638787 0.714875 0.749482
O O8 0.682356 0.817638 0.747985
O O9 0.326483 0.391601 0.255124
O O10 0.300125 0.334351 0.000000
O O11 0.635554 0.500000 0.250000
O O12 0.500000 0.429638 0.250000
O O13 0.603090 0.441548 0.000000
O O14 0.177629 0.106674 0.254554
O O15 0.219606 0.161464 0.000000
O O16 0.102356 0.059353 0.500000
O O17 0.000000 0.073863 0.750000
O O18 0.129819 0.000000 0.750000
#
# Coordination Sequence:
#
# PCOD9393768 Si02
#       6
#     8   8   8   8   8   8
#     4   9  19  32  50  73 101 132 164 202 247 294
#     4  11  21  34  52  76 103 135 170 208 252 301
#     4  10  20  35  51  73 103 135 168 207 250 297
#     4  11  21  34  52  75 101 132 165 204 249 299
#     4  10  20  35  52  75 104 135 169 210 254 302
#     4  11  21  34  52  76 104 137 172 211 255 303
#
# _framework density 16.309187000000001
#
# number of rings (size 3 to 8) (size 9 to 14) (size 15 to 20)
#    0.000    1.667    0.000    8.500    0.000    5.333 
#    0.000    0.000    0.000    1.000    0.000    7.000 
#    0.000    0.000    0.000    0.000    0.000    0.000 
#
# Total GULP energy -268111.660103 kJ/mol
# GULP energy per Si atom -5585.659585 kJ/mol
# Density = 1.627207 g / cm^3
# Si number density = 16.309187 Si / 1000 Ang^3
#
#
#
# Elastic Constant Matrix: (Units=GPa)
#
#
# Indices 1 2 3 4 5 6 
#
# 1 133.5290 94.0877 57.6625 0.0000 0.0000 0.0000
# 2 94.0877 132.6568 60.9276 0.0000 0.0000 0.0000
# 3 57.6625 60.9276 133.9787 0.0000 0.0000 0.0000
# 4 0.0000 0.0000 0.0000 28.5974 0.0000 0.0000
# 5 0.0000 0.0000 0.0000 0.0000 29.4170 0.0000
# 6 0.0000 0.0000 0.0000 0.0000 0.0000 20.6060
#
#
#
# Elastic Compliance Matrix: (Units=1/GPa)
#
#
# Indices 1 2 3 4 5 6 
#
# 1 0.015426 -0.009975 -0.002103 0.000000 0.000000 0.000000
# 2 -0.009975 0.015979 -0.002973 0.000000 0.000000 0.000000
# 3 -0.002103 -0.002973 0.009721 0.000000 0.000000 0.000000
# 4 0.000000 0.000000 0.000000 0.034968 0.000000 0.000000
# 5 0.000000 0.000000 0.000000 0.000000 0.033994 0.000000
# 6 0.000000 0.000000 0.000000 0.000000 0.000000 0.048529
#
#
# Mechanical properties :
#
#
# Convention : Reuss Voigt Hill
#
# Bulk Modulus (GPa) = 90.71791 91.72448 91.22119
# Shear Modulus (GPa) = 25.98840 28.22320 27.10580
#
# Velocity S-wave (km/s) = 3.99618 4.16445 4.08118
# Velocity P-wave (km/s) = 8.77708 8.91553 8.84657
#
# Compressibility (1/GPa) = 0.01102318
#
# Stress axis : x y z
#
# Youngs Moduli (GPa) = 64.82703 62.58349 102.86986
#
# Poissons Ratio (x) = 0.62427 0.21632
# Poissons Ratio (y) = 0.64665 0.30586
# Poissons Ratio (z) = 0.13632 0.18608
#
# Static dielectric constant tensor:
#      x y z
#    x 1.533110 0.000000 0.000000 
#    y 0.000000 1.531700 0.000000 
#    z 0.000000 0.000000 1.544580 
# 
# From -- ./inp_files/2901.got.cif
#   From: 2010.05.17/outbox.cif.g08.bks.cpg/sg49_2_cif.got.tgz:2901.got - 2010.06.03 21:02:19.
