data_PCOD9393111
_publ_section_title
;
Structure prediction by ZEFSAII (Michael W. Deem and Ramdas Pophale) SiO2 
 PCOD9393111
Probable space group: P C C M
;
_chemical_formula_sum "Si O2"
_cell_formula_units_Z 64
_cell_length_a 20.014774
_cell_length_b 9.342952
_cell_length_c 17.026785
_cell_angle_alpha 90.000000
_cell_angle_beta 90.000000
_cell_angle_gamma 90.000000
_cell_volume 3183.958954
_symmetry_space_group_name_H-M "P C C M"
_symmetry_group_IT_number 49
_symmetry_cell_setting 'orthorhombic'
loop_
_space_group_symop_operation_xyz
x,y,z
-x,-y,z
x,-y,1/2-z
-x,y,1/2-z
-x,-y,-z
x,y,-z
-x,y,1/2+z
x,-y,1/2+z
loop_
_atom_site_type_symbol
_atom_site_label
_atom_site_fract_x
_atom_site_fract_y
_atom_site_fract_z
Si Si1 0.706828 0.525061 0.657131
Si Si2 0.406308 0.712036 0.093936
Si Si3 0.074051 0.548912 0.090862
Si Si4 0.796381 0.000737 0.585804
Si Si5 0.172019 0.263015 0.683846
Si Si6 0.539402 0.846626 0.909979
Si Si7 0.343427 0.001545 0.160017
Si Si8 0.818219 0.311328 0.370048
O O1 0.696041 0.500000 0.750000
O O2 0.638048 0.576112 0.618066
O O3 0.762527 0.651967 0.651124
O O4 0.745796 0.388479 0.621294
O O5 0.485569 0.724912 0.111557
O O6 0.374865 0.848266 0.138455
O O7 0.400605 0.734098 0.000000
O O8 0.106187 0.667424 0.146785
O O9 0.125323 0.417413 0.099262
O O10 0.000000 0.500000 0.113544
O O11 0.072510 0.596472 0.000000
O O12 0.807521 0.934956 0.500000
O O13 0.822470 0.897842 0.653917
O O14 0.718102 0.021260 0.602431
O O15 0.825122 0.158855 0.590294
O O16 0.173420 0.287080 0.776633
O O17 0.601588 0.875102 0.853660
O O18 0.500000 0.000000 0.909490
O O19 0.561719 0.824194 0.000000
O O20 0.320842 0.000000 0.250000
#
# Coordination Sequence:
#
# PCOD9393111 Si02
#       8
#     8   8   8   8   8   8   8   8
#     4   9  19  34  57  82 116 152 196 247 300 351
#     4  10  19  33  56  82 111 153 201 245 291 360
#     4  10  21  39  63  91 123 161 204 244 286 347
#     4  12  23  36  58  89 123 156 194 246 308 359
#     4  10  20  37  60  87 118 160 199 243 291 356
#     4   8  16  31  49  76 110 142 185 238 289 340
#     4  11  21  32  54  83 120 152 191 245 301 355
#     4  10  22  38  58  88 123 156 194 252 300 346
#
# _framework density 20.100763000000001
#
# number of rings (size 3 to 8) (size 9 to 14) (size 15 to 20)
#    0.000    2.000    1.250    4.875    1.750    5.750 
#    0.000    0.625    0.000    4.500    0.000    2.625 
#    0.000    0.000    0.000    0.000    0.000    0.000 
#
# Total GULP energy -357312.062835 kJ/mol
# GULP energy per Si atom -5583.000982 kJ/mol
# Density = 2.005501 g / cm^3
# Si number density = 20.100763 Si / 1000 Ang^3
#
#
#
# Elastic Constant Matrix: (Units=GPa)
#
#
# Indices 1 2 3 4 5 6 
#
# 1 82.0924 22.5426 21.2266 0.0000 0.0000 0.0000
# 2 22.5426 65.0514 11.2654 0.0000 0.0000 0.0000
# 3 21.2266 11.2654 57.8664 0.0000 0.0000 0.0000
# 4 0.0000 0.0000 0.0000 26.0269 0.0000 0.0000
# 5 0.0000 0.0000 0.0000 0.0000 18.7096 0.0000
# 6 0.0000 0.0000 0.0000 0.0000 0.0000 18.0364
#
#
#
# Elastic Compliance Matrix: (Units=1/GPa)
#
#
# Indices 1 2 3 4 5 6 
#
# 1 0.014511 -0.004250 -0.004495 0.000000 0.000000 0.000000
# 2 -0.004250 0.017154 -0.001780 0.000000 0.000000 0.000000
# 3 -0.004495 -0.001780 0.019277 0.000000 0.000000 0.000000
# 4 0.000000 0.000000 0.000000 0.038422 0.000000 0.000000
# 5 0.000000 0.000000 0.000000 0.000000 0.053448 0.000000
# 6 0.000000 0.000000 0.000000 0.000000 0.000000 0.055443
#
#
# Mechanical properties :
#
#
# Convention : Reuss Voigt Hill
#
# Bulk Modulus (GPa) = 33.45673 35.00883 34.23278
# Shear Modulus (GPa) = 21.80836 22.55297 22.18066
#
# Velocity S-wave (km/s) = 3.29743 3.35325 3.32546
# Velocity P-wave (km/s) = 5.58373 5.69622 5.64026
#
# Compressibility (1/GPa) = 0.02988935
#
# Stress axis : x y z
#
# Youngs Moduli (GPa) = 68.91398 58.29687 51.87572
#
# Poissons Ratio (x) = 0.24776 0.23321
# Poissons Ratio (y) = 0.29288 0.09236
# Poissons Ratio (z) = 0.30980 0.10380
#
# Static dielectric constant tensor:
#      x y z
#    x 1.710400 0.000000 0.000000 
#    y 0.000000 1.740560 0.000000 
#    z 0.000000 0.000000 1.695480 
# 
# From -- ./inp_files/18304.got.cif
#   From: 2010.05.17/outbox.cif.g08.bks.cpg/sg49_10_cif.got.tgz:18304.got - 2010.06.03 21:02:19.
