data_PCOD9393865
_publ_section_title
;
Structure prediction by ZEFSAII (Michael W. Deem and Ramdas Pophale) SiO2 
 PCOD9393865
Probable space group: P C C M
;
_chemical_formula_sum "Si O2"
_cell_formula_units_Z 64
_cell_length_a 12.388040
_cell_length_b 17.207040
_cell_length_c 13.877694
_cell_angle_alpha 90.000000
_cell_angle_beta 90.000000
_cell_angle_gamma 90.000000
_cell_volume 2958.190067
_symmetry_space_group_name_H-M "P C C M"
_symmetry_group_IT_number 49
_symmetry_cell_setting 'orthorhombic'
loop_
_space_group_symop_operation_xyz
x,y,z
-x,-y,z
x,-y,1/2-z
-x,y,1/2-z
-x,-y,-z
x,y,-z
-x,y,1/2+z
x,-y,1/2+z
loop_
_atom_site_type_symbol
_atom_site_label
_atom_site_fract_x
_atom_site_fract_y
_atom_site_fract_z
Si Si1 0.615361 0.380709 0.780980
Si Si2 0.904576 0.142527 0.114093
Si Si3 0.249935 0.015130 0.386950
Si Si4 0.372205 0.891303 0.746905
Si Si5 0.307671 0.489283 0.112158
Si Si6 0.756639 0.749312 0.255640
Si Si7 0.920090 0.430123 0.884279
Si Si8 0.942577 0.721737 0.885899
O O1 0.500000 0.349283 0.750000
O O2 0.602797 0.446210 0.861889
O O3 0.667493 0.420153 0.685591
O O4 0.697481 0.316080 0.816152
O O5 0.868682 0.053269 0.135849
O O6 0.828840 0.196348 0.178035
O O7 0.017374 0.188365 0.129145
O O8 0.882852 0.150858 0.000000
O O9 0.253530 0.997798 0.500000
O O10 0.330464 0.084072 0.353352
O O11 0.298534 0.944336 0.324878
O O12 0.500000 0.904938 0.750000
O O13 0.338971 0.804763 0.718458
O O14 0.197387 0.535454 0.140504
O O15 0.302892 0.468031 0.000000
O O16 0.833295 0.714409 0.173736
O O17 0.000000 0.500000 0.856453
O O18 0.969980 0.345463 0.855702
O O19 0.918602 0.425391 0.000000
O O20 0.925177 0.711395 0.000000
#
# Coordination Sequence:
#
# PCOD9393865 Si02
#       8
#     8   8   8   8   8   8   8   8
#     4  11  24  39  56  81 111 147 194 243 289 342
#     4   9  19  36  58  84 113 147 189 236 285 341
#     4   9  18  35  59  84 111 145 187 235 287 343
#     4  10  21  36  56  84 115 149 192 241 287 335
#     4  10  21  39  60  80 107 146 191 240 293 344
#     4  11  22  37  57  82 116 155 190 230 287 350
#     4   9  17  31  54  82 110 143 186 235 285 342
#     4  10  20  35  56  85 121 156 191 237 294 354
#
# _framework density 21.634851000000001
#
# number of rings (size 3 to 8) (size 9 to 14) (size 15 to 20)
#    0.000    2.125    0.000    3.750    0.000    5.500 
#    0.000    4.375    0.000    9.750    0.000    0.000 
#    0.000    0.000    0.000    0.000    0.000    0.000 
#
# Total GULP energy -356392.458621 kJ/mol
# GULP energy per Si atom -5568.632166 kJ/mol
# Density = 2.158561 g / cm^3
# Si number density = 21.634851 Si / 1000 Ang^3
#
#
#
# Elastic Constant Matrix: (Units=GPa)
#
#
# Indices 1 2 3 4 5 6 
#
# 1 73.0370 27.6977 10.4743 0.0000 0.0000 0.0000
# 2 27.6977 69.7674 18.0120 0.0000 0.0000 0.0000
# 3 10.4743 18.0120 71.3285 0.0000 0.0000 0.0000
# 4 0.0000 0.0000 0.0000 14.1634 0.0000 0.0000
# 5 0.0000 0.0000 0.0000 0.0000 14.3803 0.0000
# 6 0.0000 0.0000 0.0000 0.0000 0.0000 22.6833
#
#
#
# Elastic Compliance Matrix: (Units=1/GPa)
#
#
# Indices 1 2 3 4 5 6 
#
# 1 0.016162 -0.006208 -0.000806 0.000000 0.000000 0.000000
# 2 -0.006208 0.017718 -0.003562 0.000000 0.000000 0.000000
# 3 -0.000806 -0.003562 0.015038 0.000000 0.000000 0.000000
# 4 0.000000 0.000000 0.000000 0.070604 0.000000 0.000000
# 5 0.000000 0.000000 0.000000 0.000000 0.069540 0.000000
# 6 0.000000 0.000000 0.000000 0.000000 0.000000 0.044085
#
#
# Mechanical properties :
#
#
# Convention : Reuss Voigt Hill
#
# Bulk Modulus (GPa) = 36.01734 36.27788 36.14761
# Shear Modulus (GPa) = 18.97150 20.77532 19.87341
#
# Velocity S-wave (km/s) = 2.96445 3.10219 3.03410
# Velocity P-wave (km/s) = 5.32929 5.44390 5.38690
#
# Compressibility (1/GPa) = 0.02776441
#
# Stress axis : x y z
#
# Youngs Moduli (GPa) = 61.87530 56.44068 66.50025
#
# Poissons Ratio (x) = 0.35039 0.05357
# Poissons Ratio (y) = 0.38413 0.23690
# Poissons Ratio (z) = 0.04984 0.20107
#
# Static dielectric constant tensor:
#      x y z
#    x 1.855190 0.000000 0.000000 
#    y 0.000000 1.880000 0.000000 
#    z 0.000000 0.000000 1.755690 
# 
# From -- ./inp_files/13085.got.cif
#   From: 2010.05.17/outbox.cif.g08.bks.cpg/sg49_7_cif.got.tgz:13085.got - 2010.06.03 21:02:19.
