data_PCOD9393694
_publ_section_title
;
Structure prediction by ZEFSAII (Michael W. Deem and Ramdas Pophale) SiO2 
 PCOD9393694
Probable space group: P C C M
;
_chemical_formula_sum "Si O2"
_cell_formula_units_Z 64
_cell_length_a 18.153695
_cell_length_b 12.023929
_cell_length_c 14.852563
_cell_angle_alpha 90.000000
_cell_angle_beta 90.000000
_cell_angle_gamma 90.000000
_cell_volume 3241.998734
_symmetry_space_group_name_H-M "P C C M"
_symmetry_group_IT_number 49
_symmetry_cell_setting 'orthorhombic'
loop_
_space_group_symop_operation_xyz
x,y,z
-x,-y,z
x,-y,1/2-z
-x,y,1/2-z
-x,-y,-z
x,y,-z
-x,y,1/2+z
x,-y,1/2+z
loop_
_atom_site_type_symbol
_atom_site_label
_atom_site_fract_x
_atom_site_fract_y
_atom_site_fract_z
Si Si1 0.013768 0.627502 0.143038
Si Si2 0.361726 0.304372 0.899904
Si Si3 0.914304 0.007599 0.641817
Si Si4 0.674290 0.432182 0.896760
Si Si5 0.155408 0.223225 0.400481
Si Si6 0.514502 0.374328 0.856897
Si Si7 0.865742 0.746076 0.901245
Si Si8 0.750382 0.298818 0.747176
O O1 0.948584 0.700756 0.102483
O O2 0.000000 0.500000 0.114048
O O3 0.000000 0.631633 0.250000
O O4 0.092573 0.683565 0.121567
O O5 0.344382 0.436874 0.889876
O O6 0.450191 0.296217 0.893857
O O7 0.316971 0.256675 0.815090
O O8 0.338746 0.268028 0.000000
O O9 0.880034 0.897550 0.601204
O O10 0.911003 0.000000 0.750000
O O11 0.874437 0.121913 0.614649
O O12 0.000000 0.000000 0.616160
O O13 0.599839 0.359575 0.880491
O O14 0.726581 0.399032 0.813785
O O15 0.699180 0.415793 0.000000
O O16 0.184253 0.246419 0.500000
O O17 0.216123 0.218773 0.322616
O O18 0.500000 0.500000 0.891100
O O19 0.500000 0.375619 0.750000
O O20 0.816143 0.686794 0.825310
O O21 0.834483 0.723393 0.000000
#
# Coordination Sequence:
#
# PCOD9393694 Si02
#       8
#     8   8   8   8   8   8   8   8
#     4  11  23  42  61  81 115 155 194 238 287 348
#     4  10  20  34  54  79 111 158 209 249 288 340
#     4  11  21  41  71  92 111 137 188 258 317 351
#     4  10  20  34  54  79 111 158 209 249 288 340
#     4  12  25  41  63  89 113 148 196 248 300 356
#     4   9  15  29  53  78 107 147 202 260 295 323
#     4  12  25  41  63  89 113 148 196 248 300 356
#     4  12  23  37  51  76 118 155 182 234 294 359
#
# _framework density 19.740908999999998
#
# number of rings (size 3 to 8) (size 9 to 14) (size 15 to 20)
#    0.000    1.125    5.000    2.250    0.000    5.000 
#    0.000    0.000    0.000    0.000    0.000    0.000 
#    0.000    8.000    0.000   20.000    0.000    0.000 
#
# Total GULP energy -356990.984719 kJ/mol
# GULP energy per Si atom -5577.984136 kJ/mol
# Density = 1.969598 g / cm^3
# Si number density = 19.740909 Si / 1000 Ang^3
#
#
#
# Elastic Constant Matrix: (Units=GPa)
#
#
# Indices 1 2 3 4 5 6 
#
# 1 76.2898 22.4333 37.5119 0.0000 0.0000 0.0000
# 2 22.4333 69.3598 18.7263 0.0000 0.0000 0.0000
# 3 37.5119 18.7263 163.5246 0.0000 0.0000 0.0000
# 4 0.0000 0.0000 0.0000 10.0156 0.0000 0.0000
# 5 0.0000 0.0000 0.0000 0.0000 -19.1025 0.0000
# 6 0.0000 0.0000 0.0000 0.0000 0.0000 15.8069
#
#
#
# Elastic Compliance Matrix: (Units=1/GPa)
#
#
# Indices 1 2 3 4 5 6 
#
# 1 0.015926 -0.004298 -0.003161 0.000000 0.000000 0.000000
# 2 -0.004298 0.016037 -0.000851 0.000000 0.000000 0.000000
# 3 -0.003161 -0.000851 0.006938 0.000000 0.000000 0.000000
# 4 0.000000 0.000000 0.000000 0.099844 0.000000 0.000000
# 5 0.000000 0.000000 0.000000 0.000000 -0.052349 0.000000
# 6 0.000000 0.000000 0.000000 0.000000 0.000000 0.063263
#
#
# Mechanical properties :
#
#
# Convention : Reuss Voigt Hill
#
# Bulk Modulus (GPa) = 44.87883 51.83524 48.35703
# Shear Modulus (GPa) = 28.78432 16.71085 22.74759
#
# Velocity S-wave (km/s) = 3.82266 2.91264 3.39825
# Velocity P-wave (km/s) = 6.50130 6.13401 6.32032
#
# Compressibility (1/GPa) = 0.02228222
#
# Stress axis : x y z
#
# Youngs Moduli (GPa) = 62.79044 62.35493 144.13628
#
# Poissons Ratio (x) = 0.26797 0.45565
# Poissons Ratio (y) = 0.26984 0.12262
# Poissons Ratio (z) = 0.19849 0.05304
#
# Static dielectric constant tensor:
#      x y z
#    x 1.761160 0.000000 0.000000 
#    y 0.000000 1.692340 0.000000 
#    z 0.000000 0.000000 1.748330 
# 
# From -- ./inp_files/14225.got.cif
#   From: 2010.05.17/outbox.cif.g08.bks.cpg/sg49_8_cif.got.tgz:14225.got - 2010.06.03 21:02:19.
