data_PCOD9393767
_publ_section_title
;
Structure prediction by ZEFSAII (Michael W. Deem and Ramdas Pophale) SiO2 
 PCOD9393767
Probable space group: P C C M
;
_chemical_formula_sum "Si O2"
_cell_formula_units_Z 52
_cell_length_a 17.940256
_cell_length_b 5.483137
_cell_length_c 30.875397
_cell_angle_alpha 90.000000
_cell_angle_beta 90.000000
_cell_angle_gamma 90.000000
_cell_volume 3037.178268
_symmetry_space_group_name_H-M "P C C M"
_symmetry_group_IT_number 49
_symmetry_cell_setting 'orthorhombic'
loop_
_space_group_symop_operation_xyz
x,y,z
-x,-y,z
x,-y,1/2-z
-x,y,1/2-z
-x,-y,-z
x,y,-z
-x,y,1/2+z
x,-y,1/2+z
loop_
_atom_site_type_symbol
_atom_site_label
_atom_site_fract_x
_atom_site_fract_y
_atom_site_fract_z
Si Si1 0.155528 0.000000 0.750000
Si Si2 0.923028 0.629633 0.305742
Si Si3 0.190373 0.760059 0.663102
Si Si4 0.787736 0.248169 0.948556
Si Si5 0.455043 0.750469 0.448133
Si Si6 0.289039 0.746853 0.585230
Si Si7 0.079192 0.926022 0.892494
O O1 0.101484 0.784958 0.764736
O O2 0.197874 0.929455 0.705748
O O3 0.849691 0.478234 0.318877
O O4 0.940276 0.783662 0.348767
O O5 0.000000 0.500000 0.297549
O O6 0.265137 0.734689 0.635663
O O7 0.131037 0.860396 0.627433
O O8 0.747871 0.502841 0.935663
O O9 0.867060 0.224934 0.924101
O O10 0.742204 0.004243 0.933961
O O11 0.796648 0.241219 0.000000
O O12 0.500000 0.500000 0.439319
O O13 0.440147 0.755577 0.500000
O O14 0.376576 0.743284 0.423740
O O15 0.500000 0.000000 0.437941
O O16 0.000000 0.000000 0.912701
#
# Coordination Sequence:
#
# PCOD9393767 Si02
#       7
#     4   8   8   8   8   8   8
#     4  10  24  35  50  84 107 138 194 240 291 350
#     4  11  20  36  53  74 108 146 187 243 298 350
#     4  10  21  36  54  75 110 146 186 233 288 343
#     4  11  22  36  57  82 110 153 201 238 278 332
#     4  10  20  35  58  90 122 148 178 223 276 335
#     4  11  22  39  60  84 119 154 186 228 284 346
#     4  10  20  35  51  72 106 147 194 243 293 331
#
# _framework density 17.121155999999999
#
# number of rings (size 3 to 8) (size 9 to 14) (size 15 to 20)
#    0.000    1.538    3.077    2.769    0.000    3.385 
#    0.000    0.000    0.000    3.231    0.000    0.538 
#    0.000    0.000    0.000    0.000    0.000    0.000 
#
# Total GULP energy -289951.435129 kJ/mol
# GULP energy per Si atom -5575.989137 kJ/mol
# Density = 1.708219 g / cm^3
# Si number density = 17.121156 Si / 1000 Ang^3
#
#
#
# Elastic Constant Matrix: (Units=GPa)
#
#
# Indices 1 2 3 4 5 6 
#
# 1 142.4990 51.7395 60.9777 0.0000 0.0000 0.0000
# 2 51.7395 102.6702 37.7083 0.0000 0.0000 0.0000
# 3 60.9777 37.7083 97.0969 0.0000 0.0000 0.0000
# 4 0.0000 0.0000 0.0000 25.1329 0.0000 0.0000
# 5 0.0000 0.0000 0.0000 0.0000 9.8072 0.0000
# 6 0.0000 0.0000 0.0000 0.0000 0.0000 22.0250
#
#
#
# Elastic Compliance Matrix: (Units=1/GPa)
#
#
# Indices 1 2 3 4 5 6 
#
# 1 0.010497 -0.003346 -0.005293 0.000000 0.000000 0.000000
# 2 -0.003346 0.012427 -0.002725 0.000000 0.000000 0.000000
# 3 -0.005293 -0.002725 0.014681 0.000000 0.000000 0.000000
# 4 0.000000 0.000000 0.000000 0.039788 0.000000 0.000000
# 5 0.000000 0.000000 0.000000 0.000000 0.101966 0.000000
# 6 0.000000 0.000000 0.000000 0.000000 0.000000 0.045403
#
#
# Mechanical properties :
#
#
# Convention : Reuss Voigt Hill
#
# Bulk Modulus (GPa) = 67.21362 71.45745 69.33554
# Shear Modulus (GPa) = 19.80590 24.18241 21.99415
#
# Velocity S-wave (km/s) = 3.40488 3.76231 3.58805
# Velocity P-wave (km/s) = 7.40273 7.79103 7.59936
#
# Compressibility (1/GPa) = 0.01487794
#
# Stress axis : x y z
#
# Youngs Moduli (GPa) = 95.26090 80.47086 68.11421
#
# Poissons Ratio (x) = 0.26926 0.36053
# Poissons Ratio (y) = 0.31875 0.18559
# Poissons Ratio (z) = 0.50422 0.21926
#
# Static dielectric constant tensor:
#      x y z
#    x 1.571140 0.000000 0.000000 
#    y 0.000000 1.670940 0.000000 
#    z 0.000000 0.000000 1.580430 
# 
# From -- ./inp_files/25145.got.cif
#   From: 2010.05.17/outbox.cif.g08.bks.cpg/sg49_13_cif.got.tgz:25145.got - 2010.06.03 21:02:19.
