data_PCOD9393221
_publ_section_title
;
Structure prediction by ZEFSAII (Michael W. Deem and Ramdas Pophale) SiO2 
 PCOD9393221
Probable space group: P C C M
;
_chemical_formula_sum "Si O2"
_cell_formula_units_Z 34
_cell_length_a 7.320058
_cell_length_b 10.397025
_cell_length_c 21.645060
_cell_angle_alpha 90.000000
_cell_angle_beta 90.000000
_cell_angle_gamma 90.000000
_cell_volume 1647.336816
_symmetry_space_group_name_H-M "P C C M"
_symmetry_group_IT_number 49
_symmetry_cell_setting 'orthorhombic'
loop_
_space_group_symop_operation_xyz
x,y,z
-x,-y,z
x,-y,1/2-z
-x,y,1/2-z
-x,-y,-z
x,y,-z
-x,y,1/2+z
x,-y,1/2+z
loop_
_atom_site_type_symbol
_atom_site_label
_atom_site_fract_x
_atom_site_fract_y
_atom_site_fract_z
Si Si1 0.305353 0.179988 0.070898
Si Si2 0.788534 0.459233 0.571559
Si Si3 0.500000 0.000000 0.750000
Si Si4 0.190529 0.053732 0.658026
Si Si5 0.281919 0.264638 0.429046
O O1 0.238674 0.317445 0.097891
O O2 0.253582 0.059412 0.111880
O O3 0.523869 0.194534 0.068770
O O4 0.239118 0.162673 0.000000
O O5 0.729144 0.443224 0.500000
O O6 0.689850 0.588919 0.593655
O O7 0.000000 0.500000 0.573572
O O8 0.356127 0.075452 0.706294
O O9 0.160793 0.181055 0.616988
O O10 0.000000 0.000000 0.684020
O O11 0.210218 0.270528 0.500000
#
# Coordination Sequence:
#
# PCOD9393221 Si02
#       5
#     8   8   2   8   8
#     4  10  19  34  57  89 124 155 185 228 287 349
#     4   9  17  29  49  83 124 157 186 220 273 350
#     4  12  26  48  58  80 112 148 202 256 288 342
#     4  12  24  40  64  85 111 152 196 244 291 339
#     4  10  19  34  57  89 124 155 185 228 287 349
#
# _framework density 20.639372999999999
#
# number of rings (size 3 to 8) (size 9 to 14) (size 15 to 20)
#    0.000    1.647    2.353    3.176    0.000    8.471 
#    0.000    0.000    0.000    2.824    0.000    4.941 
#    0.000    0.000    0.000    0.000    0.000    0.000 
#
# Total GULP energy -189702.522198 kJ/mol
# GULP energy per Si atom -5579.485947 kJ/mol
# Density = 2.059240 g / cm^3
# Si number density = 20.639373 Si / 1000 Ang^3
#
#
#
# Elastic Constant Matrix: (Units=GPa)
#
#
# Indices 1 2 3 4 5 6 
#
# 1 80.0155 9.7093 20.4006 0.0000 0.0000 0.0000
# 2 9.7093 132.7236 40.7855 0.0000 0.0000 0.0000
# 3 20.4006 40.7855 66.7045 0.0000 0.0000 0.0000
# 4 0.0000 0.0000 0.0000 7.7335 0.0000 0.0000
# 5 0.0000 0.0000 0.0000 0.0000 38.2371 0.0000
# 6 0.0000 0.0000 0.0000 0.0000 0.0000 38.2941
#
#
#
# Elastic Compliance Matrix: (Units=1/GPa)
#
#
# Indices 1 2 3 4 5 6 
#
# 1 0.013568 0.000348 -0.004362 0.000000 0.000000 0.000000
# 2 0.000348 0.009287 -0.005785 0.000000 0.000000 0.000000
# 3 -0.004362 -0.005785 0.019863 0.000000 0.000000 0.000000
# 4 0.000000 0.000000 0.000000 0.129308 0.000000 0.000000
# 5 0.000000 0.000000 0.000000 0.000000 0.026153 0.000000
# 6 0.000000 0.000000 0.000000 0.000000 0.000000 0.026114
#
#
# Mechanical properties :
#
#
# Convention : Reuss Voigt Hill
#
# Bulk Modulus (GPa) = 43.25441 46.80381 45.02911
# Shear Modulus (GPa) = 19.87319 30.75614 25.31467
#
# Velocity S-wave (km/s) = 3.10639 3.86446 3.50597
# Velocity P-wave (km/s) = 5.81971 6.52980 6.18495
#
# Compressibility (1/GPa) = 0.02311903
#
# Stress axis : x y z
#
# Youngs Moduli (GPa) = 73.70532 107.68222 50.34607
#
# Poissons Ratio (x) = -0.03747 0.21962
# Poissons Ratio (y) = -0.02565 0.29123
# Poissons Ratio (z) = 0.32152 0.62290
#
# Static dielectric constant tensor:
#      x y z
#    x 1.850720 0.000000 0.000000 
#    y 0.000000 1.765020 0.000000 
#    z 0.000000 0.000000 1.747670 
# 
# From -- ./inp_files/19446.got.cif
#   From: 2010.05.17/outbox.cif.g08.bks.cpg/sg49_10_cif.got.tgz:19446.got - 2010.06.03 21:02:19.
