data_PCOD9393682
_publ_section_title
;
Structure prediction by ZEFSAII (Michael W. Deem and Ramdas Pophale) SiO2 
 PCOD9393682
Probable space group: P C C M
;
_chemical_formula_sum "Si O2"
_cell_formula_units_Z 64
_cell_length_a 25.017631
_cell_length_b 15.679173
_cell_length_c 8.687698
_cell_angle_alpha 90.000000
_cell_angle_beta 90.000000
_cell_angle_gamma 90.000000
_cell_volume 3407.799621
_symmetry_space_group_name_H-M "P C C M"
_symmetry_group_IT_number 49
_symmetry_cell_setting 'orthorhombic'
loop_
_space_group_symop_operation_xyz
x,y,z
-x,-y,z
x,-y,1/2-z
-x,y,1/2-z
-x,-y,-z
x,y,-z
-x,y,1/2+z
x,-y,1/2+z
loop_
_atom_site_type_symbol
_atom_site_label
_atom_site_fract_x
_atom_site_fract_y
_atom_site_fract_z
Si Si1 0.289754 0.630056 0.682117
Si Si2 0.443156 0.766471 0.684138
Si Si3 0.142108 0.223027 0.316735
Si Si4 0.174102 0.412461 0.684869
Si Si5 0.596604 0.588323 0.317625
Si Si6 0.643133 0.089392 0.684562
Si Si7 0.265183 0.810581 0.182869
Si Si8 0.940815 0.091183 0.317298
O O1 0.294647 0.615271 0.500000
O O2 0.233765 0.594982 0.745719
O O3 0.341077 0.594006 0.768945
O O4 0.287062 0.730473 0.720362
O O5 0.500000 0.794683 0.750000
O O6 0.445119 0.761581 0.500000
O O7 0.429988 0.672976 0.749064
O O8 0.397225 0.834074 0.726644
O O9 0.132088 0.218454 0.500000
O O10 0.144872 0.323524 0.273732
O O11 0.201749 0.186097 0.289069
O O12 0.098658 0.166820 0.230738
O O13 0.149886 0.500000 0.750000
O O14 0.177751 0.415912 0.500000
O O15 0.574591 0.500000 0.250000
O O16 0.591616 0.588462 0.500000
O O17 0.648092 0.086458 0.500000
O O18 0.700113 0.110001 0.762459
O O19 0.622876 0.000000 0.750000
O O20 0.272554 0.794591 0.000000
O O21 0.944241 0.084228 0.500000
O O22 0.000000 0.106293 0.250000
O O23 0.921991 0.000000 0.250000
#
# Coordination Sequence:
#
# PCOD9393682 Si02
#       8
#     8   8   8   8   8   8   8   8
#     4  11  20  33  54  82 117 154 195 238 286 346
#     4  11  25  45  66  89 115 149 191 242 295 351
#     4   9  20  37  57  86 122 159 200 245 292 350
#     4  10  20  34  53  81 119 161 202 246 293 344
#     4  12  24  39  61  87 117 152 191 238 290 349
#     4  11  24  41  64  90 120 153 194 240 292 353
#     4  10  20  36  59  86 120 158 195 237 293 348
#     4  11  22  38  62  88 118 156 199 249 301 353
#
# _framework density 18.780446000000001
#
# number of rings (size 3 to 8) (size 9 to 14) (size 15 to 20)
#    0.000    1.375    1.250    6.375    0.000    5.500 
#    0.000    2.500    0.000    0.375    0.000    2.625 
#    0.000    0.000    0.000    0.000    0.000    0.000 
#
# Total GULP energy -357722.129982 kJ/mol
# GULP energy per Si atom -5589.408281 kJ/mol
# Density = 1.873770 g / cm^3
# Si number density = 18.780446 Si / 1000 Ang^3
#
#
#
# Elastic Constant Matrix: (Units=GPa)
#
#
# Indices 1 2 3 4 5 6 
#
# 1 65.3276 53.5020 37.9673 0.0000 0.0000 0.0000
# 2 53.5020 126.8011 53.4820 0.0000 0.0000 0.0000
# 3 37.9673 53.4820 98.0396 0.0000 0.0000 0.0000
# 4 0.0000 0.0000 0.0000 30.7592 0.0000 0.0000
# 5 0.0000 0.0000 0.0000 0.0000 26.9795 0.0000
# 6 0.0000 0.0000 0.0000 0.0000 0.0000 -6.1382
#
#
#
# Elastic Compliance Matrix: (Units=1/GPa)
#
#
# Indices 1 2 3 4 5 6 
#
# 1 0.025246 -0.008479 -0.005151 0.000000 0.000000 0.000000
# 2 -0.008479 0.013091 -0.003858 0.000000 0.000000 0.000000
# 3 -0.005151 -0.003858 0.014299 0.000000 0.000000 0.000000
# 4 0.000000 0.000000 0.000000 0.032511 0.000000 0.000000
# 5 0.000000 0.000000 0.000000 0.000000 0.037065 0.000000
# 6 0.000000 0.000000 0.000000 0.000000 0.000000 -0.162915
#
#
# Mechanical properties :
#
#
# Convention : Reuss Voigt Hill
#
# Bulk Modulus (GPa) = 56.62611 64.45232 60.53921
# Shear Modulus (GPa) = 31301.60990 20.00125 15660.80557
#
# Velocity S-wave (km/s) = 129.24129 3.26698 91.41658
# Velocity P-wave (km/s) = 149.33619 6.97311 105.71169
#
# Compressibility (1/GPa) = 0.01765970
#
# Stress axis : x y z
#
# Youngs Moduli (GPa) = 39.61070 76.38701 69.93390
#
# Poissons Ratio (x) = 0.64772 0.36024
# Poissons Ratio (y) = 0.33588 0.26978
# Poissons Ratio (z) = 0.20404 0.29467
#
# Static dielectric constant tensor:
#      x y z
#    x 1.646920 0.000000 0.000000 
#    y 0.000000 1.692350 0.000000 
#    z 0.000000 0.000000 1.623120 
# 
# From -- ./inp_files/6484.got.cif
#   From: 2010.05.17/outbox.cif.g08.bks.cpg/sg49_4_cif.got.tgz:6484.got - 2010.06.03 21:02:19.
