data_PCOD9393350
_publ_section_title
;
Structure prediction by ZEFSAII (Michael W. Deem and Ramdas Pophale) SiO2 
 PCOD9393350
Probable space group: P C C M
;
_chemical_formula_sum "Si O2"
_cell_formula_units_Z 58
_cell_length_a 19.671475
_cell_length_b 19.898265
_cell_length_c 8.307362
_cell_angle_alpha 90.000000
_cell_angle_beta 90.000000
_cell_angle_gamma 90.000000
_cell_volume 3251.735941
_symmetry_space_group_name_H-M "P C C M"
_symmetry_group_IT_number 49
_symmetry_cell_setting 'orthorhombic'
loop_
_space_group_symop_operation_xyz
x,y,z
-x,-y,z
x,-y,1/2-z
-x,y,1/2-z
-x,-y,-z
x,y,-z
-x,y,1/2+z
x,-y,1/2+z
loop_
_atom_site_type_symbol
_atom_site_label
_atom_site_fract_x
_atom_site_fract_y
_atom_site_fract_z
Si Si1 0.573632 0.249201 0.810525
Si Si2 0.191617 0.576217 0.193169
Si Si3 0.393013 0.898637 0.307671
Si Si4 0.235955 0.073343 0.193075
Si Si5 0.923384 0.319879 0.191688
Si Si6 0.295147 0.317163 0.192247
Si Si7 0.500000 0.000000 0.250000
Si Si8 0.177840 0.788094 0.694265
O O1 0.500000 0.271868 0.750000
O O2 0.591733 0.179395 0.720919
O O3 0.632920 0.301836 0.771735
O O4 0.571159 0.235645 0.000000
O O5 0.187002 0.500000 0.250000
O O6 0.126975 0.620725 0.250726
O O7 0.258325 0.614152 0.258275
O O8 0.192993 0.578255 0.000000
O O9 0.404228 0.914205 0.500000
O O10 0.315108 0.914071 0.264394
O O11 0.443385 0.944115 0.200251
O O12 0.191532 0.136328 0.252379
O O13 0.214590 0.000000 0.250000
O O14 0.233574 0.074522 0.000000
O O15 0.888710 0.250139 0.245433
O O16 0.000000 0.327208 0.250000
O O17 0.923201 0.322178 0.000000
O O18 0.242419 0.258004 0.242329
O O19 0.302507 0.314083 0.000000
O O20 0.176006 0.788374 0.500000
#
# Coordination Sequence:
#
# PCOD9393350 Si02
#       8
#     8   8   8   8   8   8   2   8
#     4  12  24  36  53  76 104 140 185 236 286 337
#     4  10  21  37  58  89 122 155 190 222 263 318
#     4  11  22  35  48  70 101 138 183 228 282 339
#     4  10  20  34  50  73 103 138 181 230 281 334
#     4  10  21  36  57  86 118 150 186 223 265 322
#     4  10  19  36  59  81 109 145 186 234 281 329
#     4  12  22  32  52  70 106 148 186 228 286 356
#     4   9  18  34  55  77 106 144 184 228 277 329
#
# _framework density 17.836627
#
# number of rings (size 3 to 8) (size 9 to 14) (size 15 to 20)
#    0.000    1.655    2.759    2.690    0.000    4.138 
#    0.000    1.379    0.000    0.828    0.000    5.793 
#    0.000    0.000    0.000    0.000    0.000    0.000 
#
# Total GULP energy -323547.772712 kJ/mol
# GULP energy per Si atom -5578.409874 kJ/mol
# Density = 1.779603 g / cm^3
# Si number density = 17.836627 Si / 1000 Ang^3
#
#
#
# Elastic Constant Matrix: (Units=GPa)
#
#
# Indices 1 2 3 4 5 6 
#
# 1 107.1044 71.3887 16.4785 0.0000 0.0000 0.0000
# 2 71.3887 133.6149 17.2058 0.0000 0.0000 0.0000
# 3 16.4785 17.2058 39.4869 0.0000 0.0000 0.0000
# 4 0.0000 0.0000 0.0000 20.9946 0.0000 0.0000
# 5 0.0000 0.0000 0.0000 0.0000 13.3629 0.0000
# 6 0.0000 0.0000 0.0000 0.0000 0.0000 14.6871
#
#
#
# Elastic Compliance Matrix: (Units=1/GPa)
#
#
# Indices 1 2 3 4 5 6 
#
# 1 0.014806 -0.007538 -0.002894 0.000000 0.000000 0.000000
# 2 -0.007538 0.011767 -0.001981 0.000000 0.000000 0.000000
# 3 -0.002894 -0.001981 0.027396 0.000000 0.000000 0.000000
# 4 0.000000 0.000000 0.000000 0.047631 0.000000 0.000000
# 5 0.000000 0.000000 0.000000 0.000000 0.074834 0.000000
# 6 0.000000 0.000000 0.000000 0.000000 0.000000 0.068087
#
#
# Mechanical properties :
#
#
# Convention : Reuss Voigt Hill
#
# Bulk Modulus (GPa) = 34.31528 54.48358 44.39943
# Shear Modulus (GPa) = 17.91707 21.48447 19.70077
#
# Velocity S-wave (km/s) = 3.17284 3.47438 3.32703
# Velocity P-wave (km/s) = 5.71865 6.83427 6.30120
#
# Compressibility (1/GPa) = 0.02914154
#
# Stress axis : x y z
#
# Youngs Moduli (GPa) = 67.53822 84.98419 36.50161
#
# Poissons Ratio (x) = 0.64063 0.10565
# Poissons Ratio (y) = 0.50911 0.07233
# Poissons Ratio (z) = 0.19548 0.16839
#
# Static dielectric constant tensor:
#      x y z
#    x 1.595990 0.000000 0.000000 
#    y 0.000000 1.602460 0.000000 
#    z 0.000000 0.000000 1.642370 
# 
# From -- ./inp_files/5117.got.cif
#   From: 2010.05.17/outbox.cif.g08.bks.cpg/sg49_3_cif.got.tgz:5117.got - 2010.06.03 21:02:19.
