data_PCOD9393398
_publ_section_title
;
Structure prediction by ZEFSAII (Michael W. Deem and Ramdas Pophale) SiO2 
 PCOD9393398
Probable space group: P C C M
;
_chemical_formula_sum "Si O2"
_cell_formula_units_Z 64
_cell_length_a 11.120689
_cell_length_b 19.324251
_cell_length_c 15.214524
_cell_angle_alpha 90.000000
_cell_angle_beta 90.000000
_cell_angle_gamma 90.000000
_cell_volume 3269.585773
_symmetry_space_group_name_H-M "P C C M"
_symmetry_group_IT_number 49
_symmetry_cell_setting 'orthorhombic'
loop_
_space_group_symop_operation_xyz
x,y,z
-x,-y,z
x,-y,1/2-z
-x,y,1/2-z
-x,-y,-z
x,y,-z
-x,y,1/2+z
x,-y,1/2+z
loop_
_atom_site_type_symbol
_atom_site_label
_atom_site_fract_x
_atom_site_fract_y
_atom_site_fract_z
Si Si1 0.450211 0.319097 0.596373
Si Si2 0.982434 0.126531 0.390358
Si Si3 0.367159 0.199525 0.289777
Si Si4 0.720356 0.690781 0.849028
Si Si5 0.986727 0.717137 0.902443
Si Si6 0.062531 0.433892 0.654861
Si Si7 0.321907 0.572275 0.217556
Si Si8 0.187745 0.079062 0.264134
O O1 0.411712 0.340349 0.500000
O O2 0.388382 0.247058 0.624677
O O3 0.593931 0.309412 0.600429
O O4 0.411915 0.377793 0.665539
O O5 0.972823 0.120306 0.500000
O O6 0.009281 0.206900 0.363544
O O7 0.867261 0.105243 0.330186
O O8 0.088157 0.083239 0.342521
O O9 0.500000 0.188740 0.250000
O O10 0.294416 0.249931 0.224236
O O11 0.294592 0.129142 0.294730
O O12 0.843050 0.704977 0.899127
O O13 0.726782 0.617818 0.798779
O O14 0.044199 0.645704 0.871740
O O15 0.032047 0.725643 0.000000
O O16 0.204553 0.445637 0.660220
O O17 0.000000 0.500000 0.607681
O O18 0.000000 0.433883 0.750000
O O19 0.372252 0.500000 0.250000
O O20 0.224140 0.000000 0.250000
#
# Coordination Sequence:
#
# PCOD9393398 Si02
#       8
#     8   8   8   8   8   8   8   8
#     4  10  23  39  60  88 118 152 198 257 306 350
#     4  10  23  39  60  93 127 163 204 247 299 365
#     4   9  20  39  62  86 116 157 200 243 297 362
#     4  10  19  38  60  81 114 154 197 244 289 354
#     4  11  22  34  59  89 114 154 199 244 294 348
#     4  11  21  37  56  80 114 155 193 241 298 352
#     4  11  21  37  60  82 113 158 204 240 302 362
#     4  11  23  39  64  93 124 163 200 247 309 366
#
# _framework density 19.574345999999998
#
# number of rings (size 3 to 8) (size 9 to 14) (size 15 to 20)
#    0.000    1.625    3.750    2.250    5.250    3.500 
#    0.000    3.125    0.000    0.000    0.000    3.500 
#    0.000    0.000    0.000    0.000    0.000    0.000 
#
# Total GULP energy -356627.608803 kJ/mol
# GULP energy per Si atom -5572.306388 kJ/mol
# Density = 1.952979 g / cm^3
# Si number density = 19.574346 Si / 1000 Ang^3
#
#
#
# Elastic Constant Matrix: (Units=GPa)
#
#
# Indices 1 2 3 4 5 6 
#
# 1 59.3440 22.1949 0.2411 0.0000 0.0000 0.0000
# 2 22.1949 144.7326 16.7122 0.0000 0.0000 0.0000
# 3 0.2411 16.7122 73.1349 0.0000 0.0000 0.0000
# 4 0.0000 0.0000 0.0000 6.6875 0.0000 0.0000
# 5 0.0000 0.0000 0.0000 0.0000 -4.8323 0.0000
# 6 0.0000 0.0000 0.0000 0.0000 0.0000 -5.3379
#
#
#
# Elastic Compliance Matrix: (Units=1/GPa)
#
#
# Indices 1 2 3 4 5 6 
#
# 1 0.017900 -0.002812 0.000584 0.000000 0.000000 0.000000
# 2 -0.002812 0.007538 -0.001713 0.000000 0.000000 0.000000
# 3 0.000584 -0.001713 0.014063 0.000000 0.000000 0.000000
# 4 0.000000 0.000000 0.000000 0.149533 0.000000 0.000000
# 5 0.000000 0.000000 0.000000 0.000000 -0.206942 0.000000
# 6 0.000000 0.000000 0.000000 0.000000 0.000000 -0.187338
#
#
# Mechanical properties :
#
#
# Convention : Reuss Voigt Hill
#
# Bulk Modulus (GPa) = 31.62803 39.50088 35.56446
# Shear Modulus (GPa) = -26.76348 15.17434 -5.79457
#
# Velocity S-wave (km/s) = -3.70168 2.78729 -1.72242
# Velocity P-wave (km/s) = 1.44115 5.53013 3.77528
#
# Compressibility (1/GPa) = 0.03161752
#
# Stress axis : x y z
#
# Youngs Moduli (GPa) = 55.86466 132.65373 71.10881
#
# Poissons Ratio (x) = 0.37308 -0.04150
# Poissons Ratio (y) = 0.15712 0.12183
# Poissons Ratio (z) = -0.03261 0.22728
#
# Static dielectric constant tensor:
#      x y z
#    x 1.711350 0.000000 0.000000 
#    y 0.000000 1.752030 0.000000 
#    z 0.000000 0.000000 1.722100 
# 
# From -- ./inp_files/13090.got.cif
#   From: 2010.05.17/outbox.cif.g08.bks.cpg/sg49_7_cif.got.tgz:13090.got - 2010.06.03 21:02:19.
