data_PCOD9393503
_publ_section_title
;
Structure prediction by ZEFSAII (Michael W. Deem and Ramdas Pophale) SiO2 
 PCOD9393503
Probable space group: P C C M
;
_chemical_formula_sum "Si O2"
_cell_formula_units_Z 64
_cell_length_a 28.564570
_cell_length_b 15.041671
_cell_length_c 8.752605
_cell_angle_alpha 90.000000
_cell_angle_beta 90.000000
_cell_angle_gamma 90.000000
_cell_volume 3760.634323
_symmetry_space_group_name_H-M "P C C M"
_symmetry_group_IT_number 49
_symmetry_cell_setting 'orthorhombic'
loop_
_space_group_symop_operation_xyz
x,y,z
-x,-y,z
x,-y,1/2-z
-x,y,1/2-z
-x,-y,-z
x,y,-z
-x,y,1/2+z
x,-y,1/2+z
loop_
_atom_site_type_symbol
_atom_site_label
_atom_site_fract_x
_atom_site_fract_y
_atom_site_fract_z
Si Si1 0.919917 0.905378 0.319354
Si Si2 0.651659 0.899948 0.683504
Si Si3 0.763636 0.596715 0.682920
Si Si4 0.047972 0.276622 0.818138
Si Si5 0.267674 0.775710 0.682296
Si Si6 0.546761 0.900417 0.318169
Si Si7 0.866872 0.404243 0.315821
Si Si8 0.808211 0.095843 0.181686
O O1 0.928187 0.904906 0.500000
O O2 0.945110 0.822913 0.242097
O O3 0.863871 0.894703 0.293108
O O4 0.933933 0.000000 0.250000
O O5 0.657597 0.904099 0.500000
O O6 0.689731 0.835641 0.757041
O O7 0.598777 0.865292 0.716248
O O8 0.656275 0.000000 0.750000
O O9 0.750576 0.500000 0.750000
O O10 0.763535 0.593599 0.500000
O O11 0.732705 0.677853 0.744395
O O12 0.816384 0.615484 0.743053
O O13 0.093680 0.333080 0.774143
O O14 0.000000 0.314282 0.750000
O O15 0.044832 0.276386 0.000000
O O16 0.268256 0.769653 0.500000
O O17 0.220989 0.827328 0.737215
O O18 0.500000 0.856184 0.250000
O O19 0.541685 0.905535 0.500000
O O20 0.547842 0.000000 0.250000
O O21 0.881095 0.500000 0.250000
O O22 0.862172 0.407861 0.500000
O O23 0.794048 0.000000 0.250000
O O24 0.799311 0.097449 0.000000
#
# Coordination Sequence:
#
# PCOD9393503 Si02
#       8
#     8   8   8   8   8   8   8   8
#     4  10  21  37  57  77  99 128 164 203 243 287
#     4  10  20  33  47  69 102 141 181 221 263 308
#     4  11  22  38  59  81 104 131 165 205 247 298
#     4  11  24  39  56  78 104 131 162 199 241 289
#     4  12  23  34  50  73 103 138 172 210 254 302
#     4   9  16  26  43  64  91 129 175 221 263 305
#     4  10  21  38  60  84 107 132 161 197 240 291
#     4  10  20  34  52  75 102 134 168 205 246 294
#
# _framework density 17.018405000000001
#
# number of rings (size 3 to 8) (size 9 to 14) (size 15 to 20)
#    0.000    1.625    0.000    6.750    0.000    7.500 
#    0.000    2.500    0.000    0.000    0.000    0.000 
#    0.000    0.500    0.000    5.250    0.000    2.875 
#
# Total GULP energy -357531.978052 kJ/mol
# GULP energy per Si atom -5586.437157 kJ/mol
# Density = 1.697967 g / cm^3
# Si number density = 17.018405 Si / 1000 Ang^3
#
#
#
# Elastic Constant Matrix: (Units=GPa)
#
#
# Indices 1 2 3 4 5 6 
#
# 1 57.7219 50.3454 43.1541 0.0000 0.0000 0.0000
# 2 50.3454 97.0500 40.8356 0.0000 0.0000 0.0000
# 3 43.1541 40.8356 94.4061 0.0000 0.0000 0.0000
# 4 0.0000 0.0000 0.0000 20.2508 0.0000 0.0000
# 5 0.0000 0.0000 0.0000 0.0000 21.2591 0.0000
# 6 0.0000 0.0000 0.0000 0.0000 0.0000 8.8566
#
#
#
# Elastic Compliance Matrix: (Units=1/GPa)
#
#
# Indices 1 2 3 4 5 6 
#
# 1 0.039441 -0.015739 -0.011221 0.000000 0.000000 0.000000
# 2 -0.015739 0.018877 -0.000971 0.000000 0.000000 0.000000
# 3 -0.011221 -0.000971 0.016142 0.000000 0.000000 0.000000
# 4 0.000000 0.000000 0.000000 0.049381 0.000000 0.000000
# 5 0.000000 0.000000 0.000000 0.000000 0.047039 0.000000
# 6 0.000000 0.000000 0.000000 0.000000 0.000000 0.112910
#
#
# Mechanical properties :
#
#
# Convention : Reuss Voigt Hill
#
# Bulk Modulus (GPa) = 53.76846 57.53867 55.65356
# Shear Modulus (GPa) = 14.45712 17.72950 16.09331
#
# Velocity S-wave (km/s) = 2.91778 3.23117 3.07846
# Velocity P-wave (km/s) = 6.55852 6.91402 6.73861
#
# Compressibility (1/GPa) = 0.01859826
#
# Stress axis : x y z
#
# Youngs Moduli (GPa) = 25.35433 52.97409 61.95102
#
# Poissons Ratio (x) = 0.83375 0.69515
# Poissons Ratio (y) = 0.39905 0.06015
# Poissons Ratio (z) = 0.28450 0.05144
#
# Static dielectric constant tensor:
#      x y z
#    x 1.606730 0.000000 0.000000 
#    y 0.000000 1.559160 0.000000 
#    z 0.000000 0.000000 1.563940 
# 
# From -- ./inp_files/7013.got.cif
#   From: 2010.05.17/outbox.cif.g08.bks.cpg/sg49_4_cif.got.tgz:7013.got - 2010.06.03 21:02:19.
