data_PCOD9393795
_publ_section_title
;
Structure prediction by ZEFSAII (Michael W. Deem and Ramdas Pophale) SiO2 
 PCOD9393795
Probable space group: P C C M
;
_chemical_formula_sum "Si O2"
_cell_formula_units_Z 64
_cell_length_a 20.801979
_cell_length_b 20.403541
_cell_length_c 8.530325
_cell_angle_alpha 90.000000
_cell_angle_beta 90.000000
_cell_angle_gamma 90.000000
_cell_volume 3620.560229
_symmetry_space_group_name_H-M "P C C M"
_symmetry_group_IT_number 49
_symmetry_cell_setting 'orthorhombic'
loop_
_space_group_symop_operation_xyz
x,y,z
-x,-y,z
x,-y,1/2-z
-x,y,1/2-z
-x,-y,-z
x,y,-z
-x,y,1/2+z
x,-y,1/2+z
loop_
_atom_site_type_symbol
_atom_site_label
_atom_site_fract_x
_atom_site_fract_y
_atom_site_fract_z
Si Si1 0.429653 0.826810 0.310810
Si Si2 0.319231 0.073022 0.188581
Si Si3 0.822171 0.073073 0.186838
Si Si4 0.429545 0.676194 0.310528
Si Si5 0.176091 0.572422 0.310491
Si Si6 0.929401 0.677006 0.189179
Si Si7 0.929056 0.828154 0.188300
Si Si8 0.676747 0.427613 0.689460
O O1 0.500000 0.846250 0.250000
O O2 0.430962 0.827559 0.500000
O O3 0.373654 0.875867 0.259330
O O4 0.417633 0.751513 0.260457
O O5 0.248525 0.091450 0.249815
O O6 0.333356 0.000000 0.250000
O O7 0.317451 0.071700 0.000000
O O8 0.875466 0.123717 0.244983
O O9 0.836189 0.000000 0.250000
O O10 0.820513 0.071000 0.000000
O O11 0.500000 0.656910 0.250000
O O12 0.430488 0.675368 0.500000
O O13 0.374121 0.626709 0.256879
O O14 0.159406 0.500000 0.250000
O O15 0.175106 0.571431 0.500000
O O16 0.125498 0.626992 0.256529
O O17 0.249684 0.586823 0.261140
O O18 0.916734 0.752426 0.236557
O O19 0.000000 0.658526 0.250000
O O20 0.930597 0.675669 0.000000
O O21 0.000000 0.845726 0.250000
O O22 0.928647 0.831326 0.000000
O O23 0.660092 0.500000 0.750000
O O24 0.675840 0.428598 0.500000
#
# Coordination Sequence:
#
# PCOD9393795 Si02
#       8
#     8   8   8   8   8   8   8   8
#     4   9  19  34  53  75 101 133 170 209 253 301
#     4  10  20  35  54  77 104 136 171 210 254 302
#     4  11  22  37  56  79 106 137 172 212 256 305
#     4   9  18  33  51  72  97 128 163 203 246 294
#     4   9  18  33  51  73  99 132 169 208 251 297
#     4   9  19  34  53  75 102 134 168 206 251 299
#     4  10  20  36  56  79 106 137 172 213 257 306
#     4   9  18  32  50  70  96 127 163 203 245 292
#
# _framework density 17.676822000000001
#
# number of rings (size 3 to 8) (size 9 to 14) (size 15 to 20)
#    0.000    2.500    0.000    2.625    0.000    4.500 
#    0.000    8.750    0.000    3.000    0.000    0.000 
#    0.000    0.000    0.000    0.000    0.000    0.000 
#
# Total GULP energy -357059.204706 kJ/mol
# GULP energy per Si atom -5579.050074 kJ/mol
# Density = 1.763659 g / cm^3
# Si number density = 17.676822 Si / 1000 Ang^3
#
#
#
# Elastic Constant Matrix: (Units=GPa)
#
#
# Indices 1 2 3 4 5 6 
#
# 1 174.8142 137.0264 35.4817 0.0000 0.0000 0.0000
# 2 137.0264 125.3425 30.6320 0.0000 0.0000 0.0000
# 3 35.4817 30.6320 37.4465 0.0000 0.0000 0.0000
# 4 0.0000 0.0000 0.0000 11.8044 0.0000 0.0000
# 5 0.0000 0.0000 0.0000 0.0000 30.2543 0.0000
# 6 0.0000 0.0000 0.0000 0.0000 0.0000 44.9078
#
#
#
# Elastic Compliance Matrix: (Units=1/GPa)
#
#
# Indices 1 2 3 4 5 6 
#
# 1 0.040189 -0.043282 -0.002675 0.000000 0.000000 0.000000
# 2 -0.043282 0.056584 -0.005276 0.000000 0.000000 0.000000
# 3 -0.002675 -0.005276 0.033555 0.000000 0.000000 0.000000
# 4 0.000000 0.000000 0.000000 0.084714 0.000000 0.000000
# 5 0.000000 0.000000 0.000000 0.000000 0.033053 0.000000
# 6 0.000000 0.000000 0.000000 0.000000 0.000000 0.022268
#
#
# Mechanical properties :
#
#
# Convention : Reuss Voigt Hill
#
# Bulk Modulus (GPa) = 35.89025 82.65371 59.27198
# Shear Modulus (GPa) = 13.08499 26.35752 19.72126
#
# Velocity S-wave (km/s) = 2.72368 3.86564 3.34377
# Velocity P-wave (km/s) = 5.49899 8.17214 6.96501
#
# Compressibility (1/GPa) = 0.02786272
#
# Stress axis : x y z
#
# Youngs Moduli (GPa) = 24.88216 17.67286 29.80146
#
# Poissons Ratio (x) = 0.76492 0.07973
# Poissons Ratio (y) = 1.07695 0.15723
# Poissons Ratio (z) = 0.06657 0.09324
#
# Static dielectric constant tensor:
#      x y z
#    x 1.581770 0.000000 0.000000 
#    y 0.000000 1.589460 0.000000 
#    z 0.000000 0.000000 1.605360 
# 
# From -- ./inp_files/5954.got.cif
#   From: 2010.05.17/outbox.cif.g08.bks.cpg/sg49_3_cif.got.tgz:5954.got - 2010.06.03 21:02:19.
