data_PCOD9393273
_publ_section_title
;
Structure prediction by ZEFSAII (Michael W. Deem and Ramdas Pophale) SiO2 
 PCOD9393273
Probable space group: P C C M
;
_chemical_formula_sum "Si O2"
_cell_formula_units_Z 56
_cell_length_a 21.438230
_cell_length_b 5.012085
_cell_length_c 28.129556
_cell_angle_alpha 90.000000
_cell_angle_beta 90.000000
_cell_angle_gamma 90.000000
_cell_volume 3022.527290
_symmetry_space_group_name_H-M "P C C M"
_symmetry_group_IT_number 49
_symmetry_cell_setting 'orthorhombic'
loop_
_space_group_symop_operation_xyz
x,y,z
-x,-y,z
x,-y,1/2-z
-x,y,1/2-z
-x,-y,-z
x,y,-z
-x,y,1/2+z
x,-y,1/2+z
loop_
_atom_site_type_symbol
_atom_site_label
_atom_site_fract_x
_atom_site_fract_y
_atom_site_fract_z
Si Si1 0.456316 0.743810 0.946089
Si Si2 0.727877 0.050178 0.197422
Si Si3 0.131328 0.399658 0.901533
Si Si4 0.268766 0.517275 0.556588
Si Si5 0.666592 0.980637 0.401578
Si Si6 0.928576 0.904202 0.445146
Si Si7 0.816482 0.550032 0.197443
O O1 0.500000 0.500000 0.929158
O O2 0.398894 0.844185 0.914579
O O3 0.500000 0.000000 0.949960
O O4 0.433774 0.673221 0.000000
O O5 0.680706 0.008578 0.154330
O O6 0.759550 0.339564 0.193268
O O7 0.700711 0.000000 0.250000
O O8 0.784593 0.839365 0.193629
O O9 0.200952 0.416881 0.922676
O O10 0.085888 0.603970 0.928884
O O11 0.136799 0.476186 0.846284
O O12 0.108846 0.101353 0.910909
O O13 0.268339 0.531004 0.500000
O O14 0.284353 0.220894 0.574218
O O15 0.319673 0.728021 0.576633
O O16 0.907563 0.935201 0.500000
O O17 0.000000 0.000000 0.443086
O O18 0.843472 0.500000 0.250000
#
# Coordination Sequence:
#
# PCOD9393273 Si02
#       7
#     8   8   8   8   8   8   8
#     4  10  21  36  53  74 106 153 196 223 258 318
#     4  10  19  35  56  82 112 144 180 224 280 347
#     4  12  21  38  59  83 114 147 186 233 285 340
#     4  12  23  33  53  86 118 147 173 227 297 344
#     4  12  21  37  55  82 116 146 185 236 281 337
#     4  11  24  40  58  80 111 155 198 229 266 330
#     4  10  20  36  57  83 113 143 180 223 281 345
#
# _framework density 18.527539999999998
#
# number of rings (size 3 to 8) (size 9 to 14) (size 15 to 20)
#    0.000    1.000    2.857    5.571    0.000    2.286 
#    0.000    0.000    0.000    3.000    0.000    1.000 
#    0.000    0.000    0.000    0.000    0.000    0.000 
#
# Total GULP energy -312840.134575 kJ/mol
# GULP energy per Si atom -5586.430975 kJ/mol
# Density = 1.848537 g / cm^3
# Si number density = 18.527540 Si / 1000 Ang^3
#
#
#
# Elastic Constant Matrix: (Units=GPa)
#
#
# Indices 1 2 3 4 5 6 
#
# 1 38.7288 -6.2768 19.5871 0.0000 0.0000 0.0000
# 2 -6.2768 66.4045 -0.2674 0.0000 0.0000 0.0000
# 3 19.5871 -0.2674 148.0132 0.0000 0.0000 0.0000
# 4 0.0000 0.0000 0.0000 22.4942 0.0000 0.0000
# 5 0.0000 0.0000 0.0000 0.0000 11.0230 0.0000
# 6 0.0000 0.0000 0.0000 0.0000 0.0000 31.9773
#
#
#
# Elastic Compliance Matrix: (Units=1/GPa)
#
#
# Indices 1 2 3 4 5 6 
#
# 1 0.028129 0.002644 -0.003718 0.000000 0.000000 0.000000
# 2 0.002644 0.015308 -0.000322 0.000000 0.000000 0.000000
# 3 -0.003718 -0.000322 0.007248 0.000000 0.000000 0.000000
# 4 0.000000 0.000000 0.000000 0.044456 0.000000 0.000000
# 5 0.000000 0.000000 0.000000 0.000000 0.090720 0.000000
# 6 0.000000 0.000000 0.000000 0.000000 0.000000 0.031272
#
#
# Mechanical properties :
#
#
# Convention : Reuss Voigt Hill
#
# Bulk Modulus (GPa) = 20.87998 31.02580 25.95289
# Shear Modulus (GPa) = 21.19644 29.10578 25.15111
#
# Velocity S-wave (km/s) = 3.38605 3.96782 3.68842
# Velocity P-wave (km/s) = 5.15570 6.14602 5.67251
#
# Compressibility (1/GPa) = 0.04789276
#
# Stress axis : x y z
#
# Youngs Moduli (GPa) = 35.55010 65.32599 137.97769
#
# Poissons Ratio (x) = -0.17272 0.51296
# Poissons Ratio (y) = -0.09399 0.04446
# Poissons Ratio (z) = 0.13216 0.02105
#
# Static dielectric constant tensor:
#      x y z
#    x 1.640420 0.000000 0.000000 
#    y 0.000000 1.638540 0.000000 
#    z 0.000000 0.000000 1.656790 
# 
# From -- ./inp_files/25215.got.cif
#   From: 2010.05.17/outbox.cif.g08.bks.cpg/sg49_13_cif.got.tgz:25215.got - 2010.06.03 21:02:19.
