data_PCOD9393884
_publ_section_title
;
Structure prediction by ZEFSAII (Michael W. Deem and Ramdas Pophale) SiO2 
 PCOD9393884
Probable space group: P C C M
;
_chemical_formula_sum "Si O2"
_cell_formula_units_Z 40
_cell_length_a 8.059720
_cell_length_b 8.853472
_cell_length_c 26.557292
_cell_angle_alpha 90.000000
_cell_angle_beta 90.000000
_cell_angle_gamma 90.000000
_cell_volume 1895.035549
_symmetry_space_group_name_H-M "P C C M"
_symmetry_group_IT_number 49
_symmetry_cell_setting 'orthorhombic'
loop_
_space_group_symop_operation_xyz
x,y,z
-x,-y,z
x,-y,1/2-z
-x,y,1/2-z
-x,-y,-z
x,y,-z
-x,y,1/2+z
x,-y,1/2+z
loop_
_atom_site_type_symbol
_atom_site_label
_atom_site_fract_x
_atom_site_fract_y
_atom_site_fract_z
Si Si1 0.608802 0.800304 0.558369
Si Si2 0.967852 0.820565 0.192235
Si Si3 0.313310 0.302159 0.871594
Si Si4 0.843865 0.395419 0.885081
Si Si5 0.161959 0.081660 0.941726
O O1 0.547217 0.783758 0.500000
O O2 0.487028 0.752591 0.604201
O O3 0.766223 0.691686 0.567787
O O4 0.682558 0.968561 0.564292
O O5 0.778182 0.779530 0.175401
O O6 0.000000 0.777227 0.250000
O O7 0.092886 0.723351 0.157017
O O8 0.000000 0.000000 0.188084
O O9 0.291027 0.480805 0.865828
O O10 0.195270 0.238343 0.915888
O O11 0.000000 0.500000 0.897052
O O12 0.134913 0.105315 0.000000
O O13 0.000000 0.000000 0.920722
#
# Coordination Sequence:
#
# PCOD9393884 Si02
#       5
#     8   8   8   8   8
#     4  11  23  38  58  89 131 173 213 261 315 372
#     4  10  22  43  69  91 115 157 208 261 322 388
#     4  11  21  35  58  89 124 161 202 257 318 374
#     4  10  22  38  60  88 121 162 210 261 316 379
#     4  10  20  35  57  85 121 168 214 254 302 367
#
# _framework density 21.107785
#
# number of rings (size 3 to 8) (size 9 to 14) (size 15 to 20)
#    0.000    1.600    0.000    6.000    0.000    8.000 
#    0.000    4.000    0.000    7.200    0.000    0.000 
#    0.000    0.000    0.000    0.000    0.000    0.000 
#
# Total GULP energy -222984.436526 kJ/mol
# GULP energy per Si atom -5574.610913 kJ/mol
# Density = 2.105974 g / cm^3
# Si number density = 21.107785 Si / 1000 Ang^3
#
#
#
# Elastic Constant Matrix: (Units=GPa)
#
#
# Indices 1 2 3 4 5 6 
#
# 1 72.0227 10.2755 45.9958 0.0000 0.0000 0.0000
# 2 10.2755 115.7080 34.8206 0.0000 0.0000 0.0000
# 3 45.9958 34.8206 118.9385 0.0000 0.0000 0.0000
# 4 0.0000 0.0000 0.0000 99.4910 0.0000 0.0000
# 5 0.0000 0.0000 0.0000 0.0000 26.5995 0.0000
# 6 0.0000 0.0000 0.0000 0.0000 0.0000 30.4653
#
#
#
# Elastic Compliance Matrix: (Units=1/GPa)
#
#
# Indices 1 2 3 4 5 6 
#
# 1 0.018471 0.000558 -0.007307 0.000000 0.000000 0.000000
# 2 0.000558 0.009494 -0.002996 0.000000 0.000000 0.000000
# 3 -0.007307 -0.002996 0.012110 0.000000 0.000000 0.000000
# 4 0.000000 0.000000 0.000000 0.010051 0.000000 0.000000
# 5 0.000000 0.000000 0.000000 0.000000 0.037595 0.000000
# 6 0.000000 0.000000 0.000000 0.000000 0.000000 0.032824
#
#
# Mechanical properties :
#
#
# Convention : Reuss Voigt Hill
#
# Bulk Modulus (GPa) = 48.57122 54.31698 51.44410
# Shear Modulus (GPa) = 34.03772 45.68298 39.86035
#
# Velocity S-wave (km/s) = 4.02003 4.65722 4.35031
# Velocity P-wave (km/s) = 6.67896 7.39653 7.04689
#
# Compressibility (1/GPa) = 0.02058832
#
# Stress axis : x y z
#
# Youngs Moduli (GPa) = 54.13878 105.32617 82.57440
#
# Poissons Ratio (x) = -0.05882 0.60334
# Poissons Ratio (y) = -0.03024 0.24736
# Poissons Ratio (z) = 0.39557 0.31551
#
# Static dielectric constant tensor:
#      x y z
#    x 1.917840 0.000000 0.000000 
#    y 0.000000 1.774310 0.000000 
#    z 0.000000 0.000000 1.732880 
# 
# From -- ./inp_files/24355.got.cif
#   From: 2010.05.17/outbox.cif.g08.bks.cpg/sg49_13_cif.got.tgz:24355.got - 2010.06.03 21:02:19.
