data_PCOD9393058
_publ_section_title
;
Structure prediction by ZEFSAII (Michael W. Deem and Ramdas Pophale) SiO2 
 PCOD9393058
Probable space group: P C C M
;
_chemical_formula_sum "Si O2"
_cell_formula_units_Z 48
_cell_length_a 14.236458
_cell_length_b 9.410642
_cell_length_c 19.418109
_cell_angle_alpha 90.000000
_cell_angle_beta 90.000000
_cell_angle_gamma 90.000000
_cell_volume 2601.525805
_symmetry_space_group_name_H-M "P C C M"
_symmetry_group_IT_number 49
_symmetry_cell_setting 'orthorhombic'
loop_
_space_group_symop_operation_xyz
x,y,z
-x,-y,z
x,-y,1/2-z
-x,y,1/2-z
-x,-y,-z
x,y,-z
-x,y,1/2+z
x,-y,1/2+z
loop_
_atom_site_type_symbol
_atom_site_label
_atom_site_fract_x
_atom_site_fract_y
_atom_site_fract_z
Si Si1 0.047757 0.154738 0.421583
Si Si2 0.603328 0.567282 0.821039
Si Si3 0.234080 0.143353 0.665044
Si Si4 0.261696 0.583098 0.080882
Si Si5 0.866174 0.665100 0.081819
Si Si6 0.718854 0.170647 0.322567
O O1 0.083563 0.185031 0.500000
O O2 0.129613 0.138506 0.366188
O O3 0.970106 0.274586 0.404151
O O4 0.000000 0.000000 0.424452
O O5 0.500000 0.500000 0.824686
O O6 0.645027 0.500000 0.750000
O O7 0.659153 0.518225 0.888062
O O8 0.623471 0.736102 0.818352
O O9 0.275874 0.272514 0.622059
O O10 0.237013 0.174225 0.746080
O O11 0.287436 0.993741 0.656208
O O12 0.162883 0.499503 0.094793
O O13 0.270181 0.603339 0.000000
O O14 0.792734 0.756403 0.125934
O O15 0.851025 0.688456 0.000000
#
# Coordination Sequence:
#
# PCOD9393058 Si02
#       6
#     8   8   8   8   8   8
#     4  10  19  33  53  80 116 162 212 247 288 342
#     4  10  20  40  67  85 110 149 194 244 298 372
#     4  11  21  34  54  84 120 156 195 249 298 355
#     4  10  21  37  60  88 120 155 193 244 303 354
#     4   9  19  35  54  80 113 158 207 246 280 343
#     4  10  21  36  56  84 115 150 196 241 306 364
#
# _framework density 18.450710000000001
#
# number of rings (size 3 to 8) (size 9 to 14) (size 15 to 20)
#    0.000    2.000    3.333    0.500    0.000    2.333 
#    0.000    3.333    0.000    3.000    0.000    0.000 
#    0.000    0.000    0.000    0.000    0.000    0.000 
#
# Total GULP energy -267338.889635 kJ/mol
# GULP energy per Si atom -5569.560201 kJ/mol
# Density = 1.840871 g / cm^3
# Si number density = 18.450710 Si / 1000 Ang^3
#
#
#
# Elastic Constant Matrix: (Units=GPa)
#
#
# Indices 1 2 3 4 5 6 
#
# 1 71.8434 40.0024 23.3698 0.0000 0.0000 0.0000
# 2 40.0024 132.3760 51.1871 0.0000 0.0000 0.0000
# 3 23.3698 51.1871 53.3439 0.0000 0.0000 0.0000
# 4 0.0000 0.0000 0.0000 27.4800 0.0000 0.0000
# 5 0.0000 0.0000 0.0000 0.0000 24.7033 0.0000
# 6 0.0000 0.0000 0.0000 0.0000 0.0000 30.5514
#
#
#
# Elastic Compliance Matrix: (Units=1/GPa)
#
#
# Indices 1 2 3 4 5 6 
#
# 1 0.017273 -0.003647 -0.004068 0.000000 0.000000 0.000000
# 2 -0.003647 0.012781 -0.010666 0.000000 0.000000 0.000000
# 3 -0.004068 -0.010666 0.030764 0.000000 0.000000 0.000000
# 4 0.000000 0.000000 0.000000 0.036390 0.000000 0.000000
# 5 0.000000 0.000000 0.000000 0.000000 0.040480 0.000000
# 6 0.000000 0.000000 0.000000 0.000000 0.000000 0.032732
#
#
# Mechanical properties :
#
#
# Convention : Reuss Voigt Hill
#
# Bulk Modulus (GPa) = 41.57113 54.07577 47.82345
# Shear Modulus (GPa) = 23.23423 26.08054 24.65739
#
# Velocity S-wave (km/s) = 3.55245 3.76377 3.65964
# Velocity P-wave (km/s) = 6.27745 6.94693 6.62066
#
# Compressibility (1/GPa) = 0.02405516
#
# Stress axis : x y z
#
# Youngs Moduli (GPa) = 57.89422 78.24314 32.50598
#
# Poissons Ratio (x) = 0.28533 0.13223
# Poissons Ratio (y) = 0.21112 0.34672
# Poissons Ratio (z) = 0.23551 0.83457
#
# Static dielectric constant tensor:
#      x y z
#    x 1.658340 0.000000 0.000000 
#    y 0.000000 1.703130 0.000000 
#    z 0.000000 0.000000 1.611980 
# 
# From -- ./inp_files/16296.got.cif
#   From: 2010.05.17/outbox.cif.g08.bks.cpg/sg49_9_cif.got.tgz:16296.got - 2010.06.03 21:02:19.
