data_PCOD9393988
_publ_section_title
;
Structure prediction by ZEFSAII (Michael W. Deem and Ramdas Pophale) SiO2 
 PCOD9393988
Probable space group: P C C M
;
_chemical_formula_sum "Si O2"
_cell_formula_units_Z 64
_cell_length_a 9.002375
_cell_length_b 14.352019
_cell_length_c 25.912237
_cell_angle_alpha 90.000000
_cell_angle_beta 90.000000
_cell_angle_gamma 90.000000
_cell_volume 3347.919505
_symmetry_space_group_name_H-M "P C C M"
_symmetry_group_IT_number 49
_symmetry_cell_setting 'orthorhombic'
loop_
_space_group_symop_operation_xyz
x,y,z
-x,-y,z
x,-y,1/2-z
-x,y,1/2-z
-x,-y,-z
x,y,-z
-x,y,1/2+z
x,-y,1/2+z
loop_
_atom_site_type_symbol
_atom_site_label
_atom_site_fract_x
_atom_site_fract_y
_atom_site_fract_z
Si Si1 0.389846 0.721473 0.059648
Si Si2 0.843106 0.086135 0.721864
Si Si3 0.612485 0.232662 0.297264
Si Si4 0.893082 0.920558 0.102431
Si Si5 0.558034 0.894440 0.897535
Si Si6 0.414019 0.591207 0.633379
Si Si7 0.140412 0.435824 0.940828
Si Si8 0.046685 0.750418 0.058926
O O1 0.455214 0.825513 0.068885
O O2 0.477788 0.650075 0.095660
O O3 0.214128 0.719504 0.071003
O O4 0.411452 0.696037 0.000000
O O5 0.759877 0.183658 0.723763
O O6 0.863380 0.058122 0.662398
O O7 0.000000 0.095439 0.750000
O O8 0.761008 0.000000 0.750000
O O9 0.500000 0.238865 0.250000
O O10 0.562516 0.159788 0.342391
O O11 0.632475 0.333230 0.323614
O O12 0.727428 0.902091 0.080971
O O13 0.987857 0.827366 0.097562
O O14 0.000000 0.000000 0.079655
O O15 0.500000 0.000000 0.893137
O O16 0.500000 0.500000 0.653155
O O17 0.274354 0.559150 0.598974
O O18 0.000000 0.500000 0.927651
O O19 0.070983 0.332823 0.940436
O O20 0.186828 0.458679 0.000000
O O21 0.050061 0.788019 0.000000
#
# Coordination Sequence:
#
# PCOD9393988 Si02
#       8
#     8   8   8   8   8   8   8   8
#     4  10  21  38  59  88 120 158 203 244 293 354
#     4  10  20  36  58  89 117 147 190 249 308 353
#     4  10  24  38  60  87 114 156 197 251 302 362
#     4  11  21  35  55  80 117 157 192 240 289 349
#     4  10  22  36  55  86 117 156 199 242 300 355
#     4  11  23  41  61  87 120 157 201 249 305 357
#     4  10  20  36  61  92 120 152 196 246 299 355
#     4  10  21  36  55  81 118 157 194 237 285 346
#
# _framework density 19.116350000000001
#
# number of rings (size 3 to 8) (size 9 to 14) (size 15 to 20)
#    0.000    1.750    1.250    4.125    3.500    6.250 
#    0.000    1.250    0.000    0.000    0.000    0.000 
#    0.000    0.000    0.000    0.000    0.000    0.000 
#
# Total GULP energy -357103.112708 kJ/mol
# GULP energy per Si atom -5579.736136 kJ/mol
# Density = 1.907284 g / cm^3
# Si number density = 19.116350 Si / 1000 Ang^3
#
#
#
# Elastic Constant Matrix: (Units=GPa)
#
#
# Indices 1 2 3 4 5 6 
#
# 1 76.2358 18.9063 20.5377 0.0000 0.0000 0.0000
# 2 18.9063 110.5530 21.0228 0.0000 0.0000 0.0000
# 3 20.5377 21.0228 33.9476 0.0000 0.0000 0.0000
# 4 0.0000 0.0000 0.0000 22.3184 0.0000 0.0000
# 5 0.0000 0.0000 0.0000 0.0000 19.1997 0.0000
# 6 0.0000 0.0000 0.0000 0.0000 0.0000 25.7906
#
#
#
# Elastic Compliance Matrix: (Units=1/GPa)
#
#
# Indices 1 2 3 4 5 6 
#
# 1 0.015768 -0.001000 -0.008920 0.000000 0.000000 0.000000
# 2 -0.001000 0.010316 -0.005783 0.000000 0.000000 0.000000
# 3 -0.008920 -0.005783 0.038435 0.000000 0.000000 0.000000
# 4 0.000000 0.000000 0.000000 0.044806 0.000000 0.000000
# 5 0.000000 0.000000 0.000000 0.000000 0.052084 0.000000
# 6 0.000000 0.000000 0.000000 0.000000 0.000000 0.038774
#
#
# Mechanical properties :
#
#
# Convention : Reuss Voigt Hill
#
# Bulk Modulus (GPa) = 30.20043 37.96333 34.08188
# Shear Modulus (GPa) = 20.60760 24.14637 22.37699
#
# Velocity S-wave (km/s) = 3.28687 3.55790 3.42507
# Velocity P-wave (km/s) = 5.49883 6.06469 5.78868
#
# Compressibility (1/GPa) = 0.03311212
#
# Stress axis : x y z
#
# Youngs Moduli (GPa) = 63.41820 96.93415 26.01787
#
# Poissons Ratio (x) = 0.09697 0.23208
# Poissons Ratio (y) = 0.06344 0.15047
# Poissons Ratio (z) = 0.56569 0.56060
#
# Static dielectric constant tensor:
#      x y z
#    x 1.685450 0.000000 0.000000 
#    y 0.000000 1.740270 0.000000 
#    z 0.000000 0.000000 1.669650 
# 
# From -- ./inp_files/22575.got.cif
#   From: 2010.05.17/outbox.cif.g08.bks.cpg/sg49_12_cif.got.tgz:22575.got - 2010.06.03 21:02:19.
