data_PCOD9393057
_publ_section_title
;
Structure prediction by ZEFSAII (Michael W. Deem and Ramdas Pophale) SiO2 
 PCOD9393057
Probable space group: P C C M
;
_chemical_formula_sum "Si O2"
_cell_formula_units_Z 56
_cell_length_a 22.995177
_cell_length_b 15.258824
_cell_length_c 8.673213
_cell_angle_alpha 90.000000
_cell_angle_beta 90.000000
_cell_angle_gamma 90.000000
_cell_volume 3043.251415
_symmetry_space_group_name_H-M "P C C M"
_symmetry_group_IT_number 49
_symmetry_cell_setting 'orthorhombic'
loop_
_space_group_symop_operation_xyz
x,y,z
-x,-y,z
x,-y,1/2-z
-x,y,1/2-z
-x,-y,-z
x,y,-z
-x,y,1/2+z
x,-y,1/2+z
loop_
_atom_site_type_symbol
_atom_site_label
_atom_site_fract_x
_atom_site_fract_y
_atom_site_fract_z
Si Si1 0.792408 0.594478 0.685405
Si Si2 0.560708 0.724737 0.816415
Si Si3 0.398448 0.094484 0.314597
Si Si4 0.657200 0.595860 0.314619
Si Si5 0.160665 0.222362 0.313093
Si Si6 0.935152 0.094031 0.684169
Si Si7 0.736958 0.093388 0.184810
O O1 0.809619 0.500000 0.750000
O O2 0.793852 0.590604 0.500000
O O3 0.724817 0.611448 0.728942
O O4 0.831245 0.676834 0.734666
O O5 0.500000 0.689197 0.750000
O O6 0.568108 0.823851 0.756237
O O7 0.614397 0.668123 0.753348
O O8 0.559785 0.723118 0.000000
O O9 0.402880 0.095357 0.500000
O O10 0.330213 0.106517 0.269538
O O11 0.417057 0.000000 0.250000
O O12 0.641531 0.500000 0.250000
O O13 0.653386 0.596766 0.500000
O O14 0.155825 0.219133 0.500000
O O15 0.107194 0.170650 0.240183
O O16 0.219425 0.170026 0.268644
O O17 0.937075 0.089369 0.500000
O O18 0.000000 0.107279 0.750000
O O19 0.914369 0.000000 0.750000
O O20 0.756691 0.000000 0.250000
O O21 0.737713 0.088807 0.000000
#
# Coordination Sequence:
#
# PCOD9393057 Si02
#       7
#     8   8   8   8   8   8   8
#     4   9  19  35  57  83 114 146 179 220 269 321
#     4  12  25  40  57  79 104 137 179 225 272 324
#     4  10  20  37  57  79 107 141 178 220 268 323
#     4  10  20  38  61  86 113 143 176 217 269 327
#     4  10  19  33  53  80 112 147 182 222 268 316
#     4  11  22  37  56  80 111 150 190 230 270 316
#     4   9  18  31  50  76 108 140 172 211 263 319
#
# _framework density 18.401373
#
# number of rings (size 3 to 8) (size 9 to 14) (size 15 to 20)
#    0.000    1.857    0.000    5.143    0.000    6.286 
#    0.000    4.286    0.000    0.429    0.000    3.000 
#    0.000    0.000    0.000    0.000    0.000    0.000 
#
# Total GULP energy -312889.011476 kJ/mol
# GULP energy per Si atom -5587.303776 kJ/mol
# Density = 1.835949 g / cm^3
# Si number density = 18.401373 Si / 1000 Ang^3
#
#
#
# Elastic Constant Matrix: (Units=GPa)
#
#
# Indices 1 2 3 4 5 6 
#
# 1 67.4479 67.9449 32.4231 0.0000 0.0000 0.0000
# 2 67.9449 150.7363 48.5576 0.0000 0.0000 0.0000
# 3 32.4231 48.5576 81.0882 0.0000 0.0000 0.0000
# 4 0.0000 0.0000 0.0000 32.8763 0.0000 0.0000
# 5 0.0000 0.0000 0.0000 0.0000 24.7212 0.0000
# 6 0.0000 0.0000 0.0000 0.0000 0.0000 -18.0714
#
#
#
# Elastic Compliance Matrix: (Units=1/GPa)
#
#
# Indices 1 2 3 4 5 6 
#
# 1 0.028469 -0.011356 -0.004583 0.000000 0.000000 0.000000
# 2 -0.011356 0.012750 -0.003094 0.000000 0.000000 0.000000
# 3 -0.004583 -0.003094 0.016018 0.000000 0.000000 0.000000
# 4 0.000000 0.000000 0.000000 0.030417 0.000000 0.000000
# 5 0.000000 0.000000 0.000000 0.000000 0.040451 0.000000
# 6 0.000000 0.000000 0.000000 0.000000 0.000000 -0.055336
#
#
# Mechanical properties :
#
#
# Convention : Reuss Voigt Hill
#
# Bulk Modulus (GPa) = 52.16511 66.34705 59.25608
# Shear Modulus (GPa) = 42.65292 17.92834 30.29063
#
# Velocity S-wave (km/s) = 4.81970 3.12475 4.06163
# Velocity P-wave (km/s) = 7.70602 7.01089 7.36666
#
# Compressibility (1/GPa) = 0.01916990
#
# Stress axis : x y z
#
# Youngs Moduli (GPa) = 35.12552 78.43333 62.43155
#
# Poissons Ratio (x) = 0.89071 0.28613
# Poissons Ratio (y) = 0.39890 0.19316
# Poissons Ratio (z) = 0.16098 0.24267
#
# Static dielectric constant tensor:
#      x y z
#    x 1.632760 0.000000 0.000000 
#    y 0.000000 1.627040 0.000000 
#    z 0.000000 0.000000 1.615620 
# 
# From -- ./inp_files/4058.got.cif
#   From: 2010.05.17/outbox.cif.g08.bks.cpg/sg49_3_cif.got.tgz:4058.got - 2010.06.03 21:02:19.
