data_PCOD9393911
_publ_section_title
;
Structure prediction by ZEFSAII (Michael W. Deem and Ramdas Pophale) SiO2 
 PCOD9393911
Probable space group: P C C M
;
_chemical_formula_sum "Si O2"
_cell_formula_units_Z 40
_cell_length_a 14.693858
_cell_length_b 15.774797
_cell_length_c 8.648341
_cell_angle_alpha 90.000000
_cell_angle_beta 90.000000
_cell_angle_gamma 90.000000
_cell_volume 2004.621680
_symmetry_space_group_name_H-M "P C C M"
_symmetry_group_IT_number 49
_symmetry_cell_setting 'orthorhombic'
loop_
_space_group_symop_operation_xyz
x,y,z
-x,-y,z
x,-y,1/2-z
-x,y,1/2-z
-x,-y,-z
x,y,-z
-x,y,1/2+z
x,-y,1/2+z
loop_
_atom_site_type_symbol
_atom_site_label
_atom_site_fract_x
_atom_site_fract_y
_atom_site_fract_z
Si Si1 0.713702 0.588979 0.684496
Si Si2 0.291125 0.908851 0.184652
Si Si3 0.601794 0.252061 0.315261
Si Si4 0.094024 0.161528 0.684966
Si Si5 0.096838 0.352413 0.815283
O O1 0.678196 0.500000 0.750000
O O2 0.711608 0.589248 0.500000
O O3 0.656709 0.667827 0.748919
O O4 0.817087 0.600814 0.742829
O O5 0.347872 0.833150 0.260235
O O6 0.184313 0.891726 0.218133
O O7 0.317949 0.000000 0.250000
O O8 0.303136 0.906079 0.000000
O O9 0.500000 0.252912 0.250000
O O10 0.601038 0.256041 0.500000
O O11 0.086656 0.173401 0.500000
O O12 0.104653 0.253805 0.763617
O O13 0.000000 0.124148 0.750000
O O14 0.000000 0.383160 0.750000
O O15 0.098484 0.358403 0.000000
#
# Coordination Sequence:
#
# PCOD9393911 Si02
#       5
#     8   8   8   8   8
#     4  12  25  44  68  99 134 171 218 267 322 386
#     4  11  24  42  66  97 133 173 219 271 324 386
#     4  12  26  47  73  99 129 168 212 267 331 391
#     4  10  20  35  59  90 129 173 219 266 318 377
#     4  11  21  36  61  93 130 175 220 265 320 379
#
# _framework density 19.953887999999999
#
# number of rings (size 3 to 8) (size 9 to 14) (size 15 to 20)
#    0.000    0.800    2.000    7.800    0.000    4.000 
#    0.000    8.000    0.000    0.000    0.000    0.000 
#    0.000    0.000    0.000    0.000    0.000    0.000 
#
# Total GULP energy -223923.503000 kJ/mol
# GULP energy per Si atom -5598.087575 kJ/mol
# Density = 1.990847 g / cm^3
# Si number density = 19.953888 Si / 1000 Ang^3
#
#
#
# Elastic Constant Matrix: (Units=GPa)
#
#
# Indices 1 2 3 4 5 6 
#
# 1 140.4462 78.8696 81.0063 0.0000 0.0000 0.0000
# 2 78.8696 159.1848 79.5859 0.0000 0.0000 0.0000
# 3 81.0063 79.5859 187.1332 0.0000 0.0000 0.0000
# 4 0.0000 0.0000 0.0000 32.3241 0.0000 0.0000
# 5 0.0000 0.0000 0.0000 0.0000 40.0633 0.0000
# 6 0.0000 0.0000 0.0000 0.0000 0.0000 -9.7879
#
#
#
# Elastic Compliance Matrix: (Units=1/GPa)
#
#
# Indices 1 2 3 4 5 6 
#
# 1 0.011156 -0.003954 -0.003148 0.000000 0.000000 0.000000
# 2 -0.003954 0.009380 -0.002278 0.000000 0.000000 0.000000
# 3 -0.003148 -0.002278 0.007675 0.000000 0.000000 0.000000
# 4 0.000000 0.000000 0.000000 0.030937 0.000000 0.000000
# 5 0.000000 0.000000 0.000000 0.000000 0.024960 0.000000
# 6 0.000000 0.000000 0.000000 0.000000 0.000000 -0.102167
#
#
# Mechanical properties :
#
#
# Convention : Reuss Voigt Hill
#
# Bulk Modulus (GPa) = 105.79063 107.29865 106.54464
# Shear Modulus (GPa) = 1298.78580 29.00673 663.89627
#
# Velocity S-wave (km/s) = 25.54029 3.81686 18.26027
# Velocity P-wave (km/s) = 30.37885 8.56240 22.31804
#
# Compressibility (1/GPa) = 0.00945263
#
# Stress axis : x y z
#
# Youngs Moduli (GPa) = 89.63871 106.61512 130.29237
#
# Poissons Ratio (x) = 0.42151 0.41013
# Poissons Ratio (y) = 0.35439 0.29676
# Poissons Ratio (z) = 0.28216 0.24283
#
# Static dielectric constant tensor:
#      x y z
#    x 1.723960 0.000000 0.000000 
#    y 0.000000 1.699810 0.000000 
#    z 0.000000 0.000000 1.661490 
# 
# From -- ./inp_files/3435.got.cif
#   From: 2010.05.17/outbox.cif.g08.bks.cpg/sg49_2_cif.got.tgz:3435.got - 2010.06.03 21:02:19.
