data_PCOD9393182
_publ_section_title
;
Structure prediction by ZEFSAII (Michael W. Deem and Ramdas Pophale) SiO2 
 PCOD9393182
Probable space group: P C C M
;
_chemical_formula_sum "Si O2"
_cell_formula_units_Z 64
_cell_length_a 25.925373
_cell_length_b 14.843270
_cell_length_c 8.692533
_cell_angle_alpha 90.000000
_cell_angle_beta 90.000000
_cell_angle_gamma 90.000000
_cell_volume 3345.037177
_symmetry_space_group_name_H-M "P C C M"
_symmetry_group_IT_number 49
_symmetry_cell_setting 'orthorhombic'
loop_
_space_group_symop_operation_xyz
x,y,z
-x,-y,z
x,-y,1/2-z
-x,y,1/2-z
-x,-y,-z
x,y,-z
-x,y,1/2+z
x,-y,1/2+z
loop_
_atom_site_type_symbol
_atom_site_label
_atom_site_fract_x
_atom_site_fract_y
_atom_site_fract_z
Si Si1 0.252435 0.787880 0.815535
Si Si2 0.097540 0.594674 0.315156
Si Si3 0.945281 0.786805 0.184919
Si Si4 0.786428 0.593591 0.684261
Si Si5 0.442603 0.210015 0.814941
Si Si6 0.441685 0.590670 0.683881
Si Si7 0.155762 0.899161 0.314568
Si Si8 0.345786 0.901310 0.315420
O O1 0.245707 0.682559 0.776359
O O2 0.202939 0.841188 0.751374
O O3 0.302771 0.832709 0.744065
O O4 0.253624 0.796366 0.000000
O O5 0.077075 0.500000 0.250000
O O6 0.098450 0.590688 0.500000
O O7 0.066981 0.683948 0.265853
O O8 0.156191 0.604170 0.254607
O O9 0.897640 0.850211 0.230929
O O10 0.000000 0.816529 0.250000
O O11 0.947410 0.787239 0.000000
O O12 0.764954 0.500000 0.750000
O O13 0.791080 0.587286 0.500000
O O14 0.500000 0.198353 0.750000
O O15 0.421407 0.310177 0.773504
O O16 0.401838 0.135233 0.764944
O O17 0.446345 0.207985 0.000000
O O18 0.416319 0.500000 0.750000
O O19 0.500000 0.592134 0.750000
O O20 0.443563 0.583264 0.500000
O O21 0.159013 0.900592 0.500000
O O22 0.157857 0.000000 0.250000
O O23 0.344434 0.904012 0.500000
O O24 0.335499 0.000000 0.250000
#
# Coordination Sequence:
#
# PCOD9393182 Si02
#       8
#     8   8   8   8   8   8   8   8
#     4  11  23  40  63  91 118 151 192 237 288 344
#     4  10  19  34  55  83 115 151 192 233 283 341
#     4  10  23  39  57  81 115 153 193 239 291 345
#     4  10  20  34  58  89 119 152 190 231 281 341
#     4   9  20  37  58  84 116 155 195 235 286 342
#     4   9  15  26  46  75 108 143 184 226 271 324
#     4  11  23  41  62  86 113 148 192 241 295 352
#     4  11  24  42  62  86 117 153 193 243 296 347
#
# _framework density 19.132822000000001
#
# number of rings (size 3 to 8) (size 9 to 14) (size 15 to 20)
#    0.000    1.875    1.250    3.750    0.000    5.750 
#    0.000    4.375    0.000    3.000    0.000    0.000 
#    0.000    0.000    0.000    0.000    0.000    0.000 
#
# Total GULP energy -357365.149737 kJ/mol
# GULP energy per Si atom -5583.830465 kJ/mol
# Density = 1.908927 g / cm^3
# Si number density = 19.132822 Si / 1000 Ang^3
#
#
#
# Elastic Constant Matrix: (Units=GPa)
#
#
# Indices 1 2 3 4 5 6 
#
# 1 95.5857 55.0523 25.6840 0.0000 0.0000 0.0000
# 2 55.0523 126.1358 38.3871 0.0000 0.0000 0.0000
# 3 25.6840 38.3871 51.4427 0.0000 0.0000 0.0000
# 4 0.0000 0.0000 0.0000 29.5025 0.0000 0.0000
# 5 0.0000 0.0000 0.0000 0.0000 19.8246 0.0000
# 6 0.0000 0.0000 0.0000 0.0000 0.0000 -15.4376
#
#
#
# Elastic Compliance Matrix: (Units=1/GPa)
#
#
# Indices 1 2 3 4 5 6 
#
# 1 0.014378 -0.005292 -0.003229 0.000000 0.000000 0.000000
# 2 -0.005292 0.012206 -0.006466 0.000000 0.000000 0.000000
# 3 -0.003229 -0.006466 0.025876 0.000000 0.000000 0.000000
# 4 0.000000 0.000000 0.000000 0.033895 0.000000 0.000000
# 5 0.000000 0.000000 0.000000 0.000000 0.050442 0.000000
# 6 0.000000 0.000000 0.000000 0.000000 0.000000 -0.064777
#
#
# Mechanical properties :
#
#
# Convention : Reuss Voigt Hill
#
# Bulk Modulus (GPa) = 44.47412 56.82345 50.64878
# Shear Modulus (GPa) = 45.66671 17.04729 31.35700
#
# Velocity S-wave (km/s) = 4.89082 2.98820 4.05274
# Velocity P-wave (km/s) = 7.42892 6.45521 6.95911
#
# Compressibility (1/GPa) = 0.02248499
#
# Stress axis : x y z
#
# Youngs Moduli (GPa) = 69.55237 81.93009 38.64593
#
# Poissons Ratio (x) = 0.43361 0.12479
# Poissons Ratio (y) = 0.36810 0.24987
# Poissons Ratio (z) = 0.22459 0.52972
#
# Static dielectric constant tensor:
#      x y z
#    x 1.640820 0.000000 0.000000 
#    y 0.000000 1.691570 0.000000 
#    z 0.000000 0.000000 1.640830 
# 
# From -- ./inp_files/6510.got.cif
#   From: 2010.05.17/outbox.cif.g08.bks.cpg/sg49_4_cif.got.tgz:6510.got - 2010.06.03 21:02:19.
