data_PCOD9393613
_publ_section_title
;
Structure prediction by ZEFSAII (Michael W. Deem and Ramdas Pophale) SiO2 
 PCOD9393613
Probable space group: P C C M
;
_chemical_formula_sum "Si O2"
_cell_formula_units_Z 48
_cell_length_a 10.032918
_cell_length_b 7.753762
_cell_length_c 29.748505
_cell_angle_alpha 90.000000
_cell_angle_beta 90.000000
_cell_angle_gamma 90.000000
_cell_volume 2314.221235
_symmetry_space_group_name_H-M "P C C M"
_symmetry_group_IT_number 49
_symmetry_cell_setting 'orthorhombic'
loop_
_space_group_symop_operation_xyz
x,y,z
-x,-y,z
x,-y,1/2-z
-x,y,1/2-z
-x,-y,-z
x,y,-z
-x,y,1/2+z
x,-y,1/2+z
loop_
_atom_site_type_symbol
_atom_site_label
_atom_site_fract_x
_atom_site_fract_y
_atom_site_fract_z
Si Si1 0.660363 0.200486 0.752697
Si Si2 0.797597 0.359123 0.407834
Si Si3 0.338362 0.498152 0.179827
Si Si4 0.952123 0.804630 0.553190
Si Si5 0.320524 0.672313 0.051321
Si Si6 0.419047 0.824683 0.447144
O O1 0.500000 0.188342 0.750000
O O2 0.693702 0.317417 0.796640
O O3 0.693779 0.334828 0.712479
O O4 0.709967 0.000000 0.750000
O O5 0.750127 0.460102 0.363840
O O6 0.948858 0.311578 0.417363
O O7 0.739858 0.482816 0.446742
O O8 0.708136 0.189807 0.415492
O O9 0.500000 0.500000 0.172557
O O10 0.957894 0.752402 0.500000
O O11 0.800348 0.786475 0.569380
O O12 0.000000 0.000000 0.555296
O O13 0.468434 0.689698 0.069889
O O14 0.340379 0.728451 0.000000
O O15 0.381761 0.808177 0.500000
O O16 0.500000 0.000000 0.442649
#
# Coordination Sequence:
#
# PCOD9393613 Si02
#       6
#     8   8   8   8   8   8
#     4   8  15  33  56  77 110 157 184 212 278 362
#     4  12  21  33  52  83 115 142 185 249 294 331
#     4   9  18  32  51  83 120 144 181 232 285 352
#     4  10  21  38  56  74 106 155 206 244 280 339
#     4  10  20  34  53  74 103 149 195 230 279 337
#     4  10  20  34  50  73 111 156 195 237 293 343
#
# _framework density 20.741320000000002
#
# number of rings (size 3 to 8) (size 9 to 14) (size 15 to 20)
#    0.000    2.167    0.000    5.500    0.000    5.333 
#   12.000    0.000    0.000    0.000    0.000    9.333 
#    0.000    0.000    0.000    0.000    0.000    0.000 
#
# Total GULP energy -267399.129277 kJ/mol
# GULP energy per Si atom -5570.815193 kJ/mol
# Density = 2.069411 g / cm^3
# Si number density = 20.741320 Si / 1000 Ang^3
#
#
#
# Elastic Constant Matrix: (Units=GPa)
#
#
# Indices 1 2 3 4 5 6 
#
# 1 48.2245 11.9823 23.8650 0.0000 0.0000 0.0000
# 2 11.9823 135.1694 40.7925 0.0000 0.0000 0.0000
# 3 23.8650 40.7925 79.5329 0.0000 0.0000 0.0000
# 4 0.0000 0.0000 0.0000 13.2820 0.0000 0.0000
# 5 0.0000 0.0000 0.0000 0.0000 16.7809 0.0000
# 6 0.0000 0.0000 0.0000 0.0000 0.0000 31.4223
#
#
#
# Elastic Compliance Matrix: (Units=1/GPa)
#
#
# Indices 1 2 3 4 5 6 
#
# 1 0.024353 0.000055 -0.007336 0.000000 0.000000 0.000000
# 2 0.000055 0.008753 -0.004506 0.000000 0.000000 0.000000
# 3 -0.007336 -0.004506 0.017086 0.000000 0.000000 0.000000
# 4 0.000000 0.000000 0.000000 0.075290 0.000000 0.000000
# 5 0.000000 0.000000 0.000000 0.000000 0.059592 0.000000
# 6 0.000000 0.000000 0.000000 0.000000 0.000000 0.031824
#
#
# Mechanical properties :
#
#
# Convention : Reuss Voigt Hill
#
# Bulk Modulus (GPa) = 37.56791 46.24516 41.90653
# Shear Modulus (GPa) = 20.05261 24.71616 22.38439
#
# Velocity S-wave (km/s) = 3.11271 3.45576 3.28871
# Velocity P-wave (km/s) = 5.57409 6.18608 5.88804
#
# Compressibility (1/GPa) = 0.02661846
#
# Stress axis : x y z
#
# Youngs Moduli (GPa) = 41.06285 114.24526 58.52841
#
# Poissons Ratio (x) = -0.00629 0.42934
# Poissons Ratio (y) = -0.00226 0.26373
# Poissons Ratio (z) = 0.30122 0.51479
#
# Static dielectric constant tensor:
#      x y z
#    x 1.791060 0.000000 0.000000 
#    y 0.000000 1.902050 0.000000 
#    z 0.000000 0.000000 1.774060 
# 
# From -- ./inp_files/26299.got.cif
#   From: 2010.05.17/outbox.cif.g08.bks.cpg/sg49_14_cif.got.tgz:26299.got - 2010.06.03 21:02:19.
