data_PCOD9393055
_publ_section_title
;
Structure prediction by ZEFSAII (Michael W. Deem and Ramdas Pophale) SiO2 
 PCOD9393055
Probable space group: P C C M
;
_chemical_formula_sum "Si O2"
_cell_formula_units_Z 48
_cell_length_a 14.798726
_cell_length_b 21.125421
_cell_length_c 8.610665
_cell_angle_alpha 90.000000
_cell_angle_beta 90.000000
_cell_angle_gamma 90.000000
_cell_volume 2691.946318
_symmetry_space_group_name_H-M "P C C M"
_symmetry_group_IT_number 49
_symmetry_cell_setting 'orthorhombic'
loop_
_space_group_symop_operation_xyz
x,y,z
-x,-y,z
x,-y,1/2-z
-x,y,1/2-z
-x,-y,-z
x,y,-z
-x,y,1/2+z
x,-y,1/2+z
loop_
_atom_site_type_symbol
_atom_site_label
_atom_site_fract_x
_atom_site_fract_y
_atom_site_fract_z
Si Si1 0.213285 0.809509 0.189194
Si Si2 0.101355 0.685088 0.186763
Si Si3 0.596131 0.759672 0.686359
Si Si4 0.785901 0.566865 0.815229
Si Si5 0.100835 0.068881 0.687036
Si Si6 0.597190 0.389773 0.186175
O O1 0.152350 0.749513 0.235945
O O2 0.315751 0.797220 0.242326
O O3 0.167548 0.875038 0.237798
O O4 0.214785 0.809589 0.000000
O O5 0.156869 0.625055 0.247984
O O6 0.000000 0.684487 0.250000
O O7 0.100504 0.683285 0.000000
O O8 0.500000 0.781923 0.750000
O O9 0.593590 0.762931 0.500000
O O10 0.606423 0.685145 0.726366
O O11 0.819872 0.500000 0.750000
O O12 0.682478 0.575784 0.760218
O O13 0.790242 0.567130 0.000000
O O14 0.097514 0.067022 0.500000
O O15 0.000000 0.081827 0.750000
O O16 0.128021 0.000000 0.750000
O O17 0.500000 0.411134 0.250000
O O18 0.599864 0.396064 0.000000
#
# Coordination Sequence:
#
# PCOD9393055 Si02
#       6
#     8   8   8   8   8   8
#     4   9  18  34  57  81 112 148 180 221 275 323
#     4  11  22  40  60  83 110 141 181 230 280 331
#     4   9  17  32  53  80 110 142 176 219 270 322
#     4  12  25  41  59  81 108 145 186 228 280 335
#     4  10  19  33  53  79 113 150 185 223 269 321
#     4  10  19  35  58  83 113 144 179 226 278 333
#
# _framework density 17.830964000000002
#
# number of rings (size 3 to 8) (size 9 to 14) (size 15 to 20)
#    0.000    1.833    1.667    4.000    0.000    1.333 
#    0.000    7.500    0.000    0.500    0.000    3.500 
#    0.000    0.000    0.000    0.000    0.000    0.000 
#
# Total GULP energy -268109.789129 kJ/mol
# GULP energy per Si atom -5585.620607 kJ/mol
# Density = 1.779038 g / cm^3
# Si number density = 17.830964 Si / 1000 Ang^3
#
#
#
# Elastic Constant Matrix: (Units=GPa)
#
#
# Indices 1 2 3 4 5 6 
#
# 1 139.9439 82.7677 33.9224 0.0000 0.0000 0.0000
# 2 82.7677 131.2468 35.4719 0.0000 0.0000 0.0000
# 3 33.9224 35.4719 61.5319 0.0000 0.0000 0.0000
# 4 0.0000 0.0000 0.0000 -4.6956 0.0000 0.0000
# 5 0.0000 0.0000 0.0000 0.0000 32.2141 0.0000
# 6 0.0000 0.0000 0.0000 0.0000 0.0000 1.8559
#
#
#
# Elastic Compliance Matrix: (Units=1/GPa)
#
#
# Indices 1 2 3 4 5 6 
#
# 1 0.011740 -0.006698 -0.002611 0.000000 0.000000 0.000000
# 2 -0.006698 0.012847 -0.003713 0.000000 0.000000 0.000000
# 3 -0.002611 -0.003713 0.019832 0.000000 0.000000 0.000000
# 4 0.000000 0.000000 0.000000 -0.212967 0.000000 0.000000
# 5 0.000000 0.000000 0.000000 0.000000 0.031042 0.000000
# 6 0.000000 0.000000 0.000000 0.000000 0.000000 0.538829
#
#
# Mechanical properties :
#
#
# Convention : Reuss Voigt Hill
#
# Bulk Modulus (GPa) = 54.42462 70.78297 62.60380
# Shear Modulus (GPa) = 11.53425 17.91226 14.72326
#
# Velocity S-wave (km/s) = 2.54612 3.17292 2.87664
# Velocity P-wave (km/s) = 6.26358 7.29425 6.79847
#
# Compressibility (1/GPa) = 0.01837404
#
# Stress axis : x y z
#
# Youngs Moduli (GPa) = 85.17896 77.84111 50.42390
#
# Poissons Ratio (x) = 0.52137 0.13166
# Poissons Ratio (y) = 0.57052 0.18724
# Poissons Ratio (z) = 0.22241 0.28905
#
# Static dielectric constant tensor:
#      x y z
#    x 1.600450 0.000000 0.000000 
#    y 0.000000 1.603620 0.000000 
#    z 0.000000 0.000000 1.602180 
# 
# From -- ./inp_files/3697.got.cif
#   From: 2010.05.17/outbox.cif.g08.bks.cpg/sg49_2_cif.got.tgz:3697.got - 2010.06.03 21:02:19.
