data_PCOD9393291
_publ_section_title
;
Structure prediction by ZEFSAII (Michael W. Deem and Ramdas Pophale) SiO2 
 PCOD9393291
Probable space group: P C C M
;
_chemical_formula_sum "Si O2"
_cell_formula_units_Z 64
_cell_length_a 24.596169
_cell_length_b 15.832370
_cell_length_c 8.541466
_cell_angle_alpha 90.000000
_cell_angle_beta 90.000000
_cell_angle_gamma 90.000000
_cell_volume 3326.180519
_symmetry_space_group_name_H-M "P C C M"
_symmetry_group_IT_number 49
_symmetry_cell_setting 'orthorhombic'
loop_
_space_group_symop_operation_xyz
x,y,z
-x,-y,z
x,-y,1/2-z
-x,y,1/2-z
-x,-y,-z
x,y,-z
-x,y,1/2+z
x,-y,1/2+z
loop_
_atom_site_type_symbol
_atom_site_label
_atom_site_fract_x
_atom_site_fract_y
_atom_site_fract_z
Si Si1 0.060851 0.407647 0.311741
Si Si2 0.442573 0.848782 0.688180
Si Si3 0.133972 0.750000 0.190643
Si Si4 0.740759 0.250000 0.188206
Si Si5 0.325493 0.910002 0.687915
Si Si6 0.442573 0.348782 0.811820
Si Si7 0.060851 0.907647 0.811741
Si Si8 0.674507 0.410002 0.312085
O O1 0.077157 0.500000 0.250000
O O2 0.059251 0.409785 0.500000
O O3 0.101403 0.333667 0.259915
O O4 0.000000 0.390530 0.250000
O O5 0.500000 0.882241 0.750000
O O6 0.443908 0.850755 0.500000
O O7 0.388060 0.895367 0.741390
O O8 0.438105 0.750000 0.736707
O O9 0.196465 0.750000 0.240956
O O10 0.101403 0.833667 0.240085
O O11 0.133830 0.750000 0.000000
O O12 0.710060 0.167322 0.250077
O O13 0.710060 0.332678 0.250077
O O14 0.739328 0.250000 0.000000
O O15 0.324779 0.908924 0.500000
O O16 0.305986 0.000000 0.750000
O O17 0.500000 0.382241 0.750000
O O18 0.388060 0.395367 0.758610
O O19 0.443908 0.350755 0.000000
O O20 0.000000 0.890530 0.750000
O O21 0.077157 0.000000 0.750000
O O22 0.059251 0.909785 0.000000
O O23 0.694014 0.500000 0.250000
O O24 0.675221 0.408924 0.500000
#
# Coordination Sequence:
#
# PCOD9393291 Si02
#       8
#     8   8   8   8   8   8   8   8
#     4  10  19  35  57  85 119 152 186 230 278 333
#     4   9  18  34  56  82 114 147 183 231 287 347
#     4   9  21  38  58  83 115 150 191 237 282 335
#     4  11  23  42  63  85 114 154 198 245 296 343
#     4  11  23  41  61  86 117 152 194 242 292 348
#     4   9  18  34  56  82 114 147 183 231 287 347
#     4  10  19  35  57  85 119 152 186 230 278 333
#     4  11  23  41  61  86 117 152 194 242 292 348
#
# _framework density 19.241288999999998
#
# number of rings (size 3 to 8) (size 9 to 14) (size 15 to 20)
#    0.000    2.000    1.250    3.000    0.000    3.500 
#    0.000   11.875    0.000    0.000    0.000    0.000 
#    0.000    0.000    0.000    0.000    0.000    0.000 
#
# Total GULP energy -357505.282694 kJ/mol
# GULP energy per Si atom -5586.020042 kJ/mol
# Density = 1.919749 g / cm^3
# Si number density = 19.241289 Si / 1000 Ang^3
#
#
#
# Elastic Constant Matrix: (Units=GPa)
#
#
# Indices 1 2 3 4 5 6 
#
# 1 151.2056 112.7291 34.7695 0.0000 0.0000 0.0000
# 2 112.7291 170.9136 38.8484 0.0000 0.0000 0.0000
# 3 34.7695 38.8484 50.3963 0.0000 0.0000 0.0000
# 4 0.0000 0.0000 0.0000 20.4173 0.0000 0.0000
# 5 0.0000 0.0000 0.0000 0.0000 24.0282 0.0000
# 6 0.0000 0.0000 0.0000 0.0000 0.0000 -25.9667
#
#
#
# Elastic Compliance Matrix: (Units=1/GPa)
#
#
# Indices 1 2 3 4 5 6 
#
# 1 0.013362 -0.008145 -0.002940 0.000000 0.000000 0.000000
# 2 -0.008145 0.012058 -0.003676 0.000000 0.000000 0.000000
# 3 -0.002940 -0.003676 0.024705 0.000000 0.000000 0.000000
# 4 0.000000 0.000000 0.000000 0.048978 0.000000 0.000000
# 5 0.000000 0.000000 0.000000 0.000000 0.041618 0.000000
# 6 0.000000 0.000000 0.000000 0.000000 0.000000 -0.038511
#
#
# Mechanical properties :
#
#
# Convention : Reuss Voigt Hill
#
# Bulk Modulus (GPa) = 48.53617 82.80106 65.66861
# Shear Modulus (GPa) = 36.07501 16.10698 26.09100
#
# Velocity S-wave (km/s) = 4.33468 2.89642 3.68637
# Velocity P-wave (km/s) = 7.09453 7.36967 7.23341
#
# Compressibility (1/GPa) = 0.02060319
#
# Stress axis : x y z
#
# Youngs Moduli (GPa) = 74.84063 82.92937 40.47758
#
# Poissons Ratio (x) = 0.67543 0.11901
# Poissons Ratio (y) = 0.60955 0.14880
# Poissons Ratio (z) = 0.22004 0.30486
#
# Static dielectric constant tensor:
#      x y z
#    x 1.658760 0.000000 0.000000 
#    y 0.000000 1.697700 0.000000 
#    z 0.000000 0.000000 1.651900 
# 
# From -- ./inp_files/6508.got.cif
#   From: 2010.05.17/outbox.cif.g08.bks.cpg/sg49_4_cif.got.tgz:6508.got - 2010.06.03 21:02:19.
