data_PCOD9393026
_publ_section_title
;
Structure prediction by ZEFSAII (Michael W. Deem and Ramdas Pophale) SiO2 
 PCOD9393026
Probable space group: P C C M
;
_chemical_formula_sum "Si O2"
_cell_formula_units_Z 56
_cell_length_a 13.298512
_cell_length_b 21.896255
_cell_length_c 9.851097
_cell_angle_alpha 90.000000
_cell_angle_beta 90.000000
_cell_angle_gamma 90.000000
_cell_volume 2868.517390
_symmetry_space_group_name_H-M "P C C M"
_symmetry_group_IT_number 49
_symmetry_cell_setting 'orthorhombic'
loop_
_space_group_symop_operation_xyz
x,y,z
-x,-y,z
x,-y,1/2-z
-x,y,1/2-z
-x,-y,-z
x,y,-z
-x,y,1/2+z
x,-y,1/2+z
loop_
_atom_site_type_symbol
_atom_site_label
_atom_site_fract_x
_atom_site_fract_y
_atom_site_fract_z
Si Si1 0.313007 0.852997 0.249378
Si Si2 0.599783 0.074926 0.000000
Si Si3 0.359015 0.063585 0.000000
Si Si4 0.404172 0.589681 0.662281
Si Si5 0.659801 0.275629 0.344337
Si Si6 0.797502 0.444423 0.162748
Si Si7 0.838549 0.688115 0.349191
Si Si8 0.088476 0.818270 0.154864
O O1 0.367225 0.886770 0.128465
O O2 0.315936 0.900212 0.372421
O O3 0.369728 0.789367 0.282447
O O4 0.198656 0.836233 0.208903
O O5 0.480012 0.068839 0.000000
O O6 0.654892 0.009213 0.000000
O O7 0.500000 0.568561 0.750000
O O8 0.400621 0.571159 0.500000
O O9 0.407992 0.663958 0.659818
O O10 0.305947 0.570503 0.751845
O O11 0.684485 0.262984 0.500000
O O12 0.758622 0.296324 0.264874
O O13 0.842167 0.500000 0.250000
O O14 0.864767 0.382823 0.167824
O O15 0.780184 0.457269 0.000000
O O16 0.789249 0.691763 0.500000
O O17 0.915669 0.743826 0.347256
O O18 0.000000 0.841518 0.250000
O O19 0.078101 0.839186 0.000000
#
# Coordination Sequence:
#
# PCOD9393026 Si02
#       8
#     8   4   4   8   8   8   8   8
#     4  11  21  40  61  90 124 158 203 255 304 356
#     4  11  24  42  61  89 123 165 209 256 292 352
#     4  11  24  40  65  89 119 165 215 248 298 346
#     4  10  20  33  46  68 101 137 183 240 298 352
#     4   9  18  32  50  76 105 141 185 232 293 354
#     4  10  19  33  52  73 100 141 188 233 285 347
#     4   8  17  33  54  79 110 143 181 231 286 342
#     4  10  21  37  63  95 124 156 194 245 307 370
#
# _framework density 19.522279999999999
#
# number of rings (size 3 to 8) (size 9 to 14) (size 15 to 20)
#    0.000    2.143    1.429    1.714    2.000    4.286 
#    0.000    1.429    0.000    3.000    0.000    3.000 
#    0.000    0.000    0.000    0.000    0.000    0.000 
#
# Total GULP energy -311890.157875 kJ/mol
# GULP energy per Si atom -5569.467105 kJ/mol
# Density = 1.947785 g / cm^3
# Si number density = 19.522280 Si / 1000 Ang^3
#
#
#
# Elastic Constant Matrix: (Units=GPa)
#
#
# Indices 1 2 3 4 5 6 
#
# 1 36.6740 1.3151 27.0423 0.0000 0.0000 0.0000
# 2 1.3151 125.2956 56.5421 0.0000 0.0000 0.0000
# 3 27.0423 56.5421 162.6331 0.0000 0.0000 0.0000
# 4 0.0000 0.0000 0.0000 -74.5379 0.0000 0.0000
# 5 0.0000 0.0000 0.0000 0.0000 12.3623 0.0000
# 6 0.0000 0.0000 0.0000 0.0000 0.0000 8.7273
#
#
#
# Elastic Compliance Matrix: (Units=1/GPa)
#
#
# Indices 1 2 3 4 5 6 
#
# 1 0.031687 0.002426 -0.006112 0.000000 0.000000 0.000000
# 2 0.002426 0.009652 -0.003759 0.000000 0.000000 0.000000
# 3 -0.006112 -0.003759 0.008472 0.000000 0.000000 0.000000
# 4 0.000000 0.000000 0.000000 -0.013416 0.000000 0.000000
# 5 0.000000 0.000000 0.000000 0.000000 0.080891 0.000000
# 6 0.000000 0.000000 0.000000 0.000000 0.000000 0.114583
#
#
# Mechanical properties :
#
#
# Convention : Reuss Voigt Hill
#
# Bulk Modulus (GPa) = 28.63677 54.93352 41.78514
# Shear Modulus (GPa) = 19.34983 5.29057 12.32020
#
# Velocity S-wave (km/s) = 3.15170 1.64800 2.51486
# Velocity P-wave (km/s) = 5.28629 5.64103 5.46654
#
# Compressibility (1/GPa) = 0.03492014
#
# Stress axis : x y z
#
# Youngs Moduli (GPa) = 31.55845 103.60550 118.03564
#
# Poissons Ratio (x) = -0.25131 0.72146
# Poissons Ratio (y) = -0.07655 0.44370
# Poissons Ratio (z) = 0.19289 0.38945
#
# Static dielectric constant tensor:
#      x y z
#    x 1.660850 0.000000 0.000000 
#    y 0.000000 1.732190 0.000000 
#    z 0.000000 0.000000 1.644720 
# 
# From -- ./inp_files/4129.got.cif
#   From: 2010.05.17/outbox.cif.g08.bks.cpg/sg49_3_cif.got.tgz:4129.got - 2010.06.03 21:02:19.
