data_PCOD9393863
_publ_section_title
;
Structure prediction by ZEFSAII (Michael W. Deem and Ramdas Pophale) SiO2 
 PCOD9393863
Probable space group: P C C M
;
_chemical_formula_sum "Si O2"
_cell_formula_units_Z 48
_cell_length_a 9.076363
_cell_length_b 29.788163
_cell_length_c 9.806509
_cell_angle_alpha 90.000000
_cell_angle_beta 90.000000
_cell_angle_gamma 90.000000
_cell_volume 2651.367995
_symmetry_space_group_name_H-M "P C C M"
_symmetry_group_IT_number 49
_symmetry_cell_setting 'orthorhombic'
loop_
_space_group_symop_operation_xyz
x,y,z
-x,-y,z
x,-y,1/2-z
-x,y,1/2-z
-x,-y,-z
x,y,-z
-x,y,1/2+z
x,-y,1/2+z
loop_
_atom_site_type_symbol
_atom_site_label
_atom_site_fract_x
_atom_site_fract_y
_atom_site_fract_z
Si Si1 0.150968 0.456605 0.165536
Si Si2 0.840912 0.937219 0.500000
Si Si3 0.645349 0.630515 0.159820
Si Si4 0.676666 0.099632 0.738331
Si Si5 0.354133 0.799633 0.339767
Si Si6 0.146715 0.715030 0.661785
Si Si7 0.186059 0.955879 0.500000
O O1 0.208964 0.500000 0.250000
O O2 0.260328 0.414807 0.177543
O O3 0.000000 0.446425 0.250000
O O4 0.128603 0.464383 0.000000
O O5 0.766214 0.913012 0.627483
O O6 0.018368 0.937429 0.500000
O O7 0.807542 0.990459 0.500000
O O8 0.500000 0.629961 0.250000
O O9 0.748000 0.672978 0.194406
O O10 0.605917 0.634423 0.000000
O O11 0.500000 0.096165 0.750000
O O12 0.706486 0.150816 0.693502
O O13 0.731771 0.064248 0.628738
O O14 0.500000 0.792528 0.250000
O O15 0.392951 0.798152 0.500000
O O16 0.236336 0.760806 0.312448
O O17 0.112530 0.712819 0.500000
O O18 0.000000 0.713217 0.750000
#
# Coordination Sequence:
#
# PCOD9393863 Si02
#       7
#     8   4   8   8   8   8   4
#     4  10  20  35  56  84 115 154 197 245 296 352
#     4  11  25  39  63  87 117 165 191 241 300 347
#     4  10  22  38  58  84 117 154 198 244 295 350
#     4  11  23  40  62  90 118 154 198 244 292 350
#     4  10  22  40  62  87 118 151 188 236 288 344
#     4  10  22  40  60  89 119 151 194 240 289 347
#     4  11  23  43  59  87 125 151 201 241 292 355
#
# _framework density 18.103863
#
# number of rings (size 3 to 8) (size 9 to 14) (size 15 to 20)
#    0.000    1.667    0.833    3.500    3.500    7.667 
#    0.000    1.667    0.000    0.000    0.000    0.000 
#    0.000    0.000    0.000    0.000    0.000    0.000 
#
# Total GULP energy -267961.268215 kJ/mol
# GULP energy per Si atom -5582.526421 kJ/mol
# Density = 1.806266 g / cm^3
# Si number density = 18.103863 Si / 1000 Ang^3
#
#
#
# Elastic Constant Matrix: (Units=GPa)
#
#
# Indices 1 2 3 4 5 6 
#
# 1 100.8794 83.1867 61.2857 0.0000 0.0000 0.0000
# 2 83.1867 124.3448 55.2565 0.0000 0.0000 0.0000
# 3 61.2857 55.2565 114.0375 0.0000 0.0000 0.0000
# 4 0.0000 0.0000 0.0000 28.9784 0.0000 0.0000
# 5 0.0000 0.0000 0.0000 0.0000 30.0826 0.0000
# 6 0.0000 0.0000 0.0000 0.0000 0.0000 27.4115
#
#
#
# Elastic Compliance Matrix: (Units=1/GPa)
#
#
# Indices 1 2 3 4 5 6 
#
# 1 0.025895 -0.014196 -0.007037 0.000000 0.000000 0.000000
# 2 -0.014196 0.018032 -0.001108 0.000000 0.000000 0.000000
# 3 -0.007037 -0.001108 0.013088 0.000000 0.000000 0.000000
# 4 0.000000 0.000000 0.000000 0.034508 0.000000 0.000000
# 5 0.000000 0.000000 0.000000 0.000000 0.033242 0.000000
# 6 0.000000 0.000000 0.000000 0.000000 0.000000 0.036481
#
#
# Mechanical properties :
#
#
# Convention : Reuss Voigt Hill
#
# Bulk Modulus (GPa) = 81.09594 82.07997 81.58795
# Shear Modulus (GPa) = 23.80508 26.59668 25.20088
#
# Velocity S-wave (km/s) = 3.63011 3.83706 3.73502
# Velocity P-wave (km/s) = 7.90331 8.06645 7.98530
#
# Compressibility (1/GPa) = 0.01233107
#
# Stress axis : x y z
#
# Youngs Moduli (GPa) = 38.61811 55.45770 76.40605
#
# Poissons Ratio (x) = 0.78729 0.53771
# Poissons Ratio (y) = 0.54823 0.08466
# Poissons Ratio (z) = 0.27177 0.06145
#
# Static dielectric constant tensor:
#      x y z
#    x 1.582580 0.000000 0.000000 
#    y 0.000000 1.610010 0.000000 
#    z 0.000000 0.000000 1.591640 
# 
# From -- ./inp_files/2158.got.cif
#   From: 2010.05.17/outbox.cif.g08.bks.cpg/sg49_2_cif.got.tgz:2158.got - 2010.06.03 21:02:19.
