data_PCOD9393927
_publ_section_title
;
Structure prediction by ZEFSAII (Michael W. Deem and Ramdas Pophale) SiO2 
 PCOD9393927
Probable space group: P C C M
;
_chemical_formula_sum "Si O2"
_cell_formula_units_Z 64
_cell_length_a 19.144850
_cell_length_b 8.692627
_cell_length_c 17.563623
_cell_angle_alpha 90.000000
_cell_angle_beta 90.000000
_cell_angle_gamma 90.000000
_cell_volume 2922.921279
_symmetry_space_group_name_H-M "P C C M"
_symmetry_group_IT_number 49
_symmetry_cell_setting 'orthorhombic'
loop_
_space_group_symop_operation_xyz
x,y,z
-x,-y,z
x,-y,1/2-z
-x,y,1/2-z
-x,-y,-z
x,y,-z
-x,y,1/2+z
x,-y,1/2+z
loop_
_atom_site_type_symbol
_atom_site_label
_atom_site_fract_x
_atom_site_fract_y
_atom_site_fract_z
Si Si1 0.423207 0.320542 0.721543
Si Si2 0.428320 0.904367 0.912154
Si Si3 0.149963 0.370371 0.811245
Si Si4 0.922934 0.063068 0.665615
Si Si5 0.788746 0.028209 0.083979
Si Si6 0.724643 0.757933 0.709983
Si Si7 0.664794 0.181793 0.414408
Si Si8 0.267421 0.511414 0.589755
O O1 0.417578 0.500000 0.750000
O O2 0.500000 0.270027 0.750000
O O3 0.427676 0.254129 0.634908
O O4 0.351902 0.232967 0.747727
O O5 0.500000 0.000000 0.908875
O O6 0.374522 0.033511 0.881086
O O7 0.411075 0.868449 0.000000
O O8 0.127239 0.500000 0.750000
O O9 0.090604 0.246333 0.829964
O O10 0.214980 0.284978 0.769027
O O11 0.188458 0.442217 0.884628
O O12 0.904699 0.000000 0.750000
O O13 0.868617 0.999367 0.604168
O O14 0.000000 0.000000 0.649747
O O15 0.755157 0.110921 0.156475
O O16 0.745433 0.871146 0.079817
O O17 0.780010 0.102536 0.000000
O O18 0.715369 0.621296 0.649220
O O19 0.633557 0.186903 0.500000
O O20 0.673990 0.358666 0.393758
O O21 0.269635 0.476766 0.500000
#
# Coordination Sequence:
#
# PCOD9393927 Si02
#       8
#     8   8   8   8   8   8   8   8
#     4  11  25  44  61  91 138 177 222 277 347 416
#     4  10  22  41  65  93 126 170 224 280 341 408
#     4  10  21  38  63  92 126 174 219 268 330 393
#     4  11  23  41  63  95 136 178 223 268 331 415
#     4  11  21  38  68 101 129 169 220 277 333 386
#     4  11  22  40  64  91 131 177 223 274 329 402
#     4   9  18  34  60  92 122 156 206 263 324 384
#     4  10  20  35  62  99 132 163 212 275 334 393
#
# _framework density 21.895903000000001
#
# number of rings (size 3 to 8) (size 9 to 14) (size 15 to 20)
#    0.000    1.625    3.750    1.500    0.000    4.000 
#    0.000    3.750    0.000    0.000    0.000    2.625 
#    0.000    0.000    0.000    0.000    0.000    0.000 
#
# Total GULP energy -356573.567194 kJ/mol
# GULP energy per Si atom -5571.461987 kJ/mol
# Density = 2.184607 g / cm^3
# Si number density = 21.895903 Si / 1000 Ang^3
#
#
#
# Elastic Constant Matrix: (Units=GPa)
#
#
# Indices 1 2 3 4 5 6 
#
# 1 133.8027 28.1204 17.7625 0.0000 0.0000 0.0000
# 2 28.1204 80.3096 34.0396 0.0000 0.0000 0.0000
# 3 17.7625 34.0396 96.6533 0.0000 0.0000 0.0000
# 4 0.0000 0.0000 0.0000 23.2490 0.0000 0.0000
# 5 0.0000 0.0000 0.0000 0.0000 23.0070 0.0000
# 6 0.0000 0.0000 0.0000 0.0000 0.0000 21.6908
#
#
#
# Elastic Compliance Matrix: (Units=1/GPa)
#
#
# Indices 1 2 3 4 5 6 
#
# 1 0.008094 -0.002590 -0.000575 0.000000 0.000000 0.000000
# 2 -0.002590 0.015466 -0.004971 0.000000 0.000000 0.000000
# 3 -0.000575 -0.004971 0.012203 0.000000 0.000000 0.000000
# 4 0.000000 0.000000 0.000000 0.043013 0.000000 0.000000
# 5 0.000000 0.000000 0.000000 0.000000 0.043465 0.000000
# 6 0.000000 0.000000 0.000000 0.000000 0.000000 0.046102
#
#
# Mechanical properties :
#
#
# Convention : Reuss Voigt Hill
#
# Bulk Modulus (GPa) = 51.30849 52.29007 51.79928
# Shear Modulus (GPa) = 26.16264 28.97891 27.57078
#
# Velocity S-wave (km/s) = 3.46043 3.64192 3.55234
# Velocity P-wave (km/s) = 6.28092 6.45119 6.36662
#
# Compressibility (1/GPa) = 0.01948995
#
# Stress axis : x y z
#
# Youngs Moduli (GPa) = 123.54107 64.65917 81.95000
#
# Poissons Ratio (x) = 0.16750 0.04714
# Poissons Ratio (y) = 0.32003 0.40735
# Poissons Ratio (z) = 0.07107 0.32140
#
# Static dielectric constant tensor:
#      x y z
#    x 1.829420 0.000000 0.000000 
#    y 0.000000 1.906840 0.000000 
#    z 0.000000 0.000000 1.914070 
# 
# From -- ./inp_files/18342.got.cif
#   From: 2010.05.17/outbox.cif.g08.bks.cpg/sg49_10_cif.got.tgz:18342.got - 2010.06.03 21:02:19.
