data_PCOD9393627
_publ_section_title
;
Structure prediction by ZEFSAII (Michael W. Deem and Ramdas Pophale) SiO2 
 PCOD9393627
Probable space group: P C C M
;
_chemical_formula_sum "Si O2"
_cell_formula_units_Z 40
_cell_length_a 8.047159
_cell_length_b 28.043436
_cell_length_c 8.643679
_cell_angle_alpha 90.000000
_cell_angle_beta 90.000000
_cell_angle_gamma 90.000000
_cell_volume 1950.618940
_symmetry_space_group_name_H-M "P C C M"
_symmetry_group_IT_number 49
_symmetry_cell_setting 'orthorhombic'
loop_
_space_group_symop_operation_xyz
x,y,z
-x,-y,z
x,-y,1/2-z
-x,y,1/2-z
-x,-y,-z
x,y,-z
-x,y,1/2+z
x,-y,1/2+z
loop_
_atom_site_type_symbol
_atom_site_label
_atom_site_fract_x
_atom_site_fract_y
_atom_site_fract_z
Si Si1 0.810615 0.951470 0.314722
Si Si2 0.314421 0.451900 0.684082
Si Si3 0.810609 0.152219 0.814687
Si Si4 0.814759 0.352577 0.685798
Si Si5 0.810473 0.750736 0.814786
O O1 0.817651 0.954532 0.500000
O O2 0.736427 0.899628 0.271924
O O3 0.000000 0.950701 0.250000
O O4 0.731539 0.000000 0.250000
O O5 0.228873 0.500000 0.750000
O O6 0.500000 0.452937 0.750000
O O7 0.313244 0.454466 0.500000
O O8 0.249898 0.401011 0.740135
O O9 0.731336 0.200715 0.749733
O O10 0.000000 0.151316 0.750000
O O11 0.817499 0.155374 0.000000
O O12 0.812000 0.357174 0.500000
O O13 0.733931 0.301052 0.726385
O O14 0.000000 0.348647 0.750000
O O15 0.000000 0.750363 0.750000
O O16 0.818644 0.753662 0.000000
#
# Coordination Sequence:
#
# PCOD9393627 Si02
#       5
#     8   8   8   8   8
#     4   9  15  20  26  37  54  81 118 164 210 254
#     4  11  22  38  58  78 101 130 161 195 234 280
#     4   9  15  21  30  44  64  91 127 168 213 262
#     4  10  20  34  51  75 102 128 161 200 240 283
#     4   9  16  25  39  57  80 108 139 177 221 267
#
# _framework density 20.506311
#
# number of rings (size 3 to 8) (size 9 to 14) (size 15 to 20)
#    0.000    2.400    0.000    6.600    0.000    5.200 
#    0.000    2.000    0.000    0.000    0.000    0.000 
#    0.000    0.000    0.000    0.000    0.000    1.000 
#
# Total GULP energy -222780.339018 kJ/mol
# GULP energy per Si atom -5569.508475 kJ/mol
# Density = 2.045964 g / cm^3
# Si number density = 20.506311 Si / 1000 Ang^3
#
#
#
# Elastic Constant Matrix: (Units=GPa)
#
#
# Indices 1 2 3 4 5 6 
#
# 1 8.0582 22.8754 0.7369 0.0000 0.0000 0.0000
# 2 22.8754 295.3177 90.3102 0.0000 0.0000 0.0000
# 3 0.7369 90.3102 115.5235 0.0000 0.0000 0.0000
# 4 0.0000 0.0000 0.0000 40.2451 0.0000 0.0000
# 5 0.0000 0.0000 0.0000 0.0000 8.8388 0.0000
# 6 0.0000 0.0000 0.0000 0.0000 0.0000 -22.1358
#
#
#
# Elastic Compliance Matrix: (Units=1/GPa)
#
#
# Indices 1 2 3 4 5 6 
#
# 1 0.171212 -0.016990 0.012190 0.000000 0.000000 0.000000
# 2 -0.016990 0.006136 -0.004688 0.000000 0.000000 0.000000
# 3 0.012190 -0.004688 0.012244 0.000000 0.000000 0.000000
# 4 0.000000 0.000000 0.000000 0.024848 0.000000 0.000000
# 5 0.000000 0.000000 0.000000 0.000000 0.113138 0.000000
# 6 0.000000 0.000000 0.000000 0.000000 0.000000 -0.045176
#
#
# Mechanical properties :
#
#
# Convention : Reuss Voigt Hill
#
# Bulk Modulus (GPa) = 5.86116 71.86050 38.86083
# Shear Modulus (GPa) = 13.95670 25.72141 19.83906
#
# Velocity S-wave (km/s) = 2.61167 3.54548 3.11378
# Velocity P-wave (km/s) = 3.45816 7.20276 5.64972
#
# Compressibility (1/GPa) = 0.17061471
#
# Stress axis : x y z
#
# Youngs Moduli (GPa) = 5.84070 162.97364 81.67512
#
# Poissons Ratio (x) = 2.76889 -0.99558
# Poissons Ratio (y) = 0.09923 0.38293
# Poissons Ratio (z) = -0.07120 0.76408
#
# Static dielectric constant tensor:
#      x y z
#    x 1.730030 0.000000 0.000000 
#    y 0.000000 1.900850 0.000000 
#    z 0.000000 0.000000 1.677360 
# 
# From -- ./inp_files/1894.got.cif
#   From: 2010.05.17/outbox.cif.g08.bks.cpg/sg49_1_cif.got.tgz:1894.got - 2010.06.03 21:02:19.
