data_PCOD9393487
_publ_section_title
;
Structure prediction by ZEFSAII (Michael W. Deem and Ramdas Pophale) SiO2 
 PCOD9393487
Probable space group: P C C M
;
_chemical_formula_sum "Si O2"
_cell_formula_units_Z 58
_cell_length_a 15.193796
_cell_length_b 22.478667
_cell_length_c 8.948082
_cell_angle_alpha 90.000000
_cell_angle_beta 90.000000
_cell_angle_gamma 90.000000
_cell_volume 3056.094646
_symmetry_space_group_name_H-M "P C C M"
_symmetry_group_IT_number 49
_symmetry_cell_setting 'orthorhombic'
loop_
_space_group_symop_operation_xyz
x,y,z
-x,-y,z
x,-y,1/2-z
-x,y,1/2-z
-x,-y,-z
x,y,-z
-x,y,1/2+z
x,-y,1/2+z
loop_
_atom_site_type_symbol
_atom_site_label
_atom_site_fract_x
_atom_site_fract_y
_atom_site_fract_z
Si Si1 0.225574 0.061996 0.679284
Si Si2 0.094552 0.833634 0.819853
Si Si3 0.405790 0.248894 0.820054
Si Si4 0.413675 0.441258 0.195252
Si Si5 0.500000 0.500000 0.000000
Si Si6 0.094473 0.303434 0.321610
Si Si7 0.593186 0.879883 0.320234
Si Si8 0.735538 0.649109 0.176876
O O1 0.219091 0.058018 0.500000
O O2 0.166091 0.117913 0.727961
O O3 0.326791 0.076481 0.716844
O O4 0.197094 0.000000 0.750000
O O5 0.116099 0.765333 0.777982
O O6 0.000000 0.847786 0.750000
O O7 0.088603 0.835256 0.000000
O O8 0.500000 0.265209 0.750000
O O9 0.384519 0.184734 0.748753
O O10 0.330853 0.296973 0.784588
O O11 0.413145 0.244319 0.000000
O O12 0.500000 0.404083 0.250000
O O13 0.424633 0.515518 0.139554
O O14 0.320548 0.410541 0.206956
O O15 0.439164 0.433798 0.000000
O O16 0.087592 0.306318 0.500000
O O17 0.173933 0.343857 0.264137
O O18 0.000000 0.318009 0.250000
O O19 0.500000 0.898211 0.250000
O O20 0.585763 0.874816 0.500000
O O21 0.753487 0.652055 0.000000
#
# Coordination Sequence:
#
# PCOD9393487 Si02
#       8
#     8   8   8   8   2   8   8   8
#     4  10  22  37  53  76 105 138 175 226 274 327
#     4   9  19  37  59  80 107 139 176 217 275 341
#     4  10  20  32  50  78 112 145 180 224 281 334
#     4   9  18  33  54  78 113 159 192 230 270 318
#     4   8  14  32  52  70 108 154 194 220 270 304
#     4  10  21  39  60  85 112 146 186 233 286 342
#     4  10  20  36  55  72 101 141 183 226 278 335
#     4  11  21  34  54  84 115 147 187 234 280 330
#
# _framework density 18.978470000000002
#
# number of rings (size 3 to 8) (size 9 to 14) (size 15 to 20)
#    0.000    2.345    0.690    3.310    0.000    4.966 
#    4.966    2.759    0.000    0.414    0.000    1.931 
#    0.000    0.000    0.000    0.000    0.000    0.000 
#
# Total GULP energy -322924.574518 kJ/mol
# GULP energy per Si atom -5567.665078 kJ/mol
# Density = 1.893527 g / cm^3
# Si number density = 18.978470 Si / 1000 Ang^3
#
#
#
# Elastic Constant Matrix: (Units=GPa)
#
#
# Indices 1 2 3 4 5 6 
#
# 1 137.1872 66.3923 49.1400 0.0000 0.0000 0.0000
# 2 66.3923 66.8421 26.7510 0.0000 0.0000 0.0000
# 3 49.1400 26.7510 77.4501 0.0000 0.0000 0.0000
# 4 0.0000 0.0000 0.0000 24.4859 0.0000 0.0000
# 5 0.0000 0.0000 0.0000 0.0000 34.5750 0.0000
# 6 0.0000 0.0000 0.0000 0.0000 0.0000 21.5979
#
#
#
# Elastic Compliance Matrix: (Units=1/GPa)
#
#
# Indices 1 2 3 4 5 6 
#
# 1 0.015721 -0.013487 -0.005316 0.000000 0.000000 0.000000
# 2 -0.013487 0.028932 -0.001436 0.000000 0.000000 0.000000
# 3 -0.005316 -0.001436 0.016780 0.000000 0.000000 0.000000
# 4 0.000000 0.000000 0.000000 0.040840 0.000000 0.000000
# 5 0.000000 0.000000 0.000000 0.000000 0.028923 0.000000
# 6 0.000000 0.000000 0.000000 0.000000 0.000000 0.046301
#
#
# Mechanical properties :
#
#
# Convention : Reuss Voigt Hill
#
# Bulk Modulus (GPa) = 47.72125 62.89398 55.30761
# Shear Modulus (GPa) = 22.22629 25.41151 23.81890
#
# Velocity S-wave (km/s) = 3.42589 3.66316 3.54651
# Velocity P-wave (km/s) = 6.39128 7.14865 6.78055
#
# Compressibility (1/GPa) = 0.02095503
#
# Stress axis : x y z
#
# Youngs Moduli (GPa) = 63.61019 34.56394 59.59428
#
# Poissons Ratio (x) = 0.46618 0.31679
# Poissons Ratio (y) = 0.85794 0.08555
# Poissons Ratio (z) = 0.33814 0.04962
#
# Static dielectric constant tensor:
#      x y z
#    x 1.618980 0.000000 0.000000 
#    y 0.000000 1.711790 0.000000 
#    z 0.000000 0.000000 1.738120 
# 
# From -- ./inp_files/4231.got.cif
#   From: 2010.05.17/outbox.cif.g08.bks.cpg/sg49_3_cif.got.tgz:4231.got - 2010.06.03 21:02:19.
