data_PCOD9393139
_publ_section_title
;
Structure prediction by ZEFSAII (Michael W. Deem and Ramdas Pophale) SiO2 
 PCOD9393139
Probable space group: P C C M
;
_chemical_formula_sum "Si O2"
_cell_formula_units_Z 48
_cell_length_a 14.635557
_cell_length_b 19.347991
_cell_length_c 9.157793
_cell_angle_alpha 90.000000
_cell_angle_beta 90.000000
_cell_angle_gamma 90.000000
_cell_volume 2593.199653
_symmetry_space_group_name_H-M "P C C M"
_symmetry_group_IT_number 49
_symmetry_cell_setting 'orthorhombic'
loop_
_space_group_symop_operation_xyz
x,y,z
-x,-y,z
x,-y,1/2-z
-x,y,1/2-z
-x,-y,-z
x,y,-z
-x,y,1/2+z
x,-y,1/2+z
loop_
_atom_site_type_symbol
_atom_site_label
_atom_site_fract_x
_atom_site_fract_y
_atom_site_fract_z
Si Si1 0.863950 0.431696 0.333156
Si Si2 0.642776 0.570215 0.167638
Si Si3 0.902965 0.925097 0.321963
Si Si4 0.404458 0.272674 0.176331
Si Si5 0.246390 0.190150 0.667106
Si Si6 0.918938 0.295398 0.165250
O O1 0.892957 0.500000 0.250000
O O2 0.893824 0.432714 0.500000
O O3 0.753300 0.429596 0.330836
O O4 0.899349 0.365335 0.250045
O O5 0.613361 0.500000 0.250000
O O6 0.614894 0.646761 0.222560
O O7 0.611719 0.564754 0.000000
O O8 0.912549 0.927933 0.500000
O O9 0.816253 0.875559 0.289376
O O10 0.000000 0.902392 0.250000
O O11 0.886047 0.000000 0.250000
O O12 0.500000 0.253313 0.250000
O O13 0.327235 0.219466 0.232647
O O14 0.407538 0.271795 0.000000
O O15 0.279398 0.179177 0.500000
O O16 0.172170 0.251260 0.664357
O O17 0.000000 0.257838 0.250000
O O18 0.947072 0.308518 0.000000
#
# Coordination Sequence:
#
# PCOD9393139 Si02
#       6
#     8   8   8   8   8   8
#     4  10  19  34  52  73 101 137 183 230 282 337
#     4   9  19  34  54  78 105 141 184 236 294 348
#     4  10  20  36  60  93 128 161 195 230 273 327
#     4  11  23  39  59  85 114 149 193 240 293 348
#     4  10  22  39  59  84 116 152 189 231 281 335
#     4  11  22  35  53  78 107 143 184 229 278 332
#
# _framework density 18.509952999999999
#
# number of rings (size 3 to 8) (size 9 to 14) (size 15 to 20)
#    0.000    1.833    1.667    3.000    0.000    4.667 
#    0.000    3.333    0.000    0.500    0.000    3.500 
#    0.000    0.000    0.000    0.000    0.000    0.000 
#
# Total GULP energy -267827.605882 kJ/mol
# GULP energy per Si atom -5579.741789 kJ/mol
# Density = 1.846782 g / cm^3
# Si number density = 18.509953 Si / 1000 Ang^3
#
#
#
# Elastic Constant Matrix: (Units=GPa)
#
#
# Indices 1 2 3 4 5 6 
#
# 1 102.3798 49.4838 55.4636 0.0000 0.0000 0.0000
# 2 49.4838 128.0221 56.3896 0.0000 0.0000 0.0000
# 3 55.4636 56.3896 118.8436 0.0000 0.0000 0.0000
# 4 0.0000 0.0000 0.0000 20.6089 0.0000 0.0000
# 5 0.0000 0.0000 0.0000 0.0000 23.3782 0.0000
# 6 0.0000 0.0000 0.0000 0.0000 0.0000 25.3668
#
#
#
# Elastic Compliance Matrix: (Units=1/GPa)
#
#
# Indices 1 2 3 4 5 6 
#
# 1 0.014046 -0.003213 -0.005030 0.000000 0.000000 0.000000
# 2 -0.003213 0.010610 -0.003535 0.000000 0.000000 0.000000
# 3 -0.005030 -0.003535 0.012439 0.000000 0.000000 0.000000
# 4 0.000000 0.000000 0.000000 0.048523 0.000000 0.000000
# 5 0.000000 0.000000 0.000000 0.000000 0.042775 0.000000
# 6 0.000000 0.000000 0.000000 0.000000 0.000000 0.039422
#
#
# Mechanical properties :
#
#
# Convention : Reuss Voigt Hill
#
# Bulk Modulus (GPa) = 73.86460 74.65773 74.26117
# Shear Modulus (GPa) = 25.52527 26.39801 25.96164
#
# Velocity S-wave (km/s) = 3.71752 3.78054 3.74916
# Velocity P-wave (km/s) = 7.64321 7.71220 7.67778
#
# Compressibility (1/GPa) = 0.01353828
#
# Stress axis : x y z
#
# Youngs Moduli (GPa) = 71.19518 94.24975 80.39061
#
# Poissons Ratio (x) = 0.30286 0.40440
# Poissons Ratio (y) = 0.22877 0.28416
# Poissons Ratio (z) = 0.35814 0.33314
#
# Static dielectric constant tensor:
#      x y z
#    x 1.661770 0.000000 0.000000 
#    y 0.000000 1.642610 0.000000 
#    z 0.000000 0.000000 1.640780 
# 
# From -- ./inp_files/3717.got.cif
#   From: 2010.05.17/outbox.cif.g08.bks.cpg/sg49_2_cif.got.tgz:3717.got - 2010.06.03 21:02:19.
