data_PCOD9393663
_publ_section_title
;
Structure prediction by ZEFSAII (Michael W. Deem and Ramdas Pophale) SiO2 
 PCOD9393663
Probable space group: P C C M
;
_chemical_formula_sum "Si O2"
_cell_formula_units_Z 56
_cell_length_a 13.526462
_cell_length_b 21.444951
_cell_length_c 9.456592
_cell_angle_alpha 90.000000
_cell_angle_beta 90.000000
_cell_angle_gamma 90.000000
_cell_volume 2743.114445
_symmetry_space_group_name_H-M "P C C M"
_symmetry_group_IT_number 49
_symmetry_cell_setting 'orthorhombic'
loop_
_space_group_symop_operation_xyz
x,y,z
-x,-y,z
x,-y,1/2-z
-x,y,1/2-z
-x,-y,-z
x,y,-z
-x,y,1/2+z
x,-y,1/2+z
loop_
_atom_site_type_symbol
_atom_site_label
_atom_site_fract_x
_atom_site_fract_y
_atom_site_fract_z
Si Si1 0.646865 0.055152 0.000000
Si Si2 0.585738 0.084956 0.500000
Si Si3 0.870284 0.317633 0.161162
Si Si4 0.406905 0.604465 0.334678
Si Si5 0.692766 0.855214 0.255325
Si Si6 0.358679 0.717914 0.153338
Si Si7 0.091915 0.808749 0.331859
Si Si8 0.179626 0.563424 0.669633
O O1 0.530444 0.072416 0.000000
O O2 0.695410 0.088616 0.133645
O O3 0.645126 0.980634 0.000000
O O4 0.618836 0.123550 0.365502
O O5 0.753642 0.305847 0.142994
O O6 0.900708 0.258902 0.256760
O O7 0.877746 0.380335 0.252625
O O8 0.912298 0.319688 0.000000
O O9 0.500000 0.576802 0.250000
O O10 0.425755 0.600278 0.500000
O O11 0.399172 0.676140 0.280436
O O12 0.298362 0.574961 0.309073
O O13 0.649474 0.791445 0.320704
O O14 0.802192 0.840663 0.196819
O O15 0.406642 0.705722 0.000000
O O16 0.074896 0.804496 0.500000
O O17 0.000000 0.840426 0.250000
O O18 0.153640 0.500000 0.750000
O O19 0.162266 0.561955 0.500000
#
# Coordination Sequence:
#
# PCOD9393663 Si02
#       8
#     4   4   8   8   8   8   8   8
#     4  11  24  42  65  89 129 171 219 262 310 366
#     4  11  24  42  63  95 123 171 221 262 308 364
#     4   9  18  34  58  85 117 150 191 245 303 363
#     4  10  21  33  47  69 103 143 191 254 314 372
#     4  11  22  40  64  92 127 165 210 266 315 374
#     4   9  18  33  52  77 108 147 190 240 308 371
#     4  11  23  39  66  99 130 163 205 256 319 386
#     4  10  20  34  53  76 106 151 203 249 302 367
#
# _framework density 20.414753999999999
#
# number of rings (size 3 to 8) (size 9 to 14) (size 15 to 20)
#    0.000    1.857    1.429    2.571    3.000    6.000 
#    0.000    1.429    0.000    3.000    0.000    3.000 
#    0.000    0.000    0.000    0.000    0.000    0.000 
#
# Total GULP energy -312568.021978 kJ/mol
# GULP energy per Si atom -5581.571821 kJ/mol
# Density = 2.036829 g / cm^3
# Si number density = 20.414754 Si / 1000 Ang^3
#
#
#
# Elastic Constant Matrix: (Units=GPa)
#
#
# Indices 1 2 3 4 5 6 
#
# 1 60.1360 4.9030 24.2473 0.0000 0.0000 0.0000
# 2 4.9030 89.8406 30.7482 0.0000 0.0000 0.0000
# 3 24.2473 30.7482 151.3308 0.0000 0.0000 0.0000
# 4 0.0000 0.0000 0.0000 -71.2926 0.0000 0.0000
# 5 0.0000 0.0000 0.0000 0.0000 23.0565 0.0000
# 6 0.0000 0.0000 0.0000 0.0000 0.0000 -4.2278
#
#
#
# Elastic Compliance Matrix: (Units=1/GPa)
#
#
# Indices 1 2 3 4 5 6 
#
# 1 0.017778 0.000005 -0.002849 0.000000 0.000000 0.000000
# 2 0.000005 0.011963 -0.002431 0.000000 0.000000 0.000000
# 3 -0.002849 -0.002431 0.007559 0.000000 0.000000 0.000000
# 4 0.000000 0.000000 0.000000 -0.014027 0.000000 0.000000
# 5 0.000000 0.000000 0.000000 0.000000 0.043372 0.000000
# 6 0.000000 0.000000 0.000000 0.000000 0.000000 -0.236530
#
#
# Mechanical properties :
#
#
# Convention : Reuss Voigt Hill
#
# Bulk Modulus (GPa) = 37.38723 46.78938 42.08831
# Shear Modulus (GPa) = -33.24055 5.60116 -13.81970
#
# Velocity S-wave (km/s) = -4.03955 1.65820 -2.60464
# Velocity P-wave (km/s) = 1.84491 5.16094 3.40820
#
# Compressibility (1/GPa) = 0.02674710
#
# Stress axis : x y z
#
# Youngs Moduli (GPa) = 56.25088 83.59302 132.29894
#
# Poissons Ratio (x) = -0.00042 0.37698
# Poissons Ratio (y) = -0.00028 0.32168
# Poissons Ratio (z) = 0.16028 0.20325
#
# Static dielectric constant tensor:
#      x y z
#    x 1.787280 0.000000 0.000000 
#    y 0.000000 1.697420 0.000000 
#    z 0.000000 0.000000 1.599250 
# 
# From -- ./inp_files/4113.got.cif
#   From: 2010.05.17/outbox.cif.g08.bks.cpg/sg49_3_cif.got.tgz:4113.got - 2010.06.03 21:02:19.
