data_PCOD9393969
_publ_section_title
;
Structure prediction by ZEFSAII (Michael W. Deem and Ramdas Pophale) SiO2 
 PCOD9393969
Probable space group: P C C M
;
_chemical_formula_sum "Si O2"
_cell_formula_units_Z 48
_cell_length_a 31.566572
_cell_length_b 9.476792
_cell_length_c 8.580107
_cell_angle_alpha 90.000000
_cell_angle_beta 90.000000
_cell_angle_gamma 90.000000
_cell_volume 2566.737610
_symmetry_space_group_name_H-M "P C C M"
_symmetry_group_IT_number 49
_symmetry_cell_setting 'orthorhombic'
loop_
_space_group_symop_operation_xyz
x,y,z
-x,-y,z
x,-y,1/2-z
-x,y,1/2-z
-x,-y,-z
x,y,-z
-x,y,1/2+z
x,-y,1/2+z
loop_
_atom_site_type_symbol
_atom_site_label
_atom_site_fract_x
_atom_site_fract_y
_atom_site_fract_z
Si Si1 0.626388 0.158183 0.312143
Si Si2 0.877593 0.158441 0.313347
Si Si3 0.214125 0.158931 0.686592
Si Si4 0.291781 0.341123 0.812304
Si Si5 0.955032 0.340725 0.186565
Si Si6 0.546224 0.342451 0.687415
O O1 0.626316 0.153083 0.500000
O O2 0.666664 0.252257 0.264228
O O3 0.583203 0.236218 0.262418
O O4 0.629357 0.000000 0.250000
O O5 0.877251 0.158075 0.500000
O O6 0.831691 0.206106 0.250637
O O7 0.915591 0.252658 0.249423
O O8 0.883338 0.000000 0.250000
O O9 0.213144 0.154527 0.500000
O O10 0.250817 0.261292 0.746049
O O11 0.221590 0.000000 0.750000
O O12 0.294255 0.500000 0.750000
O O13 0.289777 0.343102 0.000000
O O14 0.951365 0.500000 0.250000
O O15 0.000000 0.283960 0.250000
O O16 0.955682 0.341771 0.000000
O O17 0.555082 0.500000 0.750000
O O18 0.500000 0.300492 0.750000
O O19 0.544981 0.347763 0.500000
#
# Coordination Sequence:
#
# PCOD9393969 Si02
#       6
#     8   8   8   8   8   8
#     4  10  23  39  58  83 114 149 190 233 283 338
#     4  11  22  39  61  88 118 153 193 238 287 342
#     4  11  22  39  61  87 117 152 189 233 284 341
#     4  11  23  40  60  86 115 149 190 236 285 340
#     4  11  22  39  60  86 117 154 195 240 290 344
#     4  10  20  36  57  84 113 148 188 232 281 336
#
# _framework density 18.700782
#
# number of rings (size 3 to 8) (size 9 to 14) (size 15 to 20)
#    0.000    1.333    0.000    8.500    0.000    5.333 
#    0.000    6.667    0.000    0.000    0.000    0.000 
#    0.000    0.000    0.000    0.000    0.000    0.000 
#
# Total GULP energy -268407.207465 kJ/mol
# GULP energy per Si atom -5591.816822 kJ/mol
# Density = 1.865822 g / cm^3
# Si number density = 18.700782 Si / 1000 Ang^3
#
#
#
# Elastic Constant Matrix: (Units=GPa)
#
#
# Indices 1 2 3 4 5 6 
#
# 1 205.5591 129.7104 75.1638 0.0000 0.0000 0.0000
# 2 129.7104 126.3556 54.7396 0.0000 0.0000 0.0000
# 3 75.1638 54.7396 146.8575 0.0000 0.0000 0.0000
# 4 0.0000 0.0000 0.0000 35.7643 0.0000 0.0000
# 5 0.0000 0.0000 0.0000 0.0000 31.0232 0.0000
# 6 0.0000 0.0000 0.0000 0.0000 0.0000 44.7739
#
#
#
# Elastic Compliance Matrix: (Units=1/GPa)
#
#
# Indices 1 2 3 4 5 6 
#
# 1 0.014392 -0.013814 -0.002217 0.000000 0.000000 0.000000
# 2 -0.013814 0.022697 -0.001390 0.000000 0.000000 0.000000
# 3 -0.002217 -0.001390 0.008462 0.000000 0.000000 0.000000
# 4 0.000000 0.000000 0.000000 0.027961 0.000000 0.000000
# 5 0.000000 0.000000 0.000000 0.000000 0.032234 0.000000
# 6 0.000000 0.000000 0.000000 0.000000 0.000000 0.022334
#
#
# Mechanical properties :
#
#
# Convention : Reuss Voigt Hill
#
# Bulk Modulus (GPa) = 93.37553 110.88887 102.13220
# Shear Modulus (GPa) = 30.03150 36.92282 33.47716
#
# Velocity S-wave (km/s) = 4.01171 4.44824 4.23560
# Velocity P-wave (km/s) = 8.45566 9.26324 8.86865
#
# Compressibility (1/GPa) = 0.01070944
#
# Stress axis : x y z
#
# Youngs Moduli (GPa) = 69.48246 44.05912 118.17271
#
# Poissons Ratio (x) = 0.60862 0.26201
# Poissons Ratio (y) = 0.95981 0.16425
# Poissons Ratio (z) = 0.15405 0.06124
#
# Static dielectric constant tensor:
#      x y z
#    x 1.640820 0.000000 0.000000 
#    y 0.000000 1.599780 0.000000 
#    z 0.000000 0.000000 1.628430 
# 
# From -- ./inp_files/2072.got.cif
#   From: 2010.05.17/outbox.cif.g08.bks.cpg/sg49_2_cif.got.tgz:2072.got - 2010.06.03 21:02:19.
