data_PCOD9393170
_publ_section_title
;
Structure prediction by ZEFSAII (Michael W. Deem and Ramdas Pophale) SiO2 
 PCOD9393170
Probable space group: P C C M
;
_chemical_formula_sum "Si O2"
_cell_formula_units_Z 64
_cell_length_a 17.830513
_cell_length_b 21.508339
_cell_length_c 8.466622
_cell_angle_alpha 90.000000
_cell_angle_beta 90.000000
_cell_angle_gamma 90.000000
_cell_volume 3246.989484
_symmetry_space_group_name_H-M "P C C M"
_symmetry_group_IT_number 49
_symmetry_cell_setting 'orthorhombic'
loop_
_space_group_symop_operation_xyz
x,y,z
-x,-y,z
x,-y,1/2-z
-x,y,1/2-z
-x,-y,-z
x,y,-z
-x,y,1/2+z
x,-y,1/2+z
loop_
_atom_site_type_symbol
_atom_site_label
_atom_site_fract_x
_atom_site_fract_y
_atom_site_fract_z
Si Si1 0.580306 0.794759 0.308297
Si Si2 0.883228 0.718178 0.684251
Si Si3 0.621103 0.932198 0.313610
Si Si4 0.710451 0.700648 0.690413
Si Si5 0.211898 0.064689 0.187333
Si Si6 0.754830 0.565579 0.687955
Si Si7 0.074024 0.152911 0.812635
Si Si8 0.080032 0.590139 0.682080
O O1 0.500000 0.771295 0.250000
O O2 0.582626 0.796109 0.500000
O O3 0.588624 0.866640 0.251312
O O4 0.647080 0.748693 0.252552
O O5 0.890570 0.699292 0.500000
O O6 0.794634 0.724746 0.720889
O O7 0.920949 0.783233 0.717287
O O8 0.916511 0.664581 0.793727
O O9 0.608565 0.933875 0.500000
O O10 0.709595 0.926696 0.275972
O O11 0.596045 0.000000 0.250000
O O12 0.701857 0.698013 0.500000
O O13 0.713686 0.628624 0.747651
O O14 0.150836 0.116829 0.217590
O O15 0.179776 0.000000 0.250000
O O16 0.227201 0.061120 0.000000
O O17 0.724859 0.500000 0.750000
O O18 0.750315 0.566064 0.500000
O O19 0.843140 0.569431 0.733395
O O20 0.000000 0.118550 0.750000
O O21 0.068495 0.163722 0.000000
O O22 0.084950 0.572557 0.500000
O O23 0.000000 0.569324 0.750000
#
# Coordination Sequence:
#
# PCOD9393170 Si02
#       8
#     8   8   8   8   8   8   8   8
#     4  10  21  37  57  84 114 146 179 216 262 316
#     4  10  19  34  55  76 100 135 177 222 269 321
#     4  10  20  35  57  82 111 145 182 219 263 318
#     4   8  17  35  58  80 106 140 178 218 266 321
#     4  10  21  36  54  74  97 128 172 220 268 320
#     4  10  20  36  57  82 109 142 184 230 278 329
#     4  11  23  35  48  70  98 131 172 222 274 326
#     4  11  21  34  51  75 109 146 183 225 272 323
#
# _framework density 19.710564999999999
#
# number of rings (size 3 to 8) (size 9 to 14) (size 15 to 20)
#    0.000    2.000    0.000    5.625    0.000    4.750 
#    0.000    7.500    0.000    0.375    0.000    2.625 
#    0.000    0.000    0.000    0.000    0.000    0.000 
#
# Total GULP energy -357189.913877 kJ/mol
# GULP energy per Si atom -5581.092404 kJ/mol
# Density = 1.966570 g / cm^3
# Si number density = 19.710565 Si / 1000 Ang^3
#
#
#
# Elastic Constant Matrix: (Units=GPa)
#
#
# Indices 1 2 3 4 5 6 
#
# 1 84.1936 48.9225 8.0868 0.0000 0.0000 0.0000
# 2 48.9225 106.9403 14.5672 0.0000 0.0000 0.0000
# 3 8.0868 14.5672 28.7238 0.0000 0.0000 0.0000
# 4 0.0000 0.0000 0.0000 20.5948 0.0000 0.0000
# 5 0.0000 0.0000 0.0000 0.0000 20.8682 0.0000
# 6 0.0000 0.0000 0.0000 0.0000 0.0000 -2.4995
#
#
#
# Elastic Compliance Matrix: (Units=1/GPa)
#
#
# Indices 1 2 3 4 5 6 
#
# 1 0.016198 -0.007293 -0.000862 0.000000 0.000000 0.000000
# 2 -0.007293 0.013328 -0.004706 0.000000 0.000000 0.000000
# 3 -0.000862 -0.004706 0.037444 0.000000 0.000000 0.000000
# 4 0.000000 0.000000 0.000000 0.048556 0.000000 0.000000
# 5 0.000000 0.000000 0.000000 0.000000 0.047920 0.000000
# 6 0.000000 0.000000 0.000000 0.000000 0.000000 -0.400080
#
#
# Mechanical properties :
#
#
# Convention : Reuss Voigt Hill
#
# Bulk Modulus (GPa) = 24.24343 40.33454 32.28898
# Shear Modulus (GPa) = -25.35965 17.67812 -3.84076
#
# Velocity S-wave (km/s) = -3.59081 2.99805 -1.39743
# Velocity P-wave (km/s) = 2.20579 5.70020 3.71663
#
# Compressibility (1/GPa) = 0.04124829
#
# Stress axis : x y z
#
# Youngs Moduli (GPa) = 61.73709 75.02835 26.70676
#
# Poissons Ratio (x) = 0.54716 0.02302
# Poissons Ratio (y) = 0.45023 0.12569
# Poissons Ratio (z) = 0.05321 0.35310
#
# Static dielectric constant tensor:
#      x y z
#    x 1.692170 0.000000 0.000000 
#    y 0.000000 1.761440 0.000000 
#    z 0.000000 0.000000 1.686580 
# 
# From -- ./inp_files/5318.got.cif
#   From: 2010.05.17/outbox.cif.g08.bks.cpg/sg49_3_cif.got.tgz:5318.got - 2010.06.03 21:02:19.
