data_PCOD9393748
_publ_section_title
;
Structure prediction by ZEFSAII (Michael W. Deem and Ramdas Pophale) SiO2 
 PCOD9393748
Probable space group: P C C M
;
_chemical_formula_sum "Si O2"
_cell_formula_units_Z 56
_cell_length_a 17.462779
_cell_length_b 9.678687
_cell_length_c 18.339722
_cell_angle_alpha 90.000000
_cell_angle_beta 90.000000
_cell_angle_gamma 90.000000
_cell_volume 3099.720613
_symmetry_space_group_name_H-M "P C C M"
_symmetry_group_IT_number 49
_symmetry_cell_setting 'orthorhombic'
loop_
_space_group_symop_operation_xyz
x,y,z
-x,-y,z
x,-y,1/2-z
-x,y,1/2-z
-x,-y,-z
x,y,-z
-x,y,1/2+z
x,-y,1/2+z
loop_
_atom_site_type_symbol
_atom_site_label
_atom_site_fract_x
_atom_site_fract_y
_atom_site_fract_z
Si Si1 0.419548 0.926542 0.824338
Si Si2 0.284578 0.036891 0.083583
Si Si3 0.372267 0.628686 0.203257
Si Si4 0.844285 0.802287 0.579972
Si Si5 0.262420 0.467317 0.584474
Si Si6 0.085723 0.163196 0.731879
Si Si7 0.234206 0.283311 0.811102
O O1 0.424095 0.763204 0.808816
O O2 0.500000 0.000000 0.840352
O O3 0.390722 0.000000 0.750000
O O4 0.359116 0.956989 0.887470
O O5 0.266414 0.159731 0.139126
O O6 0.214585 0.929620 0.085773
O O7 0.294382 0.083828 0.000000
O O8 0.404063 0.500000 0.250000
O O9 0.340605 0.574871 0.125821
O O10 0.296975 0.679503 0.249079
O O11 0.880943 0.805710 0.500000
O O12 0.793368 0.664466 0.585493
O O13 0.901207 0.813533 0.646528
O O14 0.273876 0.507595 0.500000
O O15 0.227092 0.587104 0.634676
O O16 0.154409 0.239895 0.774298
O O17 0.000000 0.209506 0.750000
O O18 0.092218 0.000000 0.750000
#
# Coordination Sequence:
#
# PCOD9393748 Si02
#       7
#     8   8   8   8   8   8   8
#     4  11  22  37  57  87 121 153 193 247 293 353
#     4  11  21  35  60  86 114 153 193 245 297 345
#     4  10  20  35  62  86 113 158 195 240 292 349
#     4  10  20  36  58  85 115 151 195 243 297 353
#     4  10  20  34  57  88 118 148 193 246 298 343
#     4  11  22  37  58  87 117 157 199 246 302 357
#     4  11  20  36  59  85 116 149 202 250 287 349
#
# _framework density 18.066144000000001
#
# number of rings (size 3 to 8) (size 9 to 14) (size 15 to 20)
#    0.000    1.429    5.714    0.429    0.000    0.286 
#    0.000    5.714    0.000    1.714    0.000    3.000 
#    0.000    0.000    0.000    0.000    0.000    0.000 
#
# Total GULP energy -312621.215369 kJ/mol
# GULP energy per Si atom -5582.521703 kJ/mol
# Density = 1.802503 g / cm^3
# Si number density = 18.066144 Si / 1000 Ang^3
#
#
#
# Elastic Constant Matrix: (Units=GPa)
#
#
# Indices 1 2 3 4 5 6 
#
# 1 60.0433 15.3369 38.9075 0.0000 0.0000 0.0000
# 2 15.3369 88.4875 18.1550 0.0000 0.0000 0.0000
# 3 38.9075 18.1550 129.4047 0.0000 0.0000 0.0000
# 4 0.0000 0.0000 0.0000 26.6475 0.0000 0.0000
# 5 0.0000 0.0000 0.0000 0.0000 69.1912 0.0000
# 6 0.0000 0.0000 0.0000 0.0000 0.0000 14.8175
#
#
#
# Elastic Compliance Matrix: (Units=1/GPa)
#
#
# Indices 1 2 3 4 5 6 
#
# 1 0.021182 -0.002435 -0.006027 0.000000 0.000000 0.000000
# 2 -0.002435 0.011916 -0.000940 0.000000 0.000000 0.000000
# 3 -0.006027 -0.000940 0.009672 0.000000 0.000000 0.000000
# 4 0.000000 0.000000 0.000000 0.037527 0.000000 0.000000
# 5 0.000000 0.000000 0.000000 0.000000 0.014453 0.000000
# 6 0.000000 0.000000 0.000000 0.000000 0.000000 0.067488
#
#
# Mechanical properties :
#
#
# Convention : Reuss Voigt Hill
#
# Bulk Modulus (GPa) = 41.72502 46.97047 44.34775
# Shear Modulus (GPa) = 26.45099 35.83366 31.14232
#
# Velocity S-wave (km/s) = 3.83053 4.45845 4.15636
# Velocity P-wave (km/s) = 6.53527 7.24978 6.90178
#
# Compressibility (1/GPa) = 0.02396644
#
# Stress axis : x y z
#
# Youngs Moduli (GPa) = 47.20972 83.92197 103.39473
#
# Poissons Ratio (x) = 0.20433 0.62317
# Poissons Ratio (y) = 0.11494 0.09716
# Poissons Ratio (z) = 0.28454 0.07886
#
# Static dielectric constant tensor:
#      x y z
#    x 1.592180 0.000000 0.000000 
#    y 0.000000 1.636650 0.000000 
#    z 0.000000 0.000000 1.627600 
# 
# From -- ./inp_files/18281.got.cif
#   From: 2010.05.17/outbox.cif.g08.bks.cpg/sg49_10_cif.got.tgz:18281.got - 2010.06.03 21:02:19.
