data_PCOD9393818
_publ_section_title
;
Structure prediction by ZEFSAII (Michael W. Deem and Ramdas Pophale) SiO2 
 PCOD9393818
Probable space group: P C C M
;
_chemical_formula_sum "Si O2"
_cell_formula_units_Z 40
_cell_length_a 9.375810
_cell_length_b 26.993996
_cell_length_c 8.543512
_cell_angle_alpha 90.000000
_cell_angle_beta 90.000000
_cell_angle_gamma 90.000000
_cell_volume 2162.282387
_symmetry_space_group_name_H-M "P C C M"
_symmetry_group_IT_number 49
_symmetry_cell_setting 'orthorhombic'
loop_
_space_group_symop_operation_xyz
x,y,z
-x,-y,z
x,-y,1/2-z
-x,y,1/2-z
-x,-y,-z
x,y,-z
-x,y,1/2+z
x,-y,1/2+z
loop_
_atom_site_type_symbol
_atom_site_label
_atom_site_fract_x
_atom_site_fract_y
_atom_site_fract_z
Si Si1 0.338319 0.659584 0.689070
Si Si2 0.660135 0.850981 0.189002
Si Si3 0.337333 0.449258 0.187107
Si Si4 0.839580 0.053544 0.312006
Si Si5 0.160331 0.754910 0.310642
O O1 0.500000 0.665011 0.750000
O O2 0.344394 0.660654 0.500000
O O3 0.280244 0.604934 0.734600
O O4 0.240894 0.705009 0.742420
O O5 0.500000 0.848479 0.250000
O O6 0.738871 0.901445 0.239090
O O7 0.750797 0.803174 0.240438
O O8 0.657275 0.850719 0.000000
O O9 0.269023 0.500000 0.250000
O O10 0.500000 0.448749 0.250000
O O11 0.340429 0.452088 0.000000
O O12 0.844050 0.052142 0.500000
O O13 0.000000 0.061679 0.250000
O O14 0.791141 0.000000 0.250000
O O15 0.157793 0.754725 0.500000
O O16 0.000000 0.756901 0.250000
#
# Coordination Sequence:
#
# PCOD9393818 Si02
#       5
#     8   8   8   8   8
#     4   9  18  31  49  73 101 129 163 205 249 295
#     4  10  22  37  55  79 106 134 169 210 254 300
#     4   9  15  24  40  65  95 126 158 197 241 289
#     4  10  20  35  55  80 107 139 175 210 248 296
#     4  10  21  37  54  75 101 131 167 208 251 301
#
# _framework density 18.498971999999998
#
# number of rings (size 3 to 8) (size 9 to 14) (size 15 to 20)
#    0.000    2.400    0.000    3.600    0.000    4.400 
#    0.000    2.000    0.000    0.600    0.000    4.200 
#    0.000    0.000    0.000    0.000    0.000    0.000 
#
# Total GULP energy -223106.811059 kJ/mol
# GULP energy per Si atom -5577.670276 kJ/mol
# Density = 1.845687 g / cm^3
# Si number density = 18.498972 Si / 1000 Ang^3
#
#
#
# Elastic Constant Matrix: (Units=GPa)
#
#
# Indices 1 2 3 4 5 6 
#
# 1 107.9009 111.2693 17.4349 0.0000 0.0000 0.0000
# 2 111.2693 232.8538 37.9455 0.0000 0.0000 0.0000
# 3 17.4349 37.9455 22.4606 0.0000 0.0000 0.0000
# 4 0.0000 0.0000 0.0000 24.4235 0.0000 0.0000
# 5 0.0000 0.0000 0.0000 0.0000 24.8629 0.0000
# 6 0.0000 0.0000 0.0000 0.0000 0.0000 -195.6466
#
#
#
# Elastic Compliance Matrix: (Units=1/GPa)
#
#
# Indices 1 2 3 4 5 6 
#
# 1 0.018281 -0.008863 0.000783 0.000000 0.000000 0.000000
# 2 -0.008863 0.010223 -0.010391 0.000000 0.000000 0.000000
# 3 0.000783 -0.010391 0.061470 0.000000 0.000000 0.000000
# 4 0.000000 0.000000 0.000000 0.040944 0.000000 0.000000
# 5 0.000000 0.000000 0.000000 0.000000 0.040221 0.000000
# 6 0.000000 0.000000 0.000000 0.000000 0.000000 -0.005111
#
#
# Mechanical properties :
#
#
# Convention : Reuss Voigt Hill
#
# Bulk Modulus (GPa) = 18.85676 77.39054 48.12365
# Shear Modulus (GPa) = 22.66059 -16.16767 3.24646
#
# Velocity S-wave (km/s) = 3.50375 -2.95952 1.32618
# Velocity P-wave (km/s) = 5.15595 5.49978 5.33064
#
# Compressibility (1/GPa) = 0.05303137
#
# Stress axis : x y z
#
# Youngs Moduli (GPa) = 54.70097 97.81646 16.26819
#
# Poissons Ratio (x) = 0.86698 -0.01274
# Poissons Ratio (y) = 0.48483 0.16905
# Poissons Ratio (z) = -0.04284 1.01644
#
# Static dielectric constant tensor:
#      x y z
#    x 1.585090 0.000000 0.000000 
#    y 0.000000 1.687830 0.000000 
#    z 0.000000 0.000000 1.632200 
# 
# From -- ./inp_files/1711.got.cif
#   From: 2010.05.17/outbox.cif.g08.bks.cpg/sg49_1_cif.got.tgz:1711.got - 2010.06.03 21:02:19.
