data_PCOD9393846
_publ_section_title
;
Structure prediction by ZEFSAII (Michael W. Deem and Ramdas Pophale) SiO2 
 PCOD9393846
Probable space group: P C C M
;
_chemical_formula_sum "Si O2"
_cell_formula_units_Z 48
_cell_length_a 9.300914
_cell_length_b 31.501293
_cell_length_c 8.581182
_cell_angle_alpha 90.000000
_cell_angle_beta 90.000000
_cell_angle_gamma 90.000000
_cell_volume 2514.207526
_symmetry_space_group_name_H-M "P C C M"
_symmetry_group_IT_number 49
_symmetry_cell_setting 'orthorhombic'
loop_
_space_group_symop_operation_xyz
x,y,z
-x,-y,z
x,-y,1/2-z
-x,y,1/2-z
-x,-y,-z
x,y,-z
-x,y,1/2+z
x,-y,1/2+z
loop_
_atom_site_type_symbol
_atom_site_label
_atom_site_fract_x
_atom_site_fract_y
_atom_site_fract_z
Si Si1 0.339098 0.625023 0.313632
Si Si2 0.661468 0.211014 0.812068
Si Si3 0.161822 0.704979 0.812333
Si Si4 0.661453 0.954287 0.312798
Si Si5 0.159889 0.453150 0.313311
Si Si6 0.161095 0.871681 0.811727
O O1 0.500000 0.630273 0.250000
O O2 0.340498 0.623854 0.500000
O O3 0.242315 0.664086 0.255366
O O4 0.269642 0.581918 0.247912
O O5 0.500000 0.212415 0.750000
O O6 0.750828 0.252738 0.765758
O O7 0.744270 0.168583 0.759475
O O8 0.656113 0.210300 0.000000
O O9 0.000000 0.707062 0.750000
O O10 0.160037 0.702313 0.000000
O O11 0.500000 0.947366 0.250000
O O12 0.656212 0.955731 0.500000
O O13 0.762594 0.915505 0.263201
O O14 0.710974 0.000000 0.250000
O O15 0.196209 0.500000 0.250000
O O16 0.156726 0.453687 0.500000
O O17 0.000000 0.442906 0.250000
O O18 0.000000 0.868692 0.750000
O O19 0.157451 0.871093 0.000000
#
# Coordination Sequence:
#
# PCOD9393846 Si02
#       6
#     8   8   8   8   8   8
#     4  12  25  42  62  88 121 158 199 245 294 348
#     4  10  22  39  60  86 116 149 190 235 286 342
#     4  11  23  40  62  89 119 154 194 239 289 345
#     4  10  20  35  56  81 110 144 187 232 282 338
#     4  11  22  40  64  92 123 159 201 246 296 350
#     4  10  22  38  56  82 113 148 188 233 282 339
#
# _framework density 19.091502999999999
#
# number of rings (size 3 to 8) (size 9 to 14) (size 15 to 20)
#    0.000    1.333    0.000    7.000    0.000    5.333 
#    0.000    3.333    0.000    0.000    0.000    0.000 
#    0.000    0.000    0.000    0.000    0.000    0.000 
#
# Total GULP energy -268490.203187 kJ/mol
# GULP energy per Si atom -5593.545900 kJ/mol
# Density = 1.904805 g / cm^3
# Si number density = 19.091503 Si / 1000 Ang^3
#
#
#
# Elastic Constant Matrix: (Units=GPa)
#
#
# Indices 1 2 3 4 5 6 
#
# 1 183.0682 121.2227 52.5393 0.0000 0.0000 0.0000
# 2 121.2227 149.9155 55.1580 0.0000 0.0000 0.0000
# 3 52.5393 55.1580 101.4903 0.0000 0.0000 0.0000
# 4 0.0000 0.0000 0.0000 31.4021 0.0000 0.0000
# 5 0.0000 0.0000 0.0000 0.0000 38.5984 0.0000
# 6 0.0000 0.0000 0.0000 0.0000 0.0000 43.0884
#
#
#
# Elastic Compliance Matrix: (Units=1/GPa)
#
#
# Indices 1 2 3 4 5 6 
#
# 1 0.011867 -0.009169 -0.001160 0.000000 0.000000 0.000000
# 2 -0.009169 0.015422 -0.003635 0.000000 0.000000 0.000000
# 3 -0.001160 -0.003635 0.012429 0.000000 0.000000 0.000000
# 4 0.000000 0.000000 0.000000 0.031845 0.000000 0.000000
# 5 0.000000 0.000000 0.000000 0.000000 0.025908 0.000000
# 6 0.000000 0.000000 0.000000 0.000000 0.000000 0.023208
#
#
# Mechanical properties :
#
#
# Convention : Reuss Voigt Hill
#
# Bulk Modulus (GPa) = 84.81686 99.14602 91.98144
# Shear Modulus (GPa) = 32.77925 36.32139 34.55032
#
# Velocity S-wave (km/s) = 4.14811 4.36649 4.25870
# Velocity P-wave (km/s) = 8.21373 8.80150 8.51269
#
# Compressibility (1/GPa) = 0.01179011
#
# Stress axis : x y z
#
# Youngs Moduli (GPa) = 84.27054 64.84424 80.45520
#
# Poissons Ratio (x) = 0.59453 0.09334
# Poissons Ratio (y) = 0.77264 0.29245
# Poissons Ratio (z) = 0.09777 0.23571
#
# Static dielectric constant tensor:
#      x y z
#    x 1.617300 0.000000 0.000000 
#    y 0.000000 1.652720 0.000000 
#    z 0.000000 0.000000 1.646880 
# 
# From -- ./inp_files/2023.got.cif
#   From: 2010.05.17/outbox.cif.g08.bks.cpg/sg49_2_cif.got.tgz:2023.got - 2010.06.03 21:02:19.
