data_PCOD9393466
_publ_section_title
;
Structure prediction by ZEFSAII (Michael W. Deem and Ramdas Pophale) SiO2 
 PCOD9393466
Probable space group: P C C M
;
_chemical_formula_sum "Si O2"
_cell_formula_units_Z 48
_cell_length_a 13.215621
_cell_length_b 17.313843
_cell_length_c 9.774236
_cell_angle_alpha 90.000000
_cell_angle_beta 90.000000
_cell_angle_gamma 90.000000
_cell_volume 2236.474091
_symmetry_space_group_name_H-M "P C C M"
_symmetry_group_IT_number 49
_symmetry_cell_setting 'orthorhombic'
loop_
_space_group_symop_operation_xyz
x,y,z
-x,-y,z
x,-y,1/2-z
-x,y,1/2-z
-x,-y,-z
x,y,-z
-x,y,1/2+z
x,-y,1/2+z
loop_
_atom_site_type_symbol
_atom_site_label
_atom_site_fract_x
_atom_site_fract_y
_atom_site_fract_z
Si Si1 0.210734 0.564277 0.657948
Si Si2 0.317310 0.217496 0.651829
Si Si3 0.089165 0.899143 0.354556
Si Si4 0.116172 0.274357 0.782111
Si Si5 0.323223 0.071801 0.160933
Si Si6 0.597599 0.386223 0.838971
O O1 0.153147 0.500000 0.750000
O O2 0.228916 0.539841 0.500000
O O3 0.158434 0.647935 0.652074
O O4 0.308915 0.580031 0.752823
O O5 0.325611 0.182939 0.500000
O O6 0.201962 0.249925 0.670553
O O7 0.344693 0.153601 0.764768
O O8 0.386200 0.293431 0.661775
O O9 0.051244 0.924908 0.500000
O O10 0.107571 0.806890 0.358824
O O11 0.200387 0.932676 0.332400
O O12 0.000000 0.913928 0.250000
O O13 0.000000 0.292349 0.750000
O O14 0.363808 0.000000 0.250000
O O15 0.351748 0.070613 0.000000
O O16 0.500000 0.406165 0.750000
O O17 0.593134 0.409388 0.000000
#
# Coordination Sequence:
#
# PCOD9393466 Si02
#       6
#     8   8   8   8   8   8
#     4  11  23  39  57  81 115 150 186 230 277 330
#     4   9  19  35  56  82 112 142 179 226 272 322
#     4   9  18  31  47  69  95 130 178 229 276 321
#     4   9  19  34  55  80 107 145 190 233 275 322
#     4  10  20  32  48  71 103 142 182 221 269 323
#     4  10  21  39  64  91 114 141 177 221 275 334
#
# _framework density 21.462354999999999
#
# number of rings (size 3 to 8) (size 9 to 14) (size 15 to 20)
#    0.000    2.333    0.000    2.000    0.000   13.667 
#    0.000    4.167    0.000    0.500    0.000    3.500 
#    0.000    0.000    0.000    0.000    0.000    0.000 
#
# Total GULP energy -267433.653903 kJ/mol
# GULP energy per Si atom -5571.534456 kJ/mol
# Density = 2.141351 g / cm^3
# Si number density = 21.462355 Si / 1000 Ang^3
#
#
#
# Elastic Constant Matrix: (Units=GPa)
#
#
# Indices 1 2 3 4 5 6 
#
# 1 42.9498 11.5053 11.5689 0.0000 0.0000 0.0000
# 2 11.5053 127.4108 72.5914 0.0000 0.0000 0.0000
# 3 11.5689 72.5914 144.1423 0.0000 0.0000 0.0000
# 4 0.0000 0.0000 0.0000 -97.6147 0.0000 0.0000
# 5 0.0000 0.0000 0.0000 0.0000 45.7448 0.0000
# 6 0.0000 0.0000 0.0000 0.0000 0.0000 -9.2215
#
#
#
# Elastic Compliance Matrix: (Units=1/GPa)
#
#
# Indices 1 2 3 4 5 6 
#
# 1 0.024000 -0.001500 -0.001171 0.000000 0.000000 0.000000
# 2 -0.001500 0.011101 -0.005470 0.000000 0.000000 0.000000
# 3 -0.001171 -0.005470 0.009786 0.000000 0.000000 0.000000
# 4 0.000000 0.000000 0.000000 -0.010244 0.000000 0.000000
# 5 0.000000 0.000000 0.000000 0.000000 0.021860 0.000000
# 6 0.000000 0.000000 0.000000 0.000000 0.000000 -0.108442
#
#
# Mechanical properties :
#
#
# Convention : Reuss Voigt Hill
#
# Bulk Modulus (GPa) = 34.95862 56.20379 45.58121
# Shear Modulus (GPa) = -191.40872 2.37087 -94.51893
#
# Velocity S-wave (km/s) = -9.45394 1.05217 -6.64342
# Velocity P-wave (km/s) = 10.14129 5.26499 6.12885
#
# Compressibility (1/GPa) = 0.02860525
#
# Stress axis : x y z
#
# Youngs Moduli (GPa) = 41.66627 90.08557 102.18402
#
# Poissons Ratio (x) = 0.13515 0.11963
# Poissons Ratio (y) = 0.06251 0.55894
# Poissons Ratio (z) = 0.04878 0.49276
#
# Static dielectric constant tensor:
#      x y z
#    x 1.780340 0.000000 0.000000 
#    y 0.000000 1.813610 0.000000 
#    z 0.000000 0.000000 1.781760 
# 
# From -- ./inp_files/3738.got.cif
#   From: 2010.05.17/outbox.cif.g08.bks.cpg/sg49_2_cif.got.tgz:3738.got - 2010.06.03 21:02:19.
