data_PCOD9393268
_publ_section_title
;
Structure prediction by ZEFSAII (Michael W. Deem and Ramdas Pophale) SiO2 
 PCOD9393268
Probable space group: P C C M
;
_chemical_formula_sum "Si O2"
_cell_formula_units_Z 64
_cell_length_a 25.350405
_cell_length_b 15.192134
_cell_length_c 8.927344
_cell_angle_alpha 90.000000
_cell_angle_beta 90.000000
_cell_angle_gamma 90.000000
_cell_volume 3438.158978
_symmetry_space_group_name_H-M "P C C M"
_symmetry_group_IT_number 49
_symmetry_cell_setting 'orthorhombic'
loop_
_space_group_symop_operation_xyz
x,y,z
-x,-y,z
x,-y,1/2-z
-x,y,1/2-z
-x,-y,-z
x,y,-z
-x,y,1/2+z
x,-y,1/2+z
loop_
_atom_site_type_symbol
_atom_site_label
_atom_site_fract_x
_atom_site_fract_y
_atom_site_fract_z
Si Si1 0.557574 0.093207 0.180318
Si Si2 0.838089 0.838610 0.826567
Si Si3 0.736241 0.910798 0.678706
Si Si4 0.806905 0.366351 0.673056
Si Si5 0.913911 0.588367 0.323299
Si Si6 0.054694 0.214751 0.319810
Si Si7 0.351327 0.231349 0.320554
Si Si8 0.686012 0.407411 0.320879
O O1 0.500000 0.110161 0.250000
O O2 0.597819 0.171928 0.215497
O O3 0.575763 0.000000 0.250000
O O4 0.554244 0.084510 0.000000
O O5 0.794652 0.895438 0.741695
O O6 0.815575 0.738671 0.823274
O O7 0.894559 0.835033 0.746074
O O8 0.843176 0.865083 0.000000
O O9 0.736812 0.918038 0.500000
O O10 0.699300 0.828505 0.719992
O O11 0.714453 0.000000 0.750000
O O12 0.815340 0.395008 0.500000
O O13 0.852382 0.404846 0.777433
O O14 0.747791 0.390677 0.719470
O O15 0.935970 0.500000 0.250000
O O16 0.919461 0.581961 0.500000
O O17 0.938237 0.681915 0.274301
O O18 0.054352 0.210198 0.500000
O O19 0.000000 0.182771 0.250000
O O20 0.350305 0.244996 0.500000
O O21 0.346644 0.324557 0.239913
O O22 0.669570 0.500000 0.250000
O O23 0.682975 0.411014 0.500000
#
# Coordination Sequence:
#
# PCOD9393268 Si02
#       8
#     8   8   8   8   8   8   8   8
#     4  10  20  36  59  89 122 159 200 242 290 343
#     4  10  19  35  56  79 108 140 178 224 274 333
#     4  11  22  36  57  86 119 153 186 226 278 340
#     4   9  18  32  50  73 101 138 181 224 273 328
#     4  10  20  31  46  68  96 130 171 220 274 331
#     4  10  21  36  53  74  97 132 177 223 277 334
#     4  10  22  38  57  84 120 158 197 241 287 337
#     4  11  22  35  53  79 112 153 198 242 288 339
#
# _framework density 18.614614
#
# number of rings (size 3 to 8) (size 9 to 14) (size 15 to 20)
#    0.000    1.875    1.250    3.375    0.000    5.750 
#    0.000    1.250    0.000    0.750    0.000    5.250 
#    0.000    0.000    0.000    0.000    0.000    0.000 
#
# Total GULP energy -357505.924722 kJ/mol
# GULP energy per Si atom -5586.030074 kJ/mol
# Density = 1.857225 g / cm^3
# Si number density = 18.614614 Si / 1000 Ang^3
#
#
#
# Elastic Constant Matrix: (Units=GPa)
#
#
# Indices 1 2 3 4 5 6 
#
# 1 104.0248 51.2770 41.0974 0.0000 0.0000 0.0000
# 2 51.2770 98.9035 44.1756 0.0000 0.0000 0.0000
# 3 41.0974 44.1756 59.0690 0.0000 0.0000 0.0000
# 4 0.0000 0.0000 0.0000 27.0574 0.0000 0.0000
# 5 0.0000 0.0000 0.0000 0.0000 22.3379 0.0000
# 6 0.0000 0.0000 0.0000 0.0000 0.0000 5.5762
#
#
#
# Elastic Compliance Matrix: (Units=1/GPa)
#
#
# Indices 1 2 3 4 5 6 
#
# 1 0.014488 -0.004518 -0.006701 0.000000 0.000000 0.000000
# 2 -0.004518 0.016591 -0.009265 0.000000 0.000000 0.000000
# 3 -0.006701 -0.009265 0.028520 0.000000 0.000000 0.000000
# 4 0.000000 0.000000 0.000000 0.036959 0.000000 0.000000
# 5 0.000000 0.000000 0.000000 0.000000 0.044767 0.000000
# 6 0.000000 0.000000 0.000000 0.000000 0.000000 0.179335
#
#
# Mechanical properties :
#
#
# Convention : Reuss Voigt Hill
#
# Bulk Modulus (GPa) = 53.67118 59.45524 56.56321
# Shear Modulus (GPa) = 13.59299 19.35745 16.47522
#
# Velocity S-wave (km/s) = 2.70521 3.22826 2.97824
# Velocity P-wave (km/s) = 6.21715 6.77532 6.50223
#
# Compressibility (1/GPa) = 0.01863197
#
# Stress axis : x y z
#
# Youngs Moduli (GPa) = 69.02487 60.27220 35.06312
#
# Poissons Ratio (x) = 0.27232 0.23495
# Poissons Ratio (y) = 0.31187 0.32484
# Poissons Ratio (z) = 0.46252 0.55839
#
# Static dielectric constant tensor:
#      x y z
#    x 1.630730 0.000000 0.000000 
#    y 0.000000 1.657350 0.000000 
#    z 0.000000 0.000000 1.620950 
# 
# From -- ./inp_files/6532.got.cif
#   From: 2010.05.17/outbox.cif.g08.bks.cpg/sg49_4_cif.got.tgz:6532.got - 2010.06.03 21:02:19.
