data_PCOD9393063
_publ_section_title
;
Structure prediction by ZEFSAII (Michael W. Deem and Ramdas Pophale) SiO2 
 PCOD9393063
Probable space group: P C C M
;
_chemical_formula_sum "Si O2"
_cell_formula_units_Z 48
_cell_length_a 15.150316
_cell_length_b 19.630905
_cell_length_c 8.090989
_cell_angle_alpha 90.000000
_cell_angle_beta 90.000000
_cell_angle_gamma 90.000000
_cell_volume 2406.376753
_symmetry_space_group_name_H-M "P C C M"
_symmetry_group_IT_number 49
_symmetry_cell_setting 'orthorhombic'
loop_
_space_group_symop_operation_xyz
x,y,z
-x,-y,z
x,-y,1/2-z
-x,y,1/2-z
-x,-y,-z
x,y,-z
-x,y,1/2+z
x,-y,1/2+z
loop_
_atom_site_type_symbol
_atom_site_label
_atom_site_fract_x
_atom_site_fract_y
_atom_site_fract_z
Si Si1 0.141292 0.424978 0.309527
Si Si2 0.404869 0.283151 0.805016
Si Si3 0.340695 0.430074 0.194585
Si Si4 0.400484 0.921634 0.197834
Si Si5 0.902327 0.726086 0.299471
Si Si6 0.260013 0.813947 0.190269
O O1 0.111184 0.500000 0.250000
O O2 0.116312 0.422605 0.500000
O O3 0.247266 0.424639 0.287811
O O4 0.111057 0.352106 0.235101
O O5 0.500000 0.258364 0.750000
O O6 0.397074 0.363452 0.774736
O O7 0.329514 0.247553 0.700133
O O8 0.390525 0.270374 0.000000
O O9 0.384521 0.500000 0.250000
O O10 0.320066 0.433225 0.000000
O O11 0.500000 0.900705 0.250000
O O12 0.319145 0.875606 0.264031
O O13 0.389517 0.000000 0.250000
O O14 0.398700 0.916751 0.000000
O O15 0.893402 0.723837 0.500000
O O16 0.828849 0.780130 0.237372
O O17 0.000000 0.747739 0.250000
O O18 0.240299 0.832452 0.000000
#
# Coordination Sequence:
#
# PCOD9393063 Si02
#       6
#     8   8   8   8   8   8
#     4  10  19  33  54  76 103 138 179 232 289 339
#     4  11  23  35  52  78 106 141 183 226 272 328
#     4  10  20  33  50  72  98 135 180 225 275 327
#     4  10  20  35  59  89 122 153 184 220 261 317
#     4  10  22  38  57  81 109 144 185 233 285 335
#     4  10  21  39  59  81 113 149 182 224 276 325
#
# _framework density 19.947002000000001
#
# number of rings (size 3 to 8) (size 9 to 14) (size 15 to 20)
#    0.000    1.833    1.667    4.000    0.000    7.333 
#    0.000    3.333    0.000    0.500    0.000    3.500 
#    0.000    0.000    0.000    0.000    0.000    0.000 
#
# Total GULP energy -267722.242323 kJ/mol
# GULP energy per Si atom -5577.546715 kJ/mol
# Density = 1.990160 g / cm^3
# Si number density = 19.947002 Si / 1000 Ang^3
#
#
#
# Elastic Constant Matrix: (Units=GPa)
#
#
# Indices 1 2 3 4 5 6 
#
# 1 132.7277 59.7835 0.6034 0.0000 0.0000 0.0000
# 2 59.7835 127.2434 16.7974 0.0000 0.0000 0.0000
# 3 0.6034 16.7974 11.3439 0.0000 0.0000 0.0000
# 4 0.0000 0.0000 0.0000 12.7468 0.0000 0.0000
# 5 0.0000 0.0000 0.0000 0.0000 16.1681 0.0000
# 6 0.0000 0.0000 0.0000 0.0000 0.0000 19.3230
#
#
#
# Elastic Compliance Matrix: (Units=1/GPa)
#
#
# Indices 1 2 3 4 5 6 
#
# 1 0.010120 -0.005821 0.008082 0.000000 0.000000 0.000000
# 2 -0.005821 0.013117 -0.019114 0.000000 0.000000 0.000000
# 3 0.008082 -0.019114 0.116026 0.000000 0.000000 0.000000
# 4 0.000000 0.000000 0.000000 0.078451 0.000000 0.000000
# 5 0.000000 0.000000 0.000000 0.000000 0.061850 0.000000
# 6 0.000000 0.000000 0.000000 0.000000 0.000000 0.051752
#
#
# Mechanical properties :
#
#
# Convention : Reuss Voigt Hill
#
# Bulk Modulus (GPa) = 9.47362 47.29818 28.38590
# Shear Modulus (GPa) = 12.49351 22.58965 17.54158
#
# Velocity S-wave (km/s) = 2.50538 3.36889 2.96870
# Velocity P-wave (km/s) = 3.62339 6.23666 5.10024
#
# Compressibility (1/GPa) = 0.10555627
#
# Stress axis : x y z
#
# Youngs Moduli (GPa) = 98.81843 76.23540 8.61874
#
# Poissons Ratio (x) = 0.44380 -0.06965
# Poissons Ratio (y) = 0.57526 0.16474
# Poissons Ratio (z) = -0.79863 1.45714
#
# Static dielectric constant tensor:
#      x y z
#    x 1.695910 0.000000 0.000000 
#    y 0.000000 1.764300 0.000000 
#    z 0.000000 0.000000 1.731060 
# 
# From -- ./inp_files/3843.got.cif
#   From: 2010.05.17/outbox.cif.g08.bks.cpg/sg49_2_cif.got.tgz:3843.got - 2010.06.03 21:02:19.
