data_PCOD9393879
_publ_section_title
;
Structure prediction by ZEFSAII (Michael W. Deem and Ramdas Pophale) SiO2 
 PCOD9393879
Probable space group: P C C M
;
_chemical_formula_sum "Si O2"
_cell_formula_units_Z 64
_cell_length_a 12.113195
_cell_length_b 16.680579
_cell_length_c 17.059529
_cell_angle_alpha 90.000000
_cell_angle_beta 90.000000
_cell_angle_gamma 90.000000
_cell_volume 3446.964943
_symmetry_space_group_name_H-M "P C C M"
_symmetry_group_IT_number 49
_symmetry_cell_setting 'orthorhombic'
loop_
_space_group_symop_operation_xyz
x,y,z
-x,-y,z
x,-y,1/2-z
-x,y,1/2-z
-x,-y,-z
x,y,-z
-x,y,1/2+z
x,-y,1/2+z
loop_
_atom_site_type_symbol
_atom_site_label
_atom_site_fract_x
_atom_site_fract_y
_atom_site_fract_z
Si Si1 0.798820 0.182933 0.407068
Si Si2 0.989179 0.263183 0.843429
Si Si3 0.362776 0.286012 0.405609
Si Si4 0.384678 0.307564 0.094719
Si Si5 0.872755 0.987351 0.842970
Si Si6 0.797375 0.149032 0.093335
Si Si7 0.829994 0.602324 0.341722
Si Si8 0.253677 0.557589 0.685699
O O1 0.798734 0.168018 0.500000
O O2 0.685589 0.227950 0.385414
O O3 0.827389 0.099966 0.364440
O O4 0.896551 0.244058 0.385039
O O5 0.900794 0.195318 0.868543
O O6 0.935406 0.347839 0.867874
O O7 0.000000 0.257970 0.750000
O O8 0.360344 0.292472 0.500000
O O9 0.488267 0.298931 0.380445
O O10 0.311317 0.199611 0.384354
O O11 0.278106 0.351030 0.371530
O O12 0.327507 0.383439 0.136128
O O13 0.380140 0.317068 0.000000
O O14 0.872680 0.000000 0.750000
O O15 0.800287 0.057561 0.880729
O O16 0.000000 0.000000 0.870556
O O17 0.809974 0.153871 0.000000
O O18 0.816155 0.508737 0.361855
O O19 0.825590 0.604333 0.246303
O O20 0.316863 0.500000 0.750000
#
# Coordination Sequence:
#
# PCOD9393879 Si02
#       8
#     8   8   8   8   8   8   8   8
#     4  11  23  36  56  84 114 148 185 229 281 334
#     4  11  19  32  55  79 111 147 185 229 281 335
#     4   9  19  36  58  83 109 146 186 225 278 329
#     4  10  21  39  58  80 114 150 186 229 281 338
#     4  11  22  37  56  85 114 145 182 227 275 328
#     4  10  20  35  57  83 112 143 184 231 274 328
#     4   8  19  35  53  79 109 142 187 235 275 329
#     4   8  19  38  54  82 111 144 187 235 282 334
#
# _framework density 18.567056999999998
#
# number of rings (size 3 to 8) (size 9 to 14) (size 15 to 20)
#    0.750    1.375    1.250    2.250    0.000    3.500 
#    2.250    6.250    0.000    5.250    0.000    0.000 
#    0.000    0.000    0.000    0.000    0.000    0.000 
#
# Total GULP energy -356756.123835 kJ/mol
# GULP energy per Si atom -5574.314435 kJ/mol
# Density = 1.852480 g / cm^3
# Si number density = 18.567057 Si / 1000 Ang^3
#
#
#
# Elastic Constant Matrix: (Units=GPa)
#
#
# Indices 1 2 3 4 5 6 
#
# 1 44.9809 34.9239 12.0690 0.0000 0.0000 0.0000
# 2 34.9239 102.6094 26.8761 0.0000 0.0000 0.0000
# 3 12.0690 26.8761 26.7584 0.0000 0.0000 0.0000
# 4 0.0000 0.0000 0.0000 33.3186 0.0000 0.0000
# 5 0.0000 0.0000 0.0000 0.0000 -16.8798 0.0000
# 6 0.0000 0.0000 0.0000 0.0000 0.0000 15.7000
#
#
#
# Elastic Compliance Matrix: (Units=1/GPa)
#
#
# Indices 1 2 3 4 5 6 
#
# 1 0.030617 -0.009233 -0.004536 0.000000 0.000000 0.000000
# 2 -0.009233 0.016009 -0.011915 0.000000 0.000000 0.000000
# 3 -0.004536 -0.011915 0.051385 0.000000 0.000000 0.000000
# 4 0.000000 0.000000 0.000000 0.030013 0.000000 0.000000
# 5 0.000000 0.000000 0.000000 0.000000 -0.059243 0.000000
# 6 0.000000 0.000000 0.000000 0.000000 0.000000 0.063694
#
#
# Mechanical properties :
#
#
# Convention : Reuss Voigt Hill
#
# Bulk Modulus (GPa) = 21.43936 35.78741 28.61338
# Shear Modulus (GPa) = 25.07628 13.12642 19.10135
#
# Velocity S-wave (km/s) = 3.67901 2.66178 3.21093
# Velocity P-wave (km/s) = 5.44232 5.36314 5.40288
#
# Compressibility (1/GPa) = 0.04664319
#
# Stress axis : x y z
#
# Youngs Moduli (GPa) = 32.66142 62.46493 19.46096
#
# Poissons Ratio (x) = 0.57672 0.08828
# Poissons Ratio (y) = 0.30155 0.23188
# Poissons Ratio (z) = 0.14816 0.74428
#
# Static dielectric constant tensor:
#      x y z
#    x 1.639120 0.000000 0.000000 
#    y 0.000000 1.658600 0.000000 
#    z 0.000000 0.000000 1.652370 
# 
# From -- ./inp_files/17289.got.cif
#   From: 2010.05.17/outbox.cif.g08.bks.cpg/sg49_9_cif.got.tgz:17289.got - 2010.06.03 21:02:19.
