data_PCOD9393378
_publ_section_title
;
Structure prediction by ZEFSAII (Michael W. Deem and Ramdas Pophale) SiO2 
 PCOD9393378
Probable space group: P C C M
;
_chemical_formula_sum "Si O2"
_cell_formula_units_Z 56
_cell_length_a 17.048690
_cell_length_b 10.193737
_cell_length_c 14.751989
_cell_angle_alpha 90.000000
_cell_angle_beta 90.000000
_cell_angle_gamma 90.000000
_cell_volume 2563.746133
_symmetry_space_group_name_H-M "P C C M"
_symmetry_group_IT_number 49
_symmetry_cell_setting 'orthorhombic'
loop_
_space_group_symop_operation_xyz
x,y,z
-x,-y,z
x,-y,1/2-z
-x,y,1/2-z
-x,-y,-z
x,y,-z
-x,y,1/2+z
x,-y,1/2+z
loop_
_atom_site_type_symbol
_atom_site_label
_atom_site_fract_x
_atom_site_fract_y
_atom_site_fract_z
Si Si1 0.155491 0.770887 0.865547
Si Si2 0.260472 0.515475 0.105334
Si Si3 0.567580 0.398796 0.888979
Si Si4 0.993701 0.347305 0.360868
Si Si5 0.262601 0.006041 0.140347
Si Si6 0.563830 0.100740 0.893465
Si Si7 0.174697 0.260764 0.154422
O O1 0.208989 0.646533 0.889815
O O2 0.067391 0.737248 0.894205
O O3 0.199344 0.901552 0.896002
O O4 0.155211 0.781526 0.756631
O O5 0.347457 0.547589 0.137993
O O6 0.219353 0.398618 0.158215
O O7 0.264365 0.473695 0.000000
O O8 0.500000 0.500000 0.861364
O O9 0.559814 0.248774 0.855498
O O10 0.567629 0.395238 0.000000
O O11 0.000000 0.500000 0.388613
O O12 0.000000 0.348668 0.250000
O O13 0.910049 0.288342 0.388975
O O14 0.349442 0.961221 0.112482
O O15 0.264574 0.000000 0.250000
O O16 0.231639 0.150031 0.114258
O O17 0.500000 0.000000 0.855002
O O18 0.545382 0.115960 0.000000
#
# Coordination Sequence:
#
# PCOD9393378 Si02
#       7
#     8   8   8   8   8   8   8
#     4  10  19  37  58  77 111 149 183 224 271 329
#     4  11  21  34  57  84 109 143 182 228 275 321
#     4   9  19  35  55  81 107 135 179 226 266 316
#     4   9  16  30  55  81 105 143 188 226 266 318
#     4  10  22  37  56  83 114 147 180 226 281 327
#     4  10  21  37  59  81 107 146 184 222 269 327
#     4  10  21  35  55  83 111 145 185 227 271 323
#
# _framework density 21.843035
#
# number of rings (size 3 to 8) (size 9 to 14) (size 15 to 20)
#    0.000    2.143    2.857    0.429    2.000    1.429 
#    0.000    4.286    0.000    1.714    0.000    3.000 
#    0.000    0.000    0.000    0.000    0.000    0.000 
#
# Total GULP energy -312833.150662 kJ/mol
# GULP energy per Si atom -5586.306262 kJ/mol
# Density = 2.179332 g / cm^3
# Si number density = 21.843035 Si / 1000 Ang^3
#
#
#
# Elastic Constant Matrix: (Units=GPa)
#
#
# Indices 1 2 3 4 5 6 
#
# 1 185.7921 76.6778 -10.5466 0.0000 0.0000 0.0000
# 2 76.6778 125.2052 -11.4056 0.0000 0.0000 0.0000
# 3 -10.5466 -11.4056 51.0280 0.0000 0.0000 0.0000
# 4 0.0000 0.0000 0.0000 -14.4534 0.0000 0.0000
# 5 0.0000 0.0000 0.0000 0.0000 58.0379 0.0000
# 6 0.0000 0.0000 0.0000 0.0000 0.0000 33.5952
#
#
#
# Elastic Compliance Matrix: (Units=1/GPa)
#
#
# Indices 1 2 3 4 5 6 
#
# 1 0.007216 -0.004372 0.000514 0.000000 0.000000 0.000000
# 2 -0.004372 0.010802 0.001511 0.000000 0.000000 0.000000
# 3 0.000514 0.001511 0.020041 0.000000 0.000000 0.000000
# 4 0.000000 0.000000 0.000000 -0.069188 0.000000 0.000000
# 5 0.000000 0.000000 0.000000 0.000000 0.017230 0.000000
# 6 0.000000 0.000000 0.000000 0.000000 0.000000 0.029766
#
#
# Mechanical properties :
#
#
# Convention : Reuss Voigt Hill
#
# Bulk Modulus (GPa) = 29.97208 52.38626 41.17917
# Shear Modulus (GPa) = 157.80705 35.92260 96.86482
#
# Velocity S-wave (km/s) = 8.50898 4.05974 6.66649
# Velocity P-wave (km/s) = 10.50183 6.78310 8.84022
#
# Compressibility (1/GPa) = 0.03336438
#
# Stress axis : x y z
#
# Youngs Moduli (GPa) = 138.57958 92.57330 49.89760
#
# Poissons Ratio (x) = 0.40477 -0.02565
# Poissons Ratio (y) = 0.60593 -0.07538
# Poissons Ratio (z) = -0.07125 -0.13986
#
# Static dielectric constant tensor:
#      x y z
#    x 1.759660 0.000000 0.000000 
#    y 0.000000 1.761470 0.000000 
#    z 0.000000 0.000000 1.876900 
# 
# From -- ./inp_files/20858.got.cif
#   From: 2010.05.17/outbox.cif.g08.bks.cpg/sg49_11_cif.got.tgz:20858.got - 2010.06.03 21:02:19.
