data_PCOD9393721
_publ_section_title
;
Structure prediction by ZEFSAII (Michael W. Deem and Ramdas Pophale) SiO2 
 PCOD9393721
Probable space group: P C C M
;
_chemical_formula_sum "Si O2"
_cell_formula_units_Z 64
_cell_length_a 11.373429
_cell_length_b 7.684730
_cell_length_c 33.183068
_cell_angle_alpha 90.000000
_cell_angle_beta 90.000000
_cell_angle_gamma 90.000000
_cell_volume 2900.257584
_symmetry_space_group_name_H-M "P C C M"
_symmetry_group_IT_number 49
_symmetry_cell_setting 'orthorhombic'
loop_
_space_group_symop_operation_xyz
x,y,z
-x,-y,z
x,-y,1/2-z
-x,y,1/2-z
-x,-y,-z
x,y,-z
-x,y,1/2+z
x,-y,1/2+z
loop_
_atom_site_type_symbol
_atom_site_label
_atom_site_fract_x
_atom_site_fract_y
_atom_site_fract_z
Si Si1 0.258379 0.296772 0.832414
Si Si2 0.499999 0.287028 0.796207
Si Si3 0.000001 0.202427 0.547764
Si Si4 0.755115 0.800264 0.078911
Si Si5 0.860625 0.800779 0.750000
Si Si6 0.741620 0.296770 0.167587
Si Si7 0.755115 0.800265 0.578912
Si Si8 0.499999 0.211145 0.452213
O O1 0.385270 0.229281 0.819151
O O2 0.223879 0.202480 0.873143
O O3 0.182883 0.281180 0.791731
O O4 0.265894 0.500001 0.842903
O O5 0.500000 0.500000 0.795367
O O6 0.500000 0.229931 0.750000
O O7 0.614729 0.229280 0.819150
O O8 0.000005 0.198754 0.500000
O O9 0.874764 0.281372 0.561191
O O10 0.125236 0.281373 0.561193
O O11 0.000000 0.000000 0.562990
O O12 0.624621 0.727988 0.067641
O O13 0.751761 0.000001 0.063732
O O14 0.817114 0.718818 0.708271
O O15 0.000000 0.797061 0.750000
O O16 0.818692 0.000000 0.750000
O O17 0.776122 0.202475 0.126858
O O18 0.624621 0.727988 0.567642
O O19 0.499997 0.252605 0.500000
O O20 0.500000 0.000000 0.448029
#
# Coordination Sequence:
#
# PCOD9393721 Si02
#       8
#     8   8   8   8   8   8   8   8
#     4  11  22  38  60  84 114 151 191 230 281 344
#     4   9  17  34  56  78 106 142 185 228 270 323
#     4   9  18  34  57  82 109 146 187 227 282 345
#     4  10  20  34  55  84 116 147 187 240 290 336
#     4  11  25  42  59  80 112 151 192 239 286 329
#     4  11  22  38  60  84 114 151 191 230 281 344
#     4  10  20  34  55  84 116 147 187 240 290 336
#     4   9  17  32  57  86 114 148 195 246 288 336
#
# _framework density 22.067007
#
# number of rings (size 3 to 8) (size 9 to 14) (size 15 to 20)
#    0.000    2.000    1.250    2.625    1.750    4.000 
#    0.000    2.500    0.000    4.500    0.000    0.000 
#    0.000    0.000    0.000    0.000    0.000    0.000 
#
# Total GULP energy -357061.633359 kJ/mol
# GULP energy per Si atom -5579.088021 kJ/mol
# Density = 2.201678 g / cm^3
# Si number density = 22.067007 Si / 1000 Ang^3
#
#
#
# Elastic Constant Matrix: (Units=GPa)
#
#
# Indices 1 2 3 4 5 6 
#
# 1 169.5130 11.8103 62.3186 0.0000 0.0000 0.0000
# 2 11.8103 45.9500 -3.6093 0.0000 0.0000 0.0000
# 3 62.3186 -3.6093 117.2756 0.0000 0.0000 0.0000
# 4 0.0000 0.0000 0.0000 75.8197 0.0000 0.0000
# 5 0.0000 0.0000 0.0000 0.0000 29.3965 0.0000
# 6 0.0000 0.0000 0.0000 0.0000 0.0000 -51.0992
#
#
#
# Elastic Compliance Matrix: (Units=1/GPa)
#
#
# Indices 1 2 3 4 5 6 
#
# 1 0.007559 -0.002264 -0.004087 0.000000 0.000000 0.000000
# 2 -0.002264 0.022494 0.001895 0.000000 0.000000 0.000000
# 3 -0.004087 0.001895 0.010757 0.000000 0.000000 0.000000
# 4 0.000000 0.000000 0.000000 0.013189 0.000000 0.000000
# 5 0.000000 0.000000 0.000000 0.000000 0.034018 0.000000
# 6 0.000000 0.000000 0.000000 0.000000 0.000000 -0.019570
#
#
# Mechanical properties :
#
#
# Convention : Reuss Voigt Hill
#
# Bulk Modulus (GPa) = 31.34874 52.64199 41.99537
# Shear Modulus (GPa) = 56.82441 28.30467 42.56454
#
# Velocity S-wave (km/s) = 5.08003 3.58532 4.39666
# Velocity P-wave (km/s) = 6.97467 6.40677 6.69674
#
# Compressibility (1/GPa) = 0.03189921
#
# Stress axis : x y z
#
# Youngs Moduli (GPa) = 132.28637 44.45716 92.96426
#
# Poissons Ratio (x) = 0.10065 0.37991
# Poissons Ratio (y) = 0.29949 -0.17619
# Poissons Ratio (z) = 0.54060 -0.08426
#
# Static dielectric constant tensor:
#      x y z
#    x 1.830170 0.000000 0.000000 
#    y 0.000000 1.838040 0.000000 
#    z 0.000000 0.000000 10.637800 
# 
# From -- ./inp_files/26684.got.cif
#   From: 2010.05.17/outbox.cif.g08.bks.cpg/sg49_14_cif.got.tgz:26684.got - 2010.06.03 21:02:19.
