data_PCOD9393491
_publ_section_title
;
Structure prediction by ZEFSAII (Michael W. Deem and Ramdas Pophale) SiO2 
 PCOD9393491
Probable space group: P C C M
;
_chemical_formula_sum "Si O2"
_cell_formula_units_Z 56
_cell_length_a 14.341843
_cell_length_b 9.128338
_cell_length_c 22.107105
_cell_angle_alpha 90.000000
_cell_angle_beta 90.000000
_cell_angle_gamma 90.000000
_cell_volume 2894.200076
_symmetry_space_group_name_H-M "P C C M"
_symmetry_group_IT_number 49
_symmetry_cell_setting 'orthorhombic'
loop_
_space_group_symop_operation_xyz
x,y,z
-x,-y,z
x,-y,1/2-z
-x,y,1/2-z
-x,-y,-z
x,y,-z
-x,y,1/2+z
x,-y,1/2+z
loop_
_atom_site_type_symbol
_atom_site_label
_atom_site_fract_x
_atom_site_fract_y
_atom_site_fract_z
Si Si1 0.903599 0.055674 0.318640
Si Si2 0.587879 0.606354 0.932488
Si Si3 0.161434 0.994329 0.500000
Si Si4 0.997959 0.235546 0.500000
Si Si5 0.059680 0.630759 0.375784
Si Si6 0.747919 0.117577 0.886900
Si Si7 0.226548 0.557796 0.926702
Si Si8 0.545236 0.156145 0.929903
O O1 0.910609 0.228960 0.334897
O O2 0.910551 0.000000 0.250000
O O3 0.810027 0.971006 0.339075
O O4 0.000000 0.000000 0.350703
O O5 0.500000 0.500000 0.937397
O O6 0.673788 0.512862 0.908731
O O7 0.537987 0.744700 0.902750
O O8 0.617779 0.655630 0.000000
O O9 0.228250 0.016971 0.555847
O O10 0.082737 0.121287 0.500000
O O11 0.101534 0.847943 0.500000
O O12 0.997880 0.320702 0.436303
O O13 0.151126 0.554969 0.402607
O O14 0.000000 0.500000 0.344830
O O15 0.785848 0.281987 0.897794
O O16 0.636942 0.143090 0.888746
O O17 0.222442 0.573254 0.000000
O O18 0.500000 0.000000 0.936598
O O19 0.570647 0.207746 0.000000
#
# Coordination Sequence:
#
# PCOD9393491 Si02
#       8
#     8   8   4   4   8   8   8   8
#     4  11  26  48  66  83 116 165 221 270 307 359
#     4   9  17  31  47  75 123 168 198 230 287 364
#     4  11  20  30  57  83 125 160 198 238 308 382
#     4  11  21  34  52  92 132 165 184 243 311 396
#     4  12  24  38  60  96 128 159 198 251 317 378
#     4  12  21  37  60  88 123 166 208 250 312 375
#     4  11  21  33  55  90 133 167 193 240 309 384
#     4  10  20  32  52  86 127 166 202 242 298 380
#
# _framework density 19.349043000000002
#
# number of rings (size 3 to 8) (size 9 to 14) (size 15 to 20)
#    0.000    1.143    5.000    2.786    2.000    0.000 
#    0.000    5.000    0.000    0.429    0.000    0.000 
#    0.000    0.000    0.000    0.000    0.000    0.000 
#
# Total GULP energy -311877.737511 kJ/mol
# GULP energy per Si atom -5569.245313 kJ/mol
# Density = 1.930500 g / cm^3
# Si number density = 19.349043 Si / 1000 Ang^3
#
#
#
# Elastic Constant Matrix: (Units=GPa)
#
#
# Indices 1 2 3 4 5 6 
#
# 1 92.3807 45.6685 15.8092 0.0000 0.0000 0.0000
# 2 45.6685 141.2229 31.0939 0.0000 0.0000 0.0000
# 3 15.8092 31.0939 56.2052 0.0000 0.0000 0.0000
# 4 0.0000 0.0000 0.0000 4.2260 0.0000 0.0000
# 5 0.0000 0.0000 0.0000 0.0000 12.8559 0.0000
# 6 0.0000 0.0000 0.0000 0.0000 0.0000 44.6760
#
#
#
# Elastic Compliance Matrix: (Units=1/GPa)
#
#
# Indices 1 2 3 4 5 6 
#
# 1 0.012997 -0.003869 -0.001515 0.000000 0.000000 0.000000
# 2 -0.003869 0.009215 -0.004010 0.000000 0.000000 0.000000
# 3 -0.001515 -0.004010 0.020436 0.000000 0.000000 0.000000
# 4 0.000000 0.000000 0.000000 0.236631 0.000000 0.000000
# 5 0.000000 0.000000 0.000000 0.000000 0.077785 0.000000
# 6 0.000000 0.000000 0.000000 0.000000 0.000000 0.022383
#
#
# Mechanical properties :
#
#
# Convention : Reuss Voigt Hill
#
# Bulk Modulus (GPa) = 41.91091 52.77244 47.34168
# Shear Modulus (GPa) = 12.30953 25.50072 18.90513
#
# Velocity S-wave (km/s) = 2.52500 3.63427 3.12918
# Velocity P-wave (km/s) = 5.49621 6.70401 6.12993
#
# Compressibility (1/GPa) = 0.02386014
#
# Stress axis : x y z
#
# Youngs Moduli (GPa) = 76.94170 108.51771 48.93244
#
# Poissons Ratio (x) = 0.41989 0.07414
# Poissons Ratio (y) = 0.29771 0.19620
# Poissons Ratio (z) = 0.11658 0.43512
#
# Static dielectric constant tensor:
#      x y z
#    x 1.769170 0.000000 0.000000 
#    y 0.000000 1.780790 0.000000 
#    z 0.000000 0.000000 1.654050 
# 
# From -- ./inp_files/20910.got.cif
#   From: 2010.05.17/outbox.cif.g08.bks.cpg/sg49_11_cif.got.tgz:20910.got - 2010.06.03 21:02:19.
