data_PCOD9393281
_publ_section_title
;
Structure prediction by ZEFSAII (Michael W. Deem and Ramdas Pophale) SiO2 
 PCOD9393281
Probable space group: P C C M
;
_chemical_formula_sum "Si O2"
_cell_formula_units_Z 64
_cell_length_a 25.234237
_cell_length_b 15.157783
_cell_length_c 8.832777
_cell_angle_alpha 90.000000
_cell_angle_beta 90.000000
_cell_angle_gamma 90.000000
_cell_volume 3378.493821
_symmetry_space_group_name_H-M "P C C M"
_symmetry_group_IT_number 49
_symmetry_cell_setting 'orthorhombic'
loop_
_space_group_symop_operation_xyz
x,y,z
-x,-y,z
x,-y,1/2-z
-x,y,1/2-z
-x,-y,-z
x,y,-z
-x,y,1/2+z
x,-y,1/2+z
loop_
_atom_site_type_symbol
_atom_site_label
_atom_site_fract_x
_atom_site_fract_y
_atom_site_fract_z
Si Si1 0.856771 0.772508 0.181629
Si Si2 0.662754 0.160884 0.825338
Si Si3 0.445022 0.214494 0.181711
Si Si4 0.765874 0.088864 0.320716
Si Si5 0.058827 0.905614 0.817631
Si Si6 0.585907 0.410551 0.321828
Si Si7 0.184050 0.594192 0.181865
Si Si8 0.306192 0.633612 0.174574
O O1 0.803339 0.828318 0.214767
O O2 0.903582 0.827438 0.259945
O O3 0.848439 0.675048 0.247198
O O4 0.864117 0.770318 0.000000
O O5 0.606411 0.163477 0.742181
O O6 0.707673 0.103807 0.746079
O O7 0.685212 0.261132 0.821144
O O8 0.656168 0.135258 0.000000
O O9 0.500000 0.181287 0.250000
O O10 0.437719 0.317214 0.233303
O O11 0.445937 0.212863 0.000000
O O12 0.763081 0.079753 0.500000
O O13 0.789000 0.000000 0.250000
O O14 0.000000 0.892412 0.750000
O O15 0.077339 0.000000 0.750000
O O16 0.057463 0.909984 0.000000
O O17 0.564274 0.500000 0.250000
O O18 0.578587 0.414681 0.500000
O O19 0.648261 0.404799 0.280841
O O20 0.168236 0.500000 0.250000
O O21 0.246543 0.609440 0.218710
O O22 0.179312 0.594850 0.000000
O O23 0.315376 0.604920 0.000000
#
# Coordination Sequence:
#
# PCOD9393281 Si02
#       8
#     8   8   8   8   8   8   8   8
#     4  11  23  39  60  89 125 165 206 252 301 351
#     4  10  19  35  57  80 109 143 181 229 283 343
#     4  10  21  36  53  74  98 133 179 227 281 342
#     4  11  23  37  58  88 122 157 192 233 287 352
#     4  11  22  39  64  94 129 167 209 254 301 358
#     4  10  20  31  46  68  97 131 173 225 280 340
#     4  11  22  36  54  81 116 159 206 253 300 352
#     4   9  18  32  51  74 103 142 186 231 282 339
#
# _framework density 18.943352999999998
#
# number of rings (size 3 to 8) (size 9 to 14) (size 15 to 20)
#    0.000    1.625    1.250    4.500    0.000    6.750 
#    0.000    1.250    0.000    0.750    0.000    5.250 
#    0.000    0.000    0.000    0.000    0.000    0.000 
#
# Total GULP energy -357656.632683 kJ/mol
# GULP energy per Si atom -5588.384886 kJ/mol
# Density = 1.890024 g / cm^3
# Si number density = 18.943353 Si / 1000 Ang^3
#
#
#
# Elastic Constant Matrix: (Units=GPa)
#
#
# Indices 1 2 3 4 5 6 
#
# 1 105.2251 49.2620 52.3567 0.0000 0.0000 0.0000
# 2 49.2620 99.4688 49.3073 0.0000 0.0000 0.0000
# 3 52.3567 49.3073 84.1443 0.0000 0.0000 0.0000
# 4 0.0000 0.0000 0.0000 26.8442 0.0000 0.0000
# 5 0.0000 0.0000 0.0000 0.0000 23.7952 0.0000
# 6 0.0000 0.0000 0.0000 0.0000 0.0000 6.0454
#
#
#
# Elastic Compliance Matrix: (Units=1/GPa)
#
#
# Indices 1 2 3 4 5 6 
#
# 1 0.014759 -0.003886 -0.006906 0.000000 0.000000 0.000000
# 2 -0.003886 0.015192 -0.006485 0.000000 0.000000 0.000000
# 3 -0.006906 -0.006485 0.019982 0.000000 0.000000 0.000000
# 4 0.000000 0.000000 0.000000 0.037252 0.000000 0.000000
# 5 0.000000 0.000000 0.000000 0.000000 0.042025 0.000000
# 6 0.000000 0.000000 0.000000 0.000000 0.000000 0.165414
#
#
# Mechanical properties :
#
#
# Convention : Reuss Voigt Hill
#
# Bulk Modulus (GPa) = 65.02279 65.63222 65.32751
# Shear Modulus (GPa) = 14.95643 20.53112 17.74378
#
# Velocity S-wave (km/s) = 2.81291 3.29571 3.06384
# Velocity P-wave (km/s) = 6.70443 7.01456 6.86125
#
# Compressibility (1/GPa) = 0.01537922
#
# Stress axis : x y z
#
# Youngs Moduli (GPa) = 67.75508 65.82265 50.04627
#
# Poissons Ratio (x) = 0.25578 0.34564
# Poissons Ratio (y) = 0.26329 0.32453
# Poissons Ratio (z) = 0.46794 0.42683
#
# Static dielectric constant tensor:
#      x y z
#    x 1.643390 0.000000 0.000000 
#    y 0.000000 1.632790 0.000000 
#    z 0.000000 0.000000 1.633910 
# 
# From -- ./inp_files/4297.got.cif
#   From: 2010.05.17/outbox.cif.g08.bks.cpg/sg49_3_cif.got.tgz:4297.got - 2010.06.03 21:02:19.
