data_PCOD9393844
_publ_section_title
;
Structure prediction by ZEFSAII (Michael W. Deem and Ramdas Pophale) SiO2 
 PCOD9393844
Probable space group: P C C M
;
_chemical_formula_sum "Si O2"
_cell_formula_units_Z 64
_cell_length_a 20.983459
_cell_length_b 18.816472
_cell_length_c 8.715865
_cell_angle_alpha 90.000000
_cell_angle_beta 90.000000
_cell_angle_gamma 90.000000
_cell_volume 3441.325670
_symmetry_space_group_name_H-M "P C C M"
_symmetry_group_IT_number 49
_symmetry_cell_setting 'orthorhombic'
loop_
_space_group_symop_operation_xyz
x,y,z
-x,-y,z
x,-y,1/2-z
-x,y,1/2-z
-x,-y,-z
x,y,-z
-x,y,1/2+z
x,-y,1/2+z
loop_
_atom_site_type_symbol
_atom_site_label
_atom_site_fract_x
_atom_site_fract_y
_atom_site_fract_z
Si Si1 0.431544 0.078882 0.683205
Si Si2 0.568559 0.421554 0.316040
Si Si3 0.069220 0.167995 0.684247
Si Si4 0.068500 0.333247 0.315480
Si Si5 0.314259 0.834398 0.314994
Si Si6 0.808196 0.578907 0.684019
Si Si7 0.691932 0.669253 0.815218
Si Si8 0.813502 0.079149 0.315933
O O1 0.500000 0.102040 0.750000
O O2 0.435004 0.074977 0.500000
O O3 0.375138 0.129936 0.736895
O O4 0.419251 0.000000 0.750000
O O5 0.582596 0.500000 0.250000
O O6 0.500000 0.399484 0.250000
O O7 0.564399 0.426227 0.500000
O O8 0.625050 0.367959 0.274522
O O9 0.068284 0.163424 0.500000
O O10 0.080300 0.250810 0.728641
O O11 0.125071 0.119673 0.750534
O O12 0.000000 0.147660 0.750000
O O13 0.065428 0.335428 0.500000
O O14 0.126315 0.383032 0.264458
O O15 0.000000 0.354777 0.250000
O O16 0.322085 0.838153 0.500000
O O17 0.307489 0.751913 0.271580
O O18 0.250339 0.877395 0.274121
O O19 0.803231 0.500000 0.750000
O O20 0.808118 0.575746 0.500000
O O21 0.749263 0.626263 0.739577
O O22 0.698802 0.665008 0.000000
O O23 0.817586 0.076532 0.500000
O O24 0.809964 0.000000 0.250000
#
# Coordination Sequence:
#
# PCOD9393844 Si02
#       8
#     8   8   8   8   8   8   8   8
#     4  11  22  38  61  87 117 153 193 236 285 339
#     4  10  20  35  56  81 110 144 183 225 272 326
#     4  10  20  37  60  85 114 146 185 230 279 336
#     4   9  20  37  58  84 113 147 185 228 277 333
#     4  10  22  40  60  85 117 150 188 234 286 343
#     4  11  23  38  57  83 114 149 191 235 282 335
#     4  10  22  39  59  84 114 148 186 232 283 336
#     4  11  23  38  58  83 113 149 187 230 279 332
#
# _framework density 18.597484999999999
#
# number of rings (size 3 to 8) (size 9 to 14) (size 15 to 20)
#    0.000    1.750    0.000    4.875    0.000    7.000 
#    0.000    3.750    0.000    0.000    0.000    0.000 
#    0.000    0.000    0.000    0.000    0.000    0.000 
#
# Total GULP energy -357730.053694 kJ/mol
# GULP energy per Si atom -5589.532089 kJ/mol
# Density = 1.855516 g / cm^3
# Si number density = 18.597485 Si / 1000 Ang^3
#
#
#
# Elastic Constant Matrix: (Units=GPa)
#
#
# Indices 1 2 3 4 5 6 
#
# 1 189.4203 134.6062 71.7630 0.0000 0.0000 0.0000
# 2 134.6062 150.6754 61.7896 0.0000 0.0000 0.0000
# 3 71.7630 61.7896 63.2051 0.0000 0.0000 0.0000
# 4 0.0000 0.0000 0.0000 12.5472 0.0000 0.0000
# 5 0.0000 0.0000 0.0000 0.0000 24.6700 0.0000
# 6 0.0000 0.0000 0.0000 0.0000 0.0000 42.1333
#
#
#
# Elastic Compliance Matrix: (Units=1/GPa)
#
#
# Indices 1 2 3 4 5 6 
#
# 1 0.016149 -0.011530 -0.007064 0.000000 0.000000 0.000000
# 2 -0.011530 0.019310 -0.005787 0.000000 0.000000 0.000000
# 3 -0.007064 -0.005787 0.029499 0.000000 0.000000 0.000000
# 4 0.000000 0.000000 0.000000 0.079699 0.000000 0.000000
# 5 0.000000 0.000000 0.000000 0.000000 0.040535 0.000000
# 6 0.000000 0.000000 0.000000 0.000000 0.000000 0.023734
#
#
# Mechanical properties :
#
#
# Convention : Reuss Voigt Hill
#
# Bulk Modulus (GPa) = 61.73921 104.40206 83.07064
# Shear Modulus (GPa) = 19.00534 24.87959 21.94246
#
# Velocity S-wave (km/s) = 3.20023 3.66155 3.43864
# Velocity P-wave (km/s) = 6.85018 8.61020 7.78012
#
# Compressibility (1/GPa) = 0.01619716
#
# Stress axis : x y z
#
# Youngs Moduli (GPa) = 61.92461 51.78688 33.90002
#
# Poissons Ratio (x) = 0.59709 0.23946
# Poissons Ratio (y) = 0.71398 0.19616
# Poissons Ratio (z) = 0.43741 0.29967
#
# Static dielectric constant tensor:
#      x y z
#    x 1.615110 0.000000 0.000000 
#    y 0.000000 1.616440 0.000000 
#    z 0.000000 0.000000 1.623460 
# 
# From -- ./inp_files/5978.got.cif
#   From: 2010.05.17/outbox.cif.g08.bks.cpg/sg49_3_cif.got.tgz:5978.got - 2010.06.03 21:02:19.
