data_PCOD9393693
_publ_section_title
;
Structure prediction by ZEFSAII (Michael W. Deem and Ramdas Pophale) SiO2 
 PCOD9393693
Probable space group: P C C M
;
_chemical_formula_sum "Si O2"
_cell_formula_units_Z 64
_cell_length_a 9.325965
_cell_length_b 21.502170
_cell_length_c 15.570375
_cell_angle_alpha 90.000000
_cell_angle_beta 90.000000
_cell_angle_gamma 90.000000
_cell_volume 3122.303707
_symmetry_space_group_name_H-M "P C C M"
_symmetry_group_IT_number 49
_symmetry_cell_setting 'orthorhombic'
loop_
_space_group_symop_operation_xyz
x,y,z
-x,-y,z
x,-y,1/2-z
-x,y,1/2-z
-x,-y,-z
x,y,-z
-x,y,1/2+z
x,-y,1/2+z
loop_
_atom_site_type_symbol
_atom_site_label
_atom_site_fract_x
_atom_site_fract_y
_atom_site_fract_z
Si Si1 0.662822 0.245975 0.146466
Si Si2 0.835786 0.365343 0.352751
Si Si3 0.164002 0.500000 0.397820
Si Si4 0.164214 0.365343 0.352751
Si Si5 0.836530 0.122032 0.603434
Si Si6 0.163470 0.877968 0.896566
Si Si7 0.334602 0.000000 0.394799
Si Si8 0.662822 0.754025 0.853534
O O1 0.741830 0.308183 0.114108
O O2 0.754426 0.185183 0.125281
O O3 0.500000 0.240734 0.114144
O O4 0.656349 0.250400 0.250000
O O5 0.772902 0.433837 0.370589
O O6 0.844412 0.358949 0.250000
O O7 0.741830 0.308183 0.385892
O O8 0.000000 0.362825 0.386730
O O9 0.157531 0.500000 0.500000
O O10 0.227098 0.433837 0.370589
O O11 0.000000 0.500000 0.362265
O O12 0.842644 0.117683 0.500000
O O13 0.754426 0.185183 0.625281
O O14 1.000000 0.122554 0.635766
O O15 0.748523 0.061839 0.633844
O O16 0.251477 0.938161 0.866156
O O17 0.157356 0.882317 0.000000
O O18 0.334643 0.000000 0.500000
O O19 0.500000 0.000000 0.367312
#
# Coordination Sequence:
#
# PCOD9393693 Si02
#       8
#     8   8   8   8   8   8   8   8
#     4  10  21  36  53  75 104 137 173 214 260 308
#     4   9  17  31  51  72  96 130 169 206 249 304
#     4   9  17  29  48  75 102 126 160 209 256 297
#     4   9  17  31  51  72  96 130 169 206 249 304
#     4  10  20  34  54  79 105 135 173 215 257 304
#     4  10  20  34  54  79 105 135 173 215 257 304
#     4   9  17  31  52  77 106 139 172 208 254 307
#     4  10  21  36  53  75 104 137 173 214 260 308
#
# _framework density 20.497686000000002
#
# number of rings (size 3 to 8) (size 9 to 14) (size 15 to 20)
#    0.000    2.500    0.000    2.250    0.000    7.000 
#    0.000    3.750    0.000    7.500    0.000    0.000 
#    0.000    0.000    0.000    0.000    0.000    0.000 
#
# Total GULP energy -357237.042885 kJ/mol
# GULP energy per Si atom -5581.828795 kJ/mol
# Density = 2.045103 g / cm^3
# Si number density = 20.497686 Si / 1000 Ang^3
#
#
#
# Elastic Constant Matrix: (Units=GPa)
#
#
# Indices 1 2 3 4 5 6 
#
# 1 173.0700 126.1355 8.3812 0.0000 0.0000 0.0000
# 2 126.1355 242.4887 1.0239 0.0000 0.0000 0.0000
# 3 8.3812 1.0239 26.1216 0.0000 0.0000 0.0000
# 4 0.0000 0.0000 0.0000 28.9110 0.0000 0.0000
# 5 0.0000 0.0000 0.0000 0.0000 13.6386 0.0000
# 6 0.0000 0.0000 0.0000 0.0000 0.0000 -140.8785
#
#
#
# Elastic Compliance Matrix: (Units=1/GPa)
#
#
# Indices 1 2 3 4 5 6 
#
# 1 0.009515 -0.004937 -0.002859 0.000000 0.000000 0.000000
# 2 -0.004937 0.006687 0.001322 0.000000 0.000000 0.000000
# 3 -0.002859 0.001322 0.039148 0.000000 0.000000 0.000000
# 4 0.000000 0.000000 0.000000 0.034589 0.000000 0.000000
# 5 0.000000 0.000000 0.000000 0.000000 0.073321 0.000000
# 6 0.000000 0.000000 0.000000 0.000000 0.000000 -0.007098
#
#
# Mechanical properties :
#
#
# Convention : Reuss Voigt Hill
#
# Bulk Modulus (GPa) = 23.58470 79.19572 51.39021
# Shear Modulus (GPa) = 27.28606 0.74353 14.01480
#
# Velocity S-wave (km/s) = 3.65249 0.60293 2.61765
# Velocity P-wave (km/s) = 5.41466 6.26139 5.85336
#
# Compressibility (1/GPa) = 0.04240036
#
# Stress axis : x y z
#
# Youngs Moduli (GPa) = 105.09942 149.55435 25.54402
#
# Poissons Ratio (x) = 0.73839 0.07304
# Poissons Ratio (y) = 0.51890 -0.03377
# Poissons Ratio (z) = 0.30051 -0.19771
#
# Static dielectric constant tensor:
#      x y z
#    x 1.719520 0.000000 0.000000 
#    y 0.000000 1.710170 0.000000 
#    z 0.000000 0.000000 1.758790 
# 
# From -- ./inp_files/16552.got.cif
#   From: 2010.05.17/outbox.cif.g08.bks.cpg/sg49_9_cif.got.tgz:16552.got - 2010.06.03 21:02:19.
