data_PCOD9393326
_publ_section_title
;
Structure prediction by ZEFSAII (Michael W. Deem and Ramdas Pophale) SiO2 
 PCOD9393326
Probable space group: P C C M
;
_chemical_formula_sum "Si O2"
_cell_formula_units_Z 40
_cell_length_a 13.404574
_cell_length_b 7.567519
_cell_length_c 17.202897
_cell_angle_alpha 90.000000
_cell_angle_beta 90.000000
_cell_angle_gamma 90.000000
_cell_volume 1745.051007
_symmetry_space_group_name_H-M "P C C M"
_symmetry_group_IT_number 49
_symmetry_cell_setting 'orthorhombic'
loop_
_space_group_symop_operation_xyz
x,y,z
-x,-y,z
x,-y,1/2-z
-x,y,1/2-z
-x,-y,-z
x,y,-z
-x,y,1/2+z
x,-y,1/2+z
loop_
_atom_site_type_symbol
_atom_site_label
_atom_site_fract_x
_atom_site_fract_y
_atom_site_fract_z
Si Si1 0.167140 0.992294 0.658249
Si Si2 0.932878 0.339412 0.088881
Si Si3 0.612982 0.057598 0.907826
Si Si4 0.792540 0.655637 0.911507
Si Si5 0.391509 0.525979 0.906518
O O1 0.100738 0.152868 0.624828
O O2 0.283229 0.993059 0.630417
O O3 0.162058 0.000000 0.750000
O O4 0.136328 0.796119 0.630189
O O5 0.832061 0.455379 0.083978
O O6 0.000000 0.500000 0.124744
O O7 0.970095 0.309353 0.000000
O O8 0.625939 0.267409 0.898620
O O9 0.500000 0.000000 0.881444
O O10 0.615694 0.013203 0.000000
O O11 0.685722 0.615784 0.873287
O O12 0.784295 0.720329 0.000000
O O13 0.500000 0.500000 0.872874
O O14 0.393075 0.489090 0.000000
#
# Coordination Sequence:
#
# PCOD9393326 Si02
#       5
#     8   8   8   8   8
#     4  12  25  40  61  94 139 179 213 270 351 432
#     4  10  22  44  72  97 123 164 226 293 340 392
#     4  10  19  35  61  91 130 178 230 282 325 389
#     4  10  20  38  65  92 124 165 219 282 328 386
#     4   9  16  29  54  89 122 160 215 272 322 369
#
# _framework density 22.921966999999999
#
# number of rings (size 3 to 8) (size 9 to 14) (size 15 to 20)
#    0.000    1.800    2.000    3.000    0.000    5.200 
#    0.000    6.000    0.000    0.000    0.000    0.000 
#    0.000    0.000    0.000    0.000    0.000    0.000 
#
# Total GULP energy -222799.275775 kJ/mol
# GULP energy per Si atom -5569.981894 kJ/mol
# Density = 2.286980 g / cm^3
# Si number density = 22.921967 Si / 1000 Ang^3
#
#
#
# Elastic Constant Matrix: (Units=GPa)
#
#
# Indices 1 2 3 4 5 6 
#
# 1 100.2117 52.3102 4.2604 0.0000 0.0000 0.0000
# 2 52.3102 156.8196 45.8630 0.0000 0.0000 0.0000
# 3 4.2604 45.8630 49.1725 0.0000 0.0000 0.0000
# 4 0.0000 0.0000 0.0000 -16.6132 0.0000 0.0000
# 5 0.0000 0.0000 0.0000 0.0000 -27.6794 0.0000
# 6 0.0000 0.0000 0.0000 0.0000 0.0000 53.5446
#
#
#
# Elastic Compliance Matrix: (Units=1/GPa)
#
#
# Indices 1 2 3 4 5 6 
#
# 1 0.012602 -0.005341 0.003890 0.000000 0.000000 0.000000
# 2 -0.005341 0.011032 -0.009827 0.000000 0.000000 0.000000
# 3 0.003890 -0.009827 0.029165 0.000000 0.000000 0.000000
# 4 0.000000 0.000000 0.000000 -0.060193 0.000000 0.000000
# 5 0.000000 0.000000 0.000000 0.000000 -0.036128 0.000000
# 6 0.000000 0.000000 0.000000 0.000000 0.000000 0.018676
#
#
# Mechanical properties :
#
#
# Convention : Reuss Voigt Hill
#
# Bulk Modulus (GPa) = 33.06626 56.78566 44.92596
# Shear Modulus (GPa) = 641.72561 15.43509 328.58035
#
# Velocity S-wave (km/s) = 16.75019 2.59776 11.98576
# Velocity P-wave (km/s) = 19.71163 5.81593 14.53227
#
# Compressibility (1/GPa) = 0.03024231
#
# Stress axis : x y z
#
# Youngs Moduli (GPa) = 79.35552 90.64247 34.28747
#
# Poissons Ratio (x) = 0.48413 -0.13337
# Poissons Ratio (y) = 0.42384 0.33694
# Poissons Ratio (z) = -0.30867 0.89075
#
# Static dielectric constant tensor:
#      x y z
#    x 2.108700 0.000000 0.000000 
#    y 0.000000 2.051600 0.000000 
#    z 0.000000 0.000000 1.823490 
# 
# From -- ./inp_files/13357.got.cif
#   From: 2010.05.17/outbox.cif.g08.bks.cpg/sg49_7_cif.got.tgz:13357.got - 2010.06.03 21:02:19.
