data_PCOD9393417
_publ_section_title
;
Structure prediction by ZEFSAII (Michael W. Deem and Ramdas Pophale) SiO2 
 PCOD9393417
Probable space group: P C C M
;
_chemical_formula_sum "Si O2"
_cell_formula_units_Z 32
_cell_length_a 9.211427
_cell_length_b 12.176988
_cell_length_c 12.929821
_cell_angle_alpha 90.000000
_cell_angle_beta 90.000000
_cell_angle_gamma 90.000000
_cell_volume 1450.304870
_symmetry_space_group_name_H-M "P C C M"
_symmetry_group_IT_number 49
_symmetry_cell_setting 'orthorhombic'
loop_
_space_group_symop_operation_xyz
x,y,z
-x,-y,z
x,-y,1/2-z
-x,y,1/2-z
-x,-y,-z
x,y,-z
-x,y,1/2+z
x,-y,1/2+z
loop_
_atom_site_type_symbol
_atom_site_label
_atom_site_fract_x
_atom_site_fract_y
_atom_site_fract_z
Si Si1 0.834039 0.892166 0.819880
Si Si2 0.053593 0.623679 0.500000
Si Si3 0.500000 0.500000 0.750000
Si Si4 0.332061 0.982509 0.500000
Si Si5 0.069203 0.846875 0.000000
Si Si6 0.227692 0.652308 0.286205
Si Si7 0.000000 0.500000 0.750000
O O1 0.791016 0.780708 0.760419
O O2 0.972064 0.876898 0.897800
O O3 0.845411 0.000000 0.750000
O O4 0.705349 0.913202 0.899339
O O5 0.152586 0.641502 0.398667
O O6 0.000000 0.500000 0.500000
O O7 0.928668 0.715805 0.500000
O O8 0.618532 0.410190 0.706853
O O9 0.218801 0.085609 0.500000
O O10 0.500000 0.000000 0.500000
O O11 0.120491 0.585909 0.208241
#
# Coordination Sequence:
#
# PCOD9393417 Si02
#       7
#     8   4   2   4   4   8   2
#     4  10  22  42  67  92 123 168 221 267 326 383
#     4  10  19  40  66  95 117 165 226 272 319 383
#     4  10  24  44  58  90 140 168 200 276 336 388
#     4  11  25  42  56  93 136 164 207 263 326 404
#     4   9  22  41  65  94 129 165 220 280 316 388
#     4  10  22  40  62  91 125 163 214 265 321 396
#     4  10  20  36  58  86 120 156 208 260 304 376
#
# _framework density 22.064325
#
# number of rings (size 3 to 8) (size 9 to 14) (size 15 to 20)
#    0.000    2.000    1.250    2.250    0.000   11.000 
#    4.500    0.000    0.000    0.000    0.000    0.000 
#    0.000    0.000    0.000    0.000    0.000    0.000 
#
# Total GULP energy -178200.556352 kJ/mol
# GULP energy per Si atom -5568.767386 kJ/mol
# Density = 2.201411 g / cm^3
# Si number density = 22.064325 Si / 1000 Ang^3
#
#
#
# Elastic Constant Matrix: (Units=GPa)
#
#
# Indices 1 2 3 4 5 6 
#
# 1 160.3775 61.2574 12.9559 0.0000 0.0000 0.0000
# 2 61.2574 236.1164 39.7164 0.0000 0.0000 0.0000
# 3 12.9559 39.7164 60.4161 0.0000 0.0000 0.0000
# 4 0.0000 0.0000 0.0000 37.3690 0.0000 0.0000
# 5 0.0000 0.0000 0.0000 0.0000 8.3016 0.0000
# 6 0.0000 0.0000 0.0000 0.0000 0.0000 35.4645
#
#
#
# Elastic Compliance Matrix: (Units=1/GPa)
#
#
# Indices 1 2 3 4 5 6 
#
# 1 0.006927 -0.001740 -0.000342 0.000000 0.000000 0.000000
# 2 -0.001740 0.005199 -0.003044 0.000000 0.000000 0.000000
# 3 -0.000342 -0.003044 0.018627 0.000000 0.000000 0.000000
# 4 0.000000 0.000000 0.000000 0.026760 0.000000 0.000000
# 5 0.000000 0.000000 0.000000 0.000000 0.120459 0.000000
# 6 0.000000 0.000000 0.000000 0.000000 0.000000 0.028197
#
#
# Mechanical properties :
#
#
# Convention : Reuss Voigt Hill
#
# Bulk Modulus (GPa) = 48.77923 76.08551 62.43237
# Shear Modulus (GPa) = 22.39593 39.09236 30.74415
#
# Velocity S-wave (km/s) = 3.18941 4.21378 3.73686
# Velocity P-wave (km/s) = 5.97652 7.63105 6.85389
#
# Compressibility (1/GPa) = 0.02050053
#
# Stress axis : x y z
#
# Youngs Moduli (GPa) = 144.35415 192.35800 53.68687
#
# Poissons Ratio (x) = 0.33465 0.01835
# Poissons Ratio (y) = 0.25114 0.16345
# Poissons Ratio (z) = 0.04935 0.58562
#
# Static dielectric constant tensor:
#      x y z
#    x 1.771470 0.000000 0.000000 
#    y 0.000000 1.906260 0.000000 
#    z 0.000000 0.000000 2.048770 
# 
# From -- ./inp_files/11284.got.cif
#   From: 2010.05.17/outbox.cif.g08.bks.cpg/sg49_6_cif.got.tgz:11284.got - 2010.06.03 21:02:19.
