data_PCOD9393304
_publ_section_title
;
Structure prediction by ZEFSAII (Michael W. Deem and Ramdas Pophale) SiO2 
 PCOD9393304
Probable space group: P C C M
;
_chemical_formula_sum "Si O2"
_cell_formula_units_Z 64
_cell_length_a 14.920421
_cell_length_b 26.029331
_cell_length_c 8.640749
_cell_angle_alpha 90.000000
_cell_angle_beta 90.000000
_cell_angle_gamma 90.000000
_cell_volume 3355.795392
_symmetry_space_group_name_H-M "P C C M"
_symmetry_group_IT_number 49
_symmetry_cell_setting 'orthorhombic'
loop_
_space_group_symop_operation_xyz
x,y,z
-x,-y,z
x,-y,1/2-z
-x,y,1/2-z
-x,-y,-z
x,y,-z
-x,y,1/2+z
x,-y,1/2+z
loop_
_atom_site_type_symbol
_atom_site_label
_atom_site_fract_x
_atom_site_fract_y
_atom_site_fract_z
Si Si1 0.716556 0.054765 0.315517
Si Si2 0.903792 0.908470 0.314633
Si Si3 0.401222 0.653014 0.812642
Si Si4 0.909683 0.441809 0.184732
Si Si5 0.399319 0.851049 0.813723
Si Si6 0.713958 0.249690 0.811449
Si Si7 0.905066 0.213310 0.814558
Si Si8 0.711509 0.557409 0.313616
O O1 0.713130 0.054870 0.500000
O O2 0.818555 0.064174 0.259651
O O3 0.655357 0.100282 0.249011
O O4 0.686063 0.000000 0.250000
O O5 0.901269 0.914281 0.500000
O O6 0.895678 0.847457 0.277336
O O7 0.000000 0.925995 0.250000
O O8 0.500000 0.662122 0.750000
O O9 0.334405 0.698273 0.761752
O O10 0.362380 0.598003 0.761301
O O11 0.403368 0.653297 0.000000
O O12 0.908324 0.500000 0.250000
O O13 0.811207 0.421527 0.227286
O O14 0.000000 0.416483 0.250000
O O15 0.916808 0.443532 0.000000
O O16 0.500000 0.850134 0.750000
O O17 0.345632 0.799533 0.766836
O O18 0.401050 0.853034 0.000000
O O19 0.816039 0.242021 0.757757
O O20 0.716624 0.250091 0.000000
O O21 0.000000 0.231687 0.750000
O O22 0.908081 0.217090 0.000000
O O23 0.700112 0.500000 0.250000
O O24 0.708962 0.554176 0.500000
#
# Coordination Sequence:
#
# PCOD9393304 Si02
#       8
#     8   8   8   8   8   8   8   8
#     4  12  25  41  60  85 116 154 194 240 289 341
#     4  10  19  35  58  86 119 154 193 235 282 339
#     4  10  21  38  58  81 109 144 186 232 283 335
#     4   9  15  25  43  69  99 133 173 216 261 312
#     4  11  22  40  62  87 113 145 188 236 290 348
#     4   9  18  36  61  84 114 149 182 226 281 335
#     4   9  17  32  55  84 115 150 183 221 271 329
#     4   9  19  34  53  77 108 147 187 227 276 334
#
# _framework density 19.071484999999999
#
# number of rings (size 3 to 8) (size 9 to 14) (size 15 to 20)
#    0.000    2.125    1.250    3.000    0.000    2.250 
#    0.000    5.625    0.000    0.000    0.000    0.000 
#    0.000    0.000    0.000    0.000    0.000    0.000 
#
# Total GULP energy -357226.078195 kJ/mol
# GULP energy per Si atom -5581.657472 kJ/mol
# Density = 1.902808 g / cm^3
# Si number density = 19.071485 Si / 1000 Ang^3
#
#
#
# Elastic Constant Matrix: (Units=GPa)
#
#
# Indices 1 2 3 4 5 6 
#
# 1 138.5401 66.0168 28.8800 0.0000 0.0000 0.0000
# 2 66.0168 103.5662 25.5774 0.0000 0.0000 0.0000
# 3 28.8800 25.5774 44.0654 0.0000 0.0000 0.0000
# 4 0.0000 0.0000 0.0000 15.3660 0.0000 0.0000
# 5 0.0000 0.0000 0.0000 0.0000 37.0956 0.0000
# 6 0.0000 0.0000 0.0000 0.0000 0.0000 -0.9990
#
#
#
# Elastic Compliance Matrix: (Units=1/GPa)
#
#
# Indices 1 2 3 4 5 6 
#
# 1 0.010838 -0.006017 -0.003611 0.000000 0.000000 0.000000
# 2 -0.006017 0.014612 -0.004538 0.000000 0.000000 0.000000
# 3 -0.003611 -0.004538 0.027694 0.000000 0.000000 0.000000
# 4 0.000000 0.000000 0.000000 0.065079 0.000000 0.000000
# 5 0.000000 0.000000 0.000000 0.000000 0.026957 0.000000
# 6 0.000000 0.000000 0.000000 0.000000 0.000000 -1.000957
#
#
# Mechanical properties :
#
#
# Convention : Reuss Voigt Hill
#
# Bulk Modulus (GPa) = 40.30172 58.56889 49.43531
# Shear Modulus (GPa) = -6.10370 21.33902 7.61766
#
# Velocity S-wave (km/s) = -1.79092 3.34862 2.00073
# Velocity P-wave (km/s) = 4.11112 6.76224 5.59594
#
# Compressibility (1/GPa) = 0.02481283
#
# Stress axis : x y z
#
# Youngs Moduli (GPa) = 92.26885 68.43842 36.10904
#
# Poissons Ratio (x) = 0.41178 0.13038
# Poissons Ratio (y) = 0.55516 0.16386
# Poissons Ratio (z) = 0.33315 0.31057
#
# Static dielectric constant tensor:
#      x y z
#    x 1.673630 0.000000 0.000000 
#    y 0.000000 1.653740 0.000000 
#    z 0.000000 0.000000 1.649420 
# 
# From -- ./inp_files/4387.got.cif
#   From: 2010.05.17/outbox.cif.g08.bks.cpg/sg49_3_cif.got.tgz:4387.got - 2010.06.03 21:02:19.
