data_PCOD9393916
_publ_section_title
;
Structure prediction by ZEFSAII (Michael W. Deem and Ramdas Pophale) SiO2 
 PCOD9393916
Probable space group: P C C M
;
_chemical_formula_sum "Si O2"
_cell_formula_units_Z 58
_cell_length_a 8.736320
_cell_length_b 14.913011
_cell_length_c 23.532294
_cell_angle_alpha 90.000000
_cell_angle_beta 90.000000
_cell_angle_gamma 90.000000
_cell_volume 3065.901071
_symmetry_space_group_name_H-M "P C C M"
_symmetry_group_IT_number 49
_symmetry_cell_setting 'orthorhombic'
loop_
_space_group_symop_operation_xyz
x,y,z
-x,-y,z
x,-y,1/2-z
-x,y,1/2-z
-x,-y,-z
x,y,-z
-x,y,1/2+z
x,-y,1/2+z
loop_
_atom_site_type_symbol
_atom_site_label
_atom_site_fract_x
_atom_site_fract_y
_atom_site_fract_z
Si Si1 0.500000 0.500000 0.750000
Si Si2 0.379401 0.612978 0.856228
Si Si3 0.350221 0.133674 0.881667
Si Si4 0.171678 0.509402 0.434659
Si Si5 0.350932 0.317527 0.063830
Si Si6 0.826811 0.033204 0.932862
Si Si7 0.707088 0.814853 0.359791
Si Si8 0.685393 0.896949 0.243566
O O1 0.411829 0.566661 0.794795
O O2 0.289813 0.542823 0.895257
O O3 0.534687 0.642697 0.888737
O O4 0.290929 0.707738 0.857656
O O5 0.304111 0.216854 0.920881
O O6 0.533523 0.148597 0.873549
O O7 0.280250 0.140060 0.818540
O O8 0.292807 0.038995 0.906312
O O9 0.182613 0.475870 0.500000
O O10 0.211959 0.613928 0.436069
O O11 0.000000 0.500000 0.413699
O O12 0.420755 0.319413 0.000000
O O13 0.806566 0.130483 0.904671
O O14 0.799078 0.037848 0.000000
O O15 0.000000 0.000000 0.922915
O O16 0.750904 0.845058 0.296681
O O17 0.500000 0.893761 0.250000
O O18 0.731384 0.000000 0.250000
#
# Coordination Sequence:
#
# PCOD9393916 Si02
#       8
#     2   8   8   8   8   8   8   8
#     4  12  24  40  64  96 126 168 202 266 336 384
#     4  11  23  38  64  91 126 156 206 264 317 380
#     4  10  20  35  60  87 118 155 197 253 300 364
#     4  10  21  39  62  86 118 161 204 252 314 381
#     4  10  20  36  60  92 121 156 205 262 318 369
#     4  11  24  40  56  81 123 166 203 252 310 366
#     4  10  22  36  60  92 114 157 201 250 298 365
#     4   9  16  31  56  83 113 143 187 236 287 343
#
# _framework density 18.917764999999999
#
# number of rings (size 3 to 8) (size 9 to 14) (size 15 to 20)
#    0.000    1.793    2.759    1.241    4.828    6.069 
#    0.000    4.483    0.000    1.655    0.000    0.000 
#    0.000    0.000    0.000    0.000    0.000    0.000 
#
# Total GULP energy -323279.661998 kJ/mol
# GULP energy per Si atom -5573.787276 kJ/mol
# Density = 1.887471 g / cm^3
# Si number density = 18.917765 Si / 1000 Ang^3
#
#
#
# Elastic Constant Matrix: (Units=GPa)
#
#
# Indices 1 2 3 4 5 6 
#
# 1 10.8448 13.1062 12.5940 0.0000 0.0000 0.0000
# 2 13.1062 122.5296 43.8984 0.0000 0.0000 0.0000
# 3 12.5940 43.8984 94.9772 0.0000 0.0000 0.0000
# 4 0.0000 0.0000 0.0000 37.7839 0.0000 0.0000
# 5 0.0000 0.0000 0.0000 0.0000 -18.5021 0.0000
# 6 0.0000 0.0000 0.0000 0.0000 0.0000 12.0427
#
#
#
# Elastic Compliance Matrix: (Units=1/GPa)
#
#
# Indices 1 2 3 4 5 6 
#
# 1 0.115530 -0.008232 -0.011514 0.000000 0.000000 0.000000
# 2 -0.008232 0.010368 -0.003700 0.000000 0.000000 0.000000
# 3 -0.011514 -0.003700 0.013766 0.000000 0.000000 0.000000
# 4 0.000000 0.000000 0.000000 0.026466 0.000000 0.000000
# 5 0.000000 0.000000 0.000000 0.000000 -0.054048 0.000000
# 6 0.000000 0.000000 0.000000 0.000000 0.000000 0.083038
#
#
# Mechanical properties :
#
#
# Convention : Reuss Voigt Hill
#
# Bulk Modulus (GPa) = 10.77937 40.83875 25.80906
# Shear Modulus (GPa) = 18.31926 16.84843 17.58384
#
# Velocity S-wave (km/s) = 3.11523 2.98755 3.05206
# Velocity P-wave (km/s) = 4.31855 5.79094 5.10808
#
# Compressibility (1/GPa) = 0.09276980
#
# Stress axis : x y z
#
# Youngs Moduli (GPa) = 8.65575 96.45494 72.64315
#
# Poissons Ratio (x) = 0.79404 0.83644
# Poissons Ratio (y) = 0.07126 0.26880
# Poissons Ratio (z) = 0.09967 0.35691
#
# Static dielectric constant tensor:
#      x y z
#    x 1.668690 0.000000 0.000000 
#    y 0.000000 1.680290 0.000000 
#    z 0.000000 0.000000 1.673680 
# 
# From -- ./inp_files/22500.got.cif
#   From: 2010.05.17/outbox.cif.g08.bks.cpg/sg49_12_cif.got.tgz:22500.got - 2010.06.03 21:02:19.
