data_PCOD9393557
_publ_section_title
;
Structure prediction by ZEFSAII (Michael W. Deem and Ramdas Pophale) SiO2 
 PCOD9393557
Probable space group: P C C M
;
_chemical_formula_sum "Si O2"
_cell_formula_units_Z 64
_cell_length_a 29.437516
_cell_length_b 14.285912
_cell_length_c 8.804148
_cell_angle_alpha 90.000000
_cell_angle_beta 90.000000
_cell_angle_gamma 90.000000
_cell_volume 3702.511922
_symmetry_space_group_name_H-M "P C C M"
_symmetry_group_IT_number 49
_symmetry_cell_setting 'orthorhombic'
loop_
_space_group_symop_operation_xyz
x,y,z
-x,-y,z
x,-y,1/2-z
-x,y,1/2-z
-x,-y,-z
x,y,-z
-x,y,1/2+z
x,-y,1/2+z
loop_
_atom_site_type_symbol
_atom_site_label
_atom_site_fract_x
_atom_site_fract_y
_atom_site_fract_z
Si Si1 0.949958 0.088090 0.176956
Si Si2 0.547732 0.216142 0.818693
Si Si3 0.639158 0.103979 0.817290
Si Si4 0.136475 0.602976 0.319036
Si Si5 0.770590 0.605426 0.317977
Si Si6 0.050614 0.299102 0.319692
Si Si7 0.313701 0.284043 0.181405
Si Si8 0.593142 0.603447 0.819347
O O1 0.932350 0.192032 0.198282
O O2 0.000000 0.092225 0.250000
O O3 0.924929 0.000000 0.250000
O O4 0.954766 0.070167 0.000000
O O5 0.500000 0.184837 0.750000
O O6 0.588931 0.145424 0.780352
O O7 0.560239 0.318574 0.752966
O O8 0.544813 0.222267 0.000000
O O9 0.672858 0.182511 0.748118
O O10 0.645038 0.000000 0.750000
O O11 0.643852 0.101551 0.000000
O O12 0.137325 0.500000 0.250000
O O13 0.140516 0.602828 0.500000
O O14 0.181763 0.646714 0.245051
O O15 0.088295 0.642858 0.267337
O O16 0.764667 0.500000 0.250000
O O17 0.771969 0.598799 0.500000
O O18 0.729551 0.669948 0.261593
O O19 0.048738 0.320247 0.500000
O O20 0.000000 0.308843 0.250000
O O21 0.356492 0.353814 0.208036
O O22 0.306872 0.277466 0.000000
O O23 0.588637 0.500000 0.750000
O O24 0.585754 0.599165 0.000000
#
# Coordination Sequence:
#
# PCOD9393557 Si02
#       8
#     8   8   8   8   8   8   8   8
#     4   9  16  26  44  68  96 125 159 202 247 294
#     4  10  21  36  53  74 103 138 180 224 267 314
#     4  10  21  37  57  81 108 140 177 221 268 317
#     4  11  22  37  55  76 104 139 177 218 261 309
#     4  11  21  35  56  82 111 141 173 211 257 312
#     4  10  20  34  51  75 104 138 178 220 264 311
#     4  10  20  35  56  82 109 137 171 214 262 315
#     4  10  20  33  51  75 105 138 173 214 261 313
#
# _framework density 17.285561000000001
#
# number of rings (size 3 to 8) (size 9 to 14) (size 15 to 20)
#    0.000    1.875    0.000    6.000    0.000    6.250 
#    0.000    3.750    0.000    0.750    0.000    3.500 
#    0.000    0.000    0.000    0.000    0.000    0.000 
#
# Total GULP energy -356981.612731 kJ/mol
# GULP energy per Si atom -5577.837699 kJ/mol
# Density = 1.724622 g / cm^3
# Si number density = 17.285561 Si / 1000 Ang^3
#
#
#
# Elastic Constant Matrix: (Units=GPa)
#
#
# Indices 1 2 3 4 5 6 
#
# 1 106.3062 41.6105 57.6555 0.0000 0.0000 0.0000
# 2 41.6105 91.3146 48.7716 0.0000 0.0000 0.0000
# 3 57.6555 48.7716 116.1584 0.0000 0.0000 0.0000
# 4 0.0000 0.0000 0.0000 30.0913 0.0000 0.0000
# 5 0.0000 0.0000 0.0000 0.0000 14.0361 0.0000
# 6 0.0000 0.0000 0.0000 0.0000 0.0000 13.6916
#
#
#
# Elastic Compliance Matrix: (Units=1/GPa)
#
#
# Indices 1 2 3 4 5 6 
#
# 1 0.013621 -0.003346 -0.005356 0.000000 0.000000 0.000000
# 2 -0.003346 0.014939 -0.004611 0.000000 0.000000 0.000000
# 3 -0.005356 -0.004611 0.013204 0.000000 0.000000 0.000000
# 4 0.000000 0.000000 0.000000 0.033232 0.000000 0.000000
# 5 0.000000 0.000000 0.000000 0.000000 0.071245 0.000000
# 6 0.000000 0.000000 0.000000 0.000000 0.000000 0.073037
#
#
# Mechanical properties :
#
#
# Convention : Reuss Voigt Hill
#
# Bulk Modulus (GPa) = 66.06593 67.76159 66.91376
# Shear Modulus (GPa) = 19.92414 22.61325 21.26869
#
# Velocity S-wave (km/s) = 3.39875 3.62085 3.51156
# Velocity P-wave (km/s) = 7.32839 7.53440 7.43211
#
# Compressibility (1/GPa) = 0.01513639
#
# Stress axis : x y z
#
# Youngs Moduli (GPa) = 73.41347 66.93855 75.73677
#
# Poissons Ratio (x) = 0.22400 0.40565
# Poissons Ratio (y) = 0.24567 0.34926
# Poissons Ratio (z) = 0.39320 0.30869
#
# Static dielectric constant tensor:
#      x y z
#    x 1.929130 0.000000 0.000000 
#    y 0.000000 1.589770 0.000000 
#    z 0.000000 0.000000 1.578950 
# 
# From -- ./inp_files/7015.got.cif
#   From: 2010.05.17/outbox.cif.g08.bks.cpg/sg49_4_cif.got.tgz:7015.got - 2010.06.03 21:02:19.
