data_PCOD9393824
_publ_section_title
;
Structure prediction by ZEFSAII (Michael W. Deem and Ramdas Pophale) SiO2 
 PCOD9393824
Probable space group: P C C M
;
_chemical_formula_sum "Si O2"
_cell_formula_units_Z 64
_cell_length_a 17.778759
_cell_length_b 21.266263
_cell_length_c 9.045734
_cell_angle_alpha 90.000000
_cell_angle_beta 90.000000
_cell_angle_gamma 90.000000
_cell_volume 3420.081348
_symmetry_space_group_name_H-M "P C C M"
_symmetry_group_IT_number 49
_symmetry_cell_setting 'orthorhombic'
loop_
_space_group_symop_operation_xyz
x,y,z
-x,-y,z
x,-y,1/2-z
-x,y,1/2-z
-x,-y,-z
x,y,-z
-x,y,1/2+z
x,-y,1/2+z
loop_
_atom_site_type_symbol
_atom_site_label
_atom_site_fract_x
_atom_site_fract_y
_atom_site_fract_z
Si Si1 0.925295 0.646425 0.827238
Si Si2 0.196881 0.565173 0.825501
Si Si3 0.076165 0.910533 0.169414
Si Si4 0.246265 0.936171 0.179871
Si Si5 0.711676 0.797946 0.677856
Si Si6 0.883910 0.234921 0.830229
Si Si7 0.623613 0.565505 0.674739
Si Si8 0.578039 0.294817 0.820092
O O1 0.851266 0.618324 0.752384
O O2 0.921166 0.719930 0.788101
O O3 0.000000 0.619899 0.750000
O O4 0.926925 0.634705 0.000000
O O5 0.174204 0.500000 0.750000
O O6 0.286301 0.572189 0.803970
O O7 0.182354 0.564488 0.000000
O O8 0.158179 0.931122 0.227391
O O9 0.082417 0.834714 0.171553
O O10 0.000000 0.929389 0.250000
O O11 0.071491 0.931592 0.000000
O O12 0.286766 0.871040 0.227192
O O13 0.277541 0.000000 0.250000
O O14 0.247483 0.938593 0.000000
O O15 0.704697 0.800453 0.500000
O O16 0.795152 0.771151 0.704845
O O17 0.646419 0.750752 0.729031
O O18 0.891927 0.259560 0.000000
O O19 0.599386 0.500000 0.750000
O O20 0.609153 0.559544 0.500000
O O21 0.590326 0.632168 0.726274
O O22 0.500000 0.272867 0.750000
O O23 0.575492 0.294130 0.000000
#
# Coordination Sequence:
#
# PCOD9393824 Si02
#       8
#     8   8   8   8   8   8   8   8
#     4  12  24  35  48  70  98 130 168 214 264 312
#     4  10  20  37  57  75  95 125 166 211 257 308
#     4   9  18  30  46  69 100 135 170 208 256 306
#     4   9  18  33  52  75 100 133 175 219 262 311
#     4   8  16  34  58  77 101 138 176 211 260 319
#     4   9  17  33  54  73  94 127 170 214 257 307
#     4   9  19  35  57  81 108 141 174 207 250 302
#     4  10  20  35  55  81 110 142 174 208 251 303
#
# _framework density 18.713004000000002
#
# number of rings (size 3 to 8) (size 9 to 14) (size 15 to 20)
#    0.000    2.500    0.000    4.125    0.000    5.750 
#    0.000    8.125    0.000    0.375    0.000    2.625 
#    0.000    0.000    0.000    0.000    0.000    0.000 
#
# Total GULP energy -356955.449355 kJ/mol
# GULP energy per Si atom -5577.428896 kJ/mol
# Density = 1.867041 g / cm^3
# Si number density = 18.713004 Si / 1000 Ang^3
#
#
#
# Elastic Constant Matrix: (Units=GPa)
#
#
# Indices 1 2 3 4 5 6 
#
# 1 75.1275 43.7341 30.6123 0.0000 0.0000 0.0000
# 2 43.7341 94.6523 18.2926 0.0000 0.0000 0.0000
# 3 30.6123 18.2926 41.6193 0.0000 0.0000 0.0000
# 4 0.0000 0.0000 0.0000 23.6521 0.0000 0.0000
# 5 0.0000 0.0000 0.0000 0.0000 40.8169 0.0000
# 6 0.0000 0.0000 0.0000 0.0000 0.0000 -1.7943
#
#
#
# Elastic Compliance Matrix: (Units=1/GPa)
#
#
# Indices 1 2 3 4 5 6 
#
# 1 0.023795 -0.008319 -0.013846 0.000000 0.000000 0.000000
# 2 -0.008319 0.014454 -0.000234 0.000000 0.000000 0.000000
# 3 -0.013846 -0.000234 0.034314 0.000000 0.000000 0.000000
# 4 0.000000 0.000000 0.000000 0.042280 0.000000 0.000000
# 5 0.000000 0.000000 0.000000 0.000000 0.024500 0.000000
# 6 0.000000 0.000000 0.000000 0.000000 0.000000 -0.557319
#
#
# Mechanical properties :
#
#
# Convention : Reuss Voigt Hill
#
# Bulk Modulus (GPa) = 36.01529 44.07521 40.04525
# Shear Modulus (GPa) = -13.73911 20.45227 3.35658
#
# Velocity S-wave (km/s) = -2.71255 3.30956 1.34075
# Velocity P-wave (km/s) = 3.07852 6.18131 4.88293
#
# Compressibility (1/GPa) = 0.02776599
#
# Stress axis : x y z
#
# Youngs Moduli (GPa) = 42.02565 69.18566 29.14242
#
# Poissons Ratio (x) = 0.57553 0.40350
# Poissons Ratio (y) = 0.34960 0.00682
# Poissons Ratio (z) = 0.58188 0.01620
#
# Static dielectric constant tensor:
#      x y z
#    x 1.655220 0.000000 0.000000 
#    y 0.000000 1.709960 0.000000 
#    z 0.000000 0.000000 1.637410 
# 
# From -- ./inp_files/4307.got.cif
#   From: 2010.05.17/outbox.cif.g08.bks.cpg/sg49_3_cif.got.tgz:4307.got - 2010.06.03 21:02:19.
