data_PCOD9393934
_publ_section_title
;
Structure prediction by ZEFSAII (Michael W. Deem and Ramdas Pophale) SiO2 
 PCOD9393934
Probable space group: P C C M
;
_chemical_formula_sum "Si O2"
_cell_formula_units_Z 40
_cell_length_a 19.163328
_cell_length_b 13.969817
_cell_length_c 8.634338
_cell_angle_alpha 90.000000
_cell_angle_beta 90.000000
_cell_angle_gamma 90.000000
_cell_volume 2311.482957
_symmetry_space_group_name_H-M "P C C M"
_symmetry_group_IT_number 49
_symmetry_cell_setting 'orthorhombic'
loop_
_space_group_symop_operation_xyz
x,y,z
-x,-y,z
x,-y,1/2-z
-x,y,1/2-z
-x,-y,-z
x,y,-z
-x,y,1/2+z
x,-y,1/2+z
loop_
_atom_site_type_symbol
_atom_site_label
_atom_site_fract_x
_atom_site_fract_y
_atom_site_fract_z
Si Si1 0.425201 0.392410 0.185372
Si Si2 0.850825 0.395747 0.314666
Si Si3 0.075200 0.789952 0.813806
Si Si4 0.712658 0.701299 0.686700
Si Si5 0.785482 0.103410 0.814395
O O1 0.415051 0.500000 0.250000
O O2 0.500000 0.358796 0.250000
O O3 0.361190 0.329592 0.245663
O O4 0.426791 0.395278 0.000000
O O5 0.869151 0.500000 0.250000
O O6 0.850931 0.396234 0.500000
O O7 0.902305 0.313538 0.251943
O O8 0.774078 0.366153 0.252628
O O9 0.136850 0.862673 0.765906
O O10 0.000000 0.817732 0.750000
O O11 0.074188 0.785031 0.000000
O O12 0.712650 0.693548 0.500000
O O13 0.734377 0.809605 0.730402
O O14 0.767555 0.000000 0.750000
O O15 0.785206 0.098788 0.000000
#
# Coordination Sequence:
#
# PCOD9393934 Si02
#       5
#     8   8   8   8   8
#     4  11  21  34  53  80 112 147 179 213 253 301
#     4  11  21  34  52  75 102 137 175 214 256 307
#     4  10  21  37  53  75 103 134 170 214 261 311
#     4  10  20  36  54  77 107 139 174 216 258 305
#     4   9  20  36  56  78 103 132 169 214 262 311
#
# _framework density 17.304907
#
# number of rings (size 3 to 8) (size 9 to 14) (size 15 to 20)
#    0.000    1.800    0.000    7.200    0.000    5.600 
#    0.000    4.000    0.000    0.600    0.000    4.200 
#    0.000    0.000    0.000    0.000    0.000    0.000 
#
# Total GULP energy -223436.628754 kJ/mol
# GULP energy per Si atom -5585.915719 kJ/mol
# Density = 1.726552 g / cm^3
# Si number density = 17.304907 Si / 1000 Ang^3
#
#
#
# Elastic Constant Matrix: (Units=GPa)
#
#
# Indices 1 2 3 4 5 6 
#
# 1 110.6324 20.4132 32.1703 0.0000 0.0000 0.0000
# 2 20.4132 63.0279 18.0071 0.0000 0.0000 0.0000
# 3 32.1703 18.0071 104.4466 0.0000 0.0000 0.0000
# 4 0.0000 0.0000 0.0000 28.9710 0.0000 0.0000
# 5 0.0000 0.0000 0.0000 0.0000 34.7303 0.0000
# 6 0.0000 0.0000 0.0000 0.0000 0.0000 7.8661
#
#
#
# Elastic Compliance Matrix: (Units=1/GPa)
#
#
# Indices 1 2 3 4 5 6 
#
# 1 0.010306 -0.002557 -0.002733 0.000000 0.000000 0.000000
# 2 -0.002557 0.017322 -0.002199 0.000000 0.000000 0.000000
# 3 -0.002733 -0.002199 0.010795 0.000000 0.000000 0.000000
# 4 0.000000 0.000000 0.000000 0.034517 0.000000 0.000000
# 5 0.000000 0.000000 0.000000 0.000000 0.028793 0.000000
# 6 0.000000 0.000000 0.000000 0.000000 0.000000 0.127127
#
#
# Mechanical properties :
#
#
# Convention : Reuss Voigt Hill
#
# Bulk Modulus (GPa) = 42.65316 46.58755 44.62035
# Shear Modulus (GPa) = 19.86852 28.14790 24.00821
#
# Velocity S-wave (km/s) = 3.39210 4.03747 3.72877
# Velocity P-wave (km/s) = 6.32798 6.97961 6.66177
#
# Compressibility (1/GPa) = 0.02344492
#
# Stress axis : x y z
#
# Youngs Moduli (GPa) = 97.03528 57.72906 92.63312
#
# Poissons Ratio (x) = 0.14760 0.25320
# Poissons Ratio (y) = 0.24810 0.20369
# Poissons Ratio (z) = 0.26523 0.12694
#
# Static dielectric constant tensor:
#      x y z
#    x 1.579910 0.000000 0.000000 
#    y 0.000000 1.569100 0.000000 
#    z 0.000000 0.000000 1.579190 
# 
# From -- ./inp_files/2670.got.cif
#   From: 2010.05.17/outbox.cif.g08.bks.cpg/sg49_2_cif.got.tgz:2670.got - 2010.06.03 21:02:19.
