data_PCOD9393035
_publ_section_title
;
Structure prediction by ZEFSAII (Michael W. Deem and Ramdas Pophale) SiO2 
 PCOD9393035
Probable space group: P C C M
;
_chemical_formula_sum "Si O2"
_cell_formula_units_Z 64
_cell_length_a 12.696458
_cell_length_b 15.214077
_cell_length_c 14.751079
_cell_angle_alpha 90.000000
_cell_angle_beta 90.000000
_cell_angle_gamma 90.000000
_cell_volume 2849.390547
_symmetry_space_group_name_H-M "P C C M"
_symmetry_group_IT_number 49
_symmetry_cell_setting 'orthorhombic'
loop_
_space_group_symop_operation_xyz
x,y,z
-x,-y,z
x,-y,1/2-z
-x,y,1/2-z
-x,-y,-z
x,y,-z
-x,y,1/2+z
x,-y,1/2+z
loop_
_atom_site_type_symbol
_atom_site_label
_atom_site_fract_x
_atom_site_fract_y
_atom_site_fract_z
Si Si1 0.826949 0.499610 0.359267
Si Si2 0.596036 0.557914 0.893843
Si Si3 0.368213 0.754349 0.391808
Si Si4 0.203556 0.104503 0.142888
Si Si5 0.016933 0.837797 0.860582
Si Si6 0.473170 0.098255 0.392023
Si Si7 0.760728 0.085642 0.858333
Si Si8 0.999660 0.637879 0.639535
O O1 0.825992 0.500000 0.250000
O O2 0.706992 0.492814 0.388833
O O3 0.896173 0.583246 0.388449
O O4 0.896232 0.415329 0.388785
O O5 0.500000 0.500000 0.855480
O O6 0.615756 0.656065 0.854114
O O7 0.570998 0.570981 0.000000
O O8 0.383090 0.748478 0.500000
O O9 0.256365 0.802424 0.378832
O O10 0.449608 0.826926 0.354531
O O11 0.083241 0.105425 0.111352
O O12 0.219117 0.092138 0.250518
O O13 0.252853 0.014402 0.106670
O O14 0.000000 0.837960 0.750000
O O15 0.129987 0.872848 0.891506
O O16 0.003883 0.737577 0.890336
O O17 0.491187 0.094515 0.500000
O O18 0.352507 0.126590 0.377257
O O19 0.500000 0.000000 0.356253
O O20 0.000000 0.637350 0.750000
#
# Coordination Sequence:
#
# PCOD9393035 Si02
#       8
#     8   8   8   8   8   8   8   8
#     4   9  17  32  55  80 105 135 178 226 270 324
#     4  10  22  39  56  77 109 146 185 230 280 331
#     4  10  21  38  59  78 103 148 191 225 275 336
#     4  10  19  33  52  79 109 140 178 224 273 329
#     4   9  17  30  49  74 110 145 175 213 271 332
#     4  10  20  37  57  75 103 143 188 230 270 326
#     4  10  20  32  51  81 109 140 176 227 275 317
#     4   8  15  29  51  78 105 139 176 217 269 325
#
# _framework density 22.460944000000001
#
# number of rings (size 3 to 8) (size 9 to 14) (size 15 to 20)
#    0.000    2.500    1.250    1.875    0.000    4.250 
#    0.000    3.125    0.000    3.000    0.000    0.000 
#    0.000    0.000    0.000    0.000    0.000    0.000 
#
# Total GULP energy -357098.515288 kJ/mol
# GULP energy per Si atom -5579.664301 kJ/mol
# Density = 2.240982 g / cm^3
# Si number density = 22.460944 Si / 1000 Ang^3
#
#
#
# Elastic Constant Matrix: (Units=GPa)
#
#
# Indices 1 2 3 4 5 6 
#
# 1 153.3770 44.4277 -9.5935 0.0000 0.0000 0.0000
# 2 44.4277 99.1695 4.0526 0.0000 0.0000 0.0000
# 3 -9.5935 4.0526 62.9639 0.0000 0.0000 0.0000
# 4 0.0000 0.0000 0.0000 -11.5267 0.0000 0.0000
# 5 0.0000 0.0000 0.0000 0.0000 13.3915 0.0000
# 6 0.0000 0.0000 0.0000 0.0000 0.0000 20.5717
#
#
#
# Elastic Compliance Matrix: (Units=1/GPa)
#
#
# Indices 1 2 3 4 5 6 
#
# 1 0.007610 -0.003466 0.001383 0.000000 0.000000 0.000000
# 2 -0.003466 0.011689 -0.001280 0.000000 0.000000 0.000000
# 3 0.001383 -0.001280 0.016175 0.000000 0.000000 0.000000
# 4 0.000000 0.000000 0.000000 -0.086755 0.000000 0.000000
# 5 0.000000 0.000000 0.000000 0.000000 0.074674 0.000000
# 6 0.000000 0.000000 0.000000 0.000000 0.000000 0.048610
#
#
# Mechanical properties :
#
#
# Convention : Reuss Voigt Hill
#
# Bulk Modulus (GPa) = 34.78637 43.69823 39.24230
# Shear Modulus (GPa) = 56.61655 22.92888 39.77272
#
# Velocity S-wave (km/s) = 5.02607 3.19851 4.21259
# Velocity P-wave (km/s) = 7.01448 5.75657 6.41643
#
# Compressibility (1/GPa) = 0.02874689
#
# Stress axis : x y z
#
# Youngs Moduli (GPa) = 131.40068 85.55210 61.82305
#
# Poissons Ratio (x) = 0.29652 -0.08548
# Poissons Ratio (y) = 0.45542 0.07916
# Poissons Ratio (z) = -0.18168 0.10954
#
# Static dielectric constant tensor:
#      x y z
#    x 1.819010 0.000000 0.000000 
#    y 0.000000 1.828700 0.000000 
#    z 0.000000 0.000000 1.881940 
# 
# From -- ./inp_files/17336.got.cif
#   From: 2010.05.17/outbox.cif.g08.bks.cpg/sg49_9_cif.got.tgz:17336.got - 2010.06.03 21:02:19.
