data_PCOD9393024
_publ_section_title
;
Structure prediction by ZEFSAII (Michael W. Deem and Ramdas Pophale) SiO2 
 PCOD9393024
Probable space group: P C C M
;
_chemical_formula_sum "Si O2"
_cell_formula_units_Z 64
_cell_length_a 14.753421
_cell_length_b 32.173107
_cell_length_c 8.587789
_cell_angle_alpha 90.000000
_cell_angle_beta 90.000000
_cell_angle_gamma 90.000000
_cell_volume 4076.309060
_symmetry_space_group_name_H-M "P C C M"
_symmetry_group_IT_number 49
_symmetry_cell_setting 'orthorhombic'
loop_
_space_group_symop_operation_xyz
x,y,z
-x,-y,z
x,-y,1/2-z
-x,y,1/2-z
-x,-y,-z
x,y,-z
-x,y,1/2+z
x,-y,1/2+z
loop_
_atom_site_type_symbol
_atom_site_label
_atom_site_fract_x
_atom_site_fract_y
_atom_site_fract_z
Si Si1 0.601910 0.792382 0.312694
Si Si2 0.602423 0.634032 0.187918
Si Si3 0.902129 0.743355 0.686586
Si Si4 0.398568 0.954814 0.187483
Si Si5 0.097219 0.159420 0.687481
Si Si6 0.602976 0.457553 0.686204
Si Si7 0.715242 0.714231 0.187014
Si Si8 0.712440 0.125470 0.189650
O O1 0.500000 0.790809 0.250000
O O2 0.601034 0.791062 0.500000
O O3 0.659090 0.753423 0.251243
O O4 0.650966 0.835193 0.263449
O O5 0.500000 0.639061 0.250000
O O6 0.638866 0.588067 0.232297
O O7 0.665556 0.671929 0.239154
O O8 0.597474 0.634923 0.000000
O O9 0.901389 0.741502 0.500000
O O10 0.890153 0.792073 0.732906
O O11 0.817689 0.718235 0.753544
O O12 0.000000 0.729969 0.750000
O O13 0.500000 0.946761 0.250000
O O14 0.332678 0.917668 0.239070
O O15 0.370530 0.000000 0.250000
O O16 0.401598 0.955929 0.000000
O O17 0.094809 0.158263 0.500000
O O18 0.184630 0.133717 0.741676
O O19 0.000000 0.145310 0.750000
O O20 0.646491 0.500000 0.750000
O O21 0.500000 0.457065 0.750000
O O22 0.600705 0.460200 0.500000
O O23 0.714351 0.715556 0.000000
O O24 0.713421 0.125376 0.000000
#
# Coordination Sequence:
#
# PCOD9393024 Si02
#       8
#     8   8   8   8   8   8   8   8
#     4  11  21  34  47  66  94 127 161 196 233 274
#     4   9  19  31  43  61  90 126 162 196 233 279
#     4  10  19  33  52  71  94 122 156 198 239 279
#     4  10  19  33  52  72  96 124 153 189 230 275
#     4   9  17  32  50  71  94 119 150 188 232 275
#     4   9  15  25  40  59  82 112 151 196 238 275
#     4  11  21  33  47  67  94 128 163 194 232 280
#     4   9  18  33  51  69  95 125 153 189 235 277
#
# _framework density 15.700478
#
# number of rings (size 3 to 8) (size 9 to 14) (size 15 to 20)
#    0.000    2.250    1.250    3.375    0.000    3.000 
#    0.000    3.125    0.000    0.375    0.000    2.625 
#    0.000    0.500    0.000    5.750    0.000    1.750 
#
# Total GULP energy -356861.920982 kJ/mol
# GULP energy per Si atom -5575.967515 kJ/mol
# Density = 1.566474 g / cm^3
# Si number density = 15.700478 Si / 1000 Ang^3
#
#
#
# Elastic Constant Matrix: (Units=GPa)
#
#
# Indices 1 2 3 4 5 6 
#
# 1 124.9934 82.7215 26.6327 0.0000 0.0000 0.0000
# 2 82.7215 144.1188 31.3081 0.0000 0.0000 0.0000
# 3 26.6327 31.3081 35.0836 0.0000 0.0000 0.0000
# 4 0.0000 0.0000 0.0000 22.0198 0.0000 0.0000
# 5 0.0000 0.0000 0.0000 0.0000 23.6999 0.0000
# 6 0.0000 0.0000 0.0000 0.0000 0.0000 4.4433
#
#
#
# Elastic Compliance Matrix: (Units=1/GPa)
#
#
# Indices 1 2 3 4 5 6 
#
# 1 0.013358 -0.006779 -0.004091 0.000000 0.000000 0.000000
# 2 -0.006779 0.012047 -0.005605 0.000000 0.000000 0.000000
# 3 -0.004091 -0.005605 0.036611 0.000000 0.000000 0.000000
# 4 0.000000 0.000000 0.000000 0.045414 0.000000 0.000000
# 5 0.000000 0.000000 0.000000 0.000000 0.042194 0.000000
# 6 0.000000 0.000000 0.000000 0.000000 0.000000 0.225059
#
#
# Mechanical properties :
#
#
# Convention : Reuss Voigt Hill
#
# Bulk Modulus (GPa) = 34.40383 65.05782 49.73082
# Shear Modulus (GPa) = 11.98114 20.93484 16.45799
#
# Velocity S-wave (km/s) = 2.76544 3.65552 3.24118
# Velocity P-wave (km/s) = 5.67072 7.70350 6.76391
#
# Compressibility (1/GPa) = 0.02906653
#
# Stress axis : x y z
#
# Youngs Moduli (GPa) = 74.85962 83.00740 27.31419
#
# Poissons Ratio (x) = 0.56268 0.11175
# Poissons Ratio (y) = 0.50744 0.15309
# Poissons Ratio (z) = 0.30628 0.46525
#
# Static dielectric constant tensor:
#      x y z
#    x 1.500820 0.000000 0.000000 
#    y 0.000000 1.544110 0.000000 
#    z 0.000000 0.000000 1.534690 
# 
# From -- ./inp_files/4518.got.cif
#   From: 2010.05.17/outbox.cif.g08.bks.cpg/sg49_3_cif.got.tgz:4518.got - 2010.06.03 21:02:19.
