data_PCOD9393278
_publ_section_title
;
Structure prediction by ZEFSAII (Michael W. Deem and Ramdas Pophale) SiO2 
 PCOD9393278
Probable space group: P C C M
;
_chemical_formula_sum "Si O2"
_cell_formula_units_Z 56
_cell_length_a 20.208639
_cell_length_b 9.161898
_cell_length_c 15.479370
_cell_angle_alpha 90.000000
_cell_angle_beta 90.000000
_cell_angle_gamma 90.000000
_cell_volume 2865.997449
_symmetry_space_group_name_H-M "P C C M"
_symmetry_group_IT_number 49
_symmetry_cell_setting 'orthorhombic'
loop_
_space_group_symop_operation_xyz
x,y,z
-x,-y,z
x,-y,1/2-z
-x,y,1/2-z
-x,-y,-z
x,y,-z
-x,y,1/2+z
x,-y,1/2+z
loop_
_atom_site_type_symbol
_atom_site_label
_atom_site_fract_x
_atom_site_fract_y
_atom_site_fract_z
Si Si1 0.813352 0.652060 0.894652
Si Si2 0.810657 0.684367 0.398220
Si Si3 0.080547 0.103484 0.665976
Si Si4 0.575347 0.177568 0.747004
Si Si5 0.320197 0.180751 0.102184
Si Si6 0.055043 0.191108 0.902962
Si Si7 0.669382 0.166506 0.901915
O O1 0.811063 0.483281 0.869896
O O2 0.747692 0.740965 0.868275
O O3 0.882924 0.720567 0.865906
O O4 0.813827 0.660741 0.000000
O O5 0.830602 0.690202 0.500000
O O6 0.859195 0.788090 0.345204
O O7 0.736777 0.745126 0.392461
O O8 0.011984 0.189924 0.652146
O O9 0.082465 0.000000 0.750000
O O10 0.078886 0.977151 0.593536
O O11 0.500000 0.230959 0.750000
O O12 0.617971 0.221794 0.662980
O O13 0.616523 0.217560 0.832056
O O14 0.572752 0.000000 0.750000
O O15 0.313786 0.005230 0.110601
O O16 0.330776 0.212921 0.000000
O O17 0.040119 0.243170 0.000000
O O18 0.644441 0.182427 0.000000
#
# Coordination Sequence:
#
# PCOD9393278 Si02
#       7
#     8   8   8   8   8   8   8
#     4   9  19  34  56  83 109 138 180 228 274 325
#     4  10  20  36  57  82 109 142 182 226 273 325
#     4  11  22  35  52  77 108 141 178 222 269 320
#     4   9  18  32  52  81 111 139 180 230 276 328
#     4   9  17  32  54  81 111 145 182 227 280 333
#     4  10  19  35  57  78 102 138 179 221 267 322
#     4   9  18  32  53  79 110 146 184 225 274 331
#
# _framework density 19.539444
#
# number of rings (size 3 to 8) (size 9 to 14) (size 15 to 20)
#    0.000    2.429    0.000    3.429    0.000    6.286 
#    0.000   10.000    0.000    5.143    0.000    4.000 
#    0.000    0.000    0.000    0.000    0.000    0.000 
#
# Total GULP energy -312438.786672 kJ/mol
# GULP energy per Si atom -5579.264048 kJ/mol
# Density = 1.949497 g / cm^3
# Si number density = 19.539444 Si / 1000 Ang^3
#
#
#
# Elastic Constant Matrix: (Units=GPa)
#
#
# Indices 1 2 3 4 5 6 
#
# 1 136.2710 58.5574 69.9874 0.0000 0.0000 0.0000
# 2 58.5574 53.9955 35.9668 0.0000 0.0000 0.0000
# 3 69.9874 35.9668 101.0973 0.0000 0.0000 0.0000
# 4 0.0000 0.0000 0.0000 13.5747 0.0000 0.0000
# 5 0.0000 0.0000 0.0000 0.0000 28.4086 0.0000
# 6 0.0000 0.0000 0.0000 0.0000 0.0000 -11.5451
#
#
#
# Elastic Compliance Matrix: (Units=1/GPa)
#
#
# Indices 1 2 3 4 5 6 
#
# 1 0.016577 -0.013543 -0.006658 0.000000 0.000000 0.000000
# 2 -0.013543 0.035336 -0.003196 0.000000 0.000000 0.000000
# 3 -0.006658 -0.003196 0.015638 0.000000 0.000000 0.000000
# 4 0.000000 0.000000 0.000000 0.073666 0.000000 0.000000
# 5 0.000000 0.000000 0.000000 0.000000 0.035201 0.000000
# 6 0.000000 0.000000 0.000000 0.000000 0.000000 -0.086617
#
#
# Mechanical properties :
#
#
# Convention : Reuss Voigt Hill
#
# Bulk Modulus (GPa) = 48.17563 68.93188 58.55375
# Shear Modulus (GPa) = 34.83979 14.54447 24.69213
#
# Velocity S-wave (km/s) = 4.22720 2.73126 3.55872
# Velocity P-wave (km/s) = 6.96669 6.73062 6.84967
#
# Compressibility (1/GPa) = 0.02075738
#
# Stress axis : x y z
#
# Youngs Moduli (GPa) = 60.32293 28.29977 63.94832
#
# Poissons Ratio (x) = 0.38326 0.42577
# Poissons Ratio (y) = 0.81695 0.20436
# Poissons Ratio (z) = 0.40163 0.09044
#
# Static dielectric constant tensor:
#      x y z
#    x 1.660080 0.000000 0.000000 
#    y 0.000000 1.658140 0.000000 
#    z 0.000000 0.000000 1.770350 
# 
# From -- ./inp_files/14381.got.cif
#   From: 2010.05.17/outbox.cif.g08.bks.cpg/sg49_8_cif.got.tgz:14381.got - 2010.06.03 21:02:19.
