data_PCOD9393959
_publ_section_title
;
Structure prediction by ZEFSAII (Michael W. Deem and Ramdas Pophale) SiO2 
 PCOD9393959
Probable space group: P C C M
;
_chemical_formula_sum "Si O2"
_cell_formula_units_Z 58
_cell_length_a 16.647229
_cell_length_b 18.648366
_cell_length_c 9.761191
_cell_angle_alpha 90.000000
_cell_angle_beta 90.000000
_cell_angle_gamma 90.000000
_cell_volume 3030.299463
_symmetry_space_group_name_H-M "P C C M"
_symmetry_group_IT_number 49
_symmetry_cell_setting 'orthorhombic'
loop_
_space_group_symop_operation_xyz
x,y,z
-x,-y,z
x,-y,1/2-z
-x,y,1/2-z
-x,-y,-z
x,y,-z
-x,y,1/2+z
x,-y,1/2+z
loop_
_atom_site_type_symbol
_atom_site_label
_atom_site_fract_x
_atom_site_fract_y
_atom_site_fract_z
Si Si1 0.612686 0.367661 0.838156
Si Si2 0.500000 0.500000 0.750000
Si Si3 0.392184 0.069467 0.841093
Si Si4 0.076613 0.674417 0.843594
Si Si5 0.804626 0.191083 0.848804
Si Si6 0.197067 0.934990 0.654253
Si Si7 0.782090 0.571724 0.334535
Si Si8 0.387470 0.790471 0.839034
O O1 0.560305 0.440209 0.816121
O O2 0.703768 0.382538 0.792970
O O3 0.586742 0.288714 0.785820
O O4 0.614562 0.356500 0.000000
O O5 0.294696 0.065750 0.848679
O O6 0.411038 0.142858 0.758280
O O7 0.415128 0.000000 0.750000
O O8 0.421231 0.068334 0.000000
O O9 0.137799 0.741065 0.843016
O O10 0.133821 0.609000 0.801500
O O11 0.000000 0.684618 0.750000
O O12 0.050123 0.663140 0.000000
O O13 0.826919 0.137861 0.728153
O O14 0.710418 0.210824 0.838254
O O15 0.813367 0.156417 0.000000
O O16 0.167825 0.941366 0.500000
O O17 0.171518 0.000000 0.750000
O O18 0.775671 0.500000 0.250000
O O19 0.777990 0.562104 0.500000
O O20 0.411304 0.801983 0.000000
#
# Coordination Sequence:
#
# PCOD9393959 Si02
#       8
#     8   2   8   8   8   8   8   8
#     4  10  20  36  57  82 114 151 192 231 279 337
#     4  12  22  36  60  90 120 148 190 232 282 328
#     4   9  16  26  42  72 110 144 182 228 277 326
#     4  10  21  36  55  77 106 140 182 230 281 335
#     4   9  16  29  49  70  95 135 180 223 272 326
#     4   9  16  25  40  66 100 136 175 223 271 322
#     4  10  20  38  59  81 108 145 184 225 277 334
#     4   9  16  30  52  74 103 146 189 228 275 331
#
# _framework density 19.140022999999999
#
# number of rings (size 3 to 8) (size 9 to 14) (size 15 to 20)
#    0.000    2.483    2.069    1.034    0.000    4.690 
#    0.000    3.448    0.000    0.414    0.000    3.379 
#    0.000    3.310    0.000    0.000    0.000    0.000 
#
# Total GULP energy -323109.500377 kJ/mol
# GULP energy per Si atom -5570.853455 kJ/mol
# Density = 1.909646 g / cm^3
# Si number density = 19.140023 Si / 1000 Ang^3
#
#
#
# Elastic Constant Matrix: (Units=GPa)
#
#
# Indices 1 2 3 4 5 6 
#
# 1 74.9748 15.9556 29.5755 0.0000 0.0000 0.0000
# 2 15.9556 142.9592 65.9803 0.0000 0.0000 0.0000
# 3 29.5755 65.9803 97.5063 0.0000 0.0000 0.0000
# 4 0.0000 0.0000 0.0000 32.1677 0.0000 0.0000
# 5 0.0000 0.0000 0.0000 0.0000 38.2202 0.0000
# 6 0.0000 0.0000 0.0000 0.0000 0.0000 2.3168
#
#
#
# Elastic Compliance Matrix: (Units=1/GPa)
#
#
# Indices 1 2 3 4 5 6 
#
# 1 0.015189 0.000627 -0.005031 0.000000 0.000000 0.000000
# 2 0.000627 0.010198 -0.007091 0.000000 0.000000 0.000000
# 3 -0.005031 -0.007091 0.016580 0.000000 0.000000 0.000000
# 4 0.000000 0.000000 0.000000 0.031087 0.000000 0.000000
# 5 0.000000 0.000000 0.000000 0.000000 0.026164 0.000000
# 6 0.000000 0.000000 0.000000 0.000000 0.000000 0.431629
#
#
# Mechanical properties :
#
#
# Convention : Reuss Voigt Hill
#
# Bulk Modulus (GPa) = 52.69687 59.82922 56.26305
# Shear Modulus (GPa) = 8.92599 28.13622 18.53110
#
# Velocity S-wave (km/s) = 2.16186 3.83824 3.11494
# Velocity P-wave (km/s) = 5.81580 7.13928 6.51126
#
# Compressibility (1/GPa) = 0.01897646
#
# Stress axis : x y z
#
# Youngs Moduli (GPa) = 65.83657 98.06250 60.31402
#
# Poissons Ratio (x) = -0.06147 0.30346
# Poissons Ratio (y) = -0.04127 0.42766
# Poissons Ratio (z) = 0.33125 0.69532
#
# Static dielectric constant tensor:
#      x y z
#    x 1.672910 0.000000 0.000000 
#    y 0.000000 1.699100 0.000000 
#    z 0.000000 0.000000 1.650330 
# 
# From -- ./inp_files/5092.got.cif
#   From: 2010.05.17/outbox.cif.g08.bks.cpg/sg49_3_cif.got.tgz:5092.got - 2010.06.03 21:02:19.
