data_PCOD9393177
_publ_section_title
;
Structure prediction by ZEFSAII (Michael W. Deem and Ramdas Pophale) SiO2 
 PCOD9393177
Probable space group: P C C M
;
_chemical_formula_sum "Si O2"
_cell_formula_units_Z 64
_cell_length_a 21.067911
_cell_length_b 20.118231
_cell_length_c 8.704389
_cell_angle_alpha 90.000000
_cell_angle_beta 90.000000
_cell_angle_gamma 90.000000
_cell_volume 3689.347445
_symmetry_space_group_name_H-M "P C C M"
_symmetry_group_IT_number 49
_symmetry_cell_setting 'orthorhombic'
loop_
_space_group_symop_operation_xyz
x,y,z
-x,-y,z
x,-y,1/2-z
-x,y,1/2-z
-x,-y,-z
x,y,-z
-x,y,1/2+z
x,-y,1/2+z
loop_
_atom_site_type_symbol
_atom_site_label
_atom_site_fract_x
_atom_site_fract_y
_atom_site_fract_z
Si Si1 0.815799 0.707501 0.184644
Si Si2 0.887594 0.928796 0.184088
Si Si3 0.932956 0.209421 0.816827
Si Si4 0.310132 0.210936 0.187022
Si Si5 0.380202 0.571501 0.183493
Si Si6 0.770184 0.428333 0.816390
Si Si7 0.262666 0.929788 0.315912
Si Si8 0.432597 0.706607 0.684335
O O1 0.875682 0.745465 0.254646
O O2 0.751490 0.746349 0.232235
O O3 0.808118 0.632359 0.242310
O O4 0.819806 0.709574 0.000000
O O5 0.921658 0.865724 0.257434
O O6 0.812262 0.921913 0.221213
O O7 0.908737 0.000000 0.250000
O O8 0.894771 0.927616 0.000000
O O9 0.000000 0.233068 0.750000
O O10 0.933905 0.210078 0.000000
O O11 0.299847 0.135294 0.239445
O O12 0.374598 0.246436 0.237156
O O13 0.310629 0.210213 0.000000
O O14 0.399616 0.500000 0.250000
O O15 0.305049 0.580448 0.219886
O O16 0.417515 0.632449 0.257172
O O17 0.387603 0.571874 0.000000
O O18 0.789012 0.500000 0.750000
O O19 0.223099 0.427731 0.500000
O O20 0.266909 0.932352 0.500000
O O21 0.284668 0.000000 0.250000
O O22 0.500000 0.728563 0.750000
O O23 0.434226 0.706519 0.500000
#
# Coordination Sequence:
#
# PCOD9393177 Si02
#       8
#     8   8   8   8   8   8   8   8
#     4  11  20  37  61  85 112 148 187 233 284 333
#     4  10  19  34  55  81 114 150 188 230 277 335
#     4  12  25  40  57  82 114 152 193 235 282 336
#     4   9  18  34  57  80 108 145 183 224 278 333
#     4  10  20  34  53  79 111 147 186 227 270 327
#     4  10  20  34  55  86 117 147 185 232 279 331
#     4   9  17  32  53  81 110 140 177 223 275 329
#     4  11  22  37  55  78 109 148 187 230 281 334
#
# _framework density 17.347239999999999
#
# number of rings (size 3 to 8) (size 9 to 14) (size 15 to 20)
#    0.000    1.750    2.500    3.000    0.000    2.000 
#    0.000    3.750    0.000    0.750    0.000    5.250 
#    0.000    0.000    0.000    0.000    0.000    0.000 
#
# Total GULP energy -357491.196359 kJ/mol
# GULP energy per Si atom -5585.799943 kJ/mol
# Density = 1.730776 g / cm^3
# Si number density = 17.347240 Si / 1000 Ang^3
#
#
#
# Elastic Constant Matrix: (Units=GPa)
#
#
# Indices 1 2 3 4 5 6 
#
# 1 118.5278 71.2679 43.7565 0.0000 0.0000 0.0000
# 2 71.2679 131.5861 36.6737 0.0000 0.0000 0.0000
# 3 43.7565 36.6737 60.5487 0.0000 0.0000 0.0000
# 4 0.0000 0.0000 0.0000 31.3573 0.0000 0.0000
# 5 0.0000 0.0000 0.0000 0.0000 11.0068 0.0000
# 6 0.0000 0.0000 0.0000 0.0000 0.0000 19.3085
#
#
#
# Elastic Compliance Matrix: (Units=1/GPa)
#
#
# Indices 1 2 3 4 5 6 
#
# 1 0.014581 -0.005968 -0.006922 0.000000 0.000000 0.000000
# 2 -0.005968 0.011585 -0.002705 0.000000 0.000000 0.000000
# 3 -0.006922 -0.002705 0.023156 0.000000 0.000000 0.000000
# 4 0.000000 0.000000 0.000000 0.031891 0.000000 0.000000
# 5 0.000000 0.000000 0.000000 0.000000 0.090853 0.000000
# 6 0.000000 0.000000 0.000000 0.000000 0.000000 0.051791
#
#
# Mechanical properties :
#
#
# Convention : Reuss Voigt Hill
#
# Bulk Modulus (GPa) = 55.14745 68.22876 61.68811
# Shear Modulus (GPa) = 19.15047 22.93214 21.04131
#
# Velocity S-wave (km/s) = 3.32618 3.63980 3.48652
# Velocity P-wave (km/s) = 6.82720 7.55518 7.20040
#
# Compressibility (1/GPa) = 0.01813320
#
# Stress axis : x y z
#
# Youngs Moduli (GPa) = 68.58473 86.31501 43.18482
#
# Poissons Ratio (x) = 0.51509 0.29894
# Poissons Ratio (y) = 0.40929 0.11680
# Poissons Ratio (z) = 0.47477 0.23345
#
# Static dielectric constant tensor:
#      x y z
#    x 1.587660 0.000000 0.000000 
#    y 0.000000 1.577470 0.000000 
#    z 0.000000 0.000000 1.578760 
# 
# From -- ./inp_files/5255.got.cif
#   From: 2010.05.17/outbox.cif.g08.bks.cpg/sg49_3_cif.got.tgz:5255.got - 2010.06.03 21:02:19.
