data_PCOD9393685
_publ_section_title
;
Structure prediction by ZEFSAII (Michael W. Deem and Ramdas Pophale) SiO2 
 PCOD9393685
Probable space group: P C C M
;
_chemical_formula_sum "Si O2"
_cell_formula_units_Z 64
_cell_length_a 15.527218
_cell_length_b 24.033756
_cell_length_c 9.062821
_cell_angle_alpha 90.000000
_cell_angle_beta 90.000000
_cell_angle_gamma 90.000000
_cell_volume 3382.039694
_symmetry_space_group_name_H-M "P C C M"
_symmetry_group_IT_number 49
_symmetry_cell_setting 'orthorhombic'
loop_
_space_group_symop_operation_xyz
x,y,z
-x,-y,z
x,-y,1/2-z
-x,y,1/2-z
-x,-y,-z
x,y,-z
-x,y,1/2+z
x,-y,1/2+z
loop_
_atom_site_type_symbol
_atom_site_label
_atom_site_fract_x
_atom_site_fract_y
_atom_site_fract_z
Si Si1 0.662203 0.681250 0.825303
Si Si2 0.228856 0.856889 0.326786
Si Si3 0.093022 0.938992 0.820681
Si Si4 0.093231 0.446057 0.325240
Si Si5 0.161372 0.326540 0.328150
Si Si6 0.410550 0.801340 0.676515
Si Si7 0.921596 0.230583 0.332532
Si Si8 0.594189 0.555598 0.823252
O O1 0.744966 0.689639 0.725497
O O2 0.602745 0.734947 0.793916
O O3 0.630626 0.617980 0.797813
O O4 0.684293 0.684620 0.000000
O O5 0.233394 0.874779 0.500000
O O6 0.173979 0.901198 0.231683
O O7 0.324397 0.836322 0.279131
O O8 0.166568 0.803249 0.322840
O O9 0.000000 0.921601 0.750000
O O10 0.107474 0.000000 0.750000
O O11 0.086633 0.940235 0.000000
O O12 0.133319 0.500000 0.250000
O O13 0.082762 0.454263 0.500000
O O14 0.147718 0.391326 0.298860
O O15 0.000000 0.438561 0.250000
O O16 0.149363 0.315942 0.500000
O O17 0.094768 0.290049 0.238326
O O18 0.500000 0.819553 0.750000
O O19 0.416827 0.807146 0.500000
O O20 0.946841 0.236511 0.500000
O O21 0.000000 0.201778 0.250000
O O22 0.636389 0.500000 0.750000
O O23 0.500000 0.557731 0.750000
O O24 0.590207 0.547361 0.000000
#
# Coordination Sequence:
#
# PCOD9393685 Si02
#       8
#     8   8   8   8   8   8   8   8
#     4  10  21  38  56  77 107 146 186 236 299 359
#     4  10  21  39  61  88 125 163 205 253 298 349
#     4  11  22  38  63  96 135 176 217 253 298 349
#     4  10  21  36  53  73  95 128 174 225 279 341
#     4  11  23  36  53  78 106 138 182 232 285 348
#     4  10  21  39  61  87 118 156 202 252 309 363
#     4  11  22  37  57  82 117 156 193 236 290 349
#     4  10  20  34  54  76 103 134 176 227 291 363
#
# _framework density 18.923492
#
# number of rings (size 3 to 8) (size 9 to 14) (size 15 to 20)
#    0.000    1.625    1.250    4.875    0.000    7.500 
#    0.000    2.500    0.000    0.375    0.000    2.625 
#    0.000    0.000    0.000    0.000    0.000    0.000 
#
# Total GULP energy -356971.387547 kJ/mol
# GULP energy per Si atom -5577.677930 kJ/mol
# Density = 1.888042 g / cm^3
# Si number density = 18.923492 Si / 1000 Ang^3
#
#
#
# Elastic Constant Matrix: (Units=GPa)
#
#
# Indices 1 2 3 4 5 6 
#
# 1 117.3483 43.1588 57.7033 0.0000 0.0000 0.0000
# 2 43.1588 101.5654 64.8032 0.0000 0.0000 0.0000
# 3 57.7033 64.8032 85.5948 0.0000 0.0000 0.0000
# 4 0.0000 0.0000 0.0000 26.6894 0.0000 0.0000
# 5 0.0000 0.0000 0.0000 0.0000 -1.8013 0.0000
# 6 0.0000 0.0000 0.0000 0.0000 0.0000 27.7968
#
#
#
# Elastic Compliance Matrix: (Units=1/GPa)
#
#
# Indices 1 2 3 4 5 6 
#
# 1 0.012748 0.000128 -0.008691 0.000000 0.000000 0.000000
# 2 0.000128 0.019048 -0.014507 0.000000 0.000000 0.000000
# 3 -0.008691 -0.014507 0.028525 0.000000 0.000000 0.000000
# 4 0.000000 0.000000 0.000000 0.037468 0.000000 0.000000
# 5 0.000000 0.000000 0.000000 0.000000 -0.555159 0.000000
# 6 0.000000 0.000000 0.000000 0.000000 0.000000 0.035975
#
#
# Mechanical properties :
#
#
# Convention : Reuss Voigt Hill
#
# Bulk Modulus (GPa) = 70.51810 70.64879 70.58344
# Shear Modulus (GPa) = -13.49430 19.79321 3.14945
#
# Velocity S-wave (km/s) = -2.67329 3.23764 1.29148
# Velocity P-wave (km/s) = 5.27420 7.16878 6.29319
#
# Compressibility (1/GPa) = 0.01418076
#
# Stress axis : x y z
#
# Youngs Moduli (GPa) = 78.44260 52.49979 35.05643
#
# Poissons Ratio (x) = -0.00673 0.30468
# Poissons Ratio (y) = -0.01006 0.50857
# Poissons Ratio (z) = 0.68176 0.76163
#
# Static dielectric constant tensor:
#      x y z
#    x 1.702760 0.000000 0.000000 
#    y 0.000000 1.691460 0.000000 
#    z 0.000000 0.000000 1.639870 
# 
# From -- ./inp_files/4401.got.cif
#   From: 2010.05.17/outbox.cif.g08.bks.cpg/sg49_3_cif.got.tgz:4401.got - 2010.06.03 21:02:19.
