data_PCOD9393230
_publ_section_title
;
Structure prediction by ZEFSAII (Michael W. Deem and Ramdas Pophale) SiO2 
 PCOD9393230
Probable space group: P C C M
;
_chemical_formula_sum "Si O2"
_cell_formula_units_Z 64
_cell_length_a 8.648132
_cell_length_b 15.835684
_cell_length_c 24.426729
_cell_angle_alpha 90.000000
_cell_angle_beta 90.000000
_cell_angle_gamma 90.000000
_cell_volume 3345.218199
_symmetry_space_group_name_H-M "P C C M"
_symmetry_group_IT_number 49
_symmetry_cell_setting 'orthorhombic'
loop_
_space_group_symop_operation_xyz
x,y,z
-x,-y,z
x,-y,1/2-z
-x,y,1/2-z
-x,-y,-z
x,y,-z
-x,y,1/2+z
x,-y,1/2+z
loop_
_atom_site_type_symbol
_atom_site_label
_atom_site_fract_x
_atom_site_fract_y
_atom_site_fract_z
Si Si1 0.311561 0.000000 0.437302
Si Si2 0.688112 0.097699 0.250000
Si Si3 0.685497 0.500000 0.563882
Si Si4 0.317071 0.398479 0.750000
Si Si5 0.816075 0.344720 0.866769
Si Si6 0.183925 0.344720 0.133230
Si Si7 0.687337 0.836038 0.631965
Si Si8 0.687337 0.163962 0.631965
O O1 0.259623 1.000000 0.500000
O O2 0.264982 0.915368 0.405284
O O3 0.500000 0.000000 0.437034
O O4 0.264983 0.084632 0.405284
O O5 0.500000 0.096442 0.250000
O O6 0.735742 0.143312 0.194349
O O7 0.735742 0.143312 0.305651
O O8 0.738439 0.000000 0.250000
O O9 0.500000 0.500000 0.568016
O O10 0.729038 0.500001 0.500000
O O11 0.749100 0.582139 0.594730
O O12 0.749100 0.417861 0.594730
O O13 0.296543 0.500000 0.750000
O O14 0.500000 0.380023 0.750000
O O15 0.244280 0.361683 0.694833
O O16 0.244280 0.361683 0.805167
O O17 0.757145 0.252987 0.885111
O O18 1.000000 0.348294 0.867196
O O19 0.242855 0.252987 0.114889
O O20 0.500000 0.830530 0.630658
#
# Coordination Sequence:
#
# PCOD9393230 Si02
#       8
#     8   8   8   8   8   8   8   8
#     4   9  18  33  56  86 115 149 201 258 299 339
#     4   9  15  28  54  85 111 145 194 249 297 338
#     4  11  25  46  69  90 115 155 211 263 302 351
#     4  11  22  39  66  93 122 160 205 250 298 359
#     4  12  25  40  62  93 130 163 197 245 309 375
#     4  12  25  40  62  93 130 163 197 245 309 375
#     4  10  19  34  58  85 117 155 201 250 296 351
#     4  10  19  34  58  85 117 155 201 250 296 351
#
# _framework density 19.131785000000001
#
# number of rings (size 3 to 8) (size 9 to 14) (size 15 to 20)
#    0.000    1.500    2.500    3.750    0.000    3.500 
#    0.000    3.125    0.000    1.500    0.000    0.000 
#    0.000    0.000    0.000    0.000    0.000    0.000 
#
# Total GULP energy -357790.212324 kJ/mol
# GULP energy per Si atom -5590.472068 kJ/mol
# Density = 1.908824 g / cm^3
# Si number density = 19.131785 Si / 1000 Ang^3
#
#
#
# Elastic Constant Matrix: (Units=GPa)
#
#
# Indices 1 2 3 4 5 6 
#
# 1 57.6122 54.6680 43.2290 0.0000 0.0000 0.0000
# 2 54.6680 198.6396 100.4672 0.0000 0.0000 0.0000
# 3 43.2290 100.4672 158.7623 0.0000 0.0000 0.0000
# 4 0.0000 0.0000 0.0000 -0.4796 0.0000 0.0000
# 5 0.0000 0.0000 0.0000 0.0000 -4.3296 0.0000
# 6 0.0000 0.0000 0.0000 0.0000 0.0000 -20.6320
#
#
#
# Elastic Compliance Matrix: (Units=1/GPa)
#
#
# Indices 1 2 3 4 5 6 
#
# 1 0.024803 -0.005016 -0.003580 0.000000 0.000000 0.000000
# 2 -0.005016 0.008418 -0.003962 0.000000 0.000000 0.000000
# 3 -0.003580 -0.003962 0.009780 0.000000 0.000000 0.000000
# 4 0.000000 0.000000 0.000000 -2.085172 0.000000 0.000000
# 5 0.000000 0.000000 0.000000 0.000000 -0.230967 0.000000
# 6 0.000000 0.000000 0.000000 0.000000 0.000000 -0.048468
#
#
# Mechanical properties :
#
#
# Convention : Reuss Voigt Hill
#
# Bulk Modulus (GPa) = 55.90365 90.19363 73.04864
# Shear Modulus (GPa) = -2.18290 9.35508 3.58609
#
# Velocity S-wave (km/s) = -1.06933 2.21369 1.37058
# Velocity P-wave (km/s) = 5.26869 7.33346 6.38509
#
# Compressibility (1/GPa) = 0.01788792
#
# Stress axis : x y z
#
# Youngs Moduli (GPa) = 40.31850 118.79009 102.24647
#
# Poissons Ratio (x) = 0.59579 0.36599
# Poissons Ratio (y) = 0.20222 0.40505
# Poissons Ratio (z) = 0.14432 0.47059
#
# Static dielectric constant tensor:
#      x y z
#    x 1.638150 0.000000 0.000000 
#    y 0.000000 1.651570 0.000000 
#    z 0.000000 0.000000 1.647450 
# 
# From -- ./inp_files/22555.got.cif
#   From: 2010.05.17/outbox.cif.g08.bks.cpg/sg49_12_cif.got.tgz:22555.got - 2010.06.03 21:02:19.
