data_PCOD9393046
_publ_section_title
;
Structure prediction by ZEFSAII (Michael W. Deem and Ramdas Pophale) SiO2 
 PCOD9393046
Probable space group: P C C M
;
_chemical_formula_sum "Si O2"
_cell_formula_units_Z 58
_cell_length_a 14.788524
_cell_length_b 26.770687
_cell_length_c 9.035292
_cell_angle_alpha 90.000000
_cell_angle_beta 90.000000
_cell_angle_gamma 90.000000
_cell_volume 3577.062590
_symmetry_space_group_name_H-M "P C C M"
_symmetry_group_IT_number 49
_symmetry_cell_setting 'orthorhombic'
loop_
_space_group_symop_operation_xyz
x,y,z
-x,-y,z
x,-y,1/2-z
-x,y,1/2-z
-x,-y,-z
x,y,-z
-x,y,1/2+z
x,-y,1/2+z
loop_
_atom_site_type_symbol
_atom_site_label
_atom_site_fract_x
_atom_site_fract_y
_atom_site_fract_z
Si Si1 0.596935 0.052778 0.177762
Si Si2 0.712755 0.666322 0.822457
Si Si3 0.722814 0.852987 0.323869
Si Si4 0.412163 0.598142 0.833061
Si Si5 0.907589 0.704527 0.823260
Si Si6 0.905885 0.177896 0.676903
Si Si7 0.500000 0.500000 0.750000
Si Si8 0.599017 0.756257 0.321916
O O1 0.500000 0.065714 0.250000
O O2 0.668062 0.096512 0.208554
O O3 0.624169 0.000000 0.250000
O O4 0.587075 0.047763 0.000000
O O5 0.673515 0.614492 0.761185
O O6 0.816765 0.675701 0.780679
O O7 0.652364 0.709456 0.747445
O O8 0.704449 0.669178 0.000000
O O9 0.741021 0.851152 0.500000
O O10 0.816990 0.848873 0.238151
O O11 0.658329 0.805753 0.288754
O O12 0.500000 0.620662 0.750000
O O13 0.435582 0.539169 0.833945
O O14 0.405216 0.616419 0.000000
O O15 0.895454 0.763109 0.784052
O O16 0.000000 0.686481 0.750000
O O17 0.916842 0.701905 0.000000
O O18 0.911340 0.173749 0.500000
O O19 0.000000 0.160797 0.750000
O O20 0.500000 0.760171 0.250000
O O21 0.591711 0.751399 0.500000
#
# Coordination Sequence:
#
# PCOD9393046 Si02
#       8
#     8   8   8   8   8   8   2   8
#     4  10  20  35  54  77 103 133 173 217 263 312
#     4  11  21  34  50  74 106 139 175 211 255 307
#     4  10  21  35  52  75 102 135 174 215 259 312
#     4  10  20  34  53  76 103 137 175 216 259 300
#     4   9  19  33  50  73 101 136 174 215 255 303
#     4  10  19  33  53  76 102 135 173 214 258 308
#     4   8  22  36  58  76 104 136 186 224 260 300
#     4  11  22  34  48  69 102 140 174 209 252 304
#
# _framework density 16.214421000000002
#
# number of rings (size 3 to 8) (size 9 to 14) (size 15 to 20)
#    0.414    1.517    1.379    3.517    0.000    3.310 
#    0.000    0.000    0.000    0.414    0.000    3.379 
#    0.000    3.310    0.000    0.000    0.000    0.000 
#
# Total GULP energy -323406.882335 kJ/mol
# GULP energy per Si atom -5575.980730 kJ/mol
# Density = 1.617752 g / cm^3
# Si number density = 16.214421 Si / 1000 Ang^3
#
#
#
# Elastic Constant Matrix: (Units=GPa)
#
#
# Indices 1 2 3 4 5 6 
#
# 1 145.0005 61.0053 61.6228 0.0000 0.0000 0.0000
# 2 61.0053 75.0991 36.9818 0.0000 0.0000 0.0000
# 3 61.6228 36.9818 74.3311 0.0000 0.0000 0.0000
# 4 0.0000 0.0000 0.0000 17.6450 0.0000 0.0000
# 5 0.0000 0.0000 0.0000 0.0000 31.9543 0.0000
# 6 0.0000 0.0000 0.0000 0.0000 0.0000 20.0830
#
#
#
# Elastic Compliance Matrix: (Units=1/GPa)
#
#
# Indices 1 2 3 4 5 6 
#
# 1 0.012875 -0.006891 -0.007245 0.000000 0.000000 0.000000
# 2 -0.006891 0.021325 -0.004897 0.000000 0.000000 0.000000
# 3 -0.007245 -0.004897 0.021896 0.000000 0.000000 0.000000
# 4 0.000000 0.000000 0.000000 0.056673 0.000000 0.000000
# 5 0.000000 0.000000 0.000000 0.000000 0.031295 0.000000
# 6 0.000000 0.000000 0.000000 0.000000 0.000000 0.049793
#
#
# Mechanical properties :
#
#
# Convention : Reuss Voigt Hill
#
# Bulk Modulus (GPa) = 55.46380 68.18338 61.82359
# Shear Modulus (GPa) = 21.01432 22.92451 21.96941
#
# Velocity S-wave (km/s) = 3.60394 3.76418 3.68493
# Velocity P-wave (km/s) = 7.18322 7.81245 7.50443
#
# Compressibility (1/GPa) = 0.01802978
#
# Stress axis : x y z
#
# Youngs Moduli (GPa) = 77.67164 46.89387 45.66990
#
# Poissons Ratio (x) = 0.32313 0.33089
# Poissons Ratio (y) = 0.53521 0.22365
# Poissons Ratio (z) = 0.56275 0.22964
#
# Static dielectric constant tensor:
#      x y z
#    x 1.527310 0.000000 0.000000 
#    y 0.000000 1.549330 0.000000 
#    z 0.000000 0.000000 1.545100 
# 
# From -- ./inp_files/3078.got.cif
#   From: 2010.05.17/outbox.cif.g08.bks.cpg/sg49_2_cif.got.tgz:3078.got - 2010.06.03 21:02:19.
