data_PCOD9393264
_publ_section_title
;
Structure prediction by ZEFSAII (Michael W. Deem and Ramdas Pophale) SiO2 
 PCOD9393264
Probable space group: P C C M
;
_chemical_formula_sum "Si O2"
_cell_formula_units_Z 56
_cell_length_a 8.852328
_cell_length_b 15.286364
_cell_length_c 19.689263
_cell_angle_alpha 90.000000
_cell_angle_beta 90.000000
_cell_angle_gamma 90.000000
_cell_volume 2664.349259
_symmetry_space_group_name_H-M "P C C M"
_symmetry_group_IT_number 49
_symmetry_cell_setting 'orthorhombic'
loop_
_space_group_symop_operation_xyz
x,y,z
-x,-y,z
x,-y,1/2-z
-x,y,1/2-z
-x,-y,-z
x,y,-z
-x,y,1/2+z
x,-y,1/2+z
loop_
_atom_site_type_symbol
_atom_site_label
_atom_site_fract_x
_atom_site_fract_y
_atom_site_fract_z
Si Si1 0.445741 0.398432 0.179941
Si Si2 0.680004 0.008377 0.921572
Si Si3 0.695077 0.635820 0.420035
Si Si4 0.852591 0.459408 0.629516
Si Si5 0.185876 0.911004 0.795568
Si Si6 0.149736 0.856637 0.660305
Si Si7 0.993221 0.707549 0.076654
O O1 0.500000 0.500000 0.179717
O O2 0.500000 0.358224 0.250000
O O3 0.537794 0.354152 0.119033
O O4 0.266729 0.406882 0.174561
O O5 0.719230 0.080948 0.864373
O O6 0.500000 0.000000 0.923254
O O7 0.758362 0.921737 0.889058
O O8 0.731475 0.023585 0.000000
O O9 0.674048 0.646459 0.500000
O O10 0.759852 0.538017 0.405315
O O11 0.833881 0.698141 0.397833
O O12 0.922935 0.389509 0.577958
O O13 0.000000 0.500000 0.665414
O O14 0.221433 0.842645 0.735276
O O15 0.015139 0.898022 0.822102
O O16 0.203873 0.000000 0.750000
O O17 0.109633 0.768467 0.622138
O O18 0.997601 0.741205 0.000000
#
# Coordination Sequence:
#
# PCOD9393264 Si02
#       7
#     8   8   8   8   8   8   8
#     4   9  18  34  53  78 110 139 187 247 293 344
#     4  10  20  34  58  90 117 147 191 240 292 353
#     4   9  18  34  56  80 106 147 195 241 297 353
#     4   9  18  34  56  80 108 150 195 242 295 356
#     4   9  19  37  59  81 109 144 188 229 278 346
#     4  10  19  35  55  82 115 151 187 234 291 352
#     4  10  20  34  53  82 115 146 188 244 294 348
#
# _framework density 21.018266000000001
#
# number of rings (size 3 to 8) (size 9 to 14) (size 15 to 20)
#    0.000    2.571    0.000    3.857    0.000    9.143 
#    5.143   12.857    0.000    1.714    0.000    0.000 
#    0.000    0.000    0.000    0.000    0.000    0.000 
#
# Total GULP energy -311876.169935 kJ/mol
# GULP energy per Si atom -5569.217320 kJ/mol
# Density = 2.097043 g / cm^3
# Si number density = 21.018266 Si / 1000 Ang^3
#
#
#
# Elastic Constant Matrix: (Units=GPa)
#
#
# Indices 1 2 3 4 5 6 
#
# 1 108.0368 9.1199 58.5367 0.0000 0.0000 0.0000
# 2 9.1199 45.6745 25.8687 0.0000 0.0000 0.0000
# 3 58.5367 25.8687 145.9292 0.0000 0.0000 0.0000
# 4 0.0000 0.0000 0.0000 5.2812 0.0000 0.0000
# 5 0.0000 0.0000 0.0000 0.0000 21.6126 0.0000
# 6 0.0000 0.0000 0.0000 0.0000 0.0000 11.8281
#
#
#
# Elastic Compliance Matrix: (Units=1/GPa)
#
#
# Indices 1 2 3 4 5 6 
#
# 1 0.011832 0.000362 -0.004810 0.000000 0.000000 0.000000
# 2 0.000362 0.024349 -0.004461 0.000000 0.000000 0.000000
# 3 -0.004810 -0.004461 0.009573 0.000000 0.000000 0.000000
# 4 0.000000 0.000000 0.000000 0.189351 0.000000 0.000000
# 5 0.000000 0.000000 0.000000 0.000000 0.046269 0.000000
# 6 0.000000 0.000000 0.000000 0.000000 0.000000 0.084544
#
#
# Mechanical properties :
#
#
# Convention : Reuss Voigt Hill
#
# Bulk Modulus (GPa) = 35.79871 54.07678 44.93774
# Shear Modulus (GPa) = 12.72104 21.48540 17.10322
#
# Velocity S-wave (km/s) = 2.46283 3.20069 2.85569
# Velocity P-wave (km/s) = 5.01563 6.28041 5.68331
#
# Compressibility (1/GPa) = 0.02793397
#
# Stress axis : x y z
#
# Youngs Moduli (GPa) = 84.51749 41.07008 104.45976
#
# Poissons Ratio (x) = -0.01486 0.50248
# Poissons Ratio (y) = -0.03059 0.46604
# Poissons Ratio (z) = 0.40655 0.18323
#
# Static dielectric constant tensor:
#      x y z
#    x 1.780080 0.000000 0.000000 
#    y 0.000000 1.823210 0.000000 
#    z 0.000000 0.000000 1.784930 
# 
# From -- ./inp_files/19956.got.cif
#   From: 2010.05.17/outbox.cif.g08.bks.cpg/sg49_10_cif.got.tgz:19956.got - 2010.06.03 21:02:19.
