data_PCOD9393133
_publ_section_title
;
Structure prediction by ZEFSAII (Michael W. Deem and Ramdas Pophale) SiO2 
 PCOD9393133
Probable space group: P C C M
;
_chemical_formula_sum "Si O2"
_cell_formula_units_Z 64
_cell_length_a 32.084631
_cell_length_b 14.809512
_cell_length_c 8.646637
_cell_angle_alpha 90.000000
_cell_angle_beta 90.000000
_cell_angle_gamma 90.000000
_cell_volume 4108.516390
_symmetry_space_group_name_H-M "P C C M"
_symmetry_group_IT_number 49
_symmetry_cell_setting 'orthorhombic'
loop_
_space_group_symop_operation_xyz
x,y,z
-x,-y,z
x,-y,1/2-z
-x,y,1/2-z
-x,-y,-z
x,y,-z
-x,y,1/2+z
x,-y,1/2+z
loop_
_atom_site_type_symbol
_atom_site_label
_atom_site_fract_x
_atom_site_fract_y
_atom_site_fract_z
Si Si1 0.873530 0.289055 0.812750
Si Si2 0.794778 0.398719 0.315307
Si Si3 0.715647 0.710430 0.687667
Si Si4 0.365739 0.398322 0.686577
Si Si5 0.457640 0.602269 0.185022
Si Si6 0.157156 0.904227 0.185942
Si Si7 0.045099 0.399720 0.685593
Si Si8 0.745706 0.095875 0.186019
O O1 0.835852 0.346797 0.742768
O O2 0.867785 0.184802 0.765189
O O3 0.917609 0.332901 0.769538
O O4 0.869839 0.292925 0.000000
O O5 0.794760 0.500000 0.250000
O O6 0.794061 0.401245 0.500000
O O7 0.754380 0.345917 0.253021
O O8 0.717884 0.707298 0.500000
O O9 0.672397 0.664466 0.736912
O O10 0.720932 0.814858 0.735077
O O11 0.360806 0.500000 0.750000
O O12 0.364736 0.403973 0.500000
O O13 0.411841 0.361636 0.729321
O O14 0.456978 0.500000 0.250000
O O15 0.500000 0.645769 0.250000
O O16 0.460648 0.599414 0.000000
O O17 0.205711 0.892874 0.234185
O O18 0.142107 0.000000 0.250000
O O19 0.156516 0.908235 0.000000
O O20 0.053926 0.500000 0.750000
O O21 0.043031 0.404501 0.500000
O O22 0.000000 0.372028 0.750000
O O23 0.730708 0.000000 0.250000
O O24 0.745052 0.091993 0.000000
#
# Coordination Sequence:
#
# PCOD9393133 Si02
#       8
#     8   8   8   8   8   8   8   8
#     4  10  20  36  54  73  97 126 158 194 233 273
#     4  12  24  34  47  68  95 127 160 194 227 269
#     4  10  19  34  49  64  91 126 157 191 231 274
#     4   9  18  29  43  61  86 120 158 189 225 272
#     4   9  15  24  38  58  80 109 147 189 228 268
#     4   9  17  31  50  72  96 121 152 191 233 275
#     4  10  20  34  54  75  99 126 155 190 230 275
#     4   9  17  30  49  67  90 119 150 191 233 273
#
# _framework density 15.577400000000001
#
# number of rings (size 3 to 8) (size 9 to 14) (size 15 to 20)
#    0.000    2.250    1.250    3.375    0.000    5.000 
#    0.000    0.000    0.000    0.375    0.000    2.625 
#    0.000    0.500    0.000    6.250    0.000    0.000 
#
# Total GULP energy -356827.118827 kJ/mol
# GULP energy per Si atom -5575.423732 kJ/mol
# Density = 1.554194 g / cm^3
# Si number density = 15.577400 Si / 1000 Ang^3
#
#
#
# Elastic Constant Matrix: (Units=GPa)
#
#
# Indices 1 2 3 4 5 6 
#
# 1 143.7691 86.4894 34.7790 0.0000 0.0000 0.0000
# 2 86.4894 132.8420 27.9984 0.0000 0.0000 0.0000
# 3 34.7790 27.9984 24.4896 0.0000 0.0000 0.0000
# 4 0.0000 0.0000 0.0000 21.4470 0.0000 0.0000
# 5 0.0000 0.0000 0.0000 0.0000 12.9061 0.0000
# 6 0.0000 0.0000 0.0000 0.0000 0.0000 -0.1129
#
#
#
# Elastic Compliance Matrix: (Units=1/GPa)
#
#
# Indices 1 2 3 4 5 6 
#
# 1 0.013751 -0.006372 -0.012243 0.000000 0.000000 0.000000
# 2 -0.006372 0.012871 -0.005665 0.000000 0.000000 0.000000
# 3 -0.012243 -0.005665 0.064697 0.000000 0.000000 0.000000
# 4 0.000000 0.000000 0.000000 0.046627 0.000000 0.000000
# 5 0.000000 0.000000 0.000000 0.000000 0.077483 0.000000
# 6 0.000000 0.000000 0.000000 0.000000 0.000000 -8.856434
#
#
# Mechanical properties :
#
#
# Convention : Reuss Voigt Hill
#
# Bulk Modulus (GPa) = 23.38738 66.62604 45.00671
# Shear Modulus (GPa) = -0.58287 16.97028 8.19371
#
# Velocity S-wave (km/s) = -0.61237 3.30421 2.29596
# Velocity P-wave (km/s) = 3.81396 7.57766 5.99863
#
# Compressibility (1/GPa) = 0.04275809
#
# Stress axis : x y z
#
# Youngs Moduli (GPa) = 72.72323 77.69686 15.45667
#
# Poissons Ratio (x) = 0.49511 0.18923
# Poissons Ratio (y) = 0.46342 0.08756
# Poissons Ratio (z) = 0.89034 0.44014
#
# Static dielectric constant tensor:
#      x y z
#    x 1.534070 0.000000 0.000000 
#    y 0.000000 1.501730 0.000000 
#    z 0.000000 0.000000 1.549810 
# 
# From -- ./inp_files/7059.got.cif
#   From: 2010.05.17/outbox.cif.g08.bks.cpg/sg49_4_cif.got.tgz:7059.got - 2010.06.03 21:02:19.
