data_PCOD9393702
_publ_section_title
;
Structure prediction by ZEFSAII (Michael W. Deem and Ramdas Pophale) SiO2 
 PCOD9393702
Probable space group: P C C M
;
_chemical_formula_sum "Si O2"
_cell_formula_units_Z 58
_cell_length_a 16.109525
_cell_length_b 12.148749
_cell_length_c 15.485757
_cell_angle_alpha 90.000000
_cell_angle_beta 90.000000
_cell_angle_gamma 90.000000
_cell_volume 3030.726418
_symmetry_space_group_name_H-M "P C C M"
_symmetry_group_IT_number 49
_symmetry_cell_setting 'orthorhombic'
loop_
_space_group_symop_operation_xyz
x,y,z
-x,-y,z
x,-y,1/2-z
-x,y,1/2-z
-x,-y,-z
x,y,-z
-x,y,1/2+z
x,-y,1/2+z
loop_
_atom_site_type_symbol
_atom_site_label
_atom_site_fract_x
_atom_site_fract_y
_atom_site_fract_z
Si Si1 0.000000 0.000000 0.750000
Si Si2 0.669097 0.287543 0.403738
Si Si3 0.504773 0.629179 0.347713
Si Si4 0.888979 0.204470 0.265002
Si Si5 0.326653 0.272175 0.595668
Si Si6 0.700901 0.873017 0.247447
Si Si7 0.137851 0.352654 0.397538
Si Si8 0.843862 0.607671 0.897233
O O1 0.941051 0.094840 0.707928
O O2 0.687559 0.248906 0.500000
O O3 0.577557 0.336205 0.398022
O O4 0.670232 0.188384 0.337161
O O5 0.744287 0.372874 0.381593
O O6 0.500000 0.500000 0.339403
O O7 0.500000 0.676853 0.250000
O O8 0.591896 0.654719 0.392722
O O9 0.798291 0.154364 0.251205
O O10 0.904956 0.271286 0.173541
O O11 0.886366 0.298709 0.338478
O O12 0.324070 0.225025 0.500000
O O13 0.335974 0.181333 0.667925
O O14 0.237856 0.332170 0.609036
O O15 0.684762 0.000000 0.250000
O O16 0.115514 0.334386 0.500000
O O17 0.127603 0.482812 0.376883
O O18 0.858440 0.623595 0.000000
#
# Coordination Sequence:
#
# PCOD9393702 Si02
#       8
#     2   8   8   8   8   8   8   8
#     4  12  24  44  64  88 120 148 192 226 278 344
#     4  10  20  34  54  81 112 149 193 236 283 333
#     4  11  21  33  51  79 115 152 185 228 290 344
#     4  10  21  38  61  86 115 150 184 233 280 336
#     4  10  20  34  54  81 112 149 193 236 283 333
#     4  10  20  38  58  78 106 143 190 241 281 318
#     4   9  18  35  60  89 117 149 191 235 284 340
#     4   9  18  35  60  89 117 149 191 235 284 340
#
# _framework density 19.137326999999999
#
# number of rings (size 3 to 8) (size 9 to 14) (size 15 to 20)
#    0.000    2.069    2.069    1.655    0.000    2.759 
#    0.000    4.828    0.000    3.310    0.000    0.000 
#    0.000    0.000    0.000    0.000    0.000    0.000 
#
# Total GULP energy -322904.615588 kJ/mol
# GULP energy per Si atom -5567.320958 kJ/mol
# Density = 1.909377 g / cm^3
# Si number density = 19.137327 Si / 1000 Ang^3
#
#
#
# Elastic Constant Matrix: (Units=GPa)
#
#
# Indices 1 2 3 4 5 6 
#
# 1 46.1444 16.7050 8.6867 0.0000 0.0000 0.0000
# 2 16.7050 133.6037 58.1128 0.0000 0.0000 0.0000
# 3 8.6867 58.1128 100.1781 0.0000 0.0000 0.0000
# 4 0.0000 0.0000 0.0000 -90.0289 0.0000 0.0000
# 5 0.0000 0.0000 0.0000 0.0000 -86.9049 0.0000
# 6 0.0000 0.0000 0.0000 0.0000 0.0000 21.5933
#
#
#
# Elastic Compliance Matrix: (Units=1/GPa)
#
#
# Indices 1 2 3 4 5 6 
#
# 1 0.022712 -0.002652 -0.000431 0.000000 0.000000 0.000000
# 2 -0.002652 0.010320 -0.005757 0.000000 0.000000 0.000000
# 3 -0.000431 -0.005757 0.013359 0.000000 0.000000 0.000000
# 4 0.000000 0.000000 0.000000 -0.011108 0.000000 0.000000
# 5 0.000000 0.000000 0.000000 0.000000 -0.011507 0.000000
# 6 0.000000 0.000000 0.000000 0.000000 0.000000 0.046311
#
#
# Mechanical properties :
#
#
# Convention : Reuss Voigt Hill
#
# Bulk Modulus (GPa) = 34.82888 49.65947 42.24418
# Shear Modulus (GPa) = 51.36685 -17.97330 16.69678
#
# Velocity S-wave (km/s) = 5.18647 -3.06792 2.95697
# Velocity P-wave (km/s) = 7.35560 3.66822 5.81209
#
# Compressibility (1/GPa) = 0.02871180
#
# Stress axis : x y z
#
# Youngs Moduli (GPa) = 44.02881 96.89463 74.85534
#
# Poissons Ratio (x) = 0.25701 0.03225
# Poissons Ratio (y) = 0.11678 0.43093
# Poissons Ratio (z) = 0.01897 0.55781
#
# Static dielectric constant tensor:
#      x y z
#    x 1.734030 0.000000 0.000000 
#    y 0.000000 1.622790 0.000000 
#    z 0.000000 0.000000 1.693750 
# 
# From -- ./inp_files/14127.got.cif
#   From: 2010.05.17/outbox.cif.g08.bks.cpg/sg49_8_cif.got.tgz:14127.got - 2010.06.03 21:02:19.
