data_PCOD9393296
_publ_section_title
;
Structure prediction by ZEFSAII (Michael W. Deem and Ramdas Pophale) SiO2 
 PCOD9393296
Probable space group: P C C M
;
_chemical_formula_sum "Si O2"
_cell_formula_units_Z 48
_cell_length_a 12.126638
_cell_length_b 12.870876
_cell_length_c 17.467943
_cell_angle_alpha 90.000000
_cell_angle_beta 90.000000
_cell_angle_gamma 90.000000
_cell_volume 2726.404474
_symmetry_space_group_name_H-M "P C C M"
_symmetry_group_IT_number 49
_symmetry_cell_setting 'orthorhombic'
loop_
_space_group_symop_operation_xyz
x,y,z
-x,-y,z
x,-y,1/2-z
-x,y,1/2-z
-x,-y,-z
x,y,-z
-x,y,1/2+z
x,-y,1/2+z
loop_
_atom_site_type_symbol
_atom_site_label
_atom_site_fract_x
_atom_site_fract_y
_atom_site_fract_z
Si Si1 0.844289 0.245509 0.913834
Si Si2 0.584413 0.376754 0.408692
Si Si3 0.754797 0.313031 0.692549
Si Si4 0.656761 0.395168 0.850781
Si Si5 0.942129 0.388882 0.586671
Si Si6 0.869619 0.117557 0.231889
O O1 0.748811 0.330559 0.896969
O O2 0.844983 0.151332 0.854844
O O3 0.961009 0.304626 0.905118
O O4 0.832563 0.209115 0.000000
O O5 0.572168 0.380840 0.500000
O O6 0.668676 0.293796 0.375437
O O7 0.466957 0.356776 0.368748
O O8 0.639871 0.485901 0.379536
O O9 0.695130 0.373308 0.763270
O O10 0.854659 0.376445 0.654075
O O11 0.804803 0.205424 0.721492
O O12 0.893757 0.379403 0.500000
O O13 0.000000 0.500000 0.591191
O O14 0.000000 0.126938 0.250000
O O15 0.836618 0.000000 0.250000
#
# Coordination Sequence:
#
# PCOD9393296 Si02
#       6
#     8   8   8   8   8   8
#     4  10  19  35  58  83 110 148 187 223 273 334
#     4  11  21  36  55  82 116 151 184 225 268 319
#     4  11  21  35  56  82 108 146 188 229 276 330
#     4  10  21  35  55  81 116 151 191 221 262 320
#     4  10  20  33  51  82 120 150 177 216 274 336
#     4  10  21  40  58  79 109 142 184 241 287 327
#
# _framework density 17.605605000000001
#
# number of rings (size 3 to 8) (size 9 to 14) (size 15 to 20)
#    0.000    1.667    1.667    4.500    0.000    4.000 
#    0.000    5.000    0.000    8.000    0.000    5.833 
#    0.000    0.000    0.000    0.000    0.000    0.000 
#
# Total GULP energy -267686.985737 kJ/mol
# GULP energy per Si atom -5576.812203 kJ/mol
# Density = 1.756553 g / cm^3
# Si number density = 17.605605 Si / 1000 Ang^3
#
#
#
# Elastic Constant Matrix: (Units=GPa)
#
#
# Indices 1 2 3 4 5 6 
#
# 1 101.0331 34.5252 72.2288 0.0000 0.0000 0.0000
# 2 34.5252 52.0357 67.7162 0.0000 0.0000 0.0000
# 3 72.2288 67.7162 149.7670 0.0000 0.0000 0.0000
# 4 0.0000 0.0000 0.0000 11.8192 0.0000 0.0000
# 5 0.0000 0.0000 0.0000 0.0000 18.6281 0.0000
# 6 0.0000 0.0000 0.0000 0.0000 0.0000 18.8577
#
#
#
# Elastic Compliance Matrix: (Units=1/GPa)
#
#
# Indices 1 2 3 4 5 6 
#
# 1 0.015143 -0.001320 -0.006706 0.000000 0.000000 0.000000
# 2 -0.001320 0.046804 -0.020526 0.000000 0.000000 0.000000
# 3 -0.006706 -0.020526 0.019192 0.000000 0.000000 0.000000
# 4 0.000000 0.000000 0.000000 0.084608 0.000000 0.000000
# 5 0.000000 0.000000 0.000000 0.000000 0.053682 0.000000
# 6 0.000000 0.000000 0.000000 0.000000 0.000000 0.053029
#
#
# Mechanical properties :
#
#
# Convention : Reuss Voigt Hill
#
# Bulk Modulus (GPa) = 41.60565 72.41957 57.01261
# Shear Modulus (GPa) = 14.81153 18.41868 16.61510
#
# Velocity S-wave (km/s) = 2.90366 3.23798 3.07537
# Velocity P-wave (km/s) = 5.90974 7.42988 6.71297
#
# Compressibility (1/GPa) = 0.02403520
#
# Stress axis : x y z
#
# Youngs Moduli (GPa) = 66.03616 21.36554 52.10563
#
# Poissons Ratio (x) = 0.02821 0.34943
# Poissons Ratio (y) = 0.08719 1.06950
# Poissons Ratio (z) = 0.44285 0.43854
#
# Static dielectric constant tensor:
#      x y z
#    x 1.633810 0.000000 0.000000 
#    y 0.000000 1.585060 0.000000 
#    z 0.000000 0.000000 1.636020 
# 
# From -- ./inp_files/17070.got.cif
#   From: 2010.05.17/outbox.cif.g08.bks.cpg/sg49_9_cif.got.tgz:17070.got - 2010.06.03 21:02:19.
