data_PCOD9393650
_publ_section_title
;
Structure prediction by ZEFSAII (Michael W. Deem and Ramdas Pophale) SiO2 
 PCOD9393650
Probable space group: P C C M
;
_chemical_formula_sum "Si O2"
_cell_formula_units_Z 48
_cell_length_a 31.929845
_cell_length_b 9.642940
_cell_length_c 8.661612
_cell_angle_alpha 90.000000
_cell_angle_beta 90.000000
_cell_angle_gamma 90.000000
_cell_volume 2666.889370
_symmetry_space_group_name_H-M "P C C M"
_symmetry_group_IT_number 49
_symmetry_cell_setting 'orthorhombic'
loop_
_space_group_symop_operation_xyz
x,y,z
-x,-y,z
x,-y,1/2-z
-x,y,1/2-z
-x,-y,-z
x,y,-z
-x,y,1/2+z
x,-y,1/2+z
loop_
_atom_site_type_symbol
_atom_site_label
_atom_site_fract_x
_atom_site_fract_y
_atom_site_fract_z
Si Si1 0.708643 0.345447 0.315524
Si Si2 0.798848 0.345352 0.185900
Si Si3 0.045675 0.346606 0.314186
Si Si4 0.457635 0.843176 0.815775
Si Si5 0.364954 0.156402 0.314405
Si Si6 0.876935 0.845423 0.313968
O O1 0.701922 0.500000 0.250000
O O2 0.710016 0.349722 0.500000
O O3 0.753875 0.299110 0.250984
O O4 0.671648 0.247479 0.257453
O O5 0.806858 0.500000 0.250000
O O6 0.836014 0.242350 0.232758
O O7 0.796865 0.351990 0.000000
O O8 0.055423 0.500000 0.250000
O O9 0.044034 0.353292 0.500000
O O10 0.081581 0.239153 0.266523
O O11 0.000000 0.307529 0.250000
O O12 0.500000 0.775686 0.750000
O O13 0.411624 0.785706 0.775902
O O14 0.456836 0.000000 0.750000
O O15 0.461091 0.849564 0.000000
O O16 0.361271 0.153034 0.500000
O O17 0.362326 0.000000 0.250000
O O18 0.876978 0.851333 0.500000
O O19 0.876392 0.000000 0.250000
#
# Coordination Sequence:
#
# PCOD9393650 Si02
#       6
#     8   8   8   8   8   8
#     4  11  22  37  57  80 106 140 177 219 267 319
#     4  10  20  37  58  80 104 135 176 220 261 313
#     4  10  20  36  57  83 109 141 182 222 262 309
#     4   9  16  26  44  69 100 134 171 213 258 307
#     4  10  20  34  52  78 108 140 177 219 265 316
#     4  10  23  38  55  80 111 143 177 216 264 316
#
# _framework density 17.998497
#
# number of rings (size 3 to 8) (size 9 to 14) (size 15 to 20)
#    0.000    2.000    0.000    6.000    0.000    5.667 
#    0.000    3.333    0.000    0.500    0.000    3.500 
#    0.000    0.000    0.000    0.000    0.000    0.000 
#
# Total GULP energy -267905.137364 kJ/mol
# GULP energy per Si atom -5581.357028 kJ/mol
# Density = 1.795753 g / cm^3
# Si number density = 17.998497 Si / 1000 Ang^3
#
#
#
# Elastic Constant Matrix: (Units=GPa)
#
#
# Indices 1 2 3 4 5 6 
#
# 1 206.4048 111.9614 66.7639 0.0000 0.0000 0.0000
# 2 111.9614 82.4941 38.7859 0.0000 0.0000 0.0000
# 3 66.7639 38.7859 86.6948 0.0000 0.0000 0.0000
# 4 0.0000 0.0000 0.0000 29.9226 0.0000 0.0000
# 5 0.0000 0.0000 0.0000 0.0000 27.7683 0.0000
# 6 0.0000 0.0000 0.0000 0.0000 0.0000 32.4370
#
#
#
# Elastic Compliance Matrix: (Units=1/GPa)
#
#
# Indices 1 2 3 4 5 6 
#
# 1 0.019404 -0.024453 -0.004003 0.000000 0.000000 0.000000
# 2 -0.024453 0.046167 -0.001823 0.000000 0.000000 0.000000
# 3 -0.004003 -0.001823 0.015433 0.000000 0.000000 0.000000
# 4 0.000000 0.000000 0.000000 0.033420 0.000000 0.000000
# 5 0.000000 0.000000 0.000000 0.000000 0.036012 0.000000
# 6 0.000000 0.000000 0.000000 0.000000 0.000000 0.030829
#
#
# Mechanical properties :
#
#
# Convention : Reuss Voigt Hill
#
# Bulk Modulus (GPa) = 48.91022 90.06842 69.48932
# Shear Modulus (GPa) = 20.10962 28.56441 24.33701
#
# Velocity S-wave (km/s) = 3.34622 3.98809 3.68117
# Velocity P-wave (km/s) = 6.49332 8.44733 7.53394
#
# Compressibility (1/GPa) = 0.02044562
#
# Stress axis : x y z
#
# Youngs Moduli (GPa) = 51.53652 21.66071 64.79558
#
# Poissons Ratio (x) = 0.52966 0.25938
# Poissons Ratio (y) = 1.26021 0.11813
# Poissons Ratio (z) = 0.20631 0.03949
#
# Static dielectric constant tensor:
#      x y z
#    x 1.643580 0.000000 0.000000 
#    y 0.000000 1.579400 0.000000 
#    z 0.000000 0.000000 1.605100 
# 
# From -- ./inp_files/6858.got.cif
#   From: 2010.05.17/outbox.cif.g08.bks.cpg/sg49_4_cif.got.tgz:6858.got - 2010.06.03 21:02:19.
