data_PCOD9393435
_publ_section_title
;
Structure prediction by ZEFSAII (Michael W. Deem and Ramdas Pophale) SiO2 
 PCOD9393435
Probable space group: P C C M
;
_chemical_formula_sum "Si O2"
_cell_formula_units_Z 56
_cell_length_a 15.476628
_cell_length_b 20.528155
_cell_length_c 8.823307
_cell_angle_alpha 90.000000
_cell_angle_beta 90.000000
_cell_angle_gamma 90.000000
_cell_volume 2803.223031
_symmetry_space_group_name_H-M "P C C M"
_symmetry_group_IT_number 49
_symmetry_cell_setting 'orthorhombic'
loop_
_space_group_symop_operation_xyz
x,y,z
-x,-y,z
x,-y,1/2-z
-x,y,1/2-z
-x,-y,-z
x,y,-z
-x,y,1/2+z
x,-y,1/2+z
loop_
_atom_site_type_symbol
_atom_site_label
_atom_site_fract_x
_atom_site_fract_y
_atom_site_fract_z
Si Si1 0.220667 0.066827 0.319135
Si Si2 0.169715 0.198549 0.176424
Si Si3 0.370277 0.765627 0.325869
Si Si4 0.229780 0.431001 0.318592
Si Si5 0.591125 0.614042 0.180395
Si Si6 0.412128 0.103034 0.322290
Si Si7 0.908688 0.667766 0.182883
O O1 0.222099 0.063155 0.500000
O O2 0.170750 0.131668 0.268308
O O3 0.320515 0.075800 0.262729
O O4 0.186181 0.000000 0.250000
O O5 0.266538 0.228676 0.185625
O O6 0.107555 0.256686 0.226427
O O7 0.153397 0.183559 0.000000
O O8 0.393864 0.783015 0.500000
O O9 0.399334 0.692222 0.296380
O O10 0.407040 0.819784 0.213829
O O11 0.201301 0.500000 0.250000
O O12 0.226382 0.431448 0.500000
O O13 0.327219 0.417993 0.261955
O O14 0.167932 0.375393 0.251431
O O15 0.500000 0.592765 0.250000
O O16 0.594683 0.601820 0.000000
O O17 0.500000 0.077318 0.250000
O O18 0.415192 0.091728 0.500000
O O19 0.000000 0.645911 0.250000
O O20 0.906785 0.663606 0.000000
#
# Coordination Sequence:
#
# PCOD9393435 Si02
#       7
#     8   8   8   8   8   8   8
#     4  10  21  35  53  79 111 152 202 249 303 368
#     4   9  18  36  61  87 120 158 196 246 302 359
#     4   9  17  32  54  79 111 152 196 248 304 358
#     4  12  26  45  68  94 128 171 212 261 316 373
#     4  11  22  38  59  89 125 166 215 264 314 371
#     4  10  20  31  45  70 104 145 195 251 303 361
#     4  11  23  43  70 103 134 164 204 252 310 377
#
# _framework density 19.977004000000001
#
# number of rings (size 3 to 8) (size 9 to 14) (size 15 to 20)
#    0.000    1.714    1.429    3.429    0.000    6.000 
#    0.000    4.286    0.000    0.429    0.000    3.000 
#    0.000    0.000    0.000    0.000    0.000    0.000 
#
# Total GULP energy -312965.600343 kJ/mol
# GULP energy per Si atom -5588.671435 kJ/mol
# Density = 1.993154 g / cm^3
# Si number density = 19.977004 Si / 1000 Ang^3
#
#
#
# Elastic Constant Matrix: (Units=GPa)
#
#
# Indices 1 2 3 4 5 6 
#
# 1 76.1291 30.1004 31.3510 0.0000 0.0000 0.0000
# 2 30.1004 103.8727 53.7772 0.0000 0.0000 0.0000
# 3 31.3510 53.7772 83.2094 0.0000 0.0000 0.0000
# 4 0.0000 0.0000 0.0000 25.6747 0.0000 0.0000
# 5 0.0000 0.0000 0.0000 0.0000 113.0645 0.0000
# 6 0.0000 0.0000 0.0000 0.0000 0.0000 -4.9131
#
#
#
# Elastic Compliance Matrix: (Units=1/GPa)
#
#
# Indices 1 2 3 4 5 6 
#
# 1 0.015894 -0.002262 -0.004526 0.000000 0.000000 0.000000
# 2 -0.002262 0.014790 -0.008706 0.000000 0.000000 0.000000
# 3 -0.004526 -0.008706 0.019350 0.000000 0.000000 0.000000
# 4 0.000000 0.000000 0.000000 0.038949 0.000000 0.000000
# 5 0.000000 0.000000 0.000000 0.000000 0.008845 0.000000
# 6 0.000000 0.000000 0.000000 0.000000 0.000000 -0.203539
#
#
# Mechanical properties :
#
#
# Convention : Reuss Voigt Hill
#
# Bulk Modulus (GPa) = 52.50917 54.85204 53.68060
# Shear Modulus (GPa) = -73.12828 36.63072 -18.24878
#
# Velocity S-wave (km/s) = -6.05687 4.28675 -3.02568
# Velocity P-wave (km/s) = 4.75104 7.21241 3.83709
#
# Compressibility (1/GPa) = 0.01904429
#
# Stress axis : x y z
#
# Youngs Moduli (GPa) = 62.91638 67.61207 51.67948
#
# Poissons Ratio (x) = 0.15297 0.23391
# Poissons Ratio (y) = 0.14235 0.44994
# Poissons Ratio (z) = 0.28478 0.58865
#
# Static dielectric constant tensor:
#      x y z
#    x 1.716370 0.000000 0.000000 
#    y 0.000000 1.709830 0.000000 
#    z 0.000000 0.000000 1.671800 
# 
# From -- ./inp_files/4045.got.cif
#   From: 2010.05.17/outbox.cif.g08.bks.cpg/sg49_3_cif.got.tgz:4045.got - 2010.06.03 21:02:19.
