data_PCOD9393855
_publ_section_title
;
Structure prediction by ZEFSAII (Michael W. Deem and Ramdas Pophale) SiO2 
 PCOD9393855
Probable space group: P C C M
;
_chemical_formula_sum "Si O2"
_cell_formula_units_Z 64
_cell_length_a 20.937466
_cell_length_b 20.039462
_cell_length_c 8.740665
_cell_angle_alpha 90.000000
_cell_angle_beta 90.000000
_cell_angle_gamma 90.000000
_cell_volume 3667.369362
_symmetry_space_group_name_H-M "P C C M"
_symmetry_group_IT_number 49
_symmetry_cell_setting 'orthorhombic'
loop_
_space_group_symop_operation_xyz
x,y,z
-x,-y,z
x,-y,1/2-z
-x,y,1/2-z
-x,-y,-z
x,y,-z
-x,y,1/2+z
x,-y,1/2+z
loop_
_atom_site_type_symbol
_atom_site_label
_atom_site_fract_x
_atom_site_fract_y
_atom_site_fract_z
Si Si1 0.733310 0.071897 0.181416
Si Si2 0.431998 0.285497 0.315763
Si Si3 0.932443 0.209158 0.317758
Si Si4 0.113418 0.071783 0.681289
Si Si5 0.616487 0.570017 0.316169
Si Si6 0.310718 0.208538 0.817237
Si Si7 0.234470 0.569755 0.183594
Si Si8 0.188409 0.713657 0.184390
O O1 0.809972 0.080200 0.203807
O O2 0.697820 0.132257 0.264293
O O3 0.716055 0.000000 0.250000
O O4 0.721399 0.073930 0.000000
O O5 0.500000 0.264027 0.250000
O O6 0.431189 0.282338 0.500000
O O7 0.419467 0.362795 0.269089
O O8 0.374491 0.241539 0.249913
O O9 0.932774 0.212326 0.500000
O O10 0.920325 0.133156 0.263807
O O11 0.874682 0.252825 0.251031
O O12 0.000000 0.231626 0.250000
O O13 0.100644 0.073670 0.500000
O O14 0.095410 0.000000 0.750000
O O15 0.592184 0.500000 0.250000
O O16 0.614790 0.566160 0.500000
O O17 0.691062 0.577403 0.268508
O O18 0.250192 0.247932 0.747953
O O19 0.310036 0.213281 0.000000
O O20 0.210407 0.500000 0.250000
O O21 0.196367 0.635995 0.227892
O O22 0.234157 0.565883 0.000000
O O23 0.188385 0.719181 0.000000
#
# Coordination Sequence:
#
# PCOD9393855 Si02
#       8
#     8   8   8   8   8   8   8   8
#     4  10  20  35  58  86 119 151 186 236 286 334
#     4  11  23  40  57  80 115 153 195 240 291 342
#     4  12  25  40  58  83 115 153 195 237 286 343
#     4  10  20  35  56  82 116 154 192 234 280 334
#     4   9  18  33  52  77 111 151 190 232 279 336
#     4  12  23  36  59  88 115 151 195 237 285 340
#     4   9  18  33  55  83 114 147 184 231 285 338
#     4  11  21  38  60  85 116 151 190 238 289 336
#
# _framework density 17.451201999999999
#
# number of rings (size 3 to 8) (size 9 to 14) (size 15 to 20)
#    0.000    1.500    2.500    3.750    0.000    3.500 
#    0.000    2.500    0.000    0.750    0.000    5.250 
#    0.000    0.000    0.000    0.000    0.000    0.000 
#
# Total GULP energy -357645.486468 kJ/mol
# GULP energy per Si atom -5588.210726 kJ/mol
# Density = 1.741148 g / cm^3
# Si number density = 17.451202 Si / 1000 Ang^3
#
#
#
# Elastic Constant Matrix: (Units=GPa)
#
#
# Indices 1 2 3 4 5 6 
#
# 1 119.9675 69.3663 56.4408 0.0000 0.0000 0.0000
# 2 69.3663 130.5433 53.5107 0.0000 0.0000 0.0000
# 3 56.4408 53.5107 96.5926 0.0000 0.0000 0.0000
# 4 0.0000 0.0000 0.0000 33.4605 0.0000 0.0000
# 5 0.0000 0.0000 0.0000 0.0000 24.1325 0.0000
# 6 0.0000 0.0000 0.0000 0.0000 0.0000 13.5209
#
#
#
# Elastic Compliance Matrix: (Units=1/GPa)
#
#
# Indices 1 2 3 4 5 6 
#
# 1 0.013774 -0.005201 -0.005167 0.000000 0.000000 0.000000
# 2 -0.005201 0.011875 -0.003539 0.000000 0.000000 0.000000
# 3 -0.005167 -0.003539 0.015333 0.000000 0.000000 0.000000
# 4 0.000000 0.000000 0.000000 0.029886 0.000000 0.000000
# 5 0.000000 0.000000 0.000000 0.000000 0.041438 0.000000
# 6 0.000000 0.000000 0.000000 0.000000 0.000000 0.073959
#
#
# Mechanical properties :
#
#
# Convention : Reuss Voigt Hill
#
# Bulk Modulus (GPa) = 75.95043 78.41545 77.18294
# Shear Modulus (GPa) = 22.88667 25.40849 24.14758
#
# Velocity S-wave (km/s) = 3.62535 3.81986 3.72387
# Velocity P-wave (km/s) = 7.81922 8.03037 7.92550
#
# Compressibility (1/GPa) = 0.01316648
#
# Stress axis : x y z
#
# Youngs Moduli (GPa) = 72.60213 84.21258 65.22002
#
# Poissons Ratio (x) = 0.43798 0.33699
# Poissons Ratio (y) = 0.37760 0.23084
# Poissons Ratio (z) = 0.37514 0.29806
#
# Static dielectric constant tensor:
#      x y z
#    x 1.581460 0.000000 0.000000 
#    y 0.000000 1.587990 0.000000 
#    z 0.000000 0.000000 1.580210 
# 
# From -- ./inp_files/5925.got.cif
#   From: 2010.05.17/outbox.cif.g08.bks.cpg/sg49_3_cif.got.tgz:5925.got - 2010.06.03 21:02:19.
