data_PCOD9393351
_publ_section_title
;
Structure prediction by ZEFSAII (Michael W. Deem and Ramdas Pophale) SiO2 
 PCOD9393351
Probable space group: P C C M
;
_chemical_formula_sum "Si O2"
_cell_formula_units_Z 48
_cell_length_a 17.180597
_cell_length_b 7.079837
_cell_length_c 16.193884
_cell_angle_alpha 90.000000
_cell_angle_beta 90.000000
_cell_angle_gamma 90.000000
_cell_volume 1969.756462
_symmetry_space_group_name_H-M "P C C M"
_symmetry_group_IT_number 49
_symmetry_cell_setting 'orthorhombic'
loop_
_space_group_symop_operation_xyz
x,y,z
-x,-y,z
x,-y,1/2-z
-x,y,1/2-z
-x,-y,-z
x,y,-z
-x,y,1/2+z
x,-y,1/2+z
loop_
_atom_site_type_symbol
_atom_site_label
_atom_site_fract_x
_atom_site_fract_y
_atom_site_fract_z
Si Si1 0.812656 0.831739 0.663613
Si Si2 0.331972 0.411080 0.155788
Si Si3 0.107456 0.194932 0.500000
Si Si4 0.928953 0.741396 0.000000
Si Si5 0.840764 0.268906 0.663307
Si Si6 0.510680 0.271535 0.346325
Si Si7 0.651500 0.814029 0.591136
O O1 0.842206 0.748753 0.578501
O O2 0.844487 0.701874 0.737311
O O3 0.718957 0.862605 0.657761
O O4 0.846853 0.041137 0.665431
O O5 0.342303 0.500000 0.250000
O O6 0.247132 0.328765 0.144759
O O7 0.397585 0.254529 0.136947
O O8 0.341499 0.586353 0.094907
O O9 0.021457 0.278252 0.500000
O O10 0.093574 0.966547 0.500000
O O11 0.894594 0.667854 0.087392
O O12 0.500000 0.500000 0.358190
O O13 0.500000 0.232501 0.250000
O O14 0.440327 0.162255 0.389852
O O15 0.670814 0.888546 0.500000
#
# Coordination Sequence:
#
# PCOD9393351 Si02
#       7
#     8   8   4   4   8   8   8
#     4  10  19  36  59  82 112 147 185 228 283 340
#     4  11  19  34  55  79 110 151 185 233 275 324
#     4   9  18  36  61  82 113 146 178 233 283 333
#     4   9  20  36  55  88 115 138 182 235 281 335
#     4  10  21  35  56  86 113 144 186 231 281 335
#     4   9  15  30  50  73 105 141 184 229 263 309
#     4  11  21  33  55  84 108 147 193 231 276 335
#
# _framework density 24.368494999999999
#
# number of rings (size 3 to 8) (size 9 to 14) (size 15 to 20)
#    0.000    2.000    5.833    0.000    1.167    3.667 
#    0.000    4.167    0.000    6.000    0.000    0.000 
#    0.000    0.000    0.000    0.000    0.000    0.000 
#
# Total GULP energy -267768.613942 kJ/mol
# GULP energy per Si atom -5578.512790 kJ/mol
# Density = 2.431303 g / cm^3
# Si number density = 24.368495 Si / 1000 Ang^3
#
#
#
# Elastic Constant Matrix: (Units=GPa)
#
#
# Indices 1 2 3 4 5 6 
#
# 1 129.9584 -10.6836 58.8358 0.0000 0.0000 0.0000
# 2 -10.6836 61.1653 -5.7305 0.0000 0.0000 0.0000
# 3 58.8358 -5.7305 145.9991 0.0000 0.0000 0.0000
# 4 0.0000 0.0000 0.0000 3.0113 0.0000 0.0000
# 5 0.0000 0.0000 0.0000 0.0000 7.9033 0.0000
# 6 0.0000 0.0000 0.0000 0.0000 0.0000 30.6930
#
#
#
# Elastic Compliance Matrix: (Units=1/GPa)
#
#
# Indices 1 2 3 4 5 6 
#
# 1 0.009515 0.001308 -0.003783 0.000000 0.000000 0.000000
# 2 0.001308 0.016589 0.000124 0.000000 0.000000 0.000000
# 3 -0.003783 0.000124 0.008379 0.000000 0.000000 0.000000
# 4 0.000000 0.000000 0.000000 0.332085 0.000000 0.000000
# 5 0.000000 0.000000 0.000000 0.000000 0.126529 0.000000
# 6 0.000000 0.000000 0.000000 0.000000 0.000000 0.032581
#
#
# Mechanical properties :
#
#
# Convention : Reuss Voigt Hill
#
# Bulk Modulus (GPa) = 33.57940 46.88516 40.23228
# Shear Modulus (GPa) = 9.25399 27.96826 18.61112
#
# Velocity S-wave (km/s) = 1.95084 3.39148 2.76658
# Velocity P-wave (km/s) = 4.34559 5.88371 5.17214
#
# Compressibility (1/GPa) = 0.02978016
#
# Stress axis : x y z
#
# Youngs Moduli (GPa) = 105.09755 60.28038 119.34921
#
# Poissons Ratio (x) = -0.07882 0.45151
# Poissons Ratio (y) = -0.13742 -0.01483
# Poissons Ratio (z) = 0.39759 -0.00749
#
# Static dielectric constant tensor:
#      x y z
#    x 1.948960 0.000000 0.000000 
#    y 0.000000 2.033530 0.000000 
#    z 0.000000 0.000000 2.095790 
# 
# From -- ./inp_files/17791.got.cif
#   From: 2010.05.17/outbox.cif.g08.bks.cpg/sg49_9_cif.got.tgz:17791.got - 2010.06.03 21:02:19.
