data_PCOD9393728
_publ_section_title
;
Structure prediction by ZEFSAII (Michael W. Deem and Ramdas Pophale) SiO2 
 PCOD9393728
Probable space group: P C C M
;
_chemical_formula_sum "Si O2"
_cell_formula_units_Z 58
_cell_length_a 13.810848
_cell_length_b 23.009773
_cell_length_c 9.272829
_cell_angle_alpha 90.000000
_cell_angle_beta 90.000000
_cell_angle_gamma 90.000000
_cell_volume 2946.761118
_symmetry_space_group_name_H-M "P C C M"
_symmetry_group_IT_number 49
_symmetry_cell_setting 'orthorhombic'
loop_
_space_group_symop_operation_xyz
x,y,z
-x,-y,z
x,-y,1/2-z
-x,y,1/2-z
-x,-y,-z
x,y,-z
-x,y,1/2+z
x,-y,1/2+z
loop_
_atom_site_type_symbol
_atom_site_label
_atom_site_fract_x
_atom_site_fract_y
_atom_site_fract_z
Si Si1 0.100867 0.317084 0.832647
Si Si2 0.183066 0.918768 0.834612
Si Si3 0.712417 0.339689 0.828291
Si Si4 0.000000 0.000000 0.750000
Si Si5 0.098003 0.818860 0.661971
Si Si6 0.399604 0.088064 0.328328
Si Si7 0.604892 0.556897 0.825092
Si Si8 0.403057 0.775949 0.170461
O O1 0.179852 0.345934 0.731147
O O2 0.126031 0.248332 0.837652
O O3 0.000000 0.322599 0.750000
O O4 0.098359 0.336899 0.000000
O O5 0.169670 0.863666 0.733447
O O6 0.293198 0.940623 0.801144
O O7 0.083518 0.957752 0.821667
O O8 0.187708 0.899684 0.000000
O O9 0.653142 0.384191 0.730124
O O10 0.676798 0.273345 0.803586
O O11 0.703059 0.351534 0.000000
O O12 0.079222 0.837952 0.500000
O O13 0.000000 0.822865 0.750000
O O14 0.500000 0.069291 0.250000
O O15 0.417048 0.083276 0.500000
O O16 0.385176 0.156745 0.289147
O O17 0.653009 0.500000 0.750000
O O18 0.500000 0.558845 0.750000
O O19 0.600926 0.552355 0.000000
O O20 0.500000 0.756579 0.250000
O O21 0.420560 0.776538 0.000000
#
# Coordination Sequence:
#
# PCOD9393728 Si02
#       8
#     8   8   8   2   8   8   8   8
#     4  10  21  36  54  81 114 151 191 235 284 341
#     4  11  23  40  61  84 116 149 188 240 295 347
#     4  11  21  34  54  82 115 154 194 238 292 345
#     4  12  26  40  62  90 114 148 194 246 304 352
#     4  10  20  34  56  84 116 152 191 232 284 345
#     4   9  19  37  59  84 113 150 188 230 281 344
#     4  11  22  38  58  82 113 151 196 245 295 351
#     4   9  18  31  51  80 114 148 183 223 275 335
#
# _framework density 19.682628000000001
#
# number of rings (size 3 to 8) (size 9 to 14) (size 15 to 20)
#    0.000    1.793    0.690    4.345    0.000    6.069 
#    0.000    3.103    0.000    2.069    0.000    2.897 
#    0.000    0.000    0.000    0.000    0.000    0.000 
#
# Total GULP energy -322966.878388 kJ/mol
# GULP energy per Si atom -5568.394455 kJ/mol
# Density = 1.963783 g / cm^3
# Si number density = 19.682628 Si / 1000 Ang^3
#
#
#
# Elastic Constant Matrix: (Units=GPa)
#
#
# Indices 1 2 3 4 5 6 
#
# 1 130.9673 23.3883 63.0437 0.0000 0.0000 0.0000
# 2 23.3883 52.3428 33.3526 0.0000 0.0000 0.0000
# 3 63.0437 33.3526 110.9936 0.0000 0.0000 0.0000
# 4 0.0000 0.0000 0.0000 1645.0208 0.0000 0.0000
# 5 0.0000 0.0000 0.0000 0.0000 26.7383 0.0000
# 6 0.0000 0.0000 0.0000 0.0000 0.0000 11.6143
#
#
#
# Elastic Compliance Matrix: (Units=1/GPa)
#
#
# Indices 1 2 3 4 5 6 
#
# 1 0.010561 -0.001109 -0.005665 0.000000 0.000000 0.000000
# 2 -0.001109 0.023746 -0.006505 0.000000 0.000000 0.000000
# 3 -0.005665 -0.006505 0.014182 0.000000 0.000000 0.000000
# 4 0.000000 0.000000 0.000000 0.000608 0.000000 0.000000
# 5 0.000000 0.000000 0.000000 0.000000 0.037400 0.000000
# 6 0.000000 0.000000 0.000000 0.000000 0.000000 0.086101
#
#
# Mechanical properties :
#
#
# Convention : Reuss Voigt Hill
#
# Bulk Modulus (GPa) = 45.60130 59.31921 52.46025
# Shear Modulus (GPa) = 24.21712 348.30928 186.26320
#
# Velocity S-wave (km/s) = 3.51148 13.31717 9.73852
# Velocity P-wave (km/s) = 6.29756 16.32991 12.37589
#
# Compressibility (1/GPa) = 0.02192920
#
# Stress axis : x y z
#
# Youngs Moduli (GPa) = 94.69212 42.11303 70.51143
#
# Poissons Ratio (x) = 0.04670 0.39945
# Poissons Ratio (y) = 0.10501 0.45871
# Poissons Ratio (z) = 0.53644 0.27396
#
# Static dielectric constant tensor:
#      x y z
#    x 1.775940 0.000000 0.000000 
#    y 0.000000 1.742240 0.000000 
#    z 0.000000 0.000000 1.662620 
# 
# From -- ./inp_files/4246.got.cif
#   From: 2010.05.17/outbox.cif.g08.bks.cpg/sg49_3_cif.got.tgz:4246.got - 2010.06.03 21:02:19.
