data_PCOD9393692
_publ_section_title
;
Structure prediction by ZEFSAII (Michael W. Deem and Ramdas Pophale) SiO2 
 PCOD9393692
Probable space group: P C C M
;
_chemical_formula_sum "Si O2"
_cell_formula_units_Z 56
_cell_length_a 18.612448
_cell_length_b 19.566053
_cell_length_c 8.933530
_cell_angle_alpha 90.000000
_cell_angle_beta 90.000000
_cell_angle_gamma 90.000000
_cell_volume 3253.342774
_symmetry_space_group_name_H-M "P C C M"
_symmetry_group_IT_number 49
_symmetry_cell_setting 'orthorhombic'
loop_
_space_group_symop_operation_xyz
x,y,z
-x,-y,z
x,-y,1/2-z
-x,y,1/2-z
-x,-y,-z
x,y,-z
-x,y,1/2+z
x,-y,1/2+z
loop_
_atom_site_type_symbol
_atom_site_label
_atom_site_fract_x
_atom_site_fract_y
_atom_site_fract_z
Si Si1 0.844021 0.779911 0.679703
Si Si2 0.421752 0.210118 0.320169
Si Si3 0.173201 0.070487 0.679146
Si Si4 0.342289 0.929393 0.820571
Si Si5 0.294701 0.289491 0.178062
Si Si6 0.785500 0.571589 0.821671
Si Si7 0.923522 0.641874 0.321225
O O1 0.831008 0.779838 0.500000
O O2 0.862796 0.857551 0.723328
O O3 0.770789 0.756393 0.759283
O O4 0.901910 0.720989 0.711592
O O5 0.500000 0.217452 0.250000
O O6 0.425027 0.212431 0.500000
O O7 0.387158 0.136912 0.274911
O O8 0.366928 0.266814 0.259447
O O9 0.169124 0.063984 0.500000
O O10 0.257931 0.078079 0.720426
O O11 0.146262 0.000000 0.750000
O O12 0.368944 0.000000 0.750000
O O13 0.345297 0.934377 0.000000
O O14 0.270917 0.367473 0.207485
O O15 0.301088 0.279857 0.000000
O O16 0.763848 0.500000 0.750000
O O17 0.860460 0.596245 0.749086
O O18 0.794311 0.565128 0.000000
O O19 0.924922 0.633056 0.500000
O O20 0.000000 0.625769 0.250000
#
# Coordination Sequence:
#
# PCOD9393692 Si02
#       7
#     8   8   8   8   8   8   8
#     4   9  17  32  52  72  99 136 174 213 259 307
#     4  11  22  36  52  73 102 138 177 217 263 312
#     4   9  16  28  45  69  96 126 168 215 264 309
#     4   9  18  31  47  67  97 133 170 214 261 312
#     4  10  20  34  54  79 104 131 169 214 253 301
#     4  10  21  37  58  85 112 138 171 205 246 300
#     4  10  20  34  54  79 110 144 174 209 252 300
#
# _framework density 17.213066000000001
#
# number of rings (size 3 to 8) (size 9 to 14) (size 15 to 20)
#    0.000    2.286    1.429    1.714    0.000    4.571 
#    0.000    2.857    0.000    0.857    0.000    6.000 
#    0.000    0.000    0.000    0.000    0.000    0.000 
#
# Total GULP energy -312417.695072 kJ/mol
# GULP energy per Si atom -5578.887412 kJ/mol
# Density = 1.717389 g / cm^3
# Si number density = 17.213066 Si / 1000 Ang^3
#
#
#
# Elastic Constant Matrix: (Units=GPa)
#
#
# Indices 1 2 3 4 5 6 
#
# 1 37.3225 10.7043 19.5572 0.0000 0.0000 0.0000
# 2 10.7043 112.2995 37.6634 0.0000 0.0000 0.0000
# 3 19.5572 37.6634 36.3191 0.0000 0.0000 0.0000
# 4 0.0000 0.0000 0.0000 29.5097 0.0000 0.0000
# 5 0.0000 0.0000 0.0000 0.0000 21.6369 0.0000
# 6 0.0000 0.0000 0.0000 0.0000 0.0000 13.2215
#
#
#
# Elastic Compliance Matrix: (Units=1/GPa)
#
#
# Indices 1 2 3 4 5 6 
#
# 1 0.039156 0.005120 -0.026394 0.000000 0.000000 0.000000
# 2 0.005120 0.014323 -0.017610 0.000000 0.000000 0.000000
# 3 -0.026394 -0.017610 0.060008 0.000000 0.000000 0.000000
# 4 0.000000 0.000000 0.000000 0.033887 0.000000 0.000000
# 5 0.000000 0.000000 0.000000 0.000000 0.046217 0.000000
# 6 0.000000 0.000000 0.000000 0.000000 0.000000 0.075635
#
#
# Mechanical properties :
#
#
# Convention : Reuss Voigt Hill
#
# Bulk Modulus (GPa) = 27.99668 35.75455 31.87561
# Shear Modulus (GPa) = 13.93148 20.74135 17.33641
#
# Velocity S-wave (km/s) = 2.84800 3.47504 3.17703
# Velocity P-wave (km/s) = 5.20720 6.07603 5.65831
#
# Compressibility (1/GPa) = 0.03571852
#
# Stress axis : x y z
#
# Youngs Moduli (GPa) = 25.53909 69.81883 16.66447
#
# Poissons Ratio (x) = -0.35746 0.43984
# Poissons Ratio (y) = -0.13075 0.29346
# Poissons Ratio (z) = 0.67408 1.22950
#
# Static dielectric constant tensor:
#      x y z
#    x 1.553870 0.000000 0.000000 
#    y 0.000000 1.602560 0.000000 
#    z 0.000000 0.000000 1.574880 
# 
# From -- ./inp_files/5889.got.cif
#   From: 2010.05.17/outbox.cif.g08.bks.cpg/sg49_3_cif.got.tgz:5889.got - 2010.06.03 21:02:19.
