data_PCOD9393987
_publ_section_title
;
Structure prediction by ZEFSAII (Michael W. Deem and Ramdas Pophale) SiO2 
 PCOD9393987
Probable space group: P C C M
;
_chemical_formula_sum "Si O2"
_cell_formula_units_Z 56
_cell_length_a 6.771892
_cell_length_b 13.719032
_cell_length_c 28.582051
_cell_angle_alpha 90.000000
_cell_angle_beta 90.000000
_cell_angle_gamma 90.000000
_cell_volume 2655.381237
_symmetry_space_group_name_H-M "P C C M"
_symmetry_group_IT_number 49
_symmetry_cell_setting 'orthorhombic'
loop_
_space_group_symop_operation_xyz
x,y,z
-x,-y,z
x,-y,1/2-z
-x,y,1/2-z
-x,-y,-z
x,y,-z
-x,y,1/2+z
x,-y,1/2+z
loop_
_atom_site_type_symbol
_atom_site_label
_atom_site_fract_x
_atom_site_fract_y
_atom_site_fract_z
Si Si1 0.051363 0.896652 0.695640
Si Si2 0.889717 0.699023 0.553601
Si Si3 0.154122 0.410160 0.117048
Si Si4 0.081625 0.689901 0.803041
Si Si5 0.405687 0.890745 0.363511
Si Si6 0.575268 0.672537 0.632881
Si Si7 0.095196 0.105771 0.947764
O O1 0.931555 0.802477 0.679893
O O2 0.000000 0.903160 0.750000
O O3 0.279589 0.882116 0.684425
O O4 0.000000 0.000000 0.672781
O O5 0.851724 0.672654 0.500000
O O6 0.723523 0.662724 0.589080
O O7 0.096124 0.656216 0.572659
O O8 0.922234 0.814738 0.557541
O O9 0.389266 0.398704 0.124095
O O10 0.000000 0.500000 0.110593
O O11 0.074882 0.364821 0.165153
O O12 0.296538 0.652430 0.819714
O O13 0.000000 0.684709 0.750000
O O14 0.518677 0.787613 0.366042
O O15 0.253510 0.885940 0.406832
O O16 0.500000 0.000000 0.364275
O O17 0.182294 0.121613 0.000000
O O18 0.000000 0.000000 0.946318
#
# Coordination Sequence:
#
# PCOD9393987 Si02
#       7
#     8   8   8   8   8   8   8
#     4  10  20  38  57  85 129 171 211 269 318 387
#     4  10  22  41  64  92 130 169 213 270 333 402
#     4  11  24  44  66  93 128 166 217 282 333 395
#     4  10  22  42  64  92 130 170 213 272 334 397
#     4  12  21  34  60  93 127 175 221 263 323 404
#     4  11  22  40  64  96 128 170 220 270 334 401
#     4  10  20  36  58  88 131 173 215 273 330 392
#
# _framework density 21.089251999999998
#
# number of rings (size 3 to 8) (size 9 to 14) (size 15 to 20)
#    0.000    1.429    2.857    3.000    0.000    4.857 
#    0.000    6.429    0.000    3.429    0.000    0.000 
#    0.000    0.000    0.000    0.000    0.000    0.000 
#
# Total GULP energy -311949.260135 kJ/mol
# GULP energy per Si atom -5570.522502 kJ/mol
# Density = 2.104125 g / cm^3
# Si number density = 21.089252 Si / 1000 Ang^3
#
#
#
# Elastic Constant Matrix: (Units=GPa)
#
#
# Indices 1 2 3 4 5 6 
#
# 1 134.1782 36.9656 52.8033 0.0000 0.0000 0.0000
# 2 36.9656 77.4029 17.6784 0.0000 0.0000 0.0000
# 3 52.8033 17.6784 120.5106 0.0000 0.0000 0.0000
# 4 0.0000 0.0000 0.0000 18.7396 0.0000 0.0000
# 5 0.0000 0.0000 0.0000 0.0000 15.3518 0.0000
# 6 0.0000 0.0000 0.0000 0.0000 0.0000 40.1253
#
#
#
# Elastic Compliance Matrix: (Units=1/GPa)
#
#
# Indices 1 2 3 4 5 6 
#
# 1 0.010037 -0.003920 -0.003823 0.000000 0.000000 0.000000
# 2 -0.003920 0.014899 -0.000468 0.000000 0.000000 0.000000
# 3 -0.003823 -0.000468 0.010042 0.000000 0.000000 0.000000
# 4 0.000000 0.000000 0.000000 0.053363 0.000000 0.000000
# 5 0.000000 0.000000 0.000000 0.000000 0.065139 0.000000
# 6 0.000000 0.000000 0.000000 0.000000 0.000000 0.024922
#
#
# Mechanical properties :
#
#
# Convention : Reuss Voigt Hill
#
# Bulk Modulus (GPa) = 53.89268 60.77628 57.33448
# Shear Modulus (GPa) = 24.87459 29.81964 27.34711
#
# Velocity S-wave (km/s) = 3.43810 3.76436 3.60492
# Velocity P-wave (km/s) = 6.43201 6.91195 6.67629
#
# Compressibility (1/GPa) = 0.01855540
#
# Stress axis : x y z
#
# Youngs Moduli (GPa) = 99.62893 67.12066 99.58500
#
# Poissons Ratio (x) = 0.26314 0.38070
# Poissons Ratio (y) = 0.39059 0.04658
# Poissons Ratio (z) = 0.38087 0.03140
#
# Static dielectric constant tensor:
#      x y z
#    x 1.784540 0.000000 0.000000 
#    y 0.000000 1.874070 0.000000 
#    z 0.000000 0.000000 1.753090 
# 
# From -- ./inp_files/25813.got.cif
#   From: 2010.05.17/outbox.cif.g08.bks.cpg/sg49_13_cif.got.tgz:25813.got - 2010.06.03 21:02:19.
