data_PCOD9393201
_publ_section_title
;
Structure prediction by ZEFSAII (Michael W. Deem and Ramdas Pophale) SiO2 
 PCOD9393201
Probable space group: P C C M
;
_chemical_formula_sum "Si O2"
_cell_formula_units_Z 64
_cell_length_a 24.539827
_cell_length_b 15.863423
_cell_length_c 8.590969
_cell_angle_alpha 90.000000
_cell_angle_beta 90.000000
_cell_angle_gamma 90.000000
_cell_volume 3344.341003
_symmetry_space_group_name_H-M "P C C M"
_symmetry_group_IT_number 49
_symmetry_cell_setting 'orthorhombic'
loop_
_space_group_symop_operation_xyz
x,y,z
-x,-y,z
x,-y,1/2-z
-x,y,1/2-z
-x,-y,-z
x,y,-z
-x,y,1/2+z
x,-y,1/2+z
loop_
_atom_site_type_symbol
_atom_site_label
_atom_site_fract_x
_atom_site_fract_y
_atom_site_fract_z
Si Si1 0.174289 0.910460 0.313358
Si Si2 0.942466 0.847515 0.813262
Si Si3 0.240828 0.751854 0.188568
Si Si4 0.171748 0.411285 0.313922
Si Si5 0.439102 0.908132 0.187350
Si Si6 0.560925 0.591613 0.687339
Si Si7 0.941966 0.649301 0.186268
Si Si8 0.366253 0.250194 0.310518
O O1 0.174577 0.910742 0.500000
O O2 0.111853 0.894453 0.258944
O O3 0.210516 0.833611 0.253299
O O4 0.193603 0.000000 0.250000
O O5 0.937419 0.748578 0.768560
O O6 0.000000 0.879893 0.750000
O O7 0.944212 0.850939 0.000000
O O8 0.208239 0.668020 0.237621
O O9 0.303619 0.749264 0.240018
O O10 0.239630 0.755160 0.000000
O O11 0.192661 0.500000 0.250000
O O12 0.171439 0.413448 0.500000
O O13 0.110336 0.396974 0.254300
O O14 0.500000 0.891281 0.250000
O O15 0.398615 0.833770 0.237733
O O16 0.422453 0.000000 0.250000
O O17 0.440966 0.910763 0.000000
O O18 0.578009 0.500000 0.750000
O O19 0.500000 0.607820 0.750000
O O20 0.559116 0.589020 0.500000
O O21 0.600922 0.666453 0.738044
O O22 0.000000 0.618336 0.250000
O O23 0.941475 0.643651 0.000000
O O24 0.366153 0.250342 0.500000
#
# Coordination Sequence:
#
# PCOD9393201 Si02
#       8
#     8   8   8   8   8   8   8   8
#     4  11  23  40  60  86 115 150 190 235 286 339
#     4   9  19  34  56  83 114 146 180 226 280 337
#     4  10  22  42  62  82 111 150 194 240 287 335
#     4  11  23  38  60  85 112 149 190 234 287 343
#     4  10  19  34  56  83 116 149 183 226 275 328
#     4  10  19  34  56  84 118 152 187 230 278 333
#     4  10  19  35  58  85 116 146 183 230 284 344
#     4   9  20  37  58  82 112 149 189 233 280 330
#
# _framework density 19.136804000000001
#
# number of rings (size 3 to 8) (size 9 to 14) (size 15 to 20)
#    0.000    2.000    1.250    3.000    0.000    3.500 
#    0.000    8.125    0.000    0.000    0.000    0.000 
#    0.000    0.000    0.000    0.000    0.000    0.000 
#
# Total GULP energy -357528.746609 kJ/mol
# GULP energy per Si atom -5586.386666 kJ/mol
# Density = 1.909325 g / cm^3
# Si number density = 19.136804 Si / 1000 Ang^3
#
#
#
# Elastic Constant Matrix: (Units=GPa)
#
#
# Indices 1 2 3 4 5 6 
#
# 1 145.2756 111.3162 30.8235 0.0000 0.0000 0.0000
# 2 111.3162 172.6020 38.6105 0.0000 0.0000 0.0000
# 3 30.8235 38.6105 40.9004 0.0000 0.0000 0.0000
# 4 0.0000 0.0000 0.0000 13.1371 0.0000 0.0000
# 5 0.0000 0.0000 0.0000 0.0000 20.5467 0.0000
# 6 0.0000 0.0000 0.0000 0.0000 0.0000 -16.2088
#
#
#
# Elastic Compliance Matrix: (Units=1/GPa)
#
#
# Indices 1 2 3 4 5 6 
#
# 1 0.013813 -0.008341 -0.002536 0.000000 0.000000 0.000000
# 2 -0.008341 0.012382 -0.005402 0.000000 0.000000 0.000000
# 3 -0.002536 -0.005402 0.031460 0.000000 0.000000 0.000000
# 4 0.000000 0.000000 0.000000 0.076120 0.000000 0.000000
# 5 0.000000 0.000000 0.000000 0.000000 0.048670 0.000000
# 6 0.000000 0.000000 0.000000 0.000000 0.000000 -0.061695
#
#
# Mechanical properties :
#
#
# Convention : Reuss Voigt Hill
#
# Bulk Modulus (GPa) = 39.84576 80.03093 59.93835
# Shear Modulus (GPa) = 30.92666 15.36353 23.14509
#
# Velocity S-wave (km/s) = 4.02441 2.83649 3.48149
# Velocity P-wave (km/s) = 6.51623 7.25526 6.89565
#
# Compressibility (1/GPa) = 0.02509677
#
# Stress axis : x y z
#
# Youngs Moduli (GPa) = 72.39733 80.76547 31.78609
#
# Poissons Ratio (x) = 0.67367 0.08059
# Poissons Ratio (y) = 0.60387 0.17172
# Poissons Ratio (z) = 0.18356 0.43632
#
# Static dielectric constant tensor:
#      x y z
#    x 1.644450 0.000000 0.000000 
#    y 0.000000 1.667010 0.000000 
#    z 0.000000 0.000000 1.644360 
# 
# From -- ./inp_files/6477.got.cif
#   From: 2010.05.17/outbox.cif.g08.bks.cpg/sg49_4_cif.got.tgz:6477.got - 2010.06.03 21:02:19.
