data_PCOD9393754
_publ_section_title
;
Structure prediction by ZEFSAII (Michael W. Deem and Ramdas Pophale) SiO2 
 PCOD9393754
Probable space group: P C C M
;
_chemical_formula_sum "Si O2"
_cell_formula_units_Z 64
_cell_length_a 24.257054
_cell_length_b 8.557772
_cell_length_c 17.317340
_cell_angle_alpha 90.000000
_cell_angle_beta 90.000000
_cell_angle_gamma 90.000000
_cell_volume 3594.843186
_symmetry_space_group_name_H-M "P C C M"
_symmetry_group_IT_number 49
_symmetry_cell_setting 'orthorhombic'
loop_
_space_group_symop_operation_xyz
x,y,z
-x,-y,z
x,-y,1/2-z
-x,y,1/2-z
-x,-y,-z
x,y,-z
-x,y,1/2+z
x,-y,1/2+z
loop_
_atom_site_type_symbol
_atom_site_label
_atom_site_fract_x
_atom_site_fract_y
_atom_site_fract_z
Si Si1 0.996029 0.809818 0.912558
Si Si2 0.501070 0.319366 0.156344
Si Si3 0.897718 0.112348 0.680087
Si Si4 0.879199 0.806502 0.409275
Si Si5 0.616557 0.804255 0.409311
Si Si6 0.683218 0.319351 0.227912
Si Si7 0.811673 0.318618 0.228921
Si Si8 0.599072 0.893623 0.822766
O O1 0.057448 0.753738 0.892510
O O2 0.946877 0.781839 0.853136
O O3 0.982726 0.758809 0.000000
O O4 0.000000 0.000000 0.914128
O O5 0.500000 0.500000 0.130950
O O6 0.500000 0.321348 0.250000
O O7 0.555980 0.245894 0.120801
O O8 0.448123 0.212575 0.139359
O O9 0.848128 0.213413 0.713717
O O10 0.918247 0.000000 0.750000
O O11 0.877829 0.989500 0.615197
O O12 0.869699 0.789295 0.500000
O O13 0.836774 0.716118 0.355384
O O14 0.621805 0.780635 0.500000
O O15 0.659997 0.709109 0.357847
O O16 0.622590 0.984760 0.384346
O O17 0.676383 0.500000 0.250000
O O18 0.747323 0.276235 0.232844
O O19 0.645599 0.214671 0.284290
O O20 0.817115 0.500000 0.250000
O O21 0.577438 0.000000 0.750000
#
# Coordination Sequence:
#
# PCOD9393754 Si02
#       8
#     8   8   8   8   8   8   8   8
#     4   8  14  27  48  75 106 138 173 216 271 327
#     4  11  20  34  58  86 117 155 190 209 257 329
#     4   9  17  29  51  79 105 135 181 229 264 315
#     4   9  18  33  54  79 107 142 179 221 276 327
#     4  11  24  37  58  91 117 139 179 234 279 312
#     4  10  21  41  62  76 100 151 194 221 266 337
#     4  10  22  37  54  78 108 141 185 228 270 322
#     4  10  20  34  58  83 111 147 180 221 269 326
#
# _framework density 17.803280000000001
#
# number of rings (size 3 to 8) (size 9 to 14) (size 15 to 20)
#    0.000    2.250    2.500    2.250    0.000   12.000 
#    0.000    4.375    0.000    4.500    0.000    0.000 
#    0.000    0.000    0.000    0.000    0.000    0.000 
#
# Total GULP energy -356883.774912 kJ/mol
# GULP energy per Si atom -5576.308983 kJ/mol
# Density = 1.776276 g / cm^3
# Si number density = 17.803280 Si / 1000 Ang^3
#
#
#
# Elastic Constant Matrix: (Units=GPa)
#
#
# Indices 1 2 3 4 5 6 
#
# 1 129.6870 56.6527 65.6634 0.0000 0.0000 0.0000
# 2 56.6527 64.7925 39.9050 0.0000 0.0000 0.0000
# 3 65.6634 39.9050 95.1347 0.0000 0.0000 0.0000
# 4 0.0000 0.0000 0.0000 9.1099 0.0000 0.0000
# 5 0.0000 0.0000 0.0000 0.0000 4.7269 0.0000
# 6 0.0000 0.0000 0.0000 0.0000 0.0000 30.7456
#
#
#
# Elastic Compliance Matrix: (Units=1/GPa)
#
#
# Indices 1 2 3 4 5 6 
#
# 1 0.014985 -0.009078 -0.006535 0.000000 0.000000 0.000000
# 2 -0.009078 0.026309 -0.004770 0.000000 0.000000 0.000000
# 3 -0.006535 -0.004770 0.017023 0.000000 0.000000 0.000000
# 4 0.000000 0.000000 0.000000 0.109770 0.000000 0.000000
# 5 0.000000 0.000000 0.000000 0.000000 0.211556 0.000000
# 6 0.000000 0.000000 0.000000 0.000000 0.000000 0.032525
#
#
# Mechanical properties :
#
#
# Convention : Reuss Voigt Hill
#
# Bulk Modulus (GPa) = 56.97596 68.22849 62.60223
# Shear Modulus (GPa) = 10.89836 17.40936 14.15386
#
# Velocity S-wave (km/s) = 2.47686 3.13049 2.82266
# Velocity P-wave (km/s) = 6.34447 7.17449 6.77221
#
# Compressibility (1/GPa) = 0.01755126
#
# Stress axis : x y z
#
# Youngs Moduli (GPa) = 66.73135 38.00990 58.74392
#
# Poissons Ratio (x) = 0.34504 0.38392
# Poissons Ratio (y) = 0.60577 0.28020
# Poissons Ratio (z) = 0.43612 0.18130
#
# Static dielectric constant tensor:
#      x y z
#    x 1.615920 0.000000 0.000000 
#    y 0.000000 1.622040 0.000000 
#    z 0.000000 0.000000 1.616860 
# 
# From -- ./inp_files/18384.got.cif
#   From: 2010.05.17/outbox.cif.g08.bks.cpg/sg49_10_cif.got.tgz:18384.got - 2010.06.03 21:02:19.
