data_PCOD9393547
_publ_section_title
;
Structure prediction by ZEFSAII (Michael W. Deem and Ramdas Pophale) SiO2 
 PCOD9393547
Probable space group: P C C M
;
_chemical_formula_sum "Si O2"
_cell_formula_units_Z 48
_cell_length_a 16.144266
_cell_length_b 19.142882
_cell_length_c 8.815676
_cell_angle_alpha 90.000000
_cell_angle_beta 90.000000
_cell_angle_gamma 90.000000
_cell_volume 2724.465088
_symmetry_space_group_name_H-M "P C C M"
_symmetry_group_IT_number 49
_symmetry_cell_setting 'orthorhombic'
loop_
_space_group_symop_operation_xyz
x,y,z
-x,-y,z
x,-y,1/2-z
-x,y,1/2-z
-x,-y,-z
x,y,-z
-x,y,1/2+z
x,-y,1/2+z
loop_
_atom_site_type_symbol
_atom_site_label
_atom_site_fract_x
_atom_site_fract_y
_atom_site_fract_z
Si Si1 0.413628 0.577092 0.818606
Si Si2 0.915623 0.163346 0.675029
Si Si3 0.913990 0.333412 0.676296
Si Si4 0.587731 0.077540 0.817749
Si Si5 0.733857 0.169909 0.683625
Si Si6 0.258249 0.324206 0.681257
O O1 0.401713 0.500000 0.750000
O O2 0.500000 0.604956 0.750000
O O3 0.334857 0.625172 0.783700
O O4 0.421838 0.572052 0.000000
O O5 0.918667 0.143634 0.500000
O O6 0.915966 0.248298 0.683550
O O7 0.825053 0.142835 0.734956
O O8 0.000000 0.137794 0.750000
O O9 0.909642 0.352951 0.500000
O O10 0.830094 0.353991 0.762511
O O11 0.000000 0.358179 0.750000
O O12 0.500000 0.102855 0.750000
O O13 0.661394 0.126109 0.759619
O O14 0.600045 0.000000 0.750000
O O15 0.584041 0.074926 0.000000
O O16 0.730079 0.166416 0.500000
O O17 0.728324 0.250279 0.735905
O O18 0.254657 0.313159 0.500000
#
# Coordination Sequence:
#
# PCOD9393547 Si02
#       6
#     8   8   8   8   8   8
#     4  10  21  36  55  75  99 132 171 211 255 308
#     4   8  15  26  43  68  99 132 166 202 244 292
#     4   9  16  27  45  70 100 135 169 207 252 302
#     4  11  22  38  58  78 102 135 172 212 256 309
#     4  10  20  34  52  78 108 138 172 213 257 301
#     4  10  20  33  50  77 107 136 171 213 258 304
#
# _framework density 17.618137999999998
#
# number of rings (size 3 to 8) (size 9 to 14) (size 15 to 20)
#    0.000    2.333    0.000    5.500    0.000    8.000 
#    0.000    1.667    0.000    1.000    0.000    7.000 
#    0.000    0.000    0.000    0.000    0.000    0.000 
#
# Total GULP energy -267642.235978 kJ/mol
# GULP energy per Si atom -5575.879916 kJ/mol
# Density = 1.757804 g / cm^3
# Si number density = 17.618138 Si / 1000 Ang^3
#
#
#
# Elastic Constant Matrix: (Units=GPa)
#
#
# Indices 1 2 3 4 5 6 
#
# 1 212.4458 61.9271 85.3489 0.0000 0.0000 0.0000
# 2 61.9271 29.5663 29.2333 0.0000 0.0000 0.0000
# 3 85.3489 29.2333 106.0857 0.0000 0.0000 0.0000
# 4 0.0000 0.0000 0.0000 1.6452 0.0000 0.0000
# 5 0.0000 0.0000 0.0000 0.0000 35.9281 0.0000
# 6 0.0000 0.0000 0.0000 0.0000 0.0000 -22.0529
#
#
#
# Elastic Compliance Matrix: (Units=1/GPa)
#
#
# Indices 1 2 3 4 5 6 
#
# 1 0.013298 -0.023743 -0.004156 0.000000 0.000000 0.000000
# 2 -0.023743 0.088883 -0.005391 0.000000 0.000000 0.000000
# 3 -0.004156 -0.005391 0.014255 0.000000 0.000000 0.000000
# 4 0.000000 0.000000 0.000000 0.607820 0.000000 0.000000
# 5 0.000000 0.000000 0.000000 0.000000 0.027833 0.000000
# 6 0.000000 0.000000 0.000000 0.000000 0.000000 -0.045346
#
#
# Mechanical properties :
#
#
# Convention : Reuss Voigt Hill
#
# Bulk Modulus (GPa) = 20.05754 77.90182 48.97968
# Shear Modulus (GPa) = 6.32958 14.54332 10.43645
#
# Velocity S-wave (km/s) = 1.89749 2.87622 2.43651
# Velocity P-wave (km/s) = 4.02615 7.43929 5.98134
#
# Compressibility (1/GPa) = 0.04985657
#
# Stress axis : x y z
#
# Youngs Moduli (GPa) = 75.20137 11.25075 70.15058
#
# Poissons Ratio (x) = 0.26713 0.29151
# Poissons Ratio (y) = 1.78553 0.37816
# Poissons Ratio (z) = 0.31250 0.06065
#
# Static dielectric constant tensor:
#      x y z
#    x 1.624570 0.000000 0.000000 
#    y 0.000000 1.575970 0.000000 
#    z 0.000000 0.000000 1.593230 
# 
# From -- ./inp_files/5134.got.cif
#   From: 2010.05.17/outbox.cif.g08.bks.cpg/sg49_3_cif.got.tgz:5134.got - 2010.06.03 21:02:19.
