data_PCOD9393187
_publ_section_title
;
Structure prediction by ZEFSAII (Michael W. Deem and Ramdas Pophale) SiO2 
 PCOD9393187
Probable space group: P C C M
;
_chemical_formula_sum "Si O2"
_cell_formula_units_Z 64
_cell_length_a 31.197675
_cell_length_b 5.173288
_cell_length_c 24.600945
_cell_angle_alpha 90.000000
_cell_angle_beta 90.000000
_cell_angle_gamma 90.000000
_cell_volume 3970.458637
_symmetry_space_group_name_H-M "P C C M"
_symmetry_group_IT_number 49
_symmetry_cell_setting 'orthorhombic'
loop_
_space_group_symop_operation_xyz
x,y,z
-x,-y,z
x,-y,1/2-z
-x,y,1/2-z
-x,-y,-z
x,y,-z
-x,y,1/2+z
x,-y,1/2+z
loop_
_atom_site_type_symbol
_atom_site_label
_atom_site_fract_x
_atom_site_fract_y
_atom_site_fract_z
Si Si1 0.092531 0.395070 0.437135
Si Si2 0.472267 0.239492 0.063495
Si Si3 0.951525 0.247035 0.274664
Si Si4 0.179381 0.335804 0.065749
Si Si5 0.953789 0.884050 0.900951
Si Si6 0.769339 0.159895 0.934083
Si Si7 0.379826 0.580514 0.565998
Si Si8 0.327849 0.915956 0.065978
O O1 0.100425 0.322349 0.500000
O O2 0.134738 0.540690 0.414372
O O3 0.058002 0.627018 0.434158
O O4 0.078053 0.129318 0.408495
O O5 0.500000 0.500000 0.064446
O O6 0.425883 0.318746 0.086567
O O7 0.500000 0.000000 0.086658
O O8 0.464142 0.166751 0.000000
O O9 0.930651 0.500000 0.250000
O O10 0.954625 0.216051 0.338798
O O11 0.000000 0.248351 0.250000
O O12 0.928867 0.000000 0.250000
O O13 0.196782 0.058501 0.084874
O O14 0.214754 0.552707 0.077744
O O15 0.174330 0.315501 0.000000
O O16 0.000000 0.000000 0.915443
O O17 0.720845 0.118552 0.914755
O O18 0.768616 0.136850 0.000000
O O19 0.383835 0.560600 0.500000
O O20 0.360971 0.306034 0.584702
O O21 0.345607 0.802048 0.578704
O O22 0.326684 0.896185 0.000000
#
# Coordination Sequence:
#
# PCOD9393187 Si02
#       8
#     8   8   8   8   8   8   8   8
#     4  11  24  37  49  68  98 127 151 175 199 236
#     4   9  15  21  27  33  43  67  98 118 144 201
#     4  10  19  34  56  76  92 111 138 180 219 249
#     4   9  17  30  43  55  74 104 133 157 181 212
#     4  12  23  36  55  75  93 120 151 175 210 249
#     4   9  15  24  40  54  65  86 120 151 181 224
#     4   9  15  21  27  37  56  71  86 125 173 209
#     4   9  15  21  30  46  60  71  92 132 182 217
#
# _framework density 16.119045
#
# number of rings (size 3 to 8) (size 9 to 14) (size 15 to 20)
#    0.000    2.250    1.250    3.750    1.750    9.500 
#    0.000    0.000    0.000    0.000    0.000    0.000 
#    0.000    0.000    0.000    0.000    0.000    0.000 
#
# Total GULP energy -356276.231462 kJ/mol
# GULP energy per Si atom -5566.816117 kJ/mol
# Density = 1.608236 g / cm^3
# Si number density = 16.119045 Si / 1000 Ang^3
#
#
#
# Elastic Constant Matrix: (Units=GPa)
#
#
# Indices 1 2 3 4 5 6 
#
# 1 38.0241 -11.8022 2.4170 0.0000 0.0000 0.0000
# 2 -11.8022 76.5296 3.9404 0.0000 0.0000 0.0000
# 3 2.4170 3.9404 19.1210 0.0000 0.0000 0.0000
# 4 0.0000 0.0000 0.0000 14.5214 0.0000 0.0000
# 5 0.0000 0.0000 0.0000 0.0000 -2.1459 0.0000
# 6 0.0000 0.0000 0.0000 0.0000 0.0000 17.7766
#
#
#
# Elastic Compliance Matrix: (Units=1/GPa)
#
#
# Indices 1 2 3 4 5 6 
#
# 1 0.027995 0.004548 -0.004476 0.000000 0.000000 0.000000
# 2 0.004548 0.013946 -0.003449 0.000000 0.000000 0.000000
# 3 -0.004476 -0.003449 0.053575 0.000000 0.000000 0.000000
# 4 0.000000 0.000000 0.000000 0.068864 0.000000 0.000000
# 5 0.000000 0.000000 0.000000 0.000000 -0.466001 0.000000
# 6 0.000000 0.000000 0.000000 0.000000 0.000000 0.056254
#
#
# Mechanical properties :
#
#
# Convention : Reuss Voigt Hill
#
# Bulk Modulus (GPa) = 11.26606 13.64280 12.45443
# Shear Modulus (GPa) = -23.92041 15.30505 -4.30768
#
# Velocity S-wave (km/s) = -3.85643 3.08474 -1.63653
# Velocity P-wave (km/s) = 3.58120 4.60105 2.04263
#
# Compressibility (1/GPa) = 0.08876220
#
# Stress axis : x y z
#
# Youngs Moduli (GPa) = 35.72044 71.70638 18.66540
#
# Poissons Ratio (x) = -0.32611 0.08354
# Poissons Ratio (y) = -0.16245 0.06437
# Poissons Ratio (z) = 0.15988 0.24730
#
# Static dielectric constant tensor:
#      x y z
#    x 1.587910 0.000000 0.000000 
#    y 0.000000 1.573910 0.000000 
#    z 0.000000 0.000000 1.528050 
# 
# From -- ./inp_files/23434.got.cif
#   From: 2010.05.17/outbox.cif.g08.bks.cpg/sg49_12_cif.got.tgz:23434.got - 2010.06.03 21:02:19.
