data_PCOD9393318
_publ_section_title
;
Structure prediction by ZEFSAII (Michael W. Deem and Ramdas Pophale) SiO2 
 PCOD9393318
Probable space group: P C C M
;
_chemical_formula_sum "Si O2"
_cell_formula_units_Z 48
_cell_length_a 16.927250
_cell_length_b 8.845992
_cell_length_c 16.984288
_cell_angle_alpha 90.000000
_cell_angle_beta 90.000000
_cell_angle_gamma 90.000000
_cell_volume 2543.198719
_symmetry_space_group_name_H-M "P C C M"
_symmetry_group_IT_number 49
_symmetry_cell_setting 'orthorhombic'
loop_
_space_group_symop_operation_xyz
x,y,z
-x,-y,z
x,-y,1/2-z
-x,y,1/2-z
-x,-y,-z
x,y,-z
-x,y,1/2+z
x,-y,1/2+z
loop_
_atom_site_type_symbol
_atom_site_label
_atom_site_fract_x
_atom_site_fract_y
_atom_site_fract_z
Si Si1 0.420104 0.596285 0.906539
Si Si2 0.915613 0.939775 0.339229
Si Si3 0.993427 0.323680 0.092598
Si Si4 0.591038 0.168939 0.773578
Si Si5 0.295687 0.606347 0.319362
Si Si6 0.169441 0.807217 0.591366
O O1 0.500000 0.500000 0.883586
O O2 0.410363 0.756345 0.860877
O O3 0.344782 0.495836 0.880675
O O4 0.423168 0.617955 0.000000
O O5 0.929541 0.762856 0.353185
O O6 0.911755 0.000000 0.250000
O O7 0.843217 0.018540 0.383068
O O8 0.000000 0.000000 0.372967
O O9 0.000000 0.500000 0.108575
O O10 0.082280 0.262584 0.103898
O O11 0.972286 0.300299 0.000000
O O12 0.500000 0.171867 0.750000
O O13 0.640739 0.286208 0.722519
O O14 0.619794 0.000000 0.750000
O O15 0.262065 0.500000 0.250000
O O16 0.230865 0.711721 0.358919
O O17 0.189759 0.798056 0.500000
#
# Coordination Sequence:
#
# PCOD9393318 Si02
#       6
#     8   8   8   8   8   8
#     4  10  19  35  60  86 111 147 194 240 289 352
#     4   9  18  33  53  78 109 148 193 235 284 348
#     4   9  18  34  57  82 109 149 196 241 289 344
#     4  10  20  37  58  82 112 148 187 235 294 359
#     4  10  21  35  57  83 116 155 198 240 295 351
#     4  10  20  35  54  80 114 148 188 239 291 344
#
# _framework density 18.873868999999999
#
# number of rings (size 3 to 8) (size 9 to 14) (size 15 to 20)
#    0.000    2.333    1.667    1.000    0.000    4.000 
#    0.000   10.833    0.000    0.000    0.000    0.000 
#    0.000    0.000    0.000    0.000    0.000    0.000 
#
# Total GULP energy -267353.497596 kJ/mol
# GULP energy per Si atom -5569.864533 kJ/mol
# Density = 1.883091 g / cm^3
# Si number density = 18.873869 Si / 1000 Ang^3
#
#
#
# Elastic Constant Matrix: (Units=GPa)
#
#
# Indices 1 2 3 4 5 6 
#
# 1 49.1435 33.4843 43.5194 0.0000 0.0000 0.0000
# 2 33.4843 103.8615 59.8120 0.0000 0.0000 0.0000
# 3 43.5194 59.8120 95.9856 0.0000 0.0000 0.0000
# 4 0.0000 0.0000 0.0000 25.9790 0.0000 0.0000
# 5 0.0000 0.0000 0.0000 0.0000 18.1948 0.0000
# 6 0.0000 0.0000 0.0000 0.0000 0.0000 5.6421
#
#
#
# Elastic Compliance Matrix: (Units=1/GPa)
#
#
# Indices 1 2 3 4 5 6 
#
# 1 0.034718 -0.003319 -0.013673 0.000000 0.000000 0.000000
# 2 -0.003319 0.015334 -0.008051 0.000000 0.000000 0.000000
# 3 -0.013673 -0.008051 0.021634 0.000000 0.000000 0.000000
# 4 0.000000 0.000000 0.000000 0.038493 0.000000 0.000000
# 5 0.000000 0.000000 0.000000 0.000000 0.054961 0.000000
# 6 0.000000 0.000000 0.000000 0.000000 0.000000 0.177240
#
#
# Mechanical properties :
#
#
# Convention : Reuss Voigt Hill
#
# Bulk Modulus (GPa) = 46.29263 58.06911 52.18087
# Shear Modulus (GPa) = 12.51047 17.44150 14.97599
#
# Velocity S-wave (km/s) = 2.57737 3.04321 2.81993
# Velocity P-wave (km/s) = 5.78254 6.57130 6.18949
#
# Compressibility (1/GPa) = 0.02160171
#
# Stress axis : x y z
#
# Youngs Moduli (GPa) = 28.80350 65.21274 46.22341
#
# Poissons Ratio (x) = 0.21644 0.63200
# Poissons Ratio (y) = 0.09560 0.37213
# Poissons Ratio (z) = 0.39383 0.52500
#
# Static dielectric constant tensor:
#      x y z
#    x 1.630880 0.000000 0.000000 
#    y 0.000000 1.763380 0.000000 
#    z 0.000000 0.000000 1.664660 
# 
# From -- ./inp_files/17730.got.cif
#   From: 2010.05.17/outbox.cif.g08.bks.cpg/sg49_9_cif.got.tgz:17730.got - 2010.06.03 21:02:19.
