data_PCOD9393325
_publ_section_title
;
Structure prediction by ZEFSAII (Michael W. Deem and Ramdas Pophale) SiO2 
 PCOD9393325
Probable space group: P C C M
;
_chemical_formula_sum "Si O2"
_cell_formula_units_Z 64
_cell_length_a 13.864373
_cell_length_b 14.431197
_cell_length_c 16.291891
_cell_angle_alpha 90.000000
_cell_angle_beta 90.000000
_cell_angle_gamma 90.000000
_cell_volume 3259.673373
_symmetry_space_group_name_H-M "P C C M"
_symmetry_group_IT_number 49
_symmetry_cell_setting 'orthorhombic'
loop_
_space_group_symop_operation_xyz
x,y,z
-x,-y,z
x,-y,1/2-z
-x,y,1/2-z
-x,-y,-z
x,y,-z
-x,y,1/2+z
x,-y,1/2+z
loop_
_atom_site_type_symbol
_atom_site_label
_atom_site_fract_x
_atom_site_fract_y
_atom_site_fract_z
Si Si1 0.396514 0.536364 0.599651
Si Si2 0.259161 0.930461 0.177352
Si Si3 0.096316 0.052457 0.097048
Si Si4 0.596988 0.201575 0.901546
Si Si5 0.808843 0.208580 0.307534
Si Si6 0.618525 0.750768 0.099435
Si Si7 0.258655 0.629672 0.098463
Si Si8 0.885811 0.391075 0.763365
O O1 0.500000 0.500000 0.630017
O O2 0.401248 0.534572 0.500000
O O3 0.379622 0.642131 0.622404
O O4 0.312425 0.465704 0.622186
O O5 0.350504 0.888716 0.131823
O O6 0.204231 0.845082 0.221561
O O7 0.287059 0.000000 0.250000
O O8 0.186234 0.986354 0.119494
O O9 0.112883 0.149528 0.142453
O O10 0.090930 0.066976 0.000000
O O11 0.000000 0.000000 0.125213
O O12 0.486609 0.212758 0.874573
O O13 0.664802 0.289450 0.879177
O O14 0.595065 0.200292 0.000000
O O15 0.707699 0.201523 0.355926
O O16 0.835798 0.315567 0.295698
O O17 0.627393 0.758784 0.000000
O O18 0.159180 0.634349 0.147876
O O19 0.244614 0.632653 0.000000
O O20 0.865203 0.500000 0.750000
O O21 0.000000 0.379120 0.750000
#
# Coordination Sequence:
#
# PCOD9393325 Si02
#       8
#     8   8   8   8   8   8   8   8
#     4   9  15  28  54  89 123 160 207 260 309 358
#     4  10  22  39  60  89 121 158 202 256 316 383
#     4  10  23  43  69  98 118 147 210 281 334 387
#     4  10  19  35  61  90 122 163 206 255 312 376
#     4  11  23  39  64  90 126 169 204 257 326 382
#     4  10  20  35  57  89 129 168 211 260 312 379
#     4  10  19  36  63  91 123 167 219 264 312 373
#     4  11  25  44  62  90 133 177 216 263 315 377
#
# _framework density 19.633870000000002
#
# number of rings (size 3 to 8) (size 9 to 14) (size 15 to 20)
#    0.000    1.875    2.500    1.500    1.750    2.250 
#    0.000    7.500    0.000    6.750    0.000    0.000 
#    0.000    0.000    0.000    0.000    0.000    0.000 
#
# Total GULP energy -357271.382660 kJ/mol
# GULP energy per Si atom -5582.365354 kJ/mol
# Density = 1.958918 g / cm^3
# Si number density = 19.633870 Si / 1000 Ang^3
#
#
#
# Elastic Constant Matrix: (Units=GPa)
#
#
# Indices 1 2 3 4 5 6 
#
# 1 113.9484 43.3359 35.1223 0.0000 0.0000 0.0000
# 2 43.3359 97.0335 15.4990 0.0000 0.0000 0.0000
# 3 35.1223 15.4990 26.9502 0.0000 0.0000 0.0000
# 4 0.0000 0.0000 0.0000 25.6757 0.0000 0.0000
# 5 0.0000 0.0000 0.0000 0.0000 14.1290 0.0000
# 6 0.0000 0.0000 0.0000 0.0000 0.0000 35.2335
#
#
#
# Elastic Compliance Matrix: (Units=1/GPa)
#
#
# Indices 1 2 3 4 5 6 
#
# 1 0.016103 -0.004228 -0.018554 0.000000 0.000000 0.000000
# 2 -0.004228 0.012458 -0.001655 0.000000 0.000000 0.000000
# 3 -0.018554 -0.001655 0.062237 0.000000 0.000000 0.000000
# 4 0.000000 0.000000 0.000000 0.038947 0.000000 0.000000
# 5 0.000000 0.000000 0.000000 0.000000 0.070777 0.000000
# 6 0.000000 0.000000 0.000000 0.000000 0.000000 0.028382
#
#
# Mechanical properties :
#
#
# Convention : Reuss Voigt Hill
#
# Bulk Modulus (GPa) = 23.85217 47.31625 35.58421
# Shear Modulus (GPa) = 17.13779 24.60598 20.87188
#
# Velocity S-wave (km/s) = 2.95764 3.54396 3.26399
# Velocity P-wave (km/s) = 4.88246 6.39514 5.68929
#
# Compressibility (1/GPa) = 0.04192490
#
# Stress axis : x y z
#
# Youngs Moduli (GPa) = 62.10106 80.26798 16.06751
#
# Poissons Ratio (x) = 0.33937 0.29812
# Poissons Ratio (y) = 0.26256 0.02659
# Poissons Ratio (z) = 1.15223 0.13282
#
# Static dielectric constant tensor:
#      x y z
#    x 1.673020 0.000000 0.000000 
#    y 0.000000 1.697920 0.000000 
#    z 0.000000 0.000000 1.686660 
# 
# From -- ./inp_files/17306.got.cif
#   From: 2010.05.17/outbox.cif.g08.bks.cpg/sg49_9_cif.got.tgz:17306.got - 2010.06.03 21:02:19.
