data_PCOD9393938
_publ_section_title
;
Structure prediction by ZEFSAII (Michael W. Deem and Ramdas Pophale) SiO2 
 PCOD9393938
Probable space group: P C C M
;
_chemical_formula_sum "Si O2"
_cell_formula_units_Z 56
_cell_length_a 5.305980
_cell_length_b 30.386978
_cell_length_c 18.061110
_cell_angle_alpha 90.000000
_cell_angle_beta 90.000000
_cell_angle_gamma 90.000000
_cell_volume 2912.041486
_symmetry_space_group_name_H-M "P C C M"
_symmetry_group_IT_number 49
_symmetry_cell_setting 'orthorhombic'
loop_
_space_group_symop_operation_xyz
x,y,z
-x,-y,z
x,-y,1/2-z
-x,y,1/2-z
-x,-y,-z
x,y,-z
-x,y,1/2+z
x,-y,1/2+z
loop_
_atom_site_type_symbol
_atom_site_label
_atom_site_fract_x
_atom_site_fract_y
_atom_site_fract_z
Si Si1 0.313693 0.653089 0.587361
Si Si2 0.811545 0.403620 0.084328
Si Si3 0.750967 0.450240 0.220691
Si Si4 0.749503 0.734407 0.801509
Si Si5 0.764358 0.818129 0.910022
Si Si6 0.735104 0.126737 0.089284
Si Si7 0.249784 0.973891 0.090525
O O1 0.308578 0.667547 0.500000
O O2 0.585450 0.630604 0.600537
O O3 0.270568 0.691620 0.645951
O O4 0.083593 0.618610 0.595597
O O5 0.767480 0.446246 0.133912
O O6 0.788771 0.416080 0.000000
O O7 0.750694 0.500000 0.250000
O O8 0.500000 0.428235 0.250000
O O9 0.000000 0.427217 0.250000
O O10 0.500000 0.737479 0.750000
O O11 0.761275 0.775033 0.859220
O O12 0.000000 0.733275 0.750000
O O13 0.518938 0.847334 0.891203
O O14 0.015898 0.845732 0.892080
O O15 0.761710 0.809176 0.000000
O O16 0.745257 0.076576 0.116767
O O17 0.732721 0.123770 0.000000
O O18 0.500000 0.000000 0.113006
O O19 0.247748 0.973128 0.000000
O O20 0.000000 0.000000 0.113785
#
# Coordination Sequence:
#
# PCOD9393938 Si02
#       7
#     8   8   8   8   8   8   8
#     4  10  22  40  61  86 115 150 188 229 281 336
#     4  10  21  38  61  86 114 149 191 233 274 329
#     4  10  21  37  56  83 116 152 190 231 280 329
#     4  12  25  39  57  85 115 143 182 231 280 330
#     4  10  20  36  55  74 106 148 185 222 266 330
#     4   9  17  29  48  73 101 143 188 219 268 336
#     4   9  15  23  38  65 103 137 167 217 279 329
#
# _framework density 19.230497
#
# number of rings (size 3 to 8) (size 9 to 14) (size 15 to 20)
#    0.000    2.000    0.000    3.857    0.000    6.857 
#    0.000    8.571    0.000    0.000    0.000    0.000 
#    0.000   40.000    0.000    0.000    0.000    0.000 
#
# Total GULP energy -312340.216261 kJ/mol
# GULP energy per Si atom -5577.503862 kJ/mol
# Density = 1.918673 g / cm^3
# Si number density = 19.230497 Si / 1000 Ang^3
#
#
#
# Elastic Constant Matrix: (Units=GPa)
#
#
# Indices 1 2 3 4 5 6 
#
# 1 119.6389 -11.2093 -0.6412 0.0000 0.0000 0.0000
# 2 -11.2093 48.4798 31.8478 0.0000 0.0000 0.0000
# 3 -0.6412 31.8478 39.6390 0.0000 0.0000 0.0000
# 4 0.0000 0.0000 0.0000 10.9732 0.0000 0.0000
# 5 0.0000 0.0000 0.0000 0.0000 17.3486 0.0000
# 6 0.0000 0.0000 0.0000 0.0000 0.0000 49.2641
#
#
#
# Elastic Compliance Matrix: (Units=1/GPa)
#
#
# Indices 1 2 3 4 5 6 
#
# 1 0.008724 0.004075 -0.003133 0.000000 0.000000 0.000000
# 2 0.004075 0.045587 -0.036561 0.000000 0.000000 0.000000
# 3 -0.003133 -0.036561 0.054552 0.000000 0.000000 0.000000
# 4 0.000000 0.000000 0.000000 0.091131 0.000000 0.000000
# 5 0.000000 0.000000 0.000000 0.000000 0.057642 0.000000
# 6 0.000000 0.000000 0.000000 0.000000 0.000000 0.020299
#
#
# Mechanical properties :
#
#
# Convention : Reuss Voigt Hill
#
# Bulk Modulus (GPa) = 26.57818 27.52804 27.05311
# Shear Modulus (GPa) = 13.82308 28.03454 20.92881
#
# Velocity S-wave (km/s) = 2.68397 3.82228 3.30254
# Velocity P-wave (km/s) = 4.84312 5.81598 5.35170
#
# Compressibility (1/GPa) = 0.03762485
#
# Stress axis : x y z
#
# Youngs Moduli (GPa) = 114.63274 21.93584 18.33115
#
# Poissons Ratio (x) = -0.08939 0.05743
# Poissons Ratio (y) = -0.46716 0.67021
# Poissons Ratio (z) = 0.35916 0.80200
#
# Static dielectric constant tensor:
#      x y z
#    x 1.704610 0.000000 0.000000 
#    y 0.000000 1.655030 0.000000 
#    z 0.000000 0.000000 1.682970 
# 
# From -- ./inp_files/10765.got.cif
#   From: 2010.05.17/outbox.cif.g08.bks.cpg/sg49_6_cif.got.tgz:10765.got - 2010.06.03 21:02:19.
