data_PCOD9393569
_publ_section_title
;
Structure prediction by ZEFSAII (Michael W. Deem and Ramdas Pophale) SiO2 
 PCOD9393569
Probable space group: P C C M
;
_chemical_formula_sum "Si O2"
_cell_formula_units_Z 64
_cell_length_a 15.621607
_cell_length_b 25.085884
_cell_length_c 8.911123
_cell_angle_alpha 90.000000
_cell_angle_beta 90.000000
_cell_angle_gamma 90.000000
_cell_volume 3492.107109
_symmetry_space_group_name_H-M "P C C M"
_symmetry_group_IT_number 49
_symmetry_cell_setting 'orthorhombic'
loop_
_space_group_symop_operation_xyz
x,y,z
-x,-y,z
x,-y,1/2-z
-x,y,1/2-z
-x,-y,-z
x,y,-z
-x,y,1/2+z
x,-y,1/2+z
loop_
_atom_site_type_symbol
_atom_site_label
_atom_site_fract_x
_atom_site_fract_y
_atom_site_fract_z
Si Si1 0.675703 0.257882 0.674603
Si Si2 0.589130 0.643949 0.320469
Si Si3 0.590142 0.058194 0.179869
Si Si4 0.269746 0.147669 0.320530
Si Si5 0.088738 0.832149 0.679829
Si Si6 0.087009 0.599954 0.822055
Si Si7 0.730314 0.556189 0.680854
Si Si8 0.127657 0.290396 0.827104
O O1 0.652930 0.250872 0.500000
O O2 0.612120 0.297918 0.756623
O O3 0.687292 0.201051 0.753732
O O4 0.769693 0.285067 0.680478
O O5 0.500000 0.625883 0.250000
O O6 0.583676 0.645982 0.500000
O O7 0.664520 0.602961 0.278044
O O8 0.500000 0.077407 0.250000
O O9 0.667770 0.098308 0.212621
O O10 0.606216 0.000000 0.250000
O O11 0.580966 0.053866 0.000000
O O12 0.261111 0.152974 0.500000
O O13 0.175261 0.143109 0.248454
O O14 0.089303 0.838014 0.500000
O O15 0.094886 0.768540 0.713138
O O16 0.000000 0.852343 0.750000
O O17 0.173738 0.571418 0.768238
O O18 0.096760 0.662089 0.777076
O O19 0.000000 0.578873 0.750000
O O20 0.082187 0.595187 0.000000
O O21 0.704563 0.500000 0.750000
O O22 0.731027 0.552652 0.500000
O O23 0.103195 0.301967 0.000000
#
# Coordination Sequence:
#
# PCOD9393569 Si02
#       8
#     8   8   8   8   8   8   8   8
#     4  10  20  35  57  85 116 152 189 229 281 336
#     4  11  23  41  62  87 114 145 184 228 282 342
#     4  10  21  37  60  87 116 153 196 243 295 343
#     4  10  21  36  56  85 120 159 198 240 288 342
#     4  10  20  33  51  80 116 156 199 240 287 339
#     4  11  22  36  55  82 110 142 181 224 274 331
#     4  10  24  43  62  82 108 142 182 229 283 336
#     4   9  18  32  52  79 109 145 185 223 271 327
#
# _framework density 18.327044999999998
#
# number of rings (size 3 to 8) (size 9 to 14) (size 15 to 20)
#    0.000    1.875    1.250    3.750    0.000    8.500 
#    0.000    3.750    0.000    0.375    0.000    2.625 
#    0.000    0.000    0.000    0.000    0.000    0.000 
#
# Total GULP energy -357445.344297 kJ/mol
# GULP energy per Si atom -5585.083505 kJ/mol
# Density = 1.828533 g / cm^3
# Si number density = 18.327045 Si / 1000 Ang^3
#
#
#
# Elastic Constant Matrix: (Units=GPa)
#
#
# Indices 1 2 3 4 5 6 
#
# 1 127.3801 57.8564 53.7369 0.0000 0.0000 0.0000
# 2 57.8564 73.2800 40.6821 0.0000 0.0000 0.0000
# 3 53.7369 40.6821 63.0251 0.0000 0.0000 0.0000
# 4 0.0000 0.0000 0.0000 21.7542 0.0000 0.0000
# 5 0.0000 0.0000 0.0000 0.0000 56.3426 0.0000
# 6 0.0000 0.0000 0.0000 0.0000 0.0000 2.0238
#
#
#
# Elastic Compliance Matrix: (Units=1/GPa)
#
#
# Indices 1 2 3 4 5 6 
#
# 1 0.014256 -0.007025 -0.007621 0.000000 0.000000 0.000000
# 2 -0.007025 0.024729 -0.009973 0.000000 0.000000 0.000000
# 3 -0.007621 -0.009973 0.028802 0.000000 0.000000 0.000000
# 4 0.000000 0.000000 0.000000 0.045968 0.000000 0.000000
# 5 0.000000 0.000000 0.000000 0.000000 0.017749 0.000000
# 6 0.000000 0.000000 0.000000 0.000000 0.000000 0.494131
#
#
# Mechanical properties :
#
#
# Convention : Reuss Voigt Hill
#
# Bulk Modulus (GPa) = 53.90785 63.13732 58.52258
# Shear Modulus (GPa) = 7.34156 23.45141 15.39648
#
# Velocity S-wave (km/s) = 2.00364 3.58104 2.90159
# Velocity P-wave (km/s) = 5.90178 7.18496 6.57475
#
# Compressibility (1/GPa) = 0.01855018
#
# Stress axis : x y z
#
# Youngs Moduli (GPa) = 70.14534 40.43819 34.72026
#
# Poissons Ratio (x) = 0.28407 0.26459
# Poissons Ratio (y) = 0.49276 0.34626
# Poissons Ratio (z) = 0.53455 0.40328
#
# Static dielectric constant tensor:
#      x y z
#    x 1.650780 0.000000 0.000000 
#    y 0.000000 1.597520 0.000000 
#    z 0.000000 0.000000 1.615180 
# 
# From -- ./inp_files/4303.got.cif
#   From: 2010.05.17/outbox.cif.g08.bks.cpg/sg49_3_cif.got.tgz:4303.got - 2010.06.03 21:02:19.
