data_PCOD9393785
_publ_section_title
;
Structure prediction by ZEFSAII (Michael W. Deem and Ramdas Pophale) SiO2 
 PCOD9393785
Probable space group: P C C M
;
_chemical_formula_sum "Si O2"
_cell_formula_units_Z 48
_cell_length_a 9.577431
_cell_length_b 31.289785
_cell_length_c 8.641106
_cell_angle_alpha 90.000000
_cell_angle_beta 90.000000
_cell_angle_gamma 90.000000
_cell_volume 2589.529981
_symmetry_space_group_name_H-M "P C C M"
_symmetry_group_IT_number 49
_symmetry_cell_setting 'orthorhombic'
loop_
_space_group_symop_operation_xyz
x,y,z
-x,-y,z
x,-y,1/2-z
-x,y,1/2-z
-x,-y,-z
x,y,-z
-x,y,1/2+z
x,-y,1/2+z
loop_
_atom_site_type_symbol
_atom_site_label
_atom_site_fract_x
_atom_site_fract_y
_atom_site_fract_z
Si Si1 0.843402 0.455192 0.313858
Si Si2 0.343981 0.121506 0.313999
Si Si3 0.151721 0.952346 0.685303
Si Si4 0.156110 0.796458 0.814635
Si Si5 0.654067 0.623796 0.186317
Si Si6 0.655921 0.720947 0.185966
O O1 0.784373 0.500000 0.250000
O O2 0.846623 0.456986 0.500000
O O3 0.756577 0.413819 0.262955
O O4 0.000000 0.451622 0.250000
O O5 0.500000 0.126373 0.250000
O O6 0.348003 0.118293 0.500000
O O7 0.269173 0.079909 0.244254
O O8 0.249223 0.162365 0.271222
O O9 0.146761 0.953396 0.500000
O O10 0.000000 0.938412 0.750000
O O11 0.176223 0.000000 0.750000
O O12 0.234921 0.754826 0.750864
O O13 0.000000 0.799982 0.750000
O O14 0.150194 0.794345 0.000000
O O15 0.500000 0.615811 0.250000
O O16 0.694141 0.672199 0.232165
O O17 0.649655 0.623110 0.000000
O O18 0.500000 0.729592 0.250000
O O19 0.652118 0.723516 0.000000
#
# Coordination Sequence:
#
# PCOD9393785 Si02
#       6
#     8   8   8   8   8   8
#     4  10  20  35  53  76 105 139 180 223 272 325
#     4  11  24  41  61  87 118 153 193 236 285 337
#     4  11  22  39  63  90 121 156 195 238 286 338
#     4  11  24  40  60  86 116 150 189 234 282 334
#     4   9  20  36  55  80 109 142 180 223 271 326
#     4  10  20  37  59  83 113 147 185 228 277 333
#
# _framework density 18.536183999999999
#
# number of rings (size 3 to 8) (size 9 to 14) (size 15 to 20)
#    0.000    1.667    0.000    5.500    0.000    8.667 
#    0.000    5.000    0.000    0.000    0.000    0.000 
#    0.000    0.000    0.000    0.000    0.000    0.000 
#
# Total GULP energy -268239.342046 kJ/mol
# GULP energy per Si atom -5588.319626 kJ/mol
# Density = 1.849399 g / cm^3
# Si number density = 18.536184 Si / 1000 Ang^3
#
#
#
# Elastic Constant Matrix: (Units=GPa)
#
#
# Indices 1 2 3 4 5 6 
#
# 1 151.2111 111.9724 53.6362 0.0000 0.0000 0.0000
# 2 111.9724 134.8300 53.2536 0.0000 0.0000 0.0000
# 3 53.6362 53.2536 74.7402 0.0000 0.0000 0.0000
# 4 0.0000 0.0000 0.0000 22.4120 0.0000 0.0000
# 5 0.0000 0.0000 0.0000 0.0000 34.4283 0.0000
# 6 0.0000 0.0000 0.0000 0.0000 0.0000 43.1357
#
#
#
# Elastic Compliance Matrix: (Units=1/GPa)
#
#
# Indices 1 2 3 4 5 6 
#
# 1 0.017676 -0.013456 -0.003097 0.000000 0.000000 0.000000
# 2 -0.013456 0.020565 -0.004996 0.000000 0.000000 0.000000
# 3 -0.003097 -0.004996 0.019162 0.000000 0.000000 0.000000
# 4 0.000000 0.000000 0.000000 0.044619 0.000000 0.000000
# 5 0.000000 0.000000 0.000000 0.000000 0.029046 0.000000
# 6 0.000000 0.000000 0.000000 0.000000 0.000000 0.023183
#
#
# Mechanical properties :
#
#
# Convention : Reuss Voigt Hill
#
# Bulk Modulus (GPa) = 69.91041 88.72284 79.31663
# Shear Modulus (GPa) = 24.73781 29.45648 27.09715
#
# Velocity S-wave (km/s) = 3.65714 3.99072 3.82756
# Velocity P-wave (km/s) = 7.45858 8.31884 7.90043
#
# Compressibility (1/GPa) = 0.01430402
#
# Stress axis : x y z
#
# Youngs Moduli (GPa) = 56.57236 48.62555 52.18568
#
# Poissons Ratio (x) = 0.65433 0.16164
# Poissons Ratio (y) = 0.76126 0.26073
# Poissons Ratio (z) = 0.17522 0.24295
#
# Static dielectric constant tensor:
#      x y z
#    x 1.598280 0.000000 0.000000 
#    y 0.000000 1.643470 0.000000 
#    z 0.000000 0.000000 1.624000 
# 
# From -- ./inp_files/2076.got.cif
#   From: 2010.05.17/outbox.cif.g08.bks.cpg/sg49_2_cif.got.tgz:2076.got - 2010.06.03 21:02:19.
