data_PCOD9393129
_publ_section_title
;
Structure prediction by ZEFSAII (Michael W. Deem and Ramdas Pophale) SiO2 
 PCOD9393129
Probable space group: P C C M
;
_chemical_formula_sum "Si O2"
_cell_formula_units_Z 40
_cell_length_a 12.152616
_cell_length_b 9.654606
_cell_length_c 14.056111
_cell_angle_alpha 90.000000
_cell_angle_beta 90.000000
_cell_angle_gamma 90.000000
_cell_volume 1649.185503
_symmetry_space_group_name_H-M "P C C M"
_symmetry_group_IT_number 49
_symmetry_cell_setting 'orthorhombic'
loop_
_space_group_symop_operation_xyz
x,y,z
-x,-y,z
x,-y,1/2-z
-x,y,1/2-z
-x,-y,-z
x,y,-z
-x,y,1/2+z
x,-y,1/2+z
loop_
_atom_site_type_symbol
_atom_site_label
_atom_site_fract_x
_atom_site_fract_y
_atom_site_fract_z
Si Si1 0.369743 0.335709 0.248949
Si Si2 0.925690 0.693536 0.104772
Si Si3 0.394912 0.092435 0.891442
Si Si4 0.851080 0.712382 0.309764
Si Si5 0.847835 0.988311 0.394692
O O1 0.358199 0.500000 0.250000
O O2 0.500000 0.312212 0.250000
O O3 0.351194 0.229797 0.161979
O O4 0.278817 0.297725 0.328639
O O5 0.867974 0.650497 0.203837
O O6 0.054076 0.655609 0.121685
O O7 0.902307 0.860226 0.105864
O O8 0.888516 0.646126 0.000000
O O9 0.500000 0.000000 0.856608
O O10 0.283980 0.003645 0.889744
O O11 0.422888 0.130760 0.000000
O O12 0.876978 0.876402 0.315333
O O13 0.873333 0.928131 0.500000
#
# Coordination Sequence:
#
# PCOD9393129 Si02
#       5
#     8   8   8   8   8
#     4  11  25  44  64  93 132 176 224 273 338 418
#     4  10  21  36  58  93 130 167 215 274 341 407
#     4  10  21  39  66  97 130 171 224 285 341 398
#     4  11  21  36  62  90 127 175 215 270 344 407
#     4  10  19  33  58  95 131 163 210 274 341 402
#
# _framework density 24.254397999999998
#
# number of rings (size 3 to 8) (size 9 to 14) (size 15 to 20)
#    0.000    1.600    2.000    3.000    0.000    5.200 
#    0.000    7.000    0.000    1.200    0.000    0.000 
#    0.000    0.000    0.000    0.000    0.000    0.000 
#
# Total GULP energy -222741.605101 kJ/mol
# GULP energy per Si atom -5568.540128 kJ/mol
# Density = 2.419919 g / cm^3
# Si number density = 24.254398 Si / 1000 Ang^3
#
#
#
# Elastic Constant Matrix: (Units=GPa)
#
#
# Indices 1 2 3 4 5 6 
#
# 1 173.2608 14.6152 10.8564 0.0000 0.0000 0.0000
# 2 14.6152 48.1716 33.9308 0.0000 0.0000 0.0000
# 3 10.8564 33.9308 99.4620 0.0000 0.0000 0.0000
# 4 0.0000 0.0000 0.0000 14.0920 0.0000 0.0000
# 5 0.0000 0.0000 0.0000 0.0000 27.4574 0.0000
# 6 0.0000 0.0000 0.0000 0.0000 0.0000 27.7874
#
#
#
# Elastic Compliance Matrix: (Units=1/GPa)
#
#
# Indices 1 2 3 4 5 6 
#
# 1 0.005923 -0.001766 -0.000044 0.000000 0.000000 0.000000
# 2 -0.001766 0.027852 -0.009309 0.000000 0.000000 0.000000
# 3 -0.000044 -0.009309 0.013234 0.000000 0.000000 0.000000
# 4 0.000000 0.000000 0.000000 0.070962 0.000000 0.000000
# 5 0.000000 0.000000 0.000000 0.000000 0.036420 0.000000
# 6 0.000000 0.000000 0.000000 0.000000 0.000000 0.035988
#
#
# Mechanical properties :
#
#
# Convention : Reuss Voigt Hill
#
# Bulk Modulus (GPa) = 40.36822 48.85544 44.61183
# Shear Modulus (GPa) = 22.63730 31.30017 26.96873
#
# Velocity S-wave (km/s) = 3.05836 3.59624 3.33815
# Velocity P-wave (km/s) = 5.39918 6.11806 5.76983
#
# Compressibility (1/GPa) = 0.02477196
#
# Stress axis : x y z
#
# Youngs Moduli (GPa) = 168.82242 35.90443 75.56026
#
# Poissons Ratio (x) = 0.06341 0.00333
# Poissons Ratio (y) = 0.29816 0.70336
# Poissons Ratio (z) = 0.00744 0.33422
#
# Static dielectric constant tensor:
#      x y z
#    x 2.233060 0.000000 0.000000 
#    y 0.000000 1.956900 0.000000 
#    z 0.000000 0.000000 2.040260 
# 
# From -- ./inp_files/12599.got.cif
#   From: 2010.05.17/outbox.cif.g08.bks.cpg/sg49_7_cif.got.tgz:12599.got - 2010.06.03 21:02:19.
