data_PCOD9393314
_publ_section_title
;
Structure prediction by ZEFSAII (Michael W. Deem and Ramdas Pophale) SiO2 
 PCOD9393314
Probable space group: P C C M
;
_chemical_formula_sum "Si O2"
_cell_formula_units_Z 64
_cell_length_a 25.872366
_cell_length_b 14.848601
_cell_length_c 8.798300
_cell_angle_alpha 90.000000
_cell_angle_beta 90.000000
_cell_angle_gamma 90.000000
_cell_volume 3380.029183
_symmetry_space_group_name_H-M "P C C M"
_symmetry_group_IT_number 49
_symmetry_cell_setting 'orthorhombic'
loop_
_space_group_symop_operation_xyz
x,y,z
-x,-y,z
x,-y,1/2-z
-x,y,1/2-z
-x,-y,-z
x,y,-z
-x,y,1/2+z
x,-y,1/2+z
loop_
_atom_site_type_symbol
_atom_site_label
_atom_site_fract_x
_atom_site_fract_y
_atom_site_fract_z
Si Si1 0.346813 0.902479 0.317030
Si Si2 0.557169 0.210763 0.682878
Si Si3 0.843919 0.100066 0.183018
Si Si4 0.945444 0.212779 0.183077
Si Si5 0.249017 0.218705 0.817582
Si Si6 0.558021 0.589463 0.181488
Si Si7 0.781262 0.404711 0.818272
Si Si8 0.096223 0.594731 0.817892
O O1 0.347983 0.908571 0.500000
O O2 0.401949 0.863277 0.264879
O O3 0.301621 0.832926 0.276642
O O4 0.336203 0.000000 0.250000
O O5 0.500000 0.200135 0.750000
O O6 0.552889 0.206716 0.500000
O O7 0.578801 0.311205 0.719005
O O8 0.898214 0.147401 0.224779
O O9 0.798257 0.162080 0.247737
O O10 0.840456 0.000000 0.250000
O O11 0.840204 0.097210 0.000000
O O12 0.932336 0.314904 0.235269
O O13 0.000000 0.183636 0.250000
O O14 0.948159 0.214287 0.000000
O O15 0.246936 0.319309 0.753059
O O16 0.244365 0.220811 0.000000
O O17 0.583797 0.500000 0.250000
O O18 0.500000 0.591780 0.250000
O O19 0.555346 0.580143 0.000000
O O20 0.763945 0.500000 0.750000
O O21 0.842689 0.395336 0.781426
O O22 0.776244 0.404755 0.000000
O O23 0.077741 0.500000 0.750000
O O24 0.091912 0.590002 0.000000
#
# Coordination Sequence:
#
# PCOD9393314 Si02
#       8
#     8   8   8   8   8   8   8   8
#     4  10  23  41  59  83 115 148 188 239 291 341
#     4   9  19  36  56  80 113 151 188 231 280 335
#     4  11  23  41  61  84 113 145 189 242 294 350
#     4  10  22  39  56  79 114 150 188 236 287 340
#     4  11  22  38  62  89 116 151 191 234 289 345
#     4   9  15  25  45  72 103 138 176 218 263 313
#     4  10  19  35  59  88 121 154 191 234 282 339
#     4   9  18  34  54  80 112 148 185 227 276 330
#
# _framework density 18.934749
#
# number of rings (size 3 to 8) (size 9 to 14) (size 15 to 20)
#    0.000    2.125    1.250    2.250    0.000    5.750 
#    0.000    4.375    0.000    1.500    0.000    0.000 
#    0.000    0.000    0.000    0.000    0.000    0.000 
#
# Total GULP energy -357253.228655 kJ/mol
# GULP energy per Si atom -5582.081698 kJ/mol
# Density = 1.889165 g / cm^3
# Si number density = 18.934749 Si / 1000 Ang^3
#
#
#
# Elastic Constant Matrix: (Units=GPa)
#
#
# Indices 1 2 3 4 5 6 
#
# 1 94.5291 64.5097 33.9045 0.0000 0.0000 0.0000
# 2 64.5097 147.1258 42.2724 0.0000 0.0000 0.0000
# 3 33.9045 42.2724 37.8607 0.0000 0.0000 0.0000
# 4 0.0000 0.0000 0.0000 40.9455 0.0000 0.0000
# 5 0.0000 0.0000 0.0000 0.0000 19.0065 0.0000
# 6 0.0000 0.0000 0.0000 0.0000 0.0000 10.4956
#
#
#
# Elastic Compliance Matrix: (Units=1/GPa)
#
#
# Indices 1 2 3 4 5 6 
#
# 1 0.017526 -0.004675 -0.010475 0.000000 0.000000 0.000000
# 2 -0.004675 0.011254 -0.008379 0.000000 0.000000 0.000000
# 3 -0.010475 -0.008379 0.045149 0.000000 0.000000 0.000000
# 4 0.000000 0.000000 0.000000 0.024423 0.000000 0.000000
# 5 0.000000 0.000000 0.000000 0.000000 0.052614 0.000000
# 6 0.000000 0.000000 0.000000 0.000000 0.000000 0.095278
#
#
# Mechanical properties :
#
#
# Convention : Reuss Voigt Hill
#
# Bulk Modulus (GPa) = 37.21532 62.32096 49.76814
# Shear Modulus (GPa) = 16.54211 23.34479 19.94345
#
# Velocity S-wave (km/s) = 2.95894 3.51509 3.24894
# Velocity P-wave (km/s) = 5.60098 7.03274 6.35730
#
# Compressibility (1/GPa) = 0.02687065
#
# Stress axis : x y z
#
# Youngs Moduli (GPa) = 57.05773 88.85569 22.14900
#
# Poissons Ratio (x) = 0.41539 0.23201
# Poissons Ratio (y) = 0.26674 0.18559
# Poissons Ratio (z) = 0.59769 0.74454
#
# Static dielectric constant tensor:
#      x y z
#    x 1.644300 0.000000 0.000000 
#    y 0.000000 1.667400 0.000000 
#    z 0.000000 0.000000 1.638680 
# 
# From -- ./inp_files/6526.got.cif
#   From: 2010.05.17/outbox.cif.g08.bks.cpg/sg49_4_cif.got.tgz:6526.got - 2010.06.03 21:02:19.
