data_PCOD9393898
_publ_section_title
;
Structure prediction by ZEFSAII (Michael W. Deem and Ramdas Pophale) SiO2 
 PCOD9393898
Probable space group: P C C M
;
_chemical_formula_sum "Si O2"
_cell_formula_units_Z 48
_cell_length_a 7.673055
_cell_length_b 18.061687
_cell_length_c 16.022160
_cell_angle_alpha 90.000000
_cell_angle_beta 90.000000
_cell_angle_gamma 90.000000
_cell_volume 2220.484201
_symmetry_space_group_name_H-M "P C C M"
_symmetry_group_IT_number 49
_symmetry_cell_setting 'orthorhombic'
loop_
_space_group_symop_operation_xyz
x,y,z
-x,-y,z
x,-y,1/2-z
-x,y,1/2-z
-x,-y,-z
x,y,-z
-x,y,1/2+z
x,-y,1/2+z
loop_
_atom_site_type_symbol
_atom_site_label
_atom_site_fract_x
_atom_site_fract_y
_atom_site_fract_z
Si Si1 0.213008 0.839748 0.098052
Si Si2 0.293752 0.582907 0.500000
Si Si3 0.790749 0.318125 0.659556
Si Si4 0.293754 0.582908 0.000000
Si Si5 0.205409 1.000000 0.601863
Si Si6 0.790747 0.318124 0.159556
Si Si7 0.213008 0.839748 0.598052
O O1 0.273787 0.765551 0.142963
O O2 0.000000 0.841552 0.102597
O O3 0.276352 0.920156 0.129192
O O4 0.256871 0.832811 0.000000
O O5 0.247713 0.629008 0.582388
O O6 0.217131 0.499999 0.500000
O O7 0.499999 0.576289 0.500000
O O8 0.728003 0.344924 0.750000
O O9 0.726214 0.234450 0.642962
O O10 0.000001 0.312989 0.662664
O O11 0.247715 0.629009 0.917612
O O12 0.214908 1.000000 0.500000
O O13 0.276352 0.920156 0.629193
O O14 0.000000 0.000000 0.623622
O O15 0.256871 0.832811 0.500000
#
# Coordination Sequence:
#
# PCOD9393898 Si02
#       7
#     8   4   8   4   8   8   8
#     4   8  12  22  42  70 107 145 178 215 259 308
#     4  11  25  43  61  80 105 140 180 223 273 331
#     4  10  20  35  58  87 115 143 178 222 272 324
#     4  11  25  43  61  80 105 140 180 223 273 331
#     4   7  10  16  33  65 103 143 179 210 253 304
#     4  10  20  35  58  87 115 143 178 222 272 324
#     4   8  12  22  42  70 107 145 178 215 259 308
#
# _framework density 21.616904999999999
#
# number of rings (size 3 to 8) (size 9 to 14) (size 15 to 20)
#    0.000    3.000    1.667    2.500    0.000    2.667 
#    0.000    4.167    0.000    5.000    0.000    2.333 
#    0.000    2.667    0.000    0.000    0.000    0.000 
#
# Total GULP energy -267642.614541 kJ/mol
# GULP energy per Si atom -5575.887803 kJ/mol
# Density = 2.156770 g / cm^3
# Si number density = 21.616905 Si / 1000 Ang^3
#
#
#
# Elastic Constant Matrix: (Units=GPa)
#
#
# Indices 1 2 3 4 5 6 
#
# 1 38.8703 12.9094 9.4713 0.0000 0.0000 0.0000
# 2 12.9094 203.1413 104.1976 0.0000 0.0000 0.0000
# 3 9.4713 104.1976 146.7439 0.0000 0.0000 0.0000
# 4 0.0000 0.0000 0.0000 -9.3159 0.0000 0.0000
# 5 0.0000 0.0000 0.0000 0.0000 -72.3239 0.0000
# 6 0.0000 0.0000 0.0000 0.0000 0.0000 44.0503
#
#
#
# Elastic Compliance Matrix: (Units=1/GPa)
#
#
# Indices 1 2 3 4 5 6 
#
# 1 0.026342 -0.001261 -0.000805 0.000000 0.000000 0.000000
# 2 -0.001261 0.007803 -0.005459 0.000000 0.000000 0.000000
# 3 -0.000805 -0.005459 0.010743 0.000000 0.000000 0.000000
# 4 0.000000 0.000000 0.000000 -0.107344 0.000000 0.000000
# 5 0.000000 0.000000 0.000000 0.000000 -0.013827 0.000000
# 6 0.000000 0.000000 0.000000 0.000000 0.000000 0.022701
#
#
# Mechanical properties :
#
#
# Convention : Reuss Voigt Hill
#
# Bulk Modulus (GPa) = 33.51514 71.32359 52.41937
# Shear Modulus (GPa) = -174.91316 9.96059 -82.47629
#
# Velocity S-wave (km/s) = -9.00503 2.14890 -6.18356
# Velocity P-wave (km/s) = 9.62201 6.26283 5.16527
#
# Compressibility (1/GPa) = 0.02983726
#
# Stress axis : x y z
#
# Youngs Moduli (GPa) = 37.96291 128.15466 93.08421
#
# Poissons Ratio (x) = 0.16164 0.07489
# Poissons Ratio (y) = 0.04788 0.50817
# Poissons Ratio (z) = 0.03054 0.69963
#
# Static dielectric constant tensor:
#      x y z
#    x 1.816850 0.000000 0.000000 
#    y 0.000000 1.821580 0.000000 
#    z 0.000000 0.000000 1.676100 
# 
# From -- ./inp_files/11878.got.cif
#   From: 2010.05.17/outbox.cif.g08.bks.cpg/sg49_6_cif.got.tgz:11878.got - 2010.06.03 21:02:19.
