data_PCOD9393393
_publ_section_title
;
Structure prediction by ZEFSAII (Michael W. Deem and Ramdas Pophale) SiO2 
 PCOD9393393
Probable space group: P C C M
;
_chemical_formula_sum "Si O2"
_cell_formula_units_Z 64
_cell_length_a 15.824127
_cell_length_b 24.273119
_cell_length_c 8.588176
_cell_angle_alpha 90.000000
_cell_angle_beta 90.000000
_cell_angle_gamma 90.000000
_cell_volume 3298.726283
_symmetry_space_group_name_H-M "P C C M"
_symmetry_group_IT_number 49
_symmetry_cell_setting 'orthorhombic'
loop_
_space_group_symop_operation_xyz
x,y,z
-x,-y,z
x,-y,1/2-z
-x,y,1/2-z
-x,-y,-z
x,y,-z
-x,y,1/2+z
x,-y,1/2+z
loop_
_atom_site_type_symbol
_atom_site_label
_atom_site_fract_x
_atom_site_fract_y
_atom_site_fract_z
Si Si1 0.910537 0.134175 0.314194
Si Si2 0.653413 0.248978 0.811016
Si Si3 0.591068 0.870493 0.687110
Si Si4 0.908681 0.371474 0.812832
Si Si5 0.149686 0.249712 0.312162
Si Si6 0.590999 0.368278 0.187403
Si Si7 0.251595 0.438119 0.813888
Si Si8 0.749629 0.061732 0.312745
O O1 0.913037 0.133595 0.500000
O O2 0.894899 0.196472 0.257657
O O3 0.831431 0.097087 0.261918
O O4 0.000000 0.114019 0.250000
O O5 0.610227 0.192361 0.759196
O O6 0.751753 0.249738 0.763845
O O7 0.608518 0.305125 0.760060
O O8 0.652409 0.249039 0.000000
O O9 0.500000 0.887789 0.750000
O O10 0.591179 0.871501 0.500000
O O11 0.666039 0.908622 0.749039
O O12 0.891576 0.307753 0.766802
O O13 0.832719 0.407681 0.745594
O O14 0.000000 0.388734 0.750000
O O15 0.906814 0.374596 0.000000
O O16 0.146795 0.245745 0.500000
O O17 0.500000 0.386239 0.250000
O O18 0.667243 0.405230 0.250208
O O19 0.591751 0.369808 0.000000
O O20 0.253076 0.500000 0.750000
O O21 0.252990 0.438353 0.000000
O O22 0.746996 0.061311 0.500000
O O23 0.755196 0.000000 0.250000
#
# Coordination Sequence:
#
# PCOD9393393 Si02
#       8
#     8   8   8   8   8   8   8   8
#     4  11  24  40  62  93 126 161 204 253 306 368
#     4   9  18  35  62  93 127 166 201 244 304 365
#     4  11  22  39  64  93 127 164 203 249 304 363
#     4  11  23  41  65  95 130 166 207 256 307 370
#     4  10  19  37  64  93 127 166 204 247 305 366
#     4  11  22  41  65  96 131 166 208 254 308 369
#     4  12  26  45  67  92 122 164 212 262 315 368
#     4  11  25  44  64  89 119 158 208 258 308 363
#
# _framework density 19.401429
#
# number of rings (size 3 to 8) (size 9 to 14) (size 15 to 20)
#    0.000    1.250    2.500    3.750    0.000    4.500 
#    0.000    6.875    0.000    0.000    0.000    0.000 
#    0.000    0.000    0.000    0.000    0.000    0.000 
#
# Total GULP energy -357956.705834 kJ/mol
# GULP energy per Si atom -5593.073529 kJ/mol
# Density = 1.935727 g / cm^3
# Si number density = 19.401429 Si / 1000 Ang^3
#
#
#
# Elastic Constant Matrix: (Units=GPa)
#
#
# Indices 1 2 3 4 5 6 
#
# 1 189.5591 73.4027 48.4900 0.0000 0.0000 0.0000
# 2 73.4027 139.6610 42.9449 0.0000 0.0000 0.0000
# 3 48.4900 42.9449 72.5457 0.0000 0.0000 0.0000
# 4 0.0000 0.0000 0.0000 25.1126 0.0000 0.0000
# 5 0.0000 0.0000 0.0000 0.0000 31.7952 0.0000
# 6 0.0000 0.0000 0.0000 0.0000 0.0000 -5.2443
#
#
#
# Elastic Compliance Matrix: (Units=1/GPa)
#
#
# Indices 1 2 3 4 5 6 
#
# 1 0.007160 -0.002802 -0.003128 0.000000 0.000000 0.000000
# 2 -0.002802 0.009850 -0.003958 0.000000 0.000000 0.000000
# 3 -0.003128 -0.003958 0.018218 0.000000 0.000000 0.000000
# 4 0.000000 0.000000 0.000000 0.039821 0.000000 0.000000
# 5 0.000000 0.000000 0.000000 0.000000 0.031451 0.000000
# 6 0.000000 0.000000 0.000000 0.000000 0.000000 -0.190682
#
#
# Mechanical properties :
#
#
# Convention : Reuss Voigt Hill
#
# Bulk Modulus (GPa) = 64.71037 81.27124 72.99080
# Shear Modulus (GPa) = -84.37849 26.12793 -29.12528
#
# Velocity S-wave (km/s) = -6.60191 3.67372 -3.87873
# Velocity P-wave (km/s) = 4.96869 7.74437 4.20044
#
# Compressibility (1/GPa) = 0.01545347
#
# Stress axis : x y z
#
# Youngs Moduli (GPa) = 139.65916 101.52534 54.89081
#
# Poissons Ratio (x) = 0.28443 0.17167
# Poissons Ratio (y) = 0.39127 0.21727
# Poissons Ratio (z) = 0.43679 0.40185
#
# Static dielectric constant tensor:
#      x y z
#    x 1.659670 0.000000 0.000000 
#    y 0.000000 1.655920 0.000000 
#    z 0.000000 0.000000 1.650140 
# 
# From -- ./inp_files/4425.got.cif
#   From: 2010.05.17/outbox.cif.g08.bks.cpg/sg49_3_cif.got.tgz:4425.got - 2010.06.03 21:02:19.
