data_PCOD9393429
_publ_section_title
;
Structure prediction by ZEFSAII (Michael W. Deem and Ramdas Pophale) SiO2 
 PCOD9393429
Probable space group: P C C M
;
_chemical_formula_sum "Si O2"
_cell_formula_units_Z 64
_cell_length_a 15.112993
_cell_length_b 28.999094
_cell_length_c 8.743043
_cell_angle_alpha 90.000000
_cell_angle_beta 90.000000
_cell_angle_gamma 90.000000
_cell_volume 3831.753169
_symmetry_space_group_name_H-M "P C C M"
_symmetry_group_IT_number 49
_symmetry_cell_setting 'orthorhombic'
loop_
_space_group_symop_operation_xyz
x,y,z
-x,-y,z
x,-y,1/2-z
-x,y,1/2-z
-x,-y,-z
x,y,-z
-x,y,1/2+z
x,-y,1/2+z
loop_
_atom_site_type_symbol
_atom_site_label
_atom_site_fract_x
_atom_site_fract_y
_atom_site_fract_z
Si Si1 0.900666 0.046244 0.682590
Si Si2 0.275028 0.547309 0.682786
Si Si3 0.905351 0.581265 0.316484
Si Si4 0.595773 0.732284 0.683803
Si Si5 0.099329 0.850823 0.682998
Si Si6 0.094010 0.311622 0.316349
Si Si7 0.220376 0.770610 0.184582
Si Si8 0.595959 0.630948 0.816090
O O1 0.904717 0.041869 0.500000
O O2 0.866337 0.097367 0.721116
O O3 0.000000 0.047045 0.750000
O O4 0.856878 0.000000 0.750000
O O5 0.313269 0.500000 0.750000
O O6 0.271279 0.544477 0.500000
O O7 0.177146 0.554025 0.749812
O O8 0.333263 0.591884 0.725143
O O9 0.906696 0.578346 0.500000
O O10 0.892443 0.635218 0.270072
O O11 0.000000 0.566397 0.250000
O O12 0.500000 0.745331 0.750000
O O13 0.590713 0.730106 0.500000
O O14 0.676850 0.765502 0.727760
O O15 0.616959 0.680974 0.745830
O O16 0.092489 0.847431 0.500000
O O17 0.166030 0.812699 0.745679
O O18 0.000000 0.844913 0.750000
O O19 0.088868 0.311025 0.500000
O O20 0.170473 0.276653 0.268796
O O21 0.000000 0.295887 0.250000
O O22 0.215776 0.773741 0.000000
O O23 0.500000 0.617915 0.750000
O O24 0.591466 0.634824 0.000000
#
# Coordination Sequence:
#
# PCOD9393429 Si02
#       8
#     8   8   8   8   8   8   8   8
#     4   9  16  26  41  61  86 122 167 210 249 287
#     4  11  24  39  55  77 101 126 157 192 234 283
#     4  10  20  36  56  75  98 127 160 199 237 276
#     4  10  20  35  55  77 100 127 161 199 239 285
#     4  10  20  31  44  66  98 134 171 209 248 290
#     4   9  18  31  47  69  95 124 157 191 228 272
#     4  10  20  32  47  69  98 131 164 198 240 287
#     4  10  21  37  58  81 103 127 156 191 233 284
#
# _framework density 16.702539000000002
#
# number of rings (size 3 to 8) (size 9 to 14) (size 15 to 20)
#    0.000    2.125    0.000    4.500    0.000    8.000 
#    0.000    2.500    0.000    0.000    0.000    0.000 
#    0.000    0.500    0.000    5.500    0.000    4.000 
#
# Total GULP energy -357124.579274 kJ/mol
# GULP energy per Si atom -5580.071551 kJ/mol
# Density = 1.666452 g / cm^3
# Si number density = 16.702539 Si / 1000 Ang^3
#
#
#
# Elastic Constant Matrix: (Units=GPa)
#
#
# Indices 1 2 3 4 5 6 
#
# 1 97.4727 62.3388 33.1116 0.0000 0.0000 0.0000
# 2 62.3388 80.5871 31.2225 0.0000 0.0000 0.0000
# 3 33.1116 31.2225 43.3010 0.0000 0.0000 0.0000
# 4 0.0000 0.0000 0.0000 26.9884 0.0000 0.0000
# 5 0.0000 0.0000 0.0000 0.0000 17.0621 0.0000
# 6 0.0000 0.0000 0.0000 0.0000 0.0000 14.2560
#
#
#
# Elastic Compliance Matrix: (Units=1/GPa)
#
#
# Indices 1 2 3 4 5 6 
#
# 1 0.021423 -0.014189 -0.006151 0.000000 0.000000 0.000000
# 2 -0.014189 0.026617 -0.008342 0.000000 0.000000 0.000000
# 3 -0.006151 -0.008342 0.033813 0.000000 0.000000 0.000000
# 4 0.000000 0.000000 0.000000 0.037053 0.000000 0.000000
# 5 0.000000 0.000000 0.000000 0.000000 0.058610 0.000000
# 6 0.000000 0.000000 0.000000 0.000000 0.000000 0.070146
#
#
# Mechanical properties :
#
#
# Convention : Reuss Voigt Hill
#
# Bulk Modulus (GPa) = 40.83504 52.74515 46.79010
# Shear Modulus (GPa) = 15.96477 17.97383 16.96930
#
# Velocity S-wave (km/s) = 3.09500 3.28398 3.19089
# Velocity P-wave (km/s) = 6.10521 6.78432 6.45370
#
# Compressibility (1/GPa) = 0.02448877
#
# Stress axis : x y z
#
# Youngs Moduli (GPa) = 46.67774 37.56970 29.57447
#
# Poissons Ratio (x) = 0.53308 0.18191
# Poissons Ratio (y) = 0.66232 0.24672
# Poissons Ratio (z) = 0.28711 0.31342
#
# Static dielectric constant tensor:
#      x y z
#    x 1.546450 0.000000 0.000000 
#    y 0.000000 1.591170 0.000000 
#    z 0.000000 0.000000 1.558700 
# 
# From -- ./inp_files/4528.got.cif
#   From: 2010.05.17/outbox.cif.g08.bks.cpg/sg49_3_cif.got.tgz:4528.got - 2010.06.03 21:02:19.
