data_PCOD9393236
_publ_section_title
;
Structure prediction by ZEFSAII (Michael W. Deem and Ramdas Pophale) SiO2 
 PCOD9393236
Probable space group: P C C M
;
_chemical_formula_sum "Si O2"
_cell_formula_units_Z 48
_cell_length_a 17.384559
_cell_length_b 8.794047
_cell_length_c 15.638833
_cell_angle_alpha 90.000000
_cell_angle_beta 90.000000
_cell_angle_gamma 90.000000
_cell_volume 2390.874625
_symmetry_space_group_name_H-M "P C C M"
_symmetry_group_IT_number 49
_symmetry_cell_setting 'orthorhombic'
loop_
_space_group_symop_operation_xyz
x,y,z
-x,-y,z
x,-y,1/2-z
-x,y,1/2-z
-x,-y,-z
x,y,-z
-x,y,1/2+z
x,-y,1/2+z
loop_
_atom_site_type_symbol
_atom_site_label
_atom_site_fract_x
_atom_site_fract_y
_atom_site_fract_z
Si Si1 0.079525 0.434699 0.652878
Si Si2 0.616901 0.127906 0.000000
Si Si3 0.439290 0.216736 0.000000
Si Si4 0.147165 0.823254 0.767958
Si Si5 0.345141 0.352395 0.145625
Si Si6 0.825673 0.314171 0.592159
Si Si7 0.315749 0.287273 0.669204
O O1 0.086315 0.500000 0.750000
O O2 0.086354 0.254672 0.667716
O O3 0.149119 0.509333 0.600461
O O4 0.000000 0.500000 0.617449
O O5 0.529710 0.189229 0.000000
O O6 0.657171 0.190312 0.912903
O O7 0.606075 0.945153 0.000000
O O8 0.413100 0.310634 0.917430
O O9 0.134055 0.761053 0.672452
O O10 0.228675 0.759693 0.804412
O O11 0.149130 0.000000 0.750000
O O12 0.264872 0.292132 0.106449
O O13 0.358094 0.275788 0.238355
O O14 0.328934 0.533342 0.150701
O O15 0.848396 0.255068 0.500000
#
# Coordination Sequence:
#
# PCOD9393236 Si02
#       7
#     8   4   4   8   8   8   8
#     4   9  18  36  58  84 121 163 200 243 299 362
#     4  11  27  41  57  93 127 158 202 258 332 370
#     4  11  25  43  61  85 125 168 200 252 324 391
#     4  10  21  37  60  93 124 159 205 253 308 366
#     4  10  20  38  64  87 116 163 210 254 303 366
#     4  10  19  34  59  88 117 158 206 250 291 363
#     4  10  22  38  61  92 121 157 209 263 300 366
#
# _framework density 20.076336000000001
#
# number of rings (size 3 to 8) (size 9 to 14) (size 15 to 20)
#    0.000    2.000    2.500    0.500    4.667    2.333 
#    0.000   10.000    0.000    1.000    0.000    0.000 
#    0.000    0.000    0.000    0.000    0.000    0.000 
#
# Total GULP energy -267293.925473 kJ/mol
# GULP energy per Si atom -5568.623447 kJ/mol
# Density = 2.003064 g / cm^3
# Si number density = 20.076336 Si / 1000 Ang^3
#
#
#
# Elastic Constant Matrix: (Units=GPa)
#
#
# Indices 1 2 3 4 5 6 
#
# 1 56.5089 17.0807 37.9286 0.0000 0.0000 0.0000
# 2 17.0807 103.9053 40.8294 0.0000 0.0000 0.0000
# 3 37.9286 40.8294 131.9852 0.0000 0.0000 0.0000
# 4 0.0000 0.0000 0.0000 18.3265 0.0000 0.0000
# 5 0.0000 0.0000 0.0000 0.0000 -5.1409 0.0000
# 6 0.0000 0.0000 0.0000 0.0000 0.0000 15.9447
#
#
#
# Elastic Compliance Matrix: (Units=1/GPa)
#
#
# Indices 1 2 3 4 5 6 
#
# 1 0.022077 -0.001293 -0.005944 0.000000 0.000000 0.000000
# 2 -0.001293 0.011032 -0.003041 0.000000 0.000000 0.000000
# 3 -0.005944 -0.003041 0.010225 0.000000 0.000000 0.000000
# 4 0.000000 0.000000 0.000000 0.054566 0.000000 0.000000
# 5 0.000000 0.000000 0.000000 0.000000 -0.194519 0.000000
# 6 0.000000 0.000000 0.000000 0.000000 0.000000 0.062717
#
#
# Mechanical properties :
#
#
# Convention : Reuss Voigt Hill
#
# Bulk Modulus (GPa) = 43.90370 53.78632 48.84501
# Shear Modulus (GPa) = -869.06562 18.93012 -425.06775
#
# Velocity S-wave (km/s) = -20.82835 3.07401 -14.56659
# Velocity P-wave (km/s) = 23.59049 6.28080 16.07891
#
# Compressibility (1/GPa) = 0.02277712
#
# Stress axis : x y z
#
# Youngs Moduli (GPa) = 45.29610 90.64785 97.79484
#
# Poissons Ratio (x) = 0.11725 0.58131
# Poissons Ratio (y) = 0.05859 0.29739
# Poissons Ratio (z) = 0.26925 0.27566
#
# Static dielectric constant tensor:
#      x y z
#    x 1.724910 0.000000 0.000000 
#    y 0.000000 1.795430 0.000000 
#    z 0.000000 0.000000 1.714630 
# 
# From -- ./inp_files/17766.got.cif
#   From: 2010.05.17/outbox.cif.g08.bks.cpg/sg49_9_cif.got.tgz:17766.got - 2010.06.03 21:02:19.
