data_PCOD9393775
_publ_section_title
;
Structure prediction by ZEFSAII (Michael W. Deem and Ramdas Pophale) SiO2 
 PCOD9393775
Probable space group: P C C M
;
_chemical_formula_sum "Si O2"
_cell_formula_units_Z 56
_cell_length_a 15.839864
_cell_length_b 20.884568
_cell_length_c 8.419692
_cell_angle_alpha 90.000000
_cell_angle_beta 90.000000
_cell_angle_gamma 90.000000
_cell_volume 2785.307507
_symmetry_space_group_name_H-M "P C C M"
_symmetry_group_IT_number 49
_symmetry_cell_setting 'orthorhombic'
loop_
_space_group_symop_operation_xyz
x,y,z
-x,-y,z
x,-y,1/2-z
-x,y,1/2-z
-x,-y,-z
x,y,-z
-x,y,1/2+z
x,-y,1/2+z
loop_
_atom_site_type_symbol
_atom_site_label
_atom_site_fract_x
_atom_site_fract_y
_atom_site_fract_z
Si Si1 0.404641 0.806213 0.190603
Si Si2 0.095009 0.205410 0.308149
Si Si3 0.143383 0.066524 0.684008
Si Si4 0.746553 0.572322 0.188940
Si Si5 0.328735 0.063071 0.812148
Si Si6 0.097176 0.345856 0.309050
Si Si7 0.402964 0.337098 0.690314
O O1 0.500000 0.803904 0.250000
O O2 0.366532 0.867848 0.275290
O O3 0.371384 0.735198 0.231199
O O4 0.398598 0.814585 0.000000
O O5 0.102450 0.202932 0.500000
O O6 0.123171 0.136185 0.243824
O O7 0.130930 0.274634 0.259236
O O8 0.000000 0.210519 0.250000
O O9 0.120940 0.068162 0.500000
O O10 0.243221 0.061845 0.709897
O O11 0.106466 0.000000 0.750000
O O12 0.739908 0.500000 0.250000
O O13 0.833999 0.603670 0.250175
O O14 0.665120 0.612725 0.246173
O O15 0.747994 0.572774 0.000000
O O16 0.378424 0.000000 0.750000
O O17 0.312832 0.057057 0.000000
O O18 0.094019 0.347255 0.500000
O O19 0.000000 0.355134 0.250000
O O20 0.500000 0.345733 0.750000
O O21 0.405831 0.340951 0.500000
#
# Coordination Sequence:
#
# PCOD9393775 Si02
#       7
#     8   8   8   8   8   8   8
#     4  10  21  38  60  86 117 152 194 243 296 354
#     4   9  20  36  57  82 113 150 194 242 297 355
#     4  10  20  35  52  77 110 151 195 244 299 353
#     4  12  26  44  67  98 130 166 210 253 304 372
#     4  11  22  36  54  79 111 151 197 246 299 356
#     4  10  21  41  65  94 128 166 208 259 315 371
#     4  10  22  42  67  96 131 168 207 257 310 367
#
# _framework density 20.105498999999998
#
# number of rings (size 3 to 8) (size 9 to 14) (size 15 to 20)
#    0.000    1.714    0.000    5.143    2.000    4.571 
#    0.000    5.714    0.000    0.000    0.000    0.000 
#    0.000    0.000    0.000    0.000    0.000    0.000 
#
# Total GULP energy -312227.257331 kJ/mol
# GULP energy per Si atom -5575.486738 kJ/mol
# Density = 2.005974 g / cm^3
# Si number density = 20.105499 Si / 1000 Ang^3
#
#
#
# Elastic Constant Matrix: (Units=GPa)
#
#
# Indices 1 2 3 4 5 6 
#
# 1 70.4741 70.4046 15.7639 0.0000 0.0000 0.0000
# 2 70.4046 203.2477 45.1899 0.0000 0.0000 0.0000
# 3 15.7639 45.1899 62.1688 0.0000 0.0000 0.0000
# 4 0.0000 0.0000 0.0000 31.2037 0.0000 0.0000
# 5 0.0000 0.0000 0.0000 0.0000 24.9360 0.0000
# 6 0.0000 0.0000 0.0000 0.0000 0.0000 66.1392
#
#
#
# Elastic Compliance Matrix: (Units=1/GPa)
#
#
# Indices 1 2 3 4 5 6 
#
# 1 0.021699 -0.007506 -0.000046 0.000000 0.000000 0.000000
# 2 -0.007506 0.008465 -0.004250 0.000000 0.000000 0.000000
# 3 -0.000046 -0.004250 0.019186 0.000000 0.000000 0.000000
# 4 0.000000 0.000000 0.000000 0.032048 0.000000 0.000000
# 5 0.000000 0.000000 0.000000 0.000000 0.040103 0.000000
# 6 0.000000 0.000000 0.000000 0.000000 0.000000 0.015120
#
#
# Mechanical properties :
#
#
# Convention : Reuss Voigt Hill
#
# Bulk Modulus (GPa) = 38.84109 66.51195 52.67652
# Shear Modulus (GPa) = 29.61986 38.09124 33.85555
#
# Velocity S-wave (km/s) = 3.84242 4.35739 4.10798
# Velocity P-wave (km/s) = 6.24869 7.64650 6.98266
#
# Compressibility (1/GPa) = 0.02574593
#
# Stress axis : x y z
#
# Youngs Moduli (GPa) = 46.08581 118.13141 52.12112
#
# Poissons Ratio (x) = 0.88671 0.00239
# Poissons Ratio (y) = 0.34593 0.22151
# Poissons Ratio (z) = 0.00212 0.50205
#
# Static dielectric constant tensor:
#      x y z
#    x 1.696990 0.000000 0.000000 
#    y 0.000000 1.825630 0.000000 
#    z 0.000000 0.000000 1.587970 
# 
# From -- ./inp_files/4038.got.cif
#   From: 2010.05.17/outbox.cif.g08.bks.cpg/sg49_3_cif.got.tgz:4038.got - 2010.06.03 21:02:19.
