data_PCOD9393857
_publ_section_title
;
Structure prediction by ZEFSAII (Michael W. Deem and Ramdas Pophale) SiO2 
 PCOD9393857
Probable space group: P C C M
;
_chemical_formula_sum "Si O2"
_cell_formula_units_Z 48
_cell_length_a 9.131876
_cell_length_b 29.549590
_cell_length_c 9.816602
_cell_angle_alpha 90.000000
_cell_angle_beta 90.000000
_cell_angle_gamma 90.000000
_cell_volume 2648.943216
_symmetry_space_group_name_H-M "P C C M"
_symmetry_group_IT_number 49
_symmetry_cell_setting 'orthorhombic'
loop_
_space_group_symop_operation_xyz
x,y,z
-x,-y,z
x,-y,1/2-z
-x,y,1/2-z
-x,-y,-z
x,y,-z
-x,y,1/2+z
x,-y,1/2+z
loop_
_atom_site_type_symbol
_atom_site_label
_atom_site_fract_x
_atom_site_fract_y
_atom_site_fract_z
Si Si1 0.642968 0.815461 0.340497
Si Si2 0.650277 0.542822 0.664909
Si Si3 0.356091 0.289193 0.661426
Si Si4 0.344344 0.936986 0.500000
Si Si5 0.825215 0.900315 0.260792
Si Si6 0.314957 0.954827 0.000000
Si Si7 0.142109 0.370340 0.340690
O O1 0.500000 0.825440 0.250000
O O2 0.605377 0.819605 0.500000
O O3 0.686277 0.763209 0.315119
O O4 0.769146 0.850932 0.305871
O O5 0.714115 0.500000 0.750000
O O6 0.500000 0.551470 0.750000
O O7 0.629275 0.534291 0.500000
O O8 0.752037 0.586552 0.675601
O O9 0.500000 0.298371 0.750000
O O10 0.388533 0.294413 0.500000
O O11 0.231051 0.324988 0.696365
O O12 0.264466 0.914372 0.372679
O O13 0.521066 0.933459 0.500000
O O14 0.321371 0.991146 0.500000
O O15 0.771605 0.936386 0.371276
O O16 0.000000 0.901357 0.250000
O O17 0.102222 0.367203 0.500000
O O18 0.000000 0.375459 0.250000
#
# Coordination Sequence:
#
# PCOD9393857 Si02
#       7
#     8   8   8   4   8   4   8
#     4  10  21  39  63  87 116 153 194 237 284 346
#     4  10  20  35  56  83 111 148 193 243 293 346
#     4   9  19  37  60  86 112 146 191 239 283 335
#     4  11  25  41  67  87 113 157 199 239 282 349
#     4  12  25  39  60  91 122 154 188 239 298 345
#     4  11  23  45  63  87 117 153 201 239 284 341
#     4  10  22  37  55  81 116 154 192 236 291 347
#
# _framework density 18.120433999999999
#
# number of rings (size 3 to 8) (size 9 to 14) (size 15 to 20)
#    0.000    1.667    0.833    4.000    1.167    6.333 
#    0.000    1.667    0.000    0.000    0.000    0.000 
#    0.000    0.000    0.000    0.000    0.000    0.000 
#
# Total GULP energy -267926.413787 kJ/mol
# GULP energy per Si atom -5581.800287 kJ/mol
# Density = 1.807919 g / cm^3
# Si number density = 18.120434 Si / 1000 Ang^3
#
#
#
# Elastic Constant Matrix: (Units=GPa)
#
#
# Indices 1 2 3 4 5 6 
#
# 1 113.1076 61.6746 49.0138 0.0000 0.0000 0.0000
# 2 61.6746 96.4858 40.2317 0.0000 0.0000 0.0000
# 3 49.0138 40.2317 105.8880 0.0000 0.0000 0.0000
# 4 0.0000 0.0000 0.0000 30.7404 0.0000 0.0000
# 5 0.0000 0.0000 0.0000 0.0000 33.8905 0.0000
# 6 0.0000 0.0000 0.0000 0.0000 0.0000 -5.8585
#
#
#
# Elastic Compliance Matrix: (Units=1/GPa)
#
#
# Indices 1 2 3 4 5 6 
#
# 1 0.014794 -0.007844 -0.003868 0.000000 0.000000 0.000000
# 2 -0.007844 0.016474 -0.002628 0.000000 0.000000 0.000000
# 3 -0.003868 -0.002628 0.012233 0.000000 0.000000 0.000000
# 4 0.000000 0.000000 0.000000 0.032530 0.000000 0.000000
# 5 0.000000 0.000000 0.000000 0.000000 0.029507 0.000000
# 6 0.000000 0.000000 0.000000 0.000000 0.000000 -0.170693
#
#
# Mechanical properties :
#
#
# Convention : Reuss Voigt Hill
#
# Bulk Modulus (GPa) = 67.47150 68.59128 68.03139
# Shear Modulus (GPa) = -158.55830 22.72526 -67.91652
#
# Velocity S-wave (km/s) = -9.36442 3.54520 -6.12878
# Velocity P-wave (km/s) = 8.92230 7.39548 3.52947
#
# Compressibility (1/GPa) = 0.01482107
#
# Stress axis : x y z
#
# Youngs Moduli (GPa) = 67.59390 60.70144 81.74657
#
# Poissons Ratio (x) = 0.47613 0.31618
# Poissons Ratio (y) = 0.53020 0.21487
# Poissons Ratio (z) = 0.26144 0.15955
#
# Static dielectric constant tensor:
#      x y z
#    x 1.579820 0.000000 0.000000 
#    y 0.000000 1.628260 0.000000 
#    z 0.000000 0.000000 1.568680 
# 
# From -- ./inp_files/2168.got.cif
#   From: 2010.05.17/outbox.cif.g08.bks.cpg/sg49_2_cif.got.tgz:2168.got - 2010.06.03 21:02:19.
