data_PCOD9393706
_publ_section_title
;
Structure prediction by ZEFSAII (Michael W. Deem and Ramdas Pophale) SiO2 
 PCOD9393706
Probable space group: P C C M
;
_chemical_formula_sum "Si O2"
_cell_formula_units_Z 40
_cell_length_a 12.525363
_cell_length_b 7.105026
_cell_length_c 16.832093
_cell_angle_alpha 90.000000
_cell_angle_beta 90.000000
_cell_angle_gamma 90.000000
_cell_volume 1497.938954
_symmetry_space_group_name_H-M "P C C M"
_symmetry_group_IT_number 49
_symmetry_cell_setting 'orthorhombic'
loop_
_space_group_symop_operation_xyz
x,y,z
-x,-y,z
x,-y,1/2-z
-x,y,1/2-z
-x,-y,-z
x,y,-z
-x,y,1/2+z
x,-y,1/2+z
loop_
_atom_site_type_symbol
_atom_site_label
_atom_site_fract_x
_atom_site_fract_y
_atom_site_fract_z
Si Si1 0.717914 0.756140 0.408466
Si Si2 0.730625 0.301684 0.591241
Si Si3 0.958819 0.213898 0.590688
Si Si4 0.111775 0.301434 0.291789
Si Si5 0.493140 0.271466 0.841400
O O1 0.749535 0.814172 0.500000
O O2 0.726500 0.527969 0.406765
O O3 0.786237 0.808913 0.327997
O O4 0.593481 0.799871 0.392288
O O5 0.726149 0.242719 0.500000
O O6 0.841643 0.232335 0.629129
O O7 0.624939 0.223364 0.630510
O O8 0.942799 0.265029 0.500000
O O9 0.054646 0.337008 0.623596
O O10 0.000000 0.000000 0.595326
O O11 0.138062 0.500000 0.250000
O O12 0.000000 0.223532 0.250000
O O13 0.500000 0.500000 0.845785
O O14 0.500000 0.217957 0.750000
#
# Coordination Sequence:
#
# PCOD9393706 Si02
#       5
#     8   8   8   8   8
#     4  10  20  34  54  83 122 164 206 259 329 397
#     4   9  17  31  53  82 117 154 201 256 318 387
#     4  10  22  41  63  86 121 172 220 265 329 414
#     4  11  23  35  57  86 123 156 208 271 333 386
#     4   9  18  28  51  82 121 158 198 259 331 388
#
# _framework density 26.703358999999999
#
# number of rings (size 3 to 8) (size 9 to 14) (size 15 to 20)
#    0.000    2.200    0.000    3.600    8.400    2.800 
#    0.000    7.000    0.000    1.200    0.000    7.000 
#    0.000    0.000    0.000    0.000    0.000    0.400 
#
# Total GULP energy -223360.487229 kJ/mol
# GULP energy per Si atom -5584.012181 kJ/mol
# Density = 2.664258 g / cm^3
# Si number density = 26.703359 Si / 1000 Ang^3
#
#
#
# Elastic Constant Matrix: (Units=GPa)
#
#
# Indices 1 2 3 4 5 6 
#
# 1 222.0441 -0.5948 57.2821 0.0000 0.0000 0.0000
# 2 -0.5948 95.5679 2.8538 0.0000 0.0000 0.0000
# 3 57.2821 2.8538 97.9702 0.0000 0.0000 0.0000
# 4 0.0000 0.0000 0.0000 -1.3441 0.0000 0.0000
# 5 0.0000 0.0000 0.0000 0.0000 58.2220 0.0000
# 6 0.0000 0.0000 0.0000 0.0000 0.0000 -1.4876
#
#
#
# Elastic Compliance Matrix: (Units=1/GPa)
#
#
# Indices 1 2 3 4 5 6 
#
# 1 0.005305 0.000126 -0.003105 0.000000 0.000000 0.000000
# 2 0.000126 0.010476 -0.000379 0.000000 0.000000 0.000000
# 3 -0.003105 -0.000379 0.012034 0.000000 0.000000 0.000000
# 4 0.000000 0.000000 0.000000 -0.743990 0.000000 0.000000
# 5 0.000000 0.000000 0.000000 0.000000 0.017176 0.000000
# 6 0.000000 0.000000 0.000000 0.000000 0.000000 -0.672227
#
#
# Mechanical properties :
#
#
# Convention : Reuss Voigt Hill
#
# Bulk Modulus (GPa) = 47.39771 59.40718 53.40244
# Shear Modulus (GPa) = -3.68330 34.81414 15.56542
#
# Velocity S-wave (km/s) = -1.17573 3.61465 2.41695
# Velocity P-wave (km/s) = 3.99314 6.30208 5.27548
#
# Compressibility (1/GPa) = 0.02109806
#
# Stress axis : x y z
#
# Youngs Moduli (GPa) = 188.49820 95.45761 83.09817
#
# Poissons Ratio (x) = -0.01200 0.25806
# Poissons Ratio (y) = -0.02370 0.03147
# Poissons Ratio (z) = 0.58538 0.03615
#
# Static dielectric constant tensor:
#      x y z
#    x 2.121570 0.000000 0.000000 
#    y 0.000000 2.135550 0.000000 
#    z 0.000000 0.000000 2.291450 
# 
# From -- ./inp_files/15996.got.cif
#   From: 2010.05.17/outbox.cif.g08.bks.cpg/sg49_8_cif.got.tgz:15996.got - 2010.06.03 21:02:19.
