data_PCOD9393892
_publ_section_title
;
Structure prediction by ZEFSAII (Michael W. Deem and Ramdas Pophale) SiO2 
 PCOD9393892
Probable space group: P C C M
;
_chemical_formula_sum "Si O2"
_cell_formula_units_Z 64
_cell_length_a 13.094592
_cell_length_b 14.311692
_cell_length_c 17.440688
_cell_angle_alpha 90.000000
_cell_angle_beta 90.000000
_cell_angle_gamma 90.000000
_cell_volume 3268.485522
_symmetry_space_group_name_H-M "P C C M"
_symmetry_group_IT_number 49
_symmetry_cell_setting 'orthorhombic'
loop_
_space_group_symop_operation_xyz
x,y,z
-x,-y,z
x,-y,1/2-z
-x,y,1/2-z
-x,-y,-z
x,y,-z
-x,y,1/2+z
x,-y,1/2+z
loop_
_atom_site_type_symbol
_atom_site_label
_atom_site_fract_x
_atom_site_fract_y
_atom_site_fract_z
Si Si1 0.390333 0.550502 0.587498
Si Si2 0.255873 0.930512 0.180118
Si Si3 0.104107 0.055704 0.090736
Si Si4 0.604921 0.198006 0.911514
Si Si5 0.804585 0.205839 0.298415
Si Si6 0.577920 0.734712 0.177299
Si Si7 0.244506 0.626317 0.088382
Si Si8 0.879826 0.394765 0.764637
O O1 0.500000 0.500000 0.591020
O O2 0.379362 0.588264 0.500000
O O3 0.390246 0.631078 0.650576
O O4 0.305625 0.470747 0.597999
O O5 0.352984 0.882106 0.143119
O O6 0.184402 0.851203 0.218845
O O7 0.279866 0.000000 0.250000
O O8 0.194688 0.986096 0.115537
O O9 0.130116 0.149478 0.138685
O O10 0.102172 0.073932 0.000000
O O11 0.000000 0.000000 0.111609
O O12 0.489964 0.223128 0.890674
O O13 0.674642 0.290207 0.897209
O O14 0.616522 0.172942 0.000000
O O15 0.681995 0.207831 0.311495
O O16 0.835833 0.312896 0.288437
O O17 0.500000 0.732681 0.250000
O O18 0.154168 0.630277 0.149214
O O19 0.211017 0.633639 0.000000
O O20 0.841210 0.500000 0.750000
O O21 0.000000 0.395248 0.750000
#
# Coordination Sequence:
#
# PCOD9393892 Si02
#       8
#     8   8   8   8   8   8   8   8
#     4  10  20  35  57  91 131 174 224 275 320 373
#     4  10  21  40  65  94 124 162 211 265 320 389
#     4  10  24  45  71 102 126 157 214 283 346 402
#     4  11  21  37  62  92 126 171 213 255 316 388
#     4  11  24  41  66  98 129 171 217 270 339 388
#     4  12  22  37  58  92 137 176 217 266 320 393
#     4  10  20  38  63  91 127 171 224 273 321 382
#     4  11  24  43  64  94 132 177 223 270 318 394
#
# _framework density 19.580933999999999
#
# number of rings (size 3 to 8) (size 9 to 14) (size 15 to 20)
#    0.000    1.375    3.750    1.500    1.750    3.000 
#    0.000    6.875    0.000    3.750    0.000    0.000 
#    0.000    0.000    0.000    0.000    0.000    0.000 
#
# Total GULP energy -357309.599747 kJ/mol
# GULP energy per Si atom -5582.962496 kJ/mol
# Density = 1.953637 g / cm^3
# Si number density = 19.580934 Si / 1000 Ang^3
#
#
#
# Elastic Constant Matrix: (Units=GPa)
#
#
# Indices 1 2 3 4 5 6 
#
# 1 87.1878 39.1985 51.3507 0.0000 0.0000 0.0000
# 2 39.1985 111.1421 37.7848 0.0000 0.0000 0.0000
# 3 51.3507 37.7848 79.6642 0.0000 0.0000 0.0000
# 4 0.0000 0.0000 0.0000 28.9007 0.0000 0.0000
# 5 0.0000 0.0000 0.0000 0.0000 29.8716 0.0000
# 6 0.0000 0.0000 0.0000 0.0000 0.0000 25.4074
#
#
#
# Elastic Compliance Matrix: (Units=1/GPa)
#
#
# Indices 1 2 3 4 5 6 
#
# 1 0.019333 -0.003078 -0.011002 0.000000 0.000000 0.000000
# 2 -0.003078 0.011217 -0.003336 0.000000 0.000000 0.000000
# 3 -0.011002 -0.003336 0.021227 0.000000 0.000000 0.000000
# 4 0.000000 0.000000 0.000000 0.034601 0.000000 0.000000
# 5 0.000000 0.000000 0.000000 0.000000 0.033477 0.000000
# 6 0.000000 0.000000 0.000000 0.000000 0.000000 0.039359
#
#
# Mechanical properties :
#
#
# Convention : Reuss Voigt Hill
#
# Bulk Modulus (GPa) = 59.01608 59.40691 59.21149
# Shear Modulus (GPa) = 25.03820 26.81328 25.92574
#
# Velocity S-wave (km/s) = 3.57978 3.70450 3.64267
# Velocity P-wave (km/s) = 6.87687 6.97874 6.92799
#
# Compressibility (1/GPa) = 0.01694454
#
# Stress axis : x y z
#
# Youngs Moduli (GPa) = 51.72437 89.14754 47.11032
#
# Poissons Ratio (x) = 0.27442 0.51831
# Poissons Ratio (y) = 0.15922 0.15717
# Poissons Ratio (z) = 0.56907 0.29741
#
# Static dielectric constant tensor:
#      x y z
#    x 1.665970 0.000000 0.000000 
#    y 0.000000 1.716680 0.000000 
#    z 0.000000 0.000000 1.696250 
# 
# From -- ./inp_files/17307.got.cif
#   From: 2010.05.17/outbox.cif.g08.bks.cpg/sg49_9_cif.got.tgz:17307.got - 2010.06.03 21:02:19.
