data_PCOD9393306
_publ_section_title
;
Structure prediction by ZEFSAII (Michael W. Deem and Ramdas Pophale) SiO2 
 PCOD9393306
Probable space group: P C C M
;
_chemical_formula_sum "Si O2"
_cell_formula_units_Z 56
_cell_length_a 20.691170
_cell_length_b 7.760037
_cell_length_c 16.183330
_cell_angle_alpha 90.000000
_cell_angle_beta 90.000000
_cell_angle_gamma 90.000000
_cell_volume 2598.464159
_symmetry_space_group_name_H-M "P C C M"
_symmetry_group_IT_number 49
_symmetry_cell_setting 'orthorhombic'
loop_
_space_group_symop_operation_xyz
x,y,z
-x,-y,z
x,-y,1/2-z
-x,y,1/2-z
-x,-y,-z
x,y,-z
-x,y,1/2+z
x,-y,1/2+z
loop_
_atom_site_type_symbol
_atom_site_label
_atom_site_fract_x
_atom_site_fract_y
_atom_site_fract_z
Si Si1 0.068884 0.943929 0.844154
Si Si2 0.658158 0.461566 0.845908
Si Si3 0.206071 0.069693 0.403122
Si Si4 0.341305 0.954463 0.157404
Si Si5 0.198526 0.529500 0.152891
Si Si6 0.425316 0.543040 0.000000
Si Si7 0.070330 0.419402 0.407895
Si Si8 0.424125 0.957749 0.000000
O O1 0.134970 0.006089 0.886750
O O2 0.069119 0.737540 0.845159
O O3 0.071042 0.000000 0.750000
O O4 0.000000 0.000000 0.881865
O O5 0.642770 0.500000 0.750000
O O6 0.660716 0.253402 0.849798
O O7 0.729528 0.534833 0.867570
O O8 0.608877 0.521665 0.916176
O O9 0.221027 0.070526 0.500000
O O10 0.267006 0.986132 0.356640
O O11 0.201082 0.268221 0.372221
O O12 0.387312 0.018657 0.083292
O O13 0.362708 0.000000 0.250000
O O14 0.191248 0.500000 0.250000
O O15 0.132766 0.463503 0.110526
O O16 0.500000 0.500000 0.000000
O O17 0.418751 0.750144 0.000000
O O18 0.080256 0.345337 0.500000
O O19 0.000000 0.500000 0.405413
O O20 0.500000 0.000000 0.000000
#
# Coordination Sequence:
#
# PCOD9393306 Si02
#       8
#     8   8   8   8   8   4   8   4
#     4  10  21  35  54  83 113 151 194 242 297 350
#     4   9  20  37  58  87 115 148 190 237 282 334
#     4  10  19  35  59  82 110 152 196 240 293 348
#     4  10  20  37  62  88 115 151 198 238 285 342
#     4   9  18  31  55  84 108 143 190 236 285 337
#     4  10  22  38  62  86 113 156 188 224 279 346
#     4  10  22  38  57  81 112 153 196 243 297 352
#     4  10  22  40  60  88 121 154 190 232 287 344
#
# _framework density 21.551192
#
# number of rings (size 3 to 8) (size 9 to 14) (size 15 to 20)
#    0.000    2.286    0.714    2.143    4.000    7.714 
#    0.000    4.286    0.000    0.000    0.000    0.000 
#    0.000    0.000    0.000    0.000    0.000    0.000 
#
# Total GULP energy -312373.387847 kJ/mol
# GULP energy per Si atom -5578.096212 kJ/mol
# Density = 2.150214 g / cm^3
# Si number density = 21.551192 Si / 1000 Ang^3
#
#
#
# Elastic Constant Matrix: (Units=GPa)
#
#
# Indices 1 2 3 4 5 6 
#
# 1 195.4964 4.3823 88.7452 0.0000 0.0000 0.0000
# 2 4.3823 28.7528 15.7498 0.0000 0.0000 0.0000
# 3 88.7452 15.7498 146.8685 0.0000 0.0000 0.0000
# 4 0.0000 0.0000 0.0000 34.3033 0.0000 0.0000
# 5 0.0000 0.0000 0.0000 0.0000 32.7480 0.0000
# 6 0.0000 0.0000 0.0000 0.0000 0.0000 20.3065
#
#
#
# Elastic Compliance Matrix: (Units=1/GPa)
#
#
# Indices 1 2 3 4 5 6 
#
# 1 0.007097 0.001346 -0.004433 0.000000 0.000000 0.000000
# 2 0.001346 0.037205 -0.004803 0.000000 0.000000 0.000000
# 3 -0.004433 -0.004803 0.010003 0.000000 0.000000 0.000000
# 4 0.000000 0.000000 0.000000 0.029152 0.000000 0.000000
# 5 0.000000 0.000000 0.000000 0.000000 0.030536 0.000000
# 6 0.000000 0.000000 0.000000 0.000000 0.000000 0.049245
#
#
# Mechanical properties :
#
#
# Convention : Reuss Voigt Hill
#
# Bulk Modulus (GPa) = 25.95696 65.43025 45.69360
# Shear Modulus (GPa) = 26.06070 34.95425 30.50747
#
# Velocity S-wave (km/s) = 3.48119 4.03167 3.76650
# Velocity P-wave (km/s) = 5.31307 7.21795 6.33749
#
# Compressibility (1/GPa) = 0.03852531
#
# Stress axis : x y z
#
# Youngs Moduli (GPa) = 140.89801 26.87799 99.97479
#
# Poissons Ratio (x) = -0.03619 0.44318
# Poissons Ratio (y) = -0.18972 0.48022
# Poissons Ratio (z) = 0.62459 0.12911
#
# Static dielectric constant tensor:
#      x y z
#    x 1.847390 0.000000 0.000000 
#    y 0.000000 1.834190 0.000000 
#    z 0.000000 0.000000 1.744610 
# 
# From -- ./inp_files/14435.got.cif
#   From: 2010.05.17/outbox.cif.g08.bks.cpg/sg49_8_cif.got.tgz:14435.got - 2010.06.03 21:02:19.
