data_PCOD9393400
_publ_section_title
;
Structure prediction by ZEFSAII (Michael W. Deem and Ramdas Pophale) SiO2 
 PCOD9393400
Probable space group: P C C M
;
_chemical_formula_sum "Si O2"
_cell_formula_units_Z 48
_cell_length_a 9.991410
_cell_length_b 8.995365
_cell_length_c 28.768457
_cell_angle_alpha 90.000000
_cell_angle_beta 90.000000
_cell_angle_gamma 90.000000
_cell_volume 2585.604768
_symmetry_space_group_name_H-M "P C C M"
_symmetry_group_IT_number 49
_symmetry_cell_setting 'orthorhombic'
loop_
_space_group_symop_operation_xyz
x,y,z
-x,-y,z
x,-y,1/2-z
-x,y,1/2-z
-x,-y,-z
x,y,-z
-x,y,1/2+z
x,-y,1/2+z
loop_
_atom_site_type_symbol
_atom_site_label
_atom_site_fract_x
_atom_site_fract_y
_atom_site_fract_z
Si Si1 0.994147 0.826270 0.910480
Si Si2 0.269896 0.832407 0.355382
Si Si3 0.153192 0.180293 0.755058
Si Si4 0.091722 0.645746 0.000000
Si Si5 0.238823 0.184786 0.344178
Si Si6 0.525714 0.676253 0.398610
Si Si7 0.586567 0.348900 0.000000
O O1 0.091117 0.805382 0.866163
O O2 0.844772 0.793169 0.893013
O O3 0.049385 0.734412 0.953665
O O4 0.000000 0.000000 0.923089
O O5 0.219075 0.782285 0.304353
O O6 0.406428 0.759866 0.372367
O O7 0.280773 0.011993 0.351330
O O8 0.234997 0.227937 0.709735
O O9 0.000000 0.232802 0.750000
O O10 0.148445 0.000000 0.750000
O O11 0.252896 0.621932 0.000000
O O12 0.000000 0.500000 0.000000
O O13 0.337843 0.288031 0.372313
O O14 0.500000 0.500000 0.398852
O O15 0.545388 0.729164 0.451928
O O16 0.500000 0.500000 0.000000
#
# Coordination Sequence:
#
# PCOD9393400 Si02
#       7
#     8   8   8   4   8   8   4
#     4  10  21  37  61  91 123 146 189 251 300 338
#     4  10  21  36  62  93 117 153 195 236 297 351
#     4   9  16  32  61  92 119 150 190 240 294 348
#     4  12  25  39  65  88 114 158 206 244 291 359
#     4  10  19  38  62  89 120 152 192 244 291 350
#     4  11  24  41  60  79 120 160 200 241 289 354
#     4  10  24  43  58  79 115 157 200 243 291 342
#
# _framework density 18.564323000000002
#
# number of rings (size 3 to 8) (size 9 to 14) (size 15 to 20)
#    0.000    1.833    3.333    0.750    4.667    0.667 
#    0.000    6.667    0.000    1.000    0.000    0.000 
#    0.000    0.000    0.000    0.000    0.000    0.000 
#
# Total GULP energy -267814.134857 kJ/mol
# GULP energy per Si atom -5579.461143 kJ/mol
# Density = 1.852207 g / cm^3
# Si number density = 18.564323 Si / 1000 Ang^3
#
#
#
# Elastic Constant Matrix: (Units=GPa)
#
#
# Indices 1 2 3 4 5 6 
#
# 1 73.1064 20.2825 20.6664 0.0000 0.0000 0.0000
# 2 20.2825 23.4540 23.3846 0.0000 0.0000 0.0000
# 3 20.6664 23.3846 128.1379 0.0000 0.0000 0.0000
# 4 0.0000 0.0000 0.0000 14.8041 0.0000 0.0000
# 5 0.0000 0.0000 0.0000 0.0000 28.4316 0.0000
# 6 0.0000 0.0000 0.0000 0.0000 0.0000 24.4692
#
#
#
# Elastic Compliance Matrix: (Units=1/GPa)
#
#
# Indices 1 2 3 4 5 6 
#
# 1 0.017997 -0.015487 -0.000076 0.000000 0.000000 0.000000
# 2 -0.015487 0.065448 -0.009446 0.000000 0.000000 0.000000
# 3 -0.000076 -0.009446 0.009540 0.000000 0.000000 0.000000
# 4 0.000000 0.000000 0.000000 0.067549 0.000000 0.000000
# 5 0.000000 0.000000 0.000000 0.000000 0.035172 0.000000
# 6 0.000000 0.000000 0.000000 0.000000 0.000000 0.040868
#
#
# Mechanical properties :
#
#
# Convention : Reuss Voigt Hill
#
# Bulk Modulus (GPa) = 23.27439 39.26281 31.26860
# Shear Modulus (GPa) = 16.61598 24.23198 20.42398
#
# Velocity S-wave (km/s) = 2.99498 3.61681 3.32048
# Velocity P-wave (km/s) = 4.95220 6.21589 5.61968
#
# Compressibility (1/GPa) = 0.04296568
#
# Stress axis : x y z
#
# Youngs Moduli (GPa) = 55.56464 15.27933 104.81898
#
# Poissons Ratio (x) = 0.23664 0.00799
# Poissons Ratio (y) = 0.86055 0.99013
# Poissons Ratio (z) = 0.00423 0.14433
#
# Static dielectric constant tensor:
#      x y z
#    x 1.612860 0.000000 0.000000 
#    y 0.000000 1.647160 0.000000 
#    z 0.000000 0.000000 1.650190 
# 
# From -- ./inp_files/26320.got.cif
#   From: 2010.05.17/outbox.cif.g08.bks.cpg/sg49_14_cif.got.tgz:26320.got - 2010.06.03 21:02:19.
