data_PCOD9393251
_publ_section_title
;
Structure prediction by ZEFSAII (Michael W. Deem and Ramdas Pophale) SiO2 
 PCOD9393251
Probable space group: P C C M
;
_chemical_formula_sum "Si O2"
_cell_formula_units_Z 34
_cell_length_a 14.313812
_cell_length_b 5.165519
_cell_length_c 22.143957
_cell_angle_alpha 90.000000
_cell_angle_beta 90.000000
_cell_angle_gamma 90.000000
_cell_volume 1637.285824
_symmetry_space_group_name_H-M "P C C M"
_symmetry_group_IT_number 49
_symmetry_cell_setting 'orthorhombic'
loop_
_space_group_symop_operation_xyz
x,y,z
-x,-y,z
x,-y,1/2-z
-x,y,1/2-z
-x,-y,-z
x,y,-z
-x,y,1/2+z
x,-y,1/2+z
loop_
_atom_site_type_symbol
_atom_site_label
_atom_site_fract_x
_atom_site_fract_y
_atom_site_fract_z
Si Si1 0.130363 0.928655 0.931131
Si Si2 0.500000 0.000000 0.500000
Si Si3 0.656214 0.940604 0.395251
Si Si4 0.097253 0.424953 0.144290
Si Si5 0.310309 0.563129 0.681852
O O1 0.241795 0.963911 0.925312
O O2 0.107804 0.642381 0.907676
O O3 0.089849 0.145914 0.886745
O O4 0.102623 0.966663 0.000000
O O5 0.579771 0.966895 0.446718
O O6 0.654627 0.664572 0.361995
O O7 0.652571 0.167466 0.345099
O O8 0.196081 0.431564 0.179145
O O9 0.000000 0.500000 0.176574
O O10 0.338515 0.500000 0.750000
#
# Coordination Sequence:
#
# PCOD9393251 Si02
#       5
#     8   2   8   8   8
#     4  10  19  35  52  80 122 157 193 245 302 356
#     4  12  24  46  70  98 122 150 200 256 296 382
#     4  10  23  39  65  93 118 159 198 249 308 359
#     4  10  21  33  54  85 115 158 208 243 287 342
#     4  10  22  43  63  86 126 165 201 244 299 354
#
# _framework density 20.766076999999999
#
# number of rings (size 3 to 8) (size 9 to 14) (size 15 to 20)
#    0.000    1.882    1.176    2.118    0.000    6.118 
#    0.000    3.529    0.000    8.471    0.000    0.000 
#    0.000    0.000    0.000    0.000    0.000    0.000 
#
# Total GULP energy -189392.431694 kJ/mol
# GULP energy per Si atom -5570.365638 kJ/mol
# Density = 2.071881 g / cm^3
# Si number density = 20.766077 Si / 1000 Ang^3
#
#
#
# Elastic Constant Matrix: (Units=GPa)
#
#
# Indices 1 2 3 4 5 6 
#
# 1 104.6172 4.3556 12.1553 0.0000 0.0000 0.0000
# 2 4.3556 95.3752 -1.9341 0.0000 0.0000 0.0000
# 3 12.1553 -1.9341 81.7496 0.0000 0.0000 0.0000
# 4 0.0000 0.0000 0.0000 21.7609 0.0000 0.0000
# 5 0.0000 0.0000 0.0000 0.0000 63.4836 0.0000
# 6 0.0000 0.0000 0.0000 0.0000 0.0000 -14.0920
#
#
#
# Elastic Compliance Matrix: (Units=1/GPa)
#
#
# Indices 1 2 3 4 5 6 
#
# 1 0.009748 -0.000475 -0.001461 0.000000 0.000000 0.000000
# 2 -0.000475 0.010513 0.000319 0.000000 0.000000 0.000000
# 3 -0.001461 0.000319 0.012457 0.000000 0.000000 0.000000
# 4 0.000000 0.000000 0.000000 0.045954 0.000000 0.000000
# 5 0.000000 0.000000 0.000000 0.000000 0.015752 0.000000
# 6 0.000000 0.000000 0.000000 0.000000 0.000000 -0.070962
#
#
# Mechanical properties :
#
#
# Convention : Reuss Voigt Hill
#
# Bulk Modulus (GPa) = 33.91426 34.54395 34.22910
# Shear Modulus (GPa) = 136.89898 32.04151 84.47024
#
# Velocity S-wave (km/s) = 8.12819 3.93233 6.38477
# Velocity P-wave (km/s) = 10.22042 6.10644 8.41860
#
# Compressibility (1/GPa) = 0.02948612
#
# Stress axis : x y z
#
# Youngs Moduli (GPa) = 102.58371 95.11973 80.27474
#
# Poissons Ratio (x) = 0.04516 0.11726
# Poissons Ratio (y) = 0.04871 -0.02563
# Poissons Ratio (z) = 0.14984 -0.03037
#
# Static dielectric constant tensor:
#      x y z
#    x 1.807910 0.000000 0.000000 
#    y 0.000000 1.712130 0.000000 
#    z 0.000000 0.000000 1.677150 
# 
# From -- ./inp_files/20684.got.cif
#   From: 2010.05.17/outbox.cif.g08.bks.cpg/sg49_11_cif.got.tgz:20684.got - 2010.06.03 21:02:19.
