data_PCOD9393979
_publ_section_title
;
Structure prediction by ZEFSAII (Michael W. Deem and Ramdas Pophale) SiO2 
 PCOD9393979
Probable space group: P C C M
;
_chemical_formula_sum "Si O2"
_cell_formula_units_Z 42
_cell_length_a 10.585201
_cell_length_b 13.575239
_cell_length_c 13.958843
_cell_angle_alpha 90.000000
_cell_angle_beta 90.000000
_cell_angle_gamma 90.000000
_cell_volume 2005.838746
_symmetry_space_group_name_H-M "P C C M"
_symmetry_group_IT_number 49
_symmetry_cell_setting 'orthorhombic'
loop_
_space_group_symop_operation_xyz
x,y,z
-x,-y,z
x,-y,1/2-z
-x,y,1/2-z
-x,-y,-z
x,y,-z
-x,y,1/2+z
x,-y,1/2+z
loop_
_atom_site_type_symbol
_atom_site_label
_atom_site_fract_x
_atom_site_fract_y
_atom_site_fract_z
Si Si1 0.692765 0.343011 0.803846
Si Si2 0.201248 0.732716 0.607887
Si Si3 0.500000 0.500000 0.750000
Si Si4 0.401960 0.138247 0.615603
Si Si5 0.685266 0.932756 0.884500
Si Si6 0.034160 0.608262 0.138280
O O1 0.730940 0.330015 0.691329
O O2 0.590780 0.428995 0.810538
O O3 0.637187 0.240018 0.838281
O O4 0.818157 0.368159 0.864312
O O5 0.256991 0.722879 0.500000
O O6 0.214889 0.847246 0.638687
O O7 0.058600 0.693155 0.601827
O O8 0.394146 0.146251 0.500000
O O9 0.546731 0.110696 0.639032
O O10 0.315497 0.045944 0.649476
O O11 0.689599 0.941848 0.000000
O O12 0.000000 0.500000 0.100269
O O13 0.000000 0.604346 0.250000
#
# Coordination Sequence:
#
# PCOD9393979 Si02
#       6
#     8   8   2   8   8   8
#     4  11  22  37  58  86 116 150 192 234 287 354
#     4  10  20  36  58  83 114 154 197 240 286 340
#     4  12  24  40  60  86 124 154 180 242 306 342
#     4   9  18  34  57  85 118 152 188 238 294 350
#     4   8  16  33  56  84 117 151 190 237 292 348
#     4   9  19  37  56  75 107 149 195 243 283 329
#
# _framework density 20.938872
#
# number of rings (size 3 to 8) (size 9 to 14) (size 15 to 20)
#    0.000    2.476    0.000    4.571    0.000    1.905 
#    0.000    6.667    0.000    6.857    0.000    0.000 
#    0.000    0.000    0.000    0.000    0.000    0.000 
#
# Total GULP energy -234362.627903 kJ/mol
# GULP energy per Si atom -5580.062569 kJ/mol
# Density = 2.089121 g / cm^3
# Si number density = 20.938872 Si / 1000 Ang^3
#
#
#
# Elastic Constant Matrix: (Units=GPa)
#
#
# Indices 1 2 3 4 5 6 
#
# 1 103.9921 99.0839 9.5771 0.0000 0.0000 0.0000
# 2 99.0839 202.8803 24.6271 0.0000 0.0000 0.0000
# 3 9.5771 24.6271 82.9275 0.0000 0.0000 0.0000
# 4 0.0000 0.0000 0.0000 38.8462 0.0000 0.0000
# 5 0.0000 0.0000 0.0000 0.0000 6.8022 0.0000
# 6 0.0000 0.0000 0.0000 0.0000 0.0000 38.5516
#
#
#
# Elastic Compliance Matrix: (Units=1/GPa)
#
#
# Indices 1 2 3 4 5 6 
#
# 1 0.018010 -0.008863 0.000552 0.000000 0.000000 0.000000
# 2 -0.008863 0.009475 -0.001790 0.000000 0.000000 0.000000
# 3 0.000552 -0.001790 0.012527 0.000000 0.000000 0.000000
# 4 0.000000 0.000000 0.000000 0.025743 0.000000 0.000000
# 5 0.000000 0.000000 0.000000 0.000000 0.147011 0.000000
# 6 0.000000 0.000000 0.000000 0.000000 0.000000 0.025939
#
#
# Mechanical properties :
#
#
# Convention : Reuss Voigt Hill
#
# Bulk Modulus (GPa) = 50.48113 72.93069 61.70591
# Shear Modulus (GPa) = 18.83175 33.94078 26.38626
#
# Velocity S-wave (km/s) = 3.00220 4.03046 3.55372
# Velocity P-wave (km/s) = 6.01488 7.52100 6.80971
#
# Compressibility (1/GPa) = 0.01980938
#
# Stress axis : x y z
#
# Youngs Moduli (GPa) = 55.52582 105.54398 79.83005
#
# Poissons Ratio (x) = 0.93540 -0.04407
# Poissons Ratio (y) = 0.49211 0.14291
# Poissons Ratio (z) = -0.03065 0.18894
#
# Static dielectric constant tensor:
#      x y z
#    x 1.739040 0.000000 0.000000 
#    y 0.000000 1.755390 0.000000 
#    z 0.000000 0.000000 1.830900 
# 
# From -- ./inp_files/16993.got.cif
#   From: 2010.05.17/outbox.cif.g08.bks.cpg/sg49_9_cif.got.tgz:16993.got - 2010.06.03 21:02:19.
