data_PCOD9393125
_publ_section_title
;
Structure prediction by ZEFSAII (Michael W. Deem and Ramdas Pophale) SiO2 
 PCOD9393125
Probable space group: P C C M
;
_chemical_formula_sum "Si O2"
_cell_formula_units_Z 42
_cell_length_a 12.067482
_cell_length_b 10.405312
_cell_length_c 18.403079
_cell_angle_alpha 90.000000
_cell_angle_beta 90.000000
_cell_angle_gamma 90.000000
_cell_volume 2310.799458
_symmetry_space_group_name_H-M "P C C M"
_symmetry_group_IT_number 49
_symmetry_cell_setting 'orthorhombic'
loop_
_space_group_symop_operation_xyz
x,y,z
-x,-y,z
x,-y,1/2-z
-x,y,1/2-z
-x,-y,-z
x,y,-z
-x,y,1/2+z
x,-y,1/2+z
loop_
_atom_site_type_symbol
_atom_site_label
_atom_site_fract_x
_atom_site_fract_y
_atom_site_fract_z
Si Si1 0.500000 0.500000 0.250000
Si Si2 0.622102 0.695194 0.646160
Si Si3 0.717325 0.857706 0.228460
Si Si4 0.226872 0.485742 0.916742
Si Si5 0.118797 0.623204 0.712156
Si Si6 0.391432 0.756937 0.417132
O O1 0.427196 0.411377 0.300468
O O2 0.649507 0.810149 0.701036
O O3 0.725891 0.623958 0.608772
O O4 0.522478 0.733293 0.592604
O O5 0.815836 0.754450 0.221418
O O6 0.650767 0.841964 0.151783
O O7 0.753990 0.000000 0.250000
O O8 0.127078 0.424458 0.870379
O O9 0.326619 0.379895 0.909448
O O10 0.196218 0.494419 0.000000
O O11 0.177467 0.500000 0.750000
O O12 0.000000 0.634507 0.750000
O O13 0.368663 0.803730 0.500000
#
# Coordination Sequence:
#
# PCOD9393125 Si02
#       6
#     2   8   8   8   8   8
#     4  12  16  28  52  80 110 148 192 244 256 308
#     4  12  18  31  53  82 117 155 197 231 273 335
#     4  11  23  38  57  81 116 155 197 235 283 344
#     4  10  19  33  57  90 119 146 184 242 300 340
#     4  10  20  39  65  86 108 138 190 246 292 349
#     4  10  20  33  53  81 117 156 193 232 279 331
#
# _framework density 18.175528
#
# number of rings (size 3 to 8) (size 9 to 14) (size 15 to 20)
#    0.000    1.333    5.714    1.714    0.000    3.429 
#    0.000    4.762    0.000    0.000    0.000    5.333 
#    0.000    0.000    0.000    0.000    0.000    0.000 
#
# Total GULP energy -234031.686887 kJ/mol
# GULP energy per Si atom -5572.183021 kJ/mol
# Density = 1.813416 g / cm^3
# Si number density = 18.175528 Si / 1000 Ang^3
#
#
#
# Elastic Constant Matrix: (Units=GPa)
#
#
# Indices 1 2 3 4 5 6 
#
# 1 81.1249 23.2551 41.1029 0.0000 0.0000 0.0000
# 2 23.2551 104.8256 41.9093 0.0000 0.0000 0.0000
# 3 41.1029 41.9093 139.1082 0.0000 0.0000 0.0000
# 4 0.0000 0.0000 0.0000 0.3778 0.0000 0.0000
# 5 0.0000 0.0000 0.0000 0.0000 49.4941 0.0000
# 6 0.0000 0.0000 0.0000 0.0000 0.0000 -4.7461
#
#
#
# Elastic Compliance Matrix: (Units=1/GPa)
#
#
# Indices 1 2 3 4 5 6 
#
# 1 0.014771 -0.001742 -0.003840 0.000000 0.000000 0.000000
# 2 -0.001742 0.011051 -0.002815 0.000000 0.000000 0.000000
# 3 -0.003840 -0.002815 0.009171 0.000000 0.000000 0.000000
# 4 0.000000 0.000000 0.000000 2.646704 0.000000 0.000000
# 5 0.000000 0.000000 0.000000 0.000000 0.020204 0.000000
# 6 0.000000 0.000000 0.000000 0.000000 0.000000 -0.210699
#
#
# Mechanical properties :
#
#
# Convention : Reuss Voigt Hill
#
# Bulk Modulus (GPa) = 54.94139 59.73258 57.33699
# Shear Modulus (GPa) = 1.98881 23.61127 12.80004
#
# Velocity S-wave (km/s) = 1.04719 3.60817 2.65664
# Velocity P-wave (km/s) = 5.63524 7.09184 6.40508
#
# Compressibility (1/GPa) = 0.01820121
#
# Stress axis : x y z
#
# Youngs Moduli (GPa) = 67.69807 90.48602 109.03650
#
# Poissons Ratio (x) = 0.15761 0.41868
# Poissons Ratio (y) = 0.11792 0.30692
# Poissons Ratio (z) = 0.25995 0.25470
#
# Static dielectric constant tensor:
#      x y z
#    x 1.659840 0.000000 0.000000 
#    y 0.000000 -0.007440 0.000000 
#    z 0.000000 0.000000 1.677970 
# 
# From -- ./inp_files/16978.got.cif
#   From: 2010.05.17/outbox.cif.g08.bks.cpg/sg49_9_cif.got.tgz:16978.got - 2010.06.03 21:02:19.
