data_PCOD9393641
_publ_section_title
;
Structure prediction by ZEFSAII (Michael W. Deem and Ramdas Pophale) SiO2 
 PCOD9393641
Probable space group: P C C M
;
_chemical_formula_sum "Si O2"
_cell_formula_units_Z 56
_cell_length_a 15.896798
_cell_length_b 21.074002
_cell_length_c 7.954424
_cell_angle_alpha 90.000000
_cell_angle_beta 90.000000
_cell_angle_gamma 90.000000
_cell_volume 2664.804846
_symmetry_space_group_name_H-M "P C C M"
_symmetry_group_IT_number 49
_symmetry_cell_setting 'orthorhombic'
loop_
_space_group_symop_operation_xyz
x,y,z
-x,-y,z
x,-y,1/2-z
-x,y,1/2-z
-x,-y,-z
x,y,-z
-x,y,1/2+z
x,-y,1/2+z
loop_
_atom_site_type_symbol
_atom_site_label
_atom_site_fract_x
_atom_site_fract_y
_atom_site_fract_z
Si Si1 0.902748 0.693136 0.798975
Si Si2 0.098038 0.165583 0.797130
Si Si3 0.365325 0.431968 0.187551
Si Si4 0.403153 0.705316 0.297676
Si Si5 0.246051 0.073237 0.202883
Si Si6 0.818820 0.563656 0.694736
Si Si7 0.401633 0.156306 0.796833
O O1 0.874408 0.763342 0.742209
O O2 0.861165 0.631220 0.721165
O O3 0.000000 0.690728 0.750000
O O4 0.891891 0.689226 0.000000
O O5 0.165081 0.113632 0.736702
O O6 0.000000 0.154841 0.750000
O O7 0.100055 0.166015 0.000000
O O8 0.397448 0.500000 0.250000
O O9 0.379515 0.363792 0.274295
O O10 0.264754 0.437126 0.193011
O O11 0.399228 0.425995 0.000000
O O12 0.500000 0.711254 0.250000
O O13 0.388633 0.703432 0.500000
O O14 0.368992 0.773661 0.239524
O O15 0.334086 0.104492 0.262267
O O16 0.239920 0.000000 0.250000
O O17 0.246131 0.077651 0.000000
O O18 0.868692 0.500000 0.750000
O O19 0.795483 0.557736 0.500000
O O20 0.500000 0.146187 0.750000
O O21 0.400590 0.157026 0.000000
#
# Coordination Sequence:
#
# PCOD9393641 Si02
#       7
#     8   8   8   8   8   8   8
#     4  10  20  36  58  82 109 142 183 229 279 334
#     4   9  20  38  61  86 117 154 190 234 285 338
#     4  10  20  34  52  75 105 144 184 228 281 331
#     4   9  19  34  55  78 104 140 183 228 278 334
#     4  10  22  39  60  87 117 153 191 230 280 343
#     4  11  22  36  53  77 108 144 186 231 280 332
#     4   9  19  37  59  83 114 149 191 235 284 339
#
# _framework density 21.014671
#
# number of rings (size 3 to 8) (size 9 to 14) (size 15 to 20)
#    0.000    2.286    0.000    3.000    2.000    4.000 
#    0.000    5.714    0.000    0.000    0.000    0.000 
#    0.000    0.000    0.000    0.000    0.000    0.000 
#
# Total GULP energy -312020.585233 kJ/mol
# GULP energy per Si atom -5571.796165 kJ/mol
# Density = 2.096684 g / cm^3
# Si number density = 21.014671 Si / 1000 Ang^3
#
#
#
# Elastic Constant Matrix: (Units=GPa)
#
#
# Indices 1 2 3 4 5 6 
#
# 1 77.9592 85.7482 1.4311 0.0000 0.0000 0.0000
# 2 85.7482 219.0268 13.8211 0.0000 0.0000 0.0000
# 3 1.4311 13.8211 32.8863 0.0000 0.0000 0.0000
# 4 0.0000 0.0000 0.0000 25.7930 0.0000 0.0000
# 5 0.0000 0.0000 0.0000 0.0000 9.6727 0.0000
# 6 0.0000 0.0000 0.0000 0.0000 0.0000 71.8166
#
#
#
# Elastic Compliance Matrix: (Units=1/GPa)
#
#
# Indices 1 2 3 4 5 6 
#
# 1 0.022782 -0.009098 0.002832 0.000000 0.000000 0.000000
# 2 -0.009098 0.008323 -0.003102 0.000000 0.000000 0.000000
# 3 0.002832 -0.003102 0.031588 0.000000 0.000000 0.000000
# 4 0.000000 0.000000 0.000000 0.038770 0.000000 0.000000
# 5 0.000000 0.000000 0.000000 0.000000 0.103384 0.000000
# 6 0.000000 0.000000 0.000000 0.000000 0.000000 0.013924
#
#
# Mechanical properties :
#
#
# Convention : Reuss Voigt Hill
#
# Bulk Modulus (GPa) = 22.74905 59.09702 40.92303
# Shear Modulus (GPa) = 19.82870 36.71458 28.27164
#
# Velocity S-wave (km/s) = 3.07508 4.18436 3.67185
# Velocity P-wave (km/s) = 4.84324 7.17830 6.12311
#
# Compressibility (1/GPa) = 0.04395789
#
# Stress axis : x y z
#
# Youngs Moduli (GPa) = 43.89439 120.14705 31.65737
#
# Poissons Ratio (x) = 1.09307 -0.08966
# Poissons Ratio (y) = 0.39934 0.09820
# Poissons Ratio (z) = -0.12431 0.37270
#
# Static dielectric constant tensor:
#      x y z
#    x 1.737170 0.000000 0.000000 
#    y 0.000000 1.842080 0.000000 
#    z 0.000000 0.000000 1.797100 
# 
# From -- ./inp_files/4028.got.cif
#   From: 2010.05.17/outbox.cif.g08.bks.cpg/sg49_3_cif.got.tgz:4028.got - 2010.06.03 21:02:19.
