data_PCOD9393065
_publ_section_title
;
Structure prediction by ZEFSAII (Michael W. Deem and Ramdas Pophale) SiO2 
 PCOD9393065
Probable space group: P C C M
;
_chemical_formula_sum "Si O2"
_cell_formula_units_Z 64
_cell_length_a 15.333681
_cell_length_b 25.349835
_cell_length_c 8.909711
_cell_angle_alpha 90.000000
_cell_angle_beta 90.000000
_cell_angle_gamma 90.000000
_cell_volume 3463.260648
_symmetry_space_group_name_H-M "P C C M"
_symmetry_group_IT_number 49
_symmetry_cell_setting 'orthorhombic'
loop_
_space_group_symop_operation_xyz
x,y,z
-x,-y,z
x,-y,1/2-z
-x,y,1/2-z
-x,-y,-z
x,y,-z
-x,y,1/2+z
x,-y,1/2+z
loop_
_atom_site_type_symbol
_atom_site_label
_atom_site_fract_x
_atom_site_fract_y
_atom_site_fract_z
Si Si1 0.653460 0.698889 0.176216
Si Si2 0.588193 0.583256 0.174948
Si Si3 0.217100 0.445671 0.180094
Si Si4 0.592045 0.816403 0.178932
Si Si5 0.170646 0.661144 0.822080
Si Si6 0.768428 0.852334 0.680305
Si Si7 0.910954 0.767695 0.319740
Si Si8 0.092140 0.942253 0.819542
O O1 0.594018 0.646923 0.189613
O O2 0.609646 0.754339 0.214888
O O3 0.736096 0.686730 0.279642
O O4 0.681144 0.701075 0.000000
O O5 0.500000 0.563982 0.250000
O O6 0.681613 0.562343 0.232182
O O7 0.584325 0.570238 0.000000
O O8 0.184382 0.500000 0.250000
O O9 0.166159 0.394148 0.236596
O O10 0.216363 0.447213 0.000000
O O11 0.500000 0.832235 0.250000
O O12 0.674904 0.848135 0.242237
O O13 0.588093 0.821344 0.000000
O O14 0.103382 0.706737 0.777049
O O15 0.165476 0.652380 0.000000
O O16 0.756542 0.850024 0.500000
O O17 0.827998 0.802418 0.727431
O O18 0.827990 0.903151 0.714765
O O19 0.915631 0.771029 0.500000
O O20 0.000000 0.788135 0.250000
O O21 0.000000 0.923303 0.750000
O O22 0.107540 0.000000 0.750000
O O23 0.083143 0.945466 0.000000
#
# Coordination Sequence:
#
# PCOD9393065 Si02
#       8
#     8   8   8   8   8   8   8   8
#     4   9  18  32  48  71 101 138 181 221 267 320
#     4   9  18  30  44  65  94 125 163 210 260 317
#     4  10  21  36  52  71  95 127 172 219 268 330
#     4  11  22  34  53  79 111 153 196 240 285 335
#     4  10  19  33  54  77 104 138 173 216 268 324
#     4  10  21  38  56  82 119 156 194 238 282 331
#     4  10  21  35  55  84 116 148 182 219 272 336
#     4  10  20  35  59  87 121 158 197 242 287 340
#
# _framework density 18.479693999999999
#
# number of rings (size 3 to 8) (size 9 to 14) (size 15 to 20)
#    0.000    2.125    1.250    3.375    0.000    5.750 
#    0.000    1.250    0.000    0.750    0.000    5.250 
#    0.000    0.000    0.000    0.000    0.000    0.000 
#
# Total GULP energy -357163.645950 kJ/mol
# GULP energy per Si atom -5580.681968 kJ/mol
# Density = 1.843763 g / cm^3
# Si number density = 18.479694 Si / 1000 Ang^3
#
#
#
# Elastic Constant Matrix: (Units=GPa)
#
#
# Indices 1 2 3 4 5 6 
#
# 1 104.1639 50.2900 40.2057 0.0000 0.0000 0.0000
# 2 50.2900 102.9284 41.6878 0.0000 0.0000 0.0000
# 3 40.2057 41.6878 39.7776 0.0000 0.0000 0.0000
# 4 0.0000 0.0000 0.0000 32.5521 0.0000 0.0000
# 5 0.0000 0.0000 0.0000 0.0000 27.3040 0.0000
# 6 0.0000 0.0000 0.0000 0.0000 0.0000 3.7300
#
#
#
# Elastic Compliance Matrix: (Units=1/GPa)
#
#
# Indices 1 2 3 4 5 6 
#
# 1 0.016025 -0.002206 -0.013886 0.000000 0.000000 0.000000
# 2 -0.002206 0.017184 -0.015780 0.000000 0.000000 0.000000
# 3 -0.013886 -0.015780 0.055713 0.000000 0.000000 0.000000
# 4 0.000000 0.000000 0.000000 0.030720 0.000000 0.000000
# 5 0.000000 0.000000 0.000000 0.000000 0.036625 0.000000
# 6 0.000000 0.000000 0.000000 0.000000 0.000000 0.268096
#
#
# Mechanical properties :
#
#
# Convention : Reuss Voigt Hill
#
# Bulk Modulus (GPa) = 39.71570 56.80412 48.25991
# Shear Modulus (GPa) = 10.07051 20.36299 15.21675
#
# Velocity S-wave (km/s) = 2.33695 3.32311 2.87266
# Velocity P-wave (km/s) = 5.36842 6.74755 6.09711
#
# Compressibility (1/GPa) = 0.02517896
#
# Stress axis : x y z
#
# Youngs Moduli (GPa) = 62.40326 58.19209 17.94914
#
# Poissons Ratio (x) = 0.12835 0.24924
# Poissons Ratio (y) = 0.13764 0.28324
# Poissons Ratio (z) = 0.86651 0.91829
#
# Static dielectric constant tensor:
#      x y z
#    x 1.626690 0.000000 0.000000 
#    y 0.000000 1.651710 0.000000 
#    z 0.000000 0.000000 1.622870 
# 
# From -- ./inp_files/4433.got.cif
#   From: 2010.05.17/outbox.cif.g08.bks.cpg/sg49_3_cif.got.tgz:4433.got - 2010.06.03 21:02:19.
