data_PCOD9393426
_publ_section_title
;
Structure prediction by ZEFSAII (Michael W. Deem and Ramdas Pophale) SiO2 
 PCOD9393426
Probable space group: P C C M
;
_chemical_formula_sum "Si O2"
_cell_formula_units_Z 56
_cell_length_a 23.521621
_cell_length_b 14.315486
_cell_length_c 8.909012
_cell_angle_alpha 90.000000
_cell_angle_beta 90.000000
_cell_angle_gamma 90.000000
_cell_volume 2999.873133
_symmetry_space_group_name_H-M "P C C M"
_symmetry_group_IT_number 49
_symmetry_cell_setting 'orthorhombic'
loop_
_space_group_symop_operation_xyz
x,y,z
-x,-y,z
x,-y,1/2-z
-x,y,1/2-z
-x,-y,-z
x,y,-z
-x,y,1/2+z
x,-y,1/2+z
loop_
_atom_site_type_symbol
_atom_site_label
_atom_site_fract_x
_atom_site_fract_y
_atom_site_fract_z
Si Si1 0.094164 0.093861 0.176697
Si Si2 0.826642 0.359585 0.829395
Si Si3 0.289663 0.405794 0.821928
Si Si4 0.441221 0.102715 0.680043
Si Si5 0.326300 0.211736 0.680638
Si Si6 0.059570 0.695742 0.319307
Si Si7 0.792222 0.141146 0.169596
O O1 0.068420 0.194136 0.223987
O O2 0.160717 0.098883 0.222139
O O3 0.069969 0.000000 0.250000
O O4 0.087835 0.086758 0.000000
O O5 0.776093 0.401085 0.730867
O O6 0.887701 0.360845 0.750465
O O7 0.809548 0.250238 0.839802
O O8 0.827569 0.396853 0.000000
O O9 0.314529 0.500000 0.750000
O O10 0.317881 0.311375 0.758858
O O11 0.293218 0.408818 0.000000
O O12 0.500000 0.139930 0.750000
O O13 0.446553 0.095355 0.500000
O O14 0.386468 0.165340 0.715031
O O15 0.432943 0.000000 0.750000
O O16 0.321492 0.224703 0.500000
O O17 0.273104 0.144188 0.721906
O O18 0.060110 0.689975 0.500000
O O19 0.000000 0.664692 0.250000
O O20 0.796598 0.101994 0.000000
#
# Coordination Sequence:
#
# PCOD9393426 Si02
#       7
#     8   8   8   8   8   8   8
#     4  10  20  31  43  61  88 121 160 206 258 314
#     4   9  17  32  52  73  99 129 162 204 252 304
#     4  11  21  34  56  85 115 145 177 216 264 323
#     4  10  20  35  55  79 111 149 192 236 276 319
#     4   9  19  35  54  79 110 144 181 225 273 321
#     4  10  20  33  49  69  91 123 167 212 260 315
#     4   8  15  29  47  66  91 122 157 199 252 307
#
# _framework density 18.667455
#
# number of rings (size 3 to 8) (size 9 to 14) (size 15 to 20)
#    0.000    2.429    0.000    4.286    0.000    7.143 
#    0.000    2.857    0.000    0.857    0.000    6.000 
#    0.000    0.000    0.000    0.000    0.000    0.000 
#
# Total GULP energy -312455.980423 kJ/mol
# GULP energy per Si atom -5579.571079 kJ/mol
# Density = 1.862497 g / cm^3
# Si number density = 18.667455 Si / 1000 Ang^3
#
#
#
# Elastic Constant Matrix: (Units=GPa)
#
#
# Indices 1 2 3 4 5 6 
#
# 1 139.9147 23.6696 40.6296 0.0000 0.0000 0.0000
# 2 23.6696 40.7656 20.2385 0.0000 0.0000 0.0000
# 3 40.6296 20.2385 67.6765 0.0000 0.0000 0.0000
# 4 0.0000 0.0000 0.0000 12.1427 0.0000 0.0000
# 5 0.0000 0.0000 0.0000 0.0000 24.3705 0.0000
# 6 0.0000 0.0000 0.0000 0.0000 0.0000 10.8212
#
#
#
# Elastic Compliance Matrix: (Units=1/GPa)
#
#
# Indices 1 2 3 4 5 6 
#
# 1 0.008953 -0.002971 -0.004486 0.000000 0.000000 0.000000
# 2 -0.002971 0.029793 -0.007126 0.000000 0.000000 0.000000
# 3 -0.004486 -0.007126 0.019601 0.000000 0.000000 0.000000
# 4 0.000000 0.000000 0.000000 0.082354 0.000000 0.000000
# 5 0.000000 0.000000 0.000000 0.000000 0.041033 0.000000
# 6 0.000000 0.000000 0.000000 0.000000 0.000000 0.092411
#
#
# Mechanical properties :
#
#
# Convention : Reuss Voigt Hill
#
# Bulk Modulus (GPa) = 34.27003 46.38137 40.32570
# Shear Modulus (GPa) = 15.97253 20.38816 18.18034
#
# Velocity S-wave (km/s) = 2.92830 3.30839 3.12413
# Velocity P-wave (km/s) = 5.46180 6.28443 5.88750
#
# Compressibility (1/GPa) = 0.02918001
#
# Stress axis : x y z
#
# Youngs Moduli (GPa) = 111.70012 33.56467 51.01904
#
# Poissons Ratio (x) = 0.09972 0.22888
# Poissons Ratio (y) = 0.33184 0.36356
# Poissons Ratio (z) = 0.50111 0.23918
#
# Static dielectric constant tensor:
#      x y z
#    x 1.645500 0.000000 0.000000 
#    y 0.000000 1.678150 0.000000 
#    z 0.000000 0.000000 1.631290 
# 
# From -- ./inp_files/4018.got.cif
#   From: 2010.05.17/outbox.cif.g08.bks.cpg/sg49_3_cif.got.tgz:4018.got - 2010.06.03 21:02:19.
