data_PCOD9393695
_publ_section_title
;
Structure prediction by ZEFSAII (Michael W. Deem and Ramdas Pophale) SiO2 
 PCOD9393695
Probable space group: P C C M
;
_chemical_formula_sum "Si O2"
_cell_formula_units_Z 58
_cell_length_a 25.471532
_cell_length_b 14.765266
_cell_length_c 8.999098
_cell_angle_alpha 90.000000
_cell_angle_beta 90.000000
_cell_angle_gamma 90.000000
_cell_volume 3384.506272
_symmetry_space_group_name_H-M "P C C M"
_symmetry_group_IT_number 49
_symmetry_cell_setting 'orthorhombic'
loop_
_space_group_symop_operation_xyz
x,y,z
-x,-y,z
x,-y,1/2-z
-x,y,1/2-z
-x,-y,-z
x,y,-z
-x,y,1/2+z
x,-y,1/2+z
loop_
_atom_site_type_symbol
_atom_site_label
_atom_site_fract_x
_atom_site_fract_y
_atom_site_fract_z
Si Si1 0.809129 0.904960 0.675364
Si Si2 0.442305 0.595841 0.179811
Si Si3 0.645116 0.280697 0.321177
Si Si4 0.316629 0.096509 0.323012
Si Si5 0.251755 0.598538 0.677445
Si Si6 0.000000 0.500000 0.500000
Si Si7 0.095912 0.584006 0.161467
Si Si8 0.152674 0.275465 0.822807
O O1 0.819112 0.907402 0.500000
O O2 0.746359 0.892518 0.697543
O O3 0.838325 0.821534 0.751042
O O4 0.823627 0.000000 0.750000
O O5 0.423667 0.500000 0.250000
O O6 0.500000 0.610347 0.250000
O O7 0.403503 0.673208 0.237544
O O8 0.444413 0.590695 0.000000
O O9 0.637516 0.278853 0.500000
O O10 0.656158 0.180608 0.258487
O O11 0.696092 0.343211 0.289146
O O12 0.327114 0.096413 0.500000
O O13 0.331022 0.000000 0.250000
O O14 0.253035 0.500000 0.750000
O O15 0.249170 0.586765 0.500000
O O16 0.201674 0.659755 0.720610
O O17 0.962296 0.551575 0.377922
O O18 0.120869 0.500000 0.250000
O O19 0.102067 0.672336 0.260367
O O20 0.122081 0.597822 0.000000
O O21 0.151050 0.268929 0.000000
#
# Coordination Sequence:
#
# PCOD9393695 Si02
#       8
#     8   8   8   8   8   2   8   8
#     4  10  20  34  54  79 112 154 195 240 287 342
#     4  11  22  38  58  82 109 143 188 242 300 353
#     4  11  21  36  55  79 109 147 192 239 288 350
#     4  10  20  34  54  80 109 148 193 239 286 343
#     4  10  22  34  48  71 108 150 187 227 275 338
#     4   8  22  36  58  76 114 142 198 236 282 322
#     4  10  20  35  54  79 108 148 186 236 281 329
#     4  11  21  35  52  79 114 153 196 234 286 344
#
# _framework density 17.136917
#
# number of rings (size 3 to 8) (size 9 to 14) (size 15 to 20)
#    0.414    1.241    1.379    4.759    0.000    5.517 
#    0.000    0.000    0.000    0.414    0.000    2.897 
#    0.000    3.310    0.000    0.000    0.000    0.000 
#
# Total GULP energy -323004.818704 kJ/mol
# GULP energy per Si atom -5569.048598 kJ/mol
# Density = 1.709791 g / cm^3
# Si number density = 17.136917 Si / 1000 Ang^3
#
#
#
# Elastic Constant Matrix: (Units=GPa)
#
#
# Indices 1 2 3 4 5 6 
#
# 1 57.7422 54.7205 41.5615 0.0000 0.0000 0.0000
# 2 54.7205 172.7392 78.8871 0.0000 0.0000 0.0000
# 3 41.5615 78.8871 124.7905 0.0000 0.0000 0.0000
# 4 0.0000 0.0000 0.0000 39.1129 0.0000 0.0000
# 5 0.0000 0.0000 0.0000 0.0000 32.2287 0.0000
# 6 0.0000 0.0000 0.0000 0.0000 0.0000 47.5693
#
#
#
# Elastic Compliance Matrix: (Units=1/GPa)
#
#
# Indices 1 2 3 4 5 6 
#
# 1 0.026800 -0.006205 -0.005003 0.000000 0.000000 0.000000
# 2 -0.006205 0.009575 -0.003987 0.000000 0.000000 0.000000
# 3 -0.005003 -0.003987 0.012200 0.000000 0.000000 0.000000
# 4 0.000000 0.000000 0.000000 0.025567 0.000000 0.000000
# 5 0.000000 0.000000 0.000000 0.000000 0.031028 0.000000
# 6 0.000000 0.000000 0.000000 0.000000 0.000000 0.021022
#
#
# Mechanical properties :
#
#
# Convention : Reuss Voigt Hill
#
# Bulk Modulus (GPa) = 54.98842 78.40114 66.69478
# Shear Modulus (GPa) = 30.74222 35.78902 33.26562
#
# Velocity S-wave (km/s) = 4.24006 4.57488 4.41065
# Velocity P-wave (km/s) = 7.49187 8.58808 8.05864
#
# Compressibility (1/GPa) = 0.01818565
#
# Stress axis : x y z
#
# Youngs Moduli (GPa) = 37.31405 104.43648 81.96800
#
# Poissons Ratio (x) = 0.64800 0.41011
# Poissons Ratio (y) = 0.23152 0.32677
# Poissons Ratio (z) = 0.18669 0.41634
#
# Static dielectric constant tensor:
#      x y z
#    x 1.604940 0.000000 0.000000 
#    y 0.000000 1.565790 0.000000 
#    z 0.000000 0.000000 1.410990 
# 
# From -- ./inp_files/6438.got.cif
#   From: 2010.05.17/outbox.cif.g08.bks.cpg/sg49_4_cif.got.tgz:6438.got - 2010.06.03 21:02:19.
