data_PCOD9393561
_publ_section_title
;
Structure prediction by ZEFSAII (Michael W. Deem and Ramdas Pophale) SiO2 
 PCOD9393561
Probable space group: P C C M
;
_chemical_formula_sum "Si O2"
_cell_formula_units_Z 48
_cell_length_a 9.788820
_cell_length_b 31.257983
_cell_length_c 8.842171
_cell_angle_alpha 90.000000
_cell_angle_beta 90.000000
_cell_angle_gamma 90.000000
_cell_volume 2705.516599
_symmetry_space_group_name_H-M "P C C M"
_symmetry_group_IT_number 49
_symmetry_cell_setting 'orthorhombic'
loop_
_space_group_symop_operation_xyz
x,y,z
-x,-y,z
x,-y,1/2-z
-x,y,1/2-z
-x,-y,-z
x,y,-z
-x,y,1/2+z
x,-y,1/2+z
loop_
_atom_site_type_symbol
_atom_site_label
_atom_site_fract_x
_atom_site_fract_y
_atom_site_fract_z
Si Si1 0.854313 0.953346 0.181129
Si Si2 0.349272 0.876469 0.318897
Si Si3 0.851547 0.293067 0.819546
Si Si4 0.651643 0.362578 0.681033
Si Si5 0.850697 0.193266 0.180780
Si Si6 0.652876 0.457420 0.680645
O O1 0.736922 0.919318 0.217056
O O2 0.000000 0.939199 0.250000
O O3 0.824831 0.000000 0.250000
O O4 0.867629 0.956669 0.000000
O O5 0.500000 0.877998 0.250000
O O6 0.357304 0.872587 0.500000
O O7 0.262572 0.837238 0.252012
O O8 0.743581 0.325353 0.748725
O O9 0.819652 0.243195 0.786745
O O10 0.000000 0.301861 0.750000
O O11 0.855666 0.298128 0.000000
O O12 0.500000 0.359990 0.750000
O O13 0.642953 0.358872 0.500000
O O14 0.710450 0.410262 0.715576
O O15 0.000000 0.183683 0.250000
O O16 0.856071 0.187568 0.000000
O O17 0.720165 0.500000 0.750000
O O18 0.500000 0.456107 0.750000
O O19 0.644280 0.462062 0.500000
#
# Coordination Sequence:
#
# PCOD9393561 Si02
#       6
#     8   8   8   8   8   8
#     4  10  21  37  59  85 111 144 185 226 268 316
#     4  11  24  39  57  83 114 148 183 223 273 323
#     4  10  21  37  57  80 106 139 177 218 266 319
#     4  10  20  33  51  77 107 139 176 218 265 316
#     4  10  21  38  60  83 107 139 180 222 265 318
#     4   9  16  26  43  68  98 132 170 212 258 308
#
# _framework density 17.741527000000001
#
# number of rings (size 3 to 8) (size 9 to 14) (size 15 to 20)
#    0.000    2.000    0.000    4.500    0.000    9.000 
#    0.000    1.667    0.000    0.500    0.000    3.500 
#    0.000    0.000    0.000    0.000    0.000    0.000 
#
# Total GULP energy -267932.261764 kJ/mol
# GULP energy per Si atom -5581.922120 kJ/mol
# Density = 1.770115 g / cm^3
# Si number density = 17.741527 Si / 1000 Ang^3
#
#
#
# Elastic Constant Matrix: (Units=GPa)
#
#
# Indices 1 2 3 4 5 6 
#
# 1 128.2896 111.3400 66.6009 0.0000 0.0000 0.0000
# 2 111.3400 141.7053 78.9175 0.0000 0.0000 0.0000
# 3 66.6009 78.9175 86.7982 0.0000 0.0000 0.0000
# 4 0.0000 0.0000 0.0000 23.8848 0.0000 0.0000
# 5 0.0000 0.0000 0.0000 0.0000 30.7508 0.0000
# 6 0.0000 0.0000 0.0000 0.0000 0.0000 31.6172
#
#
#
# Elastic Compliance Matrix: (Units=1/GPa)
#
#
# Indices 1 2 3 4 5 6 
#
# 1 0.024804 -0.018008 -0.002660 0.000000 0.000000 0.000000
# 2 -0.018008 0.027369 -0.011067 0.000000 0.000000 0.000000
# 3 -0.002660 -0.011067 0.023623 0.000000 0.000000 0.000000
# 4 0.000000 0.000000 0.000000 0.041868 0.000000 0.000000
# 5 0.000000 0.000000 0.000000 0.000000 0.032520 0.000000
# 6 0.000000 0.000000 0.000000 0.000000 0.000000 0.031628
#
#
# Mechanical properties :
#
#
# Convention : Reuss Voigt Hill
#
# Bulk Modulus (GPa) = 81.11130 96.72332 88.91731
# Shear Modulus (GPa) = 20.04889 23.91286 21.98088
#
# Velocity S-wave (km/s) = 3.36527 3.67529 3.52369
# Velocity P-wave (km/s) = 7.80498 8.52330 8.17204
#
# Compressibility (1/GPa) = 0.01232874
#
# Stress axis : x y z
#
# Youngs Moduli (GPa) = 40.31550 36.53748 42.33076
#
# Poissons Ratio (x) = 0.65797 0.11258
# Poissons Ratio (y) = 0.72600 0.46846
# Poissons Ratio (z) = 0.10722 0.40434
#
# Static dielectric constant tensor:
#      x y z
#    x 1.560980 0.000000 0.000000 
#    y 0.000000 1.630250 0.000000 
#    z 0.000000 0.000000 1.589840 
# 
# From -- ./inp_files/2016.got.cif
#   From: 2010.05.17/outbox.cif.g08.bks.cpg/sg49_2_cif.got.tgz:2016.got - 2010.06.03 21:02:19.
