data_PCOD9393104
_publ_section_title
;
Structure prediction by ZEFSAII (Michael W. Deem and Ramdas Pophale) SiO2 
 PCOD9393104
Probable space group: P C C M
;
_chemical_formula_sum "Si O2"
_cell_formula_units_Z 64
_cell_length_a 20.015859
_cell_length_b 20.960383
_cell_length_c 8.860800
_cell_angle_alpha 90.000000
_cell_angle_beta 90.000000
_cell_angle_gamma 90.000000
_cell_volume 3717.460659
_symmetry_space_group_name_H-M "P C C M"
_symmetry_group_IT_number 49
_symmetry_cell_setting 'orthorhombic'
loop_
_space_group_symop_operation_xyz
x,y,z
-x,-y,z
x,-y,1/2-z
-x,y,1/2-z
-x,-y,-z
x,y,-z
-x,y,1/2+z
x,-y,1/2+z
loop_
_atom_site_type_symbol
_atom_site_label
_atom_site_fract_x
_atom_site_fract_y
_atom_site_fract_z
Si Si1 0.071154 0.265961 0.679237
Si Si2 0.294545 0.189207 0.818721
Si Si3 0.570059 0.766966 0.319690
Si Si4 0.285900 0.432497 0.318335
Si Si5 0.206797 0.686124 0.681166
Si Si6 0.792469 0.933814 0.819152
Si Si7 0.430322 0.382911 0.680861
Si Si8 0.929043 0.886872 0.321013
O O1 0.071370 0.276982 0.500000
O O2 0.132679 0.301371 0.757240
O O3 0.078809 0.189537 0.704057
O O4 0.000000 0.284433 0.750000
O O5 0.366360 0.195747 0.742614
O O6 0.250785 0.251453 0.778355
O O7 0.254158 0.125838 0.775292
O O8 0.302416 0.189124 0.000000
O O9 0.500000 0.788992 0.250000
O O10 0.567544 0.770393 0.500000
O O11 0.577839 0.691900 0.276590
O O12 0.264982 0.500000 0.250000
O O13 0.282879 0.433158 0.500000
O O14 0.241021 0.375290 0.254896
O O15 0.363061 0.418814 0.272220
O O16 0.206085 0.680322 0.500000
O O17 0.866586 0.920570 0.756577
O O18 0.767733 0.000000 0.750000
O O19 0.794656 0.937323 0.000000
O O20 0.500000 0.406360 0.750000
O O21 0.435388 0.386116 0.500000
O O22 0.929072 0.898681 0.500000
O O23 0.000000 0.905965 0.250000
#
# Coordination Sequence:
#
# PCOD9393104 Si02
#       8
#     8   8   8   8   8   8   8   8
#     4  10  20  34  56  85 116 147 184 231 279 331
#     4  10  21  36  57  83 112 145 185 231 279 331
#     4  10  19  33  55  83 113 144 182 228 279 331
#     4  11  23  39  55  80 113 150 192 233 281 333
#     4  11  21  36  59  85 112 147 187 233 283 330
#     4  11  23  39  56  80 113 149 189 232 280 335
#     4   9  19  33  51  76 109 146 185 226 269 324
#     4  10  20  34  54  80 112 150 189 229 275 328
#
# _framework density 17.216052000000001
#
# number of rings (size 3 to 8) (size 9 to 14) (size 15 to 20)
#    0.000    1.750    2.500    2.250    0.000    4.500 
#    0.000    2.500    0.000    0.750    0.000    5.250 
#    0.000    0.000    0.000    0.000    0.000    0.000 
#
# Total GULP energy -357528.402194 kJ/mol
# GULP energy per Si atom -5586.381284 kJ/mol
# Density = 1.717687 g / cm^3
# Si number density = 17.216052 Si / 1000 Ang^3
#
#
#
# Elastic Constant Matrix: (Units=GPa)
#
#
# Indices 1 2 3 4 5 6 
#
# 1 134.1865 67.8743 50.4654 0.0000 0.0000 0.0000
# 2 67.8743 113.9596 52.7684 0.0000 0.0000 0.0000
# 3 50.4654 52.7684 53.4188 0.0000 0.0000 0.0000
# 4 0.0000 0.0000 0.0000 16.4365 0.0000 0.0000
# 5 0.0000 0.0000 0.0000 0.0000 35.6247 0.0000
# 6 0.0000 0.0000 0.0000 0.0000 0.0000 17.2142
#
#
#
# Elastic Compliance Matrix: (Units=1/GPa)
#
#
# Indices 1 2 3 4 5 6 
#
# 1 0.012307 -0.003587 -0.008083 0.000000 0.000000 0.000000
# 2 -0.003587 0.017218 -0.013620 0.000000 0.000000 0.000000
# 3 -0.008083 -0.013620 0.039810 0.000000 0.000000 0.000000
# 4 0.000000 0.000000 0.000000 0.060840 0.000000 0.000000
# 5 0.000000 0.000000 0.000000 0.000000 0.028070 0.000000
# 6 0.000000 0.000000 0.000000 0.000000 0.000000 0.058091
#
#
# Mechanical properties :
#
#
# Convention : Reuss Voigt Hill
#
# Bulk Modulus (GPa) = 53.31813 71.53123 62.42468
# Shear Modulus (GPa) = 18.30384 22.55219 20.42802
#
# Velocity S-wave (km/s) = 3.26419 3.62325 3.44840
# Velocity P-wave (km/s) = 6.72635 7.69047 7.22451
#
# Compressibility (1/GPa) = 0.01875535
#
# Stress axis : x y z
#
# Youngs Moduli (GPa) = 81.25763 58.07879 25.11961
#
# Poissons Ratio (x) = 0.20834 0.20303
# Poissons Ratio (y) = 0.29148 0.34212
# Poissons Ratio (z) = 0.65678 0.79101
#
# Static dielectric constant tensor:
#      x y z
#    x 1.560870 0.000000 0.000000 
#    y 0.000000 1.579950 0.000000 
#    z 0.000000 0.000000 1.569880 
# 
# From -- ./inp_files/5275.got.cif
#   From: 2010.05.17/outbox.cif.g08.bks.cpg/sg49_3_cif.got.tgz:5275.got - 2010.06.03 21:02:19.
