data_PCOD9393439
_publ_section_title
;
Structure prediction by ZEFSAII (Michael W. Deem and Ramdas Pophale) SiO2 
 PCOD9393439
Probable space group: P C C M
;
_chemical_formula_sum "Si O2"
_cell_formula_units_Z 40
_cell_length_a 6.713168
_cell_length_b 15.152220
_cell_length_c 15.430063
_cell_angle_alpha 90.000000
_cell_angle_beta 90.000000
_cell_angle_gamma 90.000000
_cell_volume 1569.536726
_symmetry_space_group_name_H-M "P C C M"
_symmetry_group_IT_number 49
_symmetry_cell_setting 'orthorhombic'
loop_
_space_group_symop_operation_xyz
x,y,z
-x,-y,z
x,-y,1/2-z
-x,y,1/2-z
-x,-y,-z
x,y,-z
-x,y,1/2+z
x,-y,1/2+z
loop_
_atom_site_type_symbol
_atom_site_label
_atom_site_fract_x
_atom_site_fract_y
_atom_site_fract_z
Si Si1 0.874856 0.913476 0.095280
Si Si2 0.691378 0.621688 0.103908
Si Si3 0.762923 0.210335 0.724095
Si Si4 0.203513 0.240203 0.403892
Si Si5 0.772522 0.433674 0.101527
O O1 0.732790 0.879100 0.170330
O O2 0.032725 0.832973 0.086776
O O3 0.782407 0.926935 0.000000
O O4 0.000000 0.000000 0.117976
O O5 0.722759 0.705319 0.164553
O O6 0.800965 0.532199 0.138071
O O7 0.458828 0.594138 0.112478
O O8 0.728893 0.638326 0.000000
O O9 0.667990 0.214721 0.819805
O O10 0.000000 0.211367 0.750000
O O11 0.301376 0.245310 0.500000
O O12 0.124087 0.339386 0.382951
O O13 0.802008 0.450114 0.000000
#
# Coordination Sequence:
#
# PCOD9393439 Si02
#       5
#     8   8   8   8   8
#     4   9  18  34  55  75  97 129 168 214 270 321
#     4   9  17  32  54  77 102 134 174 216 258 310
#     4  10  20  31  48  75 103 134 169 209 255 309
#     4   9  18  32  47  68 100 134 170 210 251 299
#     4   8  16  32  53  75 100 134 173 214 261 308
#
# _framework density 25.485227999999999
#
# number of rings (size 3 to 8) (size 9 to 14) (size 15 to 20)
#    0.000    3.000    0.000    1.800    0.000    6.000 
#    0.000    9.000    0.000   16.800    0.000   12.600 
#    0.000    0.000    0.000    0.000    0.000    0.000 
#
# Total GULP energy -223165.023066 kJ/mol
# GULP energy per Si atom -5579.125577 kJ/mol
# Density = 2.542722 g / cm^3
# Si number density = 25.485228 Si / 1000 Ang^3
#
#
#
# Elastic Constant Matrix: (Units=GPa)
#
#
# Indices 1 2 3 4 5 6 
#
# 1 66.0190 21.2499 4.1308 0.0000 0.0000 0.0000
# 2 21.2499 131.4817 46.5098 0.0000 0.0000 0.0000
# 3 4.1308 46.5098 189.5642 0.0000 0.0000 0.0000
# 4 0.0000 0.0000 0.0000 114.0916 0.0000 0.0000
# 5 0.0000 0.0000 0.0000 0.0000 0.8093 0.0000
# 6 0.0000 0.0000 0.0000 0.0000 0.0000 32.7860
#
#
#
# Elastic Compliance Matrix: (Units=1/GPa)
#
#
# Indices 1 2 3 4 5 6 
#
# 1 0.015995 -0.002696 0.000313 0.000000 0.000000 0.000000
# 2 -0.002696 0.008783 -0.002096 0.000000 0.000000 0.000000
# 3 0.000313 -0.002096 0.005783 0.000000 0.000000 0.000000
# 4 0.000000 0.000000 0.000000 0.008765 0.000000 0.000000
# 5 0.000000 0.000000 0.000000 0.000000 1.235598 0.000000
# 6 0.000000 0.000000 0.000000 0.000000 0.000000 0.030501
#
#
# Mechanical properties :
#
#
# Convention : Reuss Voigt Hill
#
# Bulk Modulus (GPa) = 46.29056 58.98289 52.63672
# Shear Modulus (GPa) = 3.78334 50.54900 27.16617
#
# Velocity S-wave (km/s) = 1.21973 4.45844 3.26844
# Velocity P-wave (km/s) = 4.49297 7.04967 5.91120
#
# Compressibility (1/GPa) = 0.02160268
#
# Stress axis : x y z
#
# Youngs Moduli (GPa) = 62.51834 113.85909 172.92885
#
# Poissons Ratio (x) = 0.30694 -0.05410
# Poissons Ratio (y) = 0.16854 0.36248
# Poissons Ratio (z) = -0.01956 0.23866
#
# Static dielectric constant tensor:
#      x y z
#    x 2.265900 0.000000 0.000000 
#    y 0.000000 1.995760 0.000000 
#    z 0.000000 0.000000 2.146610 
# 
# From -- ./inp_files/11542.got.cif
#   From: 2010.05.17/outbox.cif.g08.bks.cpg/sg49_6_cif.got.tgz:11542.got - 2010.06.03 21:02:19.
