data_PCOD9393256
_publ_section_title
;
Structure prediction by ZEFSAII (Michael W. Deem and Ramdas Pophale) SiO2 
 PCOD9393256
Probable space group: P C C M
;
_chemical_formula_sum "Si O2"
_cell_formula_units_Z 64
_cell_length_a 30.731986
_cell_length_b 14.949434
_cell_length_c 8.566824
_cell_angle_alpha 90.000000
_cell_angle_beta 90.000000
_cell_angle_gamma 90.000000
_cell_volume 3935.819939
_symmetry_space_group_name_H-M "P C C M"
_symmetry_group_IT_number 49
_symmetry_cell_setting 'orthorhombic'
loop_
_space_group_symop_operation_xyz
x,y,z
-x,-y,z
x,-y,1/2-z
-x,y,1/2-z
-x,-y,-z
x,y,-z
-x,y,1/2+z
x,-y,1/2+z
loop_
_atom_site_type_symbol
_atom_site_label
_atom_site_fract_x
_atom_site_fract_y
_atom_site_fract_z
Si Si1 0.860734 0.601522 0.812707
Si Si2 0.642664 0.902319 0.189740
Si Si3 0.546187 0.369191 0.681684
Si Si4 0.546610 0.847231 0.819475
Si Si5 0.768699 0.601807 0.684951
Si Si6 0.634984 0.592379 0.318693
Si Si7 0.955349 0.602012 0.813318
Si Si8 0.304875 0.267935 0.182507
O O1 0.862175 0.500000 0.750000
O O2 0.815814 0.636784 0.743037
O O3 0.908033 0.642086 0.769802
O O4 0.857474 0.600636 0.000000
O O5 0.593106 0.880557 0.246589
O O6 0.678511 0.828688 0.240471
O O7 0.654217 0.000000 0.250000
O O8 0.641756 0.898721 0.000000
O O9 0.500000 0.396425 0.750000
O O10 0.552357 0.395046 0.500000
O O11 0.547870 0.260795 0.688628
O O12 0.583622 0.405706 0.792997
O O13 0.500000 0.876356 0.750000
O O14 0.545824 0.874140 0.000000
O O15 0.761758 0.500000 0.750000
O O16 0.768892 0.593285 0.500000
O O17 0.732805 0.674261 0.735899
O O18 0.652816 0.500000 0.250000
O O19 0.646524 0.603421 0.500000
O O20 0.652937 0.670905 0.211091
O O21 0.954805 0.500000 0.750000
O O22 0.000000 0.644169 0.750000
O O23 0.957784 0.598467 0.000000
O O24 0.294236 0.261571 0.000000
#
# Coordination Sequence:
#
# PCOD9393256 Si02
#       8
#     8   8   8   8   8   8   8   8
#     4   9  16  26  39  58  84 118 157 201 246 288
#     4  10  22  39  58  79 102 126 152 185 226 274
#     4  10  19  35  54  74  99 125 155 185 222 265
#     4   9  18  34  54  77 101 126 150 178 218 262
#     4  11  21  33  50  73  96 125 163 203 246 291
#     4  12  24  37  54  76  98 125 157 190 228 271
#     4   9  15  21  32  50  76 111 154 198 244 287
#     4  11  22  40  57  72  98 126 153 193 237 279
#
# _framework density 16.260905999999999
#
# number of rings (size 3 to 8) (size 9 to 14) (size 15 to 20)
#    0.000    1.875    1.250    5.250    0.000    4.000 
#    0.000    2.500    0.000    0.000    0.000    0.000 
#    0.000    0.000    0.000    0.000    0.000    0.625 
#
# Total GULP energy -356766.249211 kJ/mol
# GULP energy per Si atom -5574.472644 kJ/mol
# Density = 1.622390 g / cm^3
# Si number density = 16.260906 Si / 1000 Ang^3
#
#
#
# Elastic Constant Matrix: (Units=GPa)
#
#
# Indices 1 2 3 4 5 6 
#
# 1 135.4203 34.1088 28.7698 0.0000 0.0000 0.0000
# 2 34.1088 68.3773 16.1475 0.0000 0.0000 0.0000
# 3 28.7698 16.1475 58.7451 0.0000 0.0000 0.0000
# 4 0.0000 0.0000 0.0000 15.4939 0.0000 0.0000
# 5 0.0000 0.0000 0.0000 0.0000 29.0975 0.0000
# 6 0.0000 0.0000 0.0000 0.0000 0.0000 14.8626
#
#
#
# Elastic Compliance Matrix: (Units=1/GPa)
#
#
# Indices 1 2 3 4 5 6 
#
# 1 0.009042 -0.003705 -0.003410 0.000000 0.000000 0.000000
# 2 -0.003705 0.017158 -0.002902 0.000000 0.000000 0.000000
# 3 -0.003410 -0.002902 0.019490 0.000000 0.000000 0.000000
# 4 0.000000 0.000000 0.000000 0.064542 0.000000 0.000000
# 5 0.000000 0.000000 0.000000 0.000000 0.034367 0.000000
# 6 0.000000 0.000000 0.000000 0.000000 0.000000 0.067283
#
#
# Mechanical properties :
#
#
# Convention : Reuss Voigt Hill
#
# Bulk Modulus (GPa) = 38.97571 46.73277 42.85424
# Shear Modulus (GPa) = 20.79275 24.12522 22.45899
#
# Velocity S-wave (km/s) = 3.57977 3.85597 3.72043
# Velocity P-wave (km/s) = 6.41150 6.97327 6.69827
#
# Compressibility (1/GPa) = 0.02565700
#
# Stress axis : x y z
#
# Youngs Moduli (GPa) = 110.59402 58.28086 51.30775
#
# Poissons Ratio (x) = 0.21595 0.17495
# Poissons Ratio (y) = 0.40978 0.14888
# Poissons Ratio (z) = 0.37710 0.16912
#
# Static dielectric constant tensor:
#      x y z
#    x 1.614990 0.000000 0.000000 
#    y 0.000000 1.542890 0.000000 
#    z 0.000000 0.000000 1.555550 
# 
# From -- ./inp_files/7038.got.cif
#   From: 2010.05.17/outbox.cif.g08.bks.cpg/sg49_4_cif.got.tgz:7038.got - 2010.06.03 21:02:19.
