data_PCOD9393496
_publ_section_title
;
Structure prediction by ZEFSAII (Michael W. Deem and Ramdas Pophale) SiO2 
 PCOD9393496
Probable space group: P C C M
;
_chemical_formula_sum "Si O2"
_cell_formula_units_Z 48
_cell_length_a 18.470031
_cell_length_b 18.207308
_cell_length_c 8.537021
_cell_angle_alpha 90.000000
_cell_angle_beta 90.000000
_cell_angle_gamma 90.000000
_cell_volume 2870.910892
_symmetry_space_group_name_H-M "P C C M"
_symmetry_group_IT_number 49
_symmetry_cell_setting 'orthorhombic'
loop_
_space_group_symop_operation_xyz
x,y,z
-x,-y,z
x,-y,1/2-z
-x,y,1/2-z
-x,-y,-z
x,y,-z
-x,y,1/2+z
x,-y,1/2+z
loop_
_atom_site_type_symbol
_atom_site_label
_atom_site_fract_x
_atom_site_fract_y
_atom_site_fract_z
Si Si1 0.801678 0.420597 0.813639
Si Si2 0.418031 0.579996 0.812602
Si Si3 0.692462 0.697364 0.183813
Si Si4 0.807230 0.803767 0.310986
Si Si5 0.921449 0.681471 0.684854
Si Si6 0.921550 0.916584 0.187972
O O1 0.787287 0.500000 0.750000
O O2 0.753109 0.363595 0.720200
O O3 0.884304 0.396712 0.785363
O O4 0.786592 0.413514 0.000000
O O5 0.389240 0.500000 0.750000
O O6 0.500000 0.584587 0.750000
O O7 0.375953 0.653912 0.758606
O O8 0.416438 0.576271 0.000000
O O9 0.729258 0.772474 0.251956
O O10 0.680063 0.707190 0.000000
O O11 0.803830 0.806305 0.500000
O O12 0.865563 0.742477 0.256932
O O13 0.848683 0.875945 0.248533
O O14 0.924873 0.691696 0.500000
O O15 0.000000 0.688988 0.750000
O O16 0.000000 0.885849 0.250000
O O17 0.918909 0.000000 0.250000
O O18 0.923574 0.914546 0.000000
#
# Coordination Sequence:
#
# PCOD9393496 Si02
#       6
#     8   8   8   8   8   8
#     4  10  20  33  45  61  83 113 152 197 243 288
#     4  11  21  35  53  76 104 135 169 209 253 302
#     4  11  21  34  51  72  96 127 162 199 244 297
#     4  10  20  35  51  71  97 127 162 203 246 295
#     4   9  19  31  44  60  82 111 148 191 238 284
#     4  11  21  34  52  76 104 137 172 211 255 304
#
# _framework density 16.719432000000001
#
# number of rings (size 3 to 8) (size 9 to 14) (size 15 to 20)
#    0.000    1.667    0.000    8.500    0.000    5.667 
#    0.000    1.667    0.000    0.000    0.000    0.000 
#    0.000    0.667    0.000    6.667    0.000    4.000 
#
# Total GULP energy -267354.141910 kJ/mol
# GULP energy per Si atom -5569.877956 kJ/mol
# Density = 1.668138 g / cm^3
# Si number density = 16.719432 Si / 1000 Ang^3
#
#
#
# Elastic Constant Matrix: (Units=GPa)
#
#
# Indices 1 2 3 4 5 6 
#
# 1 82.0025 32.7602 32.4130 0.0000 0.0000 0.0000
# 2 32.7602 65.5750 29.2658 0.0000 0.0000 0.0000
# 3 32.4130 29.2658 111.9192 0.0000 0.0000 0.0000
# 4 0.0000 0.0000 0.0000 24.2596 0.0000 0.0000
# 5 0.0000 0.0000 0.0000 0.0000 26.3614 0.0000
# 6 0.0000 0.0000 0.0000 0.0000 0.0000 27.1831
#
#
#
# Elastic Compliance Matrix: (Units=1/GPa)
#
#
# Indices 1 2 3 4 5 6 
#
# 1 0.016017 -0.006715 -0.002883 0.000000 0.000000 0.000000
# 2 -0.006715 0.020080 -0.003306 0.000000 0.000000 0.000000
# 3 -0.002883 -0.003306 0.010634 0.000000 0.000000 0.000000
# 4 0.000000 0.000000 0.000000 0.041221 0.000000 0.000000
# 5 0.000000 0.000000 0.000000 0.000000 0.037934 0.000000
# 6 0.000000 0.000000 0.000000 0.000000 0.000000 0.036788
#
#
# Mechanical properties :
#
#
# Convention : Reuss Voigt Hill
#
# Bulk Modulus (GPa) = 47.79314 49.81940 48.80627
# Shear Modulus (GPa) = 25.58119 26.56468 26.07293
#
# Velocity S-wave (km/s) = 3.91580 3.99036 3.95326
# Velocity P-wave (km/s) = 7.00658 7.14791 7.07760
#
# Compressibility (1/GPa) = 0.02092350
#
# Stress axis : x y z
#
# Youngs Moduli (GPa) = 62.43377 49.80087 94.03498
#
# Poissons Ratio (x) = 0.33443 0.27107
# Poissons Ratio (y) = 0.41926 0.31087
# Poissons Ratio (z) = 0.17998 0.16464
#
# Static dielectric constant tensor:
#      x y z
#    x 1.473040 0.000000 0.000000 
#    y 0.000000 1.584030 0.000000 
#    z 0.000000 0.000000 1.568100 
# 
# From -- ./inp_files/4965.got.cif
#   From: 2010.05.17/outbox.cif.g08.bks.cpg/sg49_3_cif.got.tgz:4965.got - 2010.06.03 21:02:19.
