data_PCOD9393991
_publ_section_title
;
Structure prediction by ZEFSAII (Michael W. Deem and Ramdas Pophale) SiO2 
 PCOD9393991
Probable space group: P C C M
;
_chemical_formula_sum "Si O2"
_cell_formula_units_Z 56
_cell_length_a 21.938319
_cell_length_b 8.280823
_cell_length_c 15.984006
_cell_angle_alpha 90.000000
_cell_angle_beta 90.000000
_cell_angle_gamma 90.000000
_cell_volume 2903.771798
_symmetry_space_group_name_H-M "P C C M"
_symmetry_group_IT_number 49
_symmetry_cell_setting 'orthorhombic'
loop_
_space_group_symop_operation_xyz
x,y,z
-x,-y,z
x,-y,1/2-z
-x,y,1/2-z
-x,-y,-z
x,y,-z
-x,y,1/2+z
x,-y,1/2+z
loop_
_atom_site_type_symbol
_atom_site_label
_atom_site_fract_x
_atom_site_fract_y
_atom_site_fract_z
Si Si1 0.869100 0.194678 0.407612
Si Si2 0.650098 0.192599 0.250000
Si Si3 0.130900 0.194678 0.592388
Si Si4 0.789614 0.198019 0.250000
Si Si5 0.000000 0.306487 0.347296
Si Si6 0.570158 0.305084 0.594550
Si Si7 0.429842 0.305084 0.405450
O O1 0.850730 0.252140 0.500000
O O2 0.826103 0.252434 0.332420
O O3 0.938554 0.243652 0.389571
O O4 0.866288 1.000000 0.407363
O O5 0.719768 0.252556 0.250000
O O6 0.614169 0.246799 0.332699
O O7 0.614169 0.246799 0.167301
O O8 0.652151 0.000000 0.250000
O O9 0.149270 0.252140 0.500000
O O10 0.173897 0.252434 0.667580
O O11 0.061446 0.243652 0.610429
O O12 0.789997 0.000000 0.250000
O O13 0.000000 0.500000 0.350273
O O14 0.000000 0.254509 0.250000
O O15 0.587014 0.252598 0.500000
O O16 0.570375 0.500000 0.595145
O O17 0.500000 0.253496 0.610205
O O18 0.412986 0.252598 0.500000
#
# Coordination Sequence:
#
# PCOD9393991 Si02
#       7
#     8   8   8   8   8   8   8
#     4  10  20  36  59  80  99 135 183 220 257 312
#     4  11  22  34  54  85 116 146 179 224 283 330
#     4  10  20  36  59  80  99 135 183 220 257 312
#     4   9  20  37  53  75 109 144 177 218 261 311
#     4  11  22  35  54  81 111 138 165 212 277 325
#     4   9  19  37  59  81 108 146 189 228 268 321
#     4   9  19  37  59  81 108 146 189 228 268 321
#
# _framework density 19.285260999999998
#
# number of rings (size 3 to 8) (size 9 to 14) (size 15 to 20)
#    0.000    2.143    1.429    2.571    0.000    6.857 
#    0.000    7.143    0.000    0.000    0.000    0.000 
#    0.000    0.000    0.000    0.000    0.000    0.000 
#
# Total GULP energy -312691.802764 kJ/mol
# GULP energy per Si atom -5583.782192 kJ/mol
# Density = 1.924137 g / cm^3
# Si number density = 19.285261 Si / 1000 Ang^3
#
#
#
# Elastic Constant Matrix: (Units=GPa)
#
#
# Indices 1 2 3 4 5 6 
#
# 1 166.1493 13.9330 127.2455 0.0000 0.0000 0.0000
# 2 13.9330 8.3456 22.2919 0.0000 0.0000 0.0000
# 3 127.2455 22.2919 215.7537 0.0000 0.0000 0.0000
# 4 0.0000 0.0000 0.0000 4.1869 0.0000 0.0000
# 5 0.0000 0.0000 0.0000 0.0000 -6.4163 0.0000
# 6 0.0000 0.0000 0.0000 0.0000 0.0000 76.9363
#
#
#
# Elastic Compliance Matrix: (Units=1/GPa)
#
#
# Indices 1 2 3 4 5 6 
#
# 1 0.010989 -0.001429 -0.006333 0.000000 0.000000 0.000000
# 2 -0.001429 0.165685 -0.016276 0.000000 0.000000 0.000000
# 3 -0.006333 -0.016276 0.010052 0.000000 0.000000 0.000000
# 4 0.000000 0.000000 0.000000 0.238840 0.000000 0.000000
# 5 0.000000 0.000000 0.000000 0.000000 -0.155853 0.000000
# 6 0.000000 0.000000 0.000000 0.000000 0.000000 0.012998
#
#
# Mechanical properties :
#
#
# Convention : Reuss Voigt Hill
#
# Bulk Modulus (GPa) = 7.21247 79.68771 43.45009
# Shear Modulus (GPa) = 13.26249 30.05993 21.66121
#
# Velocity S-wave (km/s) = 2.62525 3.95232 3.35505
# Velocity P-wave (km/s) = 3.59684 7.88911 6.13088
#
# Compressibility (1/GPa) = 0.13864876
#
# Stress axis : x y z
#
# Youngs Moduli (GPa) = 91.00132 6.03556 99.48541
#
# Poissons Ratio (x) = 0.00863 0.63007
# Poissons Ratio (y) = 0.13006 1.61921
# Poissons Ratio (z) = 0.57633 0.09823
#
# Static dielectric constant tensor:
#      x y z
#    x 1.638170 0.000000 0.000000 
#    y 0.000000 1.669970 0.000000 
#    z 0.000000 0.000000 1.684340 
# 
# From -- ./inp_files/11967.got.cif
#   From: 2010.05.17/outbox.cif.g08.bks.cpg/sg49_6_cif.got.tgz:11967.got - 2010.06.03 21:02:19.
