data_PCOD9393851
_publ_section_title
;
Structure prediction by ZEFSAII (Michael W. Deem and Ramdas Pophale) SiO2 
 PCOD9393851
Probable space group: P C C M
;
_chemical_formula_sum "Si O2"
_cell_formula_units_Z 34
_cell_length_a 6.639839
_cell_length_b 15.148987
_cell_length_c 19.018675
_cell_angle_alpha 90.000000
_cell_angle_beta 90.000000
_cell_angle_gamma 90.000000
_cell_volume 1913.028318
_symmetry_space_group_name_H-M "P C C M"
_symmetry_group_IT_number 49
_symmetry_cell_setting 'orthorhombic'
loop_
_space_group_symop_operation_xyz
x,y,z
-x,-y,z
x,-y,1/2-z
-x,y,1/2-z
-x,-y,-z
x,y,-z
-x,y,1/2+z
x,-y,1/2+z
loop_
_atom_site_type_symbol
_atom_site_label
_atom_site_fract_x
_atom_site_fract_y
_atom_site_fract_z
Si Si1 0.832812 0.757179 0.420446
Si Si2 0.000000 0.500000 0.750000
Si Si3 0.857634 0.920146 0.919435
Si Si4 0.110404 0.330817 0.181265
Si Si5 0.551528 0.185886 0.669243
O O1 0.771018 0.736355 0.500000
O O2 0.646355 0.790508 0.374734
O O3 0.996227 0.835639 0.422345
O O4 0.952077 0.678788 0.381834
O O5 0.132789 0.432686 0.796409
O O6 0.675310 0.892185 0.869133
O O7 0.789815 0.939652 0.000000
O O8 0.000000 0.000000 0.894989
O O9 0.307867 0.273692 0.168290
O O10 0.000000 0.289099 0.250000
O O11 0.500000 0.165154 0.750000
#
# Coordination Sequence:
#
# PCOD9393851 Si02
#       5
#     8   2   8   8   8
#     4  10  20  35  56  82 109 142 180 222 267 318
#     4   8  16  36  60  80 102 142 178 212 270 324
#     4   9  20  37  55  76 108 147 185 224 267 316
#     4   9  18  35  58  80 103 139 178 217 265 324
#     4  11  19  33  57  78 107 143 180 225 269 319
#
# _framework density 17.772867999999999
#
# number of rings (size 3 to 8) (size 9 to 14) (size 15 to 20)
#    0.706    1.647    2.353    0.706    0.000    1.882 
#    0.000   12.941    0.000    1.412    0.000    0.000 
#    0.000    0.000    0.000    0.000    0.000    0.000 
#
# Total GULP energy -189325.256473 kJ/mol
# GULP energy per Si atom -5568.389896 kJ/mol
# Density = 1.773242 g / cm^3
# Si number density = 17.772868 Si / 1000 Ang^3
#
#
#
# Elastic Constant Matrix: (Units=GPa)
#
#
# Indices 1 2 3 4 5 6 
#
# 1 77.9595 11.3263 61.6662 0.0000 0.0000 0.0000
# 2 11.3263 73.3069 23.5969 0.0000 0.0000 0.0000
# 3 61.6662 23.5969 142.0047 0.0000 0.0000 0.0000
# 4 0.0000 0.0000 0.0000 26.9332 0.0000 0.0000
# 5 0.0000 0.0000 0.0000 0.0000 28.7865 0.0000
# 6 0.0000 0.0000 0.0000 0.0000 0.0000 7.1118
#
#
#
# Elastic Compliance Matrix: (Units=1/GPa)
#
#
# Indices 1 2 3 4 5 6 
#
# 1 0.019545 -0.000304 -0.008437 0.000000 0.000000 0.000000
# 2 -0.000304 0.014417 -0.002264 0.000000 0.000000 0.000000
# 3 -0.008437 -0.002264 0.011082 0.000000 0.000000 0.000000
# 4 0.000000 0.000000 0.000000 0.037129 0.000000 0.000000
# 5 0.000000 0.000000 0.000000 0.000000 0.034739 0.000000
# 6 0.000000 0.000000 0.000000 0.000000 0.000000 0.140611
#
#
# Mechanical properties :
#
#
# Convention : Reuss Voigt Hill
#
# Bulk Modulus (GPa) = 43.41293 54.05000 48.73147
# Shear Modulus (GPa) = 17.40884 25.67840 21.54362
#
# Velocity S-wave (km/s) = 3.13312 3.80519 3.48539
# Velocity P-wave (km/s) = 6.12929 7.05574 6.60877
#
# Compressibility (1/GPa) = 0.02303461
#
# Stress axis : x y z
#
# Youngs Moduli (GPa) = 51.16385 69.36306 90.23660
#
# Poissons Ratio (x) = 0.02109 0.76133
# Poissons Ratio (y) = 0.01555 0.20426
# Poissons Ratio (z) = 0.43167 0.15701
#
# Static dielectric constant tensor:
#      x y z
#    x 1.605750 0.000000 0.000000 
#    y 0.000000 1.603890 0.000000 
#    z 0.000000 0.000000 1.642490 
# 
# From -- ./inp_files/15228.got.cif
#   From: 2010.05.17/outbox.cif.g08.bks.cpg/sg49_8_cif.got.tgz:15228.got - 2010.06.03 21:02:19.
