data_PCOD9393052
_publ_section_title
;
Structure prediction by ZEFSAII (Michael W. Deem and Ramdas Pophale) SiO2 
 PCOD9393052
Probable space group: P C C M
;
_chemical_formula_sum "Si O2"
_cell_formula_units_Z 64
_cell_length_a 17.974204
_cell_length_b 21.022950
_cell_length_c 8.855218
_cell_angle_alpha 90.000000
_cell_angle_beta 90.000000
_cell_angle_gamma 90.000000
_cell_volume 3346.128239
_symmetry_space_group_name_H-M "P C C M"
_symmetry_group_IT_number 49
_symmetry_cell_setting 'orthorhombic'
loop_
_space_group_symop_operation_xyz
x,y,z
-x,-y,z
x,-y,1/2-z
-x,y,1/2-z
-x,-y,-z
x,y,-z
-x,y,1/2+z
x,-y,1/2+z
loop_
_atom_site_type_symbol
_atom_site_label
_atom_site_fract_x
_atom_site_fract_y
_atom_site_fract_z
Si Si1 0.698160 0.933741 0.818830
Si Si2 0.372137 0.703143 0.817503
Si Si3 0.575233 0.832551 0.181213
Si Si4 0.795796 0.434307 0.825573
Si Si5 0.871563 0.066717 0.681914
Si Si6 0.076885 0.204708 0.181869
Si Si7 0.385706 0.564736 0.827441
Si Si8 0.792193 0.301693 0.681026
O O1 0.645994 0.875368 0.774729
O O2 0.784420 0.925691 0.774523
O O3 0.671100 0.000000 0.750000
O O4 0.696451 0.938052 0.000000
O O5 0.414618 0.762729 0.749844
O O6 0.403423 0.634548 0.763042
O O7 0.286931 0.709191 0.761202
O O8 0.373596 0.703208 0.000000
O O9 0.500000 0.860925 0.250000
O O10 0.571134 0.829395 0.000000
O O11 0.821104 0.500000 0.750000
O O12 0.705068 0.435902 0.825102
O O13 0.818167 0.371660 0.733490
O O14 0.818875 0.429814 0.000000
O O15 0.875733 0.062805 0.500000
O O16 0.911062 0.131543 0.731730
O O17 0.898806 0.000000 0.750000
O O18 0.147317 0.248436 0.222996
O O19 0.000000 0.229122 0.250000
O O20 0.072720 0.204933 0.000000
O O21 0.411013 0.500000 0.750000
O O22 0.410592 0.562868 0.000000
O O23 0.781490 0.300147 0.500000
#
# Coordination Sequence:
#
# PCOD9393052 Si02
#       8
#     8   8   8   8   8   8   8   8
#     4   9  19  36  58  81 106 135 171 213 260 312
#     4  10  20  34  53  79 107 138 178 221 263 316
#     4  11  23  38  55  77 107 143 179 219 264 313
#     4   9  16  27  45  73 105 136 171 215 264 316
#     4   9  18  35  56  79 104 133 170 213 259 311
#     4  10  22  37  53  74 105 141 178 218 263 314
#     4   8  15  26  43  70 102 131 164 207 255 304
#     4  10  19  33  53  77 105 139 176 220 270 318
#
# _framework density 19.126583
#
# number of rings (size 3 to 8) (size 9 to 14) (size 15 to 20)
#    0.000    2.500    0.000    3.000    0.000    8.500 
#    0.000    5.000    0.000    0.750    0.000    5.250 
#    0.000    0.000    0.000    0.000    0.000    0.000 
#
# Total GULP energy -357101.565651 kJ/mol
# GULP energy per Si atom -5579.711963 kJ/mol
# Density = 1.908305 g / cm^3
# Si number density = 19.126583 Si / 1000 Ang^3
#
#
#
# Elastic Constant Matrix: (Units=GPa)
#
#
# Indices 1 2 3 4 5 6 
#
# 1 55.6591 28.5464 13.5989 0.0000 0.0000 0.0000
# 2 28.5464 103.0370 21.9693 0.0000 0.0000 0.0000
# 3 13.5989 21.9693 35.2156 0.0000 0.0000 0.0000
# 4 0.0000 0.0000 0.0000 30.2494 0.0000 0.0000
# 5 0.0000 0.0000 0.0000 0.0000 20.3269 0.0000
# 6 0.0000 0.0000 0.0000 0.0000 0.0000 -18.9661
#
#
#
# Elastic Compliance Matrix: (Units=1/GPa)
#
#
# Indices 1 2 3 4 5 6 
#
# 1 0.021786 -0.004893 -0.005360 0.000000 0.000000 0.000000
# 2 -0.004893 0.012293 -0.005780 0.000000 0.000000 0.000000
# 3 -0.005360 -0.005780 0.034072 0.000000 0.000000 0.000000
# 4 0.000000 0.000000 0.000000 0.033059 0.000000 0.000000
# 5 0.000000 0.000000 0.000000 0.000000 0.049196 0.000000
# 6 0.000000 0.000000 0.000000 0.000000 0.000000 -0.052726
#
#
# Mechanical properties :
#
#
# Convention : Reuss Voigt Hill
#
# Bulk Modulus (GPa) = 27.71221 35.79342 31.75281
# Shear Modulus (GPa) = 35.26747 14.97517 25.12132
#
# Velocity S-wave (km/s) = 4.29872 2.80116 3.62805
# Velocity P-wave (km/s) = 6.25771 5.40524 5.84703
#
# Compressibility (1/GPa) = 0.03608518
#
# Stress axis : x y z
#
# Youngs Moduli (GPa) = 45.90188 81.34631 29.34949
#
# Poissons Ratio (x) = 0.39801 0.15732
# Poissons Ratio (y) = 0.22459 0.16963
# Poissons Ratio (z) = 0.24605 0.47016
#
# Static dielectric constant tensor:
#      x y z
#    x 1.658240 0.000000 0.000000 
#    y 0.000000 1.677140 0.000000 
#    z 0.000000 0.000000 1.647080 
# 
# From -- ./inp_files/5245.got.cif
#   From: 2010.05.17/outbox.cif.g08.bks.cpg/sg49_3_cif.got.tgz:5245.got - 2010.06.03 21:02:19.
