data_PCOD9393307
_publ_section_title
;
Structure prediction by ZEFSAII (Michael W. Deem and Ramdas Pophale) SiO2 
 PCOD9393307
Probable space group: P C C M
;
_chemical_formula_sum "Si O2"
_cell_formula_units_Z 64
_cell_length_a 20.314610
_cell_length_b 9.577016
_cell_length_c 16.077686
_cell_angle_alpha 90.000000
_cell_angle_beta 90.000000
_cell_angle_gamma 90.000000
_cell_volume 3127.967591
_symmetry_space_group_name_H-M "P C C M"
_symmetry_group_IT_number 49
_symmetry_cell_setting 'orthorhombic'
loop_
_space_group_symop_operation_xyz
x,y,z
-x,-y,z
x,-y,1/2-z
-x,y,1/2-z
-x,-y,-z
x,y,-z
-x,y,1/2+z
x,-y,1/2+z
loop_
_atom_site_type_symbol
_atom_site_label
_atom_site_fract_x
_atom_site_fract_y
_atom_site_fract_z
Si Si1 0.929841 0.570180 0.399026
Si Si2 0.682798 0.990724 0.349062
Si Si3 0.666648 0.690763 0.902622
Si Si4 0.171889 0.967827 0.652390
Si Si5 0.449742 0.108538 0.593599
Si Si6 0.951702 0.883644 0.404983
Si Si7 0.473762 0.346063 0.161800
Si Si8 0.184460 0.352976 0.100893
O O1 0.923307 0.577224 0.500000
O O2 0.937694 0.730038 0.367975
O O3 0.867972 0.472358 0.371796
O O4 0.000000 0.500000 0.379868
O O5 0.669383 0.141997 0.389311
O O6 0.758119 0.964076 0.372691
O O7 0.683256 0.000000 0.250000
O O8 0.623210 0.888027 0.369977
O O9 0.604276 0.648143 0.848151
O O10 0.737694 0.624744 0.879927
O O11 0.654341 0.661232 0.000000
O O12 0.170402 0.800933 0.637883
O O13 0.160428 0.000000 0.750000
O O14 0.117156 0.038439 0.596906
O O15 0.438908 0.057709 0.500000
O O16 0.490165 0.250144 0.595192
O O17 0.500000 0.000000 0.636514
O O18 0.976310 0.859940 0.500000
O O19 0.000000 0.000000 0.365087
O O20 0.500000 0.500000 0.154132
O O21 0.500000 0.289040 0.250000
O O22 0.179782 0.341759 0.000000
#
# Coordination Sequence:
#
# PCOD9393307 Si02
#       8
#     8   8   8   8   8   8   8   8
#     4   9  17  32  56  85 115 148 194 238 277 337
#     4  10  20  35  57  82 111 148 189 236 289 358
#     4  10  19  35  59  82 111 149 193 241 297 353
#     4  10  21  36  55  82 116 149 189 233 290 347
#     4  11  22  35  57  86 110 139 188 242 294 344
#     4  10  20  35  58  86 116 150 190 241 293 337
#     4  11  24  40  57  79 111 152 193 236 290 361
#     4   9  18  34  59  84 111 154 197 235 284 352
#
# _framework density 20.460570000000001
#
# number of rings (size 3 to 8) (size 9 to 14) (size 15 to 20)
#    0.000    2.000    1.250    2.625    0.000    4.750 
#    2.250    0.625    0.000    0.750    0.000    0.000 
#    0.000    0.000    0.000    0.000    0.000    0.000 
#
# Total GULP energy -356633.306804 kJ/mol
# GULP energy per Si atom -5572.395419 kJ/mol
# Density = 2.041400 g / cm^3
# Si number density = 20.460570 Si / 1000 Ang^3
#
#
#
# Elastic Constant Matrix: (Units=GPa)
#
#
# Indices 1 2 3 4 5 6 
#
# 1 163.1024 66.7815 31.6956 0.0000 0.0000 0.0000
# 2 66.7815 92.4778 16.5957 0.0000 0.0000 0.0000
# 3 31.6956 16.5957 31.5448 0.0000 0.0000 0.0000
# 4 0.0000 0.0000 0.0000 13.1730 0.0000 0.0000
# 5 0.0000 0.0000 0.0000 0.0000 20.4017 0.0000
# 6 0.0000 0.0000 0.0000 0.0000 0.0000 22.3809
#
#
#
# Elastic Compliance Matrix: (Units=1/GPa)
#
#
# Indices 1 2 3 4 5 6 
#
# 1 0.009874 -0.005908 -0.006813 0.000000 0.000000 0.000000
# 2 -0.005908 0.015475 -0.002206 0.000000 0.000000 0.000000
# 3 -0.006813 -0.002206 0.039707 0.000000 0.000000 0.000000
# 4 0.000000 0.000000 0.000000 0.075913 0.000000 0.000000
# 5 0.000000 0.000000 0.000000 0.000000 0.049016 0.000000
# 6 0.000000 0.000000 0.000000 0.000000 0.000000 0.044681
#
#
# Mechanical properties :
#
#
# Convention : Reuss Voigt Hill
#
# Bulk Modulus (GPa) = 28.40633 57.47451 42.94042
# Shear Modulus (GPa) = 18.09935 22.66127 20.38031
#
# Velocity S-wave (km/s) = 2.97744 3.33161 3.15949
# Velocity P-wave (km/s) = 5.07285 6.55369 5.86023
#
# Compressibility (1/GPa) = 0.03520342
#
# Stress axis : x y z
#
# Youngs Moduli (GPa) = 101.27615 64.61882 25.18447
#
# Poissons Ratio (x) = 0.38175 0.17159
# Poissons Ratio (y) = 0.59831 0.05555
# Poissons Ratio (z) = 0.69001 0.14252
#
# Static dielectric constant tensor:
#      x y z
#    x 1.656630 0.000000 0.000000 
#    y 0.000000 1.730670 0.000000 
#    z 0.000000 0.000000 1.756260 
# 
# From -- ./inp_files/18312.got.cif
#   From: 2010.05.17/outbox.cif.g08.bks.cpg/sg49_10_cif.got.tgz:18312.got - 2010.06.03 21:02:19.
