data_PCOD9393096
_publ_section_title
;
Structure prediction by ZEFSAII (Michael W. Deem and Ramdas Pophale) SiO2 
 PCOD9393096
Probable space group: P C C M
;
_chemical_formula_sum "Si O2"
_cell_formula_units_Z 58
_cell_length_a 5.337201
_cell_length_b 33.636729
_cell_length_c 14.424790
_cell_angle_alpha 90.000000
_cell_angle_beta 90.000000
_cell_angle_gamma 90.000000
_cell_volume 2589.624614
_symmetry_space_group_name_H-M "P C C M"
_symmetry_group_IT_number 49
_symmetry_cell_setting 'orthorhombic'
loop_
_space_group_symop_operation_xyz
x,y,z
-x,-y,z
x,-y,1/2-z
-x,y,1/2-z
-x,-y,-z
x,y,-z
-x,y,1/2+z
x,-y,1/2+z
loop_
_atom_site_type_symbol
_atom_site_label
_atom_site_fract_x
_atom_site_fract_y
_atom_site_fract_z
Si Si1 0.000000 0.000000 0.500000
Si Si2 0.746052 0.482627 0.145828
Si Si3 0.139784 0.653393 0.611102
Si Si4 0.481946 0.786688 0.136780
Si Si5 0.493133 0.122454 0.361749
Si Si6 0.977438 0.254704 0.640711
Si Si7 0.644344 0.608679 0.613187
Si Si8 0.994451 0.925139 0.137495
O O1 0.966069 0.034444 0.418974
O O2 0.500000 0.500000 0.099510
O O3 0.748517 0.500000 0.250000
O O4 0.706826 0.435603 0.146850
O O5 0.000000 0.500000 0.103604
O O6 0.145702 0.648824 0.500000
O O7 0.115602 0.700149 0.629239
O O8 0.384602 0.629230 0.644443
O O9 0.879404 0.634882 0.644133
O O10 0.500000 0.785392 0.250000
O O11 0.446061 0.832300 0.108637
O O12 0.751928 0.771944 0.103722
O O13 0.252497 0.758268 0.106216
O O14 0.500000 0.123611 0.250000
O O15 0.760832 0.103629 0.387085
O O16 0.259250 0.095023 0.388372
O O17 0.000000 0.247563 0.750000
O O18 0.639351 0.607085 0.500000
O O19 0.000000 0.930961 0.250000
#
# Coordination Sequence:
#
# PCOD9393096 Si02
#       8
#     2   8   8   8   8   8   8   8
#     4  12  26  42  64  88 128 170 198 278 312 368
#     4  10  21  38  56  81 112 137 176 233 284 329
#     4  10  21  38  57  79 115 150 190 228 275 330
#     4   9  17  31  58  84 116 149 192 237 294 344
#     4   9  18  36  61  89 115 158 202 255 298 365
#     4  10  19  33  54  88 115 148 191 235 283 349
#     4  10  21  38  59  80 105 151 191 225 272 340
#     4  10  22  39  62  88 120 159 215 251 313 373
#
# _framework density 22.397067
#
# number of rings (size 3 to 8) (size 9 to 14) (size 15 to 20)
#    0.000    2.207    0.000    2.690    0.000    5.517 
#    7.448    2.069    9.103    0.000    0.000    0.000 
#    0.000    0.000    0.000    0.000    0.000    0.000 
#
# Total GULP energy -323459.638584 kJ/mol
# GULP energy per Si atom -5576.890320 kJ/mol
# Density = 2.234609 g / cm^3
# Si number density = 22.397067 Si / 1000 Ang^3
#
#
#
# Elastic Constant Matrix: (Units=GPa)
#
#
# Indices 1 2 3 4 5 6 
#
# 1 189.5555 55.9894 20.3507 0.0000 0.0000 0.0000
# 2 55.9894 134.9916 9.2252 0.0000 0.0000 0.0000
# 3 20.3507 9.2252 104.5703 0.0000 0.0000 0.0000
# 4 0.0000 0.0000 0.0000 -12.2999 0.0000 0.0000
# 5 0.0000 0.0000 0.0000 0.0000 -5.1693 0.0000
# 6 0.0000 0.0000 0.0000 0.0000 0.0000 -31.0253
#
#
#
# Elastic Compliance Matrix: (Units=1/GPa)
#
#
# Indices 1 2 3 4 5 6 
#
# 1 0.006109 -0.002467 -0.000971 0.000000 0.000000 0.000000
# 2 -0.002467 0.008449 -0.000265 0.000000 0.000000 0.000000
# 3 -0.000971 -0.000265 0.009775 0.000000 0.000000 0.000000
# 4 0.000000 0.000000 0.000000 -0.081301 0.000000 0.000000
# 5 0.000000 0.000000 0.000000 0.000000 -0.193449 0.000000
# 6 0.000000 0.000000 0.000000 0.000000 0.000000 -0.032232
#
#
# Mechanical properties :
#
#
# Convention : Reuss Voigt Hill
#
# Bulk Modulus (GPa) = 59.08087 66.69425 62.88756
# Shear Modulus (GPa) = -18.54599 13.20457 -2.67071
#
# Velocity S-wave (km/s) = -2.88072 2.43073 -1.09317
# Velocity P-wave (km/s) = 3.92064 6.14172 5.15229
#
# Compressibility (1/GPa) = 0.01692595
#
# Stress axis : x y z
#
# Youngs Moduli (GPa) = 163.70616 118.35298 102.29824
#
# Poissons Ratio (x) = 0.29200 0.09935
# Poissons Ratio (y) = 0.40390 0.02713
# Poissons Ratio (z) = 0.15898 0.03139
#
# Static dielectric constant tensor:
#      x y z
#    x 1.808910 0.000000 0.000000 
#    y 0.000000 1.833000 0.000000 
#    z 0.000000 0.000000 1.875610 
# 
# From -- ./inp_files/15391.got.cif
#   From: 2010.05.17/outbox.cif.g08.bks.cpg/sg49_8_cif.got.tgz:15391.got - 2010.06.03 21:02:19.
