data_PCOD9393454
_publ_section_title
;
Structure prediction by ZEFSAII (Michael W. Deem and Ramdas Pophale) SiO2 
 PCOD9393454
Probable space group: P C C M
;
_chemical_formula_sum "Si O2"
_cell_formula_units_Z 40
_cell_length_a 14.530528
_cell_length_b 20.152775
_cell_length_c 8.376453
_cell_angle_alpha 90.000000
_cell_angle_beta 90.000000
_cell_angle_gamma 90.000000
_cell_volume 2452.880597
_symmetry_space_group_name_H-M "P C C M"
_symmetry_group_IT_number 49
_symmetry_cell_setting 'orthorhombic'
loop_
_space_group_symop_operation_xyz
x,y,z
-x,-y,z
x,-y,1/2-z
-x,y,1/2-z
-x,-y,-z
x,y,-z
-x,y,1/2+z
x,-y,1/2+z
loop_
_atom_site_type_symbol
_atom_site_label
_atom_site_fract_x
_atom_site_fract_y
_atom_site_fract_z
Si Si1 0.596701 0.075305 0.691833
Si Si2 0.394116 0.716106 0.309288
Si Si3 0.894947 0.927242 0.307774
Si Si4 0.744313 0.172385 0.814563
Si Si5 0.394743 0.431368 0.190505
O O1 0.500000 0.105221 0.750000
O O2 0.605982 0.080429 0.500000
O O3 0.675383 0.111558 0.787693
O O4 0.596927 0.000000 0.750000
O O5 0.500000 0.728517 0.250000
O O6 0.400871 0.717201 0.500000
O O7 0.314270 0.767531 0.260821
O O8 0.363123 0.641810 0.256557
O O9 0.891323 0.928182 0.500000
O O10 0.838224 0.862076 0.251059
O O11 0.000000 0.922837 0.250000
O O12 0.859232 0.000000 0.250000
O O13 0.757925 0.188301 0.000000
O O14 0.349920 0.500000 0.250000
O O15 0.500000 0.432729 0.250000
O O16 0.393642 0.433263 0.000000
#
# Coordination Sequence:
#
# PCOD9393454 Si02
#       5
#     8   8   8   8   8
#     4  11  21  33  47  63  86 117 152 189 224 264
#     4  10  20  32  46  67  96 130 163 196 231 271
#     4  10  21  36  55  74  92 115 147 189 236 283
#     4  11  22  34  48  68  92 120 152 187 230 277
#     4   9  16  26  42  63  88 121 160 195 229 264
#
# _framework density 16.307358000000001
#
# number of rings (size 3 to 8) (size 9 to 14) (size 15 to 20)
#    0.000    1.800    0.000    7.200    0.000    7.200 
#    0.000    0.000    0.000    0.000    0.000    0.000 
#    0.000    0.800    0.000    8.800    0.000    6.400 
#
# Total GULP energy -222690.682969 kJ/mol
# GULP energy per Si atom -5567.267074 kJ/mol
# Density = 1.627024 g / cm^3
# Si number density = 16.307358 Si / 1000 Ang^3
#
#
#
# Elastic Constant Matrix: (Units=GPa)
#
#
# Indices 1 2 3 4 5 6 
#
# 1 57.7329 44.7378 4.3113 0.0000 0.0000 0.0000
# 2 44.7378 135.2204 20.3119 0.0000 0.0000 0.0000
# 3 4.3113 20.3119 35.3550 0.0000 0.0000 0.0000
# 4 0.0000 0.0000 0.0000 25.2272 0.0000 0.0000
# 5 0.0000 0.0000 0.0000 0.0000 13.6645 0.0000
# 6 0.0000 0.0000 0.0000 0.0000 0.0000 57.4175
#
#
#
# Elastic Compliance Matrix: (Units=1/GPa)
#
#
# Indices 1 2 3 4 5 6 
#
# 1 0.023391 -0.008001 0.001744 0.000000 0.000000 0.000000
# 2 -0.008001 0.010831 -0.005247 0.000000 0.000000 0.000000
# 3 0.001744 -0.005247 0.031086 0.000000 0.000000 0.000000
# 4 0.000000 0.000000 0.000000 0.039640 0.000000 0.000000
# 5 0.000000 0.000000 0.000000 0.000000 0.073182 0.000000
# 6 0.000000 0.000000 0.000000 0.000000 0.000000 0.017416
#
#
# Mechanical properties :
#
#
# Convention : Reuss Voigt Hill
#
# Bulk Modulus (GPa) = 23.64011 40.78116 32.21063
# Shear Modulus (GPa) = 21.49128 29.85834 25.67481
#
# Velocity S-wave (km/s) = 3.63421 4.28363 3.97221
# Velocity P-wave (km/s) = 5.66904 7.03762 6.39008
#
# Compressibility (1/GPa) = 0.04230098
#
# Stress axis : x y z
#
# Youngs Moduli (GPa) = 42.75169 92.33135 32.16873
#
# Poissons Ratio (x) = 0.73873 -0.05611
# Poissons Ratio (y) = 0.34205 0.16878
# Poissons Ratio (z) = -0.07457 0.48443
#
# Static dielectric constant tensor:
#      x y z
#    x 1.602460 0.000000 0.000000 
#    y 0.000000 1.595680 0.000000 
#    z 0.000000 0.000000 1.554030 
# 
# From -- ./inp_files/3815.got.cif
#   From: 2010.05.17/outbox.cif.g08.bks.cpg/sg49_2_cif.got.tgz:3815.got - 2010.06.03 21:02:19.
