data_PCOD9393116
_publ_section_title
;
Structure prediction by ZEFSAII (Michael W. Deem and Ramdas Pophale) SiO2 
 PCOD9393116
Probable space group: P C C M
;
_chemical_formula_sum "Si O2"
_cell_formula_units_Z 64
_cell_length_a 13.156398
_cell_length_b 15.750030
_cell_length_c 17.555939
_cell_angle_alpha 90.000000
_cell_angle_beta 90.000000
_cell_angle_gamma 90.000000
_cell_volume 3637.830431
_symmetry_space_group_name_H-M "P C C M"
_symmetry_group_IT_number 49
_symmetry_cell_setting 'orthorhombic'
loop_
_space_group_symop_operation_xyz
x,y,z
-x,-y,z
x,-y,1/2-z
-x,y,1/2-z
-x,-y,-z
x,y,-z
-x,y,1/2+z
x,-y,1/2+z
loop_
_atom_site_type_symbol
_atom_site_label
_atom_site_fract_x
_atom_site_fract_y
_atom_site_fract_z
Si Si1 0.625025 0.488258 0.089239
Si Si2 0.754399 0.928971 0.188353
Si Si3 0.890638 0.197505 0.789440
Si Si4 0.548283 0.251865 0.915759
Si Si5 0.106524 0.049464 0.586775
Si Si6 0.588134 0.632791 0.805876
Si Si7 0.567251 0.078762 0.586343
Si Si8 0.720231 0.681741 0.668190
O O1 0.500000 0.500000 0.091707
O O2 0.651121 0.565908 0.144760
O O3 0.682105 0.405719 0.125644
O O4 0.652055 0.494976 0.000000
O O5 0.819349 0.855496 0.229843
O O6 0.656605 0.897585 0.143403
O O7 0.723677 0.000000 0.250000
O O8 0.819287 0.982797 0.127579
O O9 0.902266 0.132983 0.860738
O O10 0.833120 0.283303 0.817283
O O11 0.000000 0.212320 0.750000
O O12 0.474955 0.306461 0.861741
O O13 0.505683 0.158646 0.919102
O O14 0.661010 0.249703 0.882707
O O15 0.547738 0.291723 0.000000
O O16 0.136911 0.069374 0.500000
O O17 0.000000 0.000000 0.585411
O O18 0.500000 0.595242 0.750000
O O19 0.664975 0.679252 0.749728
O O20 0.604843 0.059439 0.500000
O O21 0.500000 0.000000 0.613334
#
# Coordination Sequence:
#
# PCOD9393116 Si02
#       8
#     8   8   8   8   8   8   8   8
#     4  11  20  34  58  89 123 156 188 229 286 360
#     4  10  21  36  56  79 106 151 199 256 297 350
#     4  11  23  41  59  83 119 153 200 263 310 353
#     4  10  20  34  52  77 116 156 194 237 287 352
#     4  10  20  36  62  86 107 148 209 267 312 350
#     4  10  19  33  56  84 119 153 191 231 282 351
#     4  10  22  37  50  74 116 161 200 238 289 361
#     4  11  23  34  56  88 118 154 194 241 299 360
#
# _framework density 17.592904000000001
#
# number of rings (size 3 to 8) (size 9 to 14) (size 15 to 20)
#    0.000    1.625    3.750    2.250    3.500    1.250 
#    0.000    0.000    0.000    2.250    0.000    0.875 
#    0.000    0.000    0.000    0.000    0.000    0.000 
#
# Total GULP energy -356550.995434 kJ/mol
# GULP energy per Si atom -5571.109304 kJ/mol
# Density = 1.755286 g / cm^3
# Si number density = 17.592904 Si / 1000 Ang^3
#
#
#
# Elastic Constant Matrix: (Units=GPa)
#
#
# Indices 1 2 3 4 5 6 
#
# 1 61.3797 33.5583 39.0299 0.0000 0.0000 0.0000
# 2 33.5583 72.6331 33.3633 0.0000 0.0000 0.0000
# 3 39.0299 33.3633 123.9188 0.0000 0.0000 0.0000
# 4 0.0000 0.0000 0.0000 13.7917 0.0000 0.0000
# 5 0.0000 0.0000 0.0000 0.0000 27.8046 0.0000
# 6 0.0000 0.0000 0.0000 0.0000 0.0000 24.9819
#
#
#
# Elastic Compliance Matrix: (Units=1/GPa)
#
#
# Indices 1 2 3 4 5 6 
#
# 1 0.024546 -0.008889 -0.005338 0.000000 0.000000 0.000000
# 2 -0.008889 0.018930 -0.002297 0.000000 0.000000 0.000000
# 3 -0.005338 -0.002297 0.010369 0.000000 0.000000 0.000000
# 4 0.000000 0.000000 0.000000 0.072507 0.000000 0.000000
# 5 0.000000 0.000000 0.000000 0.000000 0.035965 0.000000
# 6 0.000000 0.000000 0.000000 0.000000 0.000000 0.040029
#
#
# Mechanical properties :
#
#
# Convention : Reuss Voigt Hill
#
# Bulk Modulus (GPa) = 48.08188 52.20385 50.14286
# Shear Modulus (GPa) = 20.63324 23.44764 22.04044
#
# Velocity S-wave (km/s) = 3.42836 3.65470 3.54334
# Velocity P-wave (km/s) = 6.56210 6.89542 6.73082
#
# Compressibility (1/GPa) = 0.02079786
#
# Stress axis : x y z
#
# Youngs Moduli (GPa) = 40.73953 52.82665 96.43724
#
# Poissons Ratio (x) = 0.46958 0.51477
# Poissons Ratio (y) = 0.36214 0.22150
# Poissons Ratio (z) = 0.21746 0.12134
#
# Static dielectric constant tensor:
#      x y z
#    x 1.606840 0.000000 0.000000 
#    y 0.000000 1.631660 0.000000 
#    z 0.000000 0.000000 1.642100 
# 
# From -- ./inp_files/17267.got.cif
#   From: 2010.05.17/outbox.cif.g08.bks.cpg/sg49_9_cif.got.tgz:17267.got - 2010.06.03 21:02:19.
