data_PCOD9393156
_publ_section_title
;
Structure prediction by ZEFSAII (Michael W. Deem and Ramdas Pophale) SiO2 
 PCOD9393156
Probable space group: P C C M
;
_chemical_formula_sum "Si O2"
_cell_formula_units_Z 52
_cell_length_a 18.518349
_cell_length_b 16.205611
_cell_length_c 9.633014
_cell_angle_alpha 90.000000
_cell_angle_beta 90.000000
_cell_angle_gamma 90.000000
_cell_volume 2890.878678
_symmetry_space_group_name_H-M "P C C M"
_symmetry_group_IT_number 49
_symmetry_cell_setting 'orthorhombic'
loop_
_space_group_symop_operation_xyz
x,y,z
-x,-y,z
x,-y,1/2-z
-x,y,1/2-z
-x,-y,-z
x,y,-z
-x,y,1/2+z
x,-y,1/2+z
loop_
_atom_site_type_symbol
_atom_site_label
_atom_site_fract_x
_atom_site_fract_y
_atom_site_fract_z
Si Si1 0.929455 0.855178 0.842051
Si Si2 0.430991 0.326732 0.839024
Si Si3 0.291336 0.878338 0.157969
Si Si4 0.571535 0.873107 0.836326
Si Si5 0.203857 0.252992 0.164489
Si Si6 0.282096 0.417278 0.164602
Si Si7 0.826018 0.000000 0.750000
O O1 0.877262 0.777941 0.808859
O O2 0.877637 0.934642 0.825197
O O3 0.000000 0.861972 0.750000
O O4 0.953026 0.848621 0.000000
O O5 0.500000 0.351645 0.750000
O O6 0.423017 0.227341 0.829596
O O7 0.357594 0.372374 0.796550
O O8 0.444145 0.345987 0.000000
O O9 0.358565 0.904219 0.253613
O O10 0.255260 0.800733 0.236725
O O11 0.228603 0.946998 0.156600
O O12 0.314139 0.859858 0.000000
O O13 0.500000 0.896538 0.750000
O O14 0.569408 0.896214 0.000000
O O15 0.220435 0.348596 0.187188
O O16 0.220113 0.234961 0.000000
O O17 0.271919 0.500000 0.250000
O O18 0.285001 0.434810 0.000000
#
# Coordination Sequence:
#
# PCOD9393156 Si02
#       7
#     8   8   8   8   8   8   4
#     4  10  21  37  60  85 113 146 175 213 263 321
#     4   9  18  32  50  72 103 141 180 224 274 326
#     4  11  21  34  56  83 108 141 189 233 271 325
#     4  10  19  34  54  76 105 144 188 234 284 331
#     4   9  19  38  57  76 110 151 182 217 275 331
#     4  10  20  35  53  77 108 144 185 228 276 325
#     4  10  23  38  55  82 118 150 176 212 267 326
#
# _framework density 17.987611000000001
#
# number of rings (size 3 to 8) (size 9 to 14) (size 15 to 20)
#    0.000    2.154    1.538    1.615    0.000    7.692 
#    0.000    1.923    0.000    2.308    0.000    3.231 
#    0.000    0.000    0.000    0.000    0.000    0.000 
#
# Total GULP energy -290177.070433 kJ/mol
# GULP energy per Si atom -5580.328278 kJ/mol
# Density = 1.794667 g / cm^3
# Si number density = 17.987611 Si / 1000 Ang^3
#
#
#
# Elastic Constant Matrix: (Units=GPa)
#
#
# Indices 1 2 3 4 5 6 
#
# 1 127.2062 46.7166 71.8828 0.0000 0.0000 0.0000
# 2 46.7166 92.7739 39.7102 0.0000 0.0000 0.0000
# 3 71.8828 39.7102 99.3453 0.0000 0.0000 0.0000
# 4 0.0000 0.0000 0.0000 -52.8845 0.0000 0.0000
# 5 0.0000 0.0000 0.0000 0.0000 19.4174 0.0000
# 6 0.0000 0.0000 0.0000 0.0000 0.0000 8.7977
#
#
#
# Elastic Compliance Matrix: (Units=1/GPa)
#
#
# Indices 1 2 3 4 5 6 
#
# 1 0.014087 -0.003294 -0.008876 0.000000 0.000000 0.000000
# 2 -0.003294 0.013774 -0.003122 0.000000 0.000000 0.000000
# 3 -0.008876 -0.003122 0.017736 0.000000 0.000000 0.000000
# 4 0.000000 0.000000 0.000000 -0.018909 0.000000 0.000000
# 5 0.000000 0.000000 0.000000 0.000000 0.051500 0.000000
# 6 0.000000 0.000000 0.000000 0.000000 0.000000 0.113666
#
#
# Mechanical properties :
#
#
# Convention : Reuss Voigt Hill
#
# Bulk Modulus (GPa) = 66.61161 70.66049 68.63605
# Shear Modulus (GPa) = 21.98354 5.80052 13.89203
#
# Velocity S-wave (km/s) = 3.49972 1.79770 2.78206
# Velocity P-wave (km/s) = 7.31047 6.60887 6.96851
#
# Compressibility (1/GPa) = 0.01501240
#
# Stress axis : x y z
#
# Youngs Moduli (GPa) = 70.98878 72.59995 56.38198
#
# Poissons Ratio (x) = 0.23916 0.50044
# Poissons Ratio (y) = 0.23385 0.17603
# Poissons Ratio (z) = 0.63009 0.22667
#
# Static dielectric constant tensor:
#      x y z
#    x 1.611360 0.000000 0.000000 
#    y 0.000000 1.625230 0.000000 
#    z 0.000000 0.000000 1.609390 
# 
# From -- ./inp_files/5746.got.cif
#   From: 2010.05.17/outbox.cif.g08.bks.cpg/sg49_3_cif.got.tgz:5746.got - 2010.06.03 21:02:19.
