data_PCOD9393502
_publ_section_title
;
Structure prediction by ZEFSAII (Michael W. Deem and Ramdas Pophale) SiO2 
 PCOD9393502
Probable space group: P C C M
;
_chemical_formula_sum "Si O2"
_cell_formula_units_Z 56
_cell_length_a 23.204340
_cell_length_b 14.720643
_cell_length_c 8.810844
_cell_angle_alpha 90.000000
_cell_angle_beta 90.000000
_cell_angle_gamma 90.000000
_cell_volume 3009.632810
_symmetry_space_group_name_H-M "P C C M"
_symmetry_group_IT_number 49
_symmetry_cell_setting 'orthorhombic'
loop_
_space_group_symop_operation_xyz
x,y,z
-x,-y,z
x,-y,1/2-z
-x,y,1/2-z
-x,-y,-z
x,y,-z
-x,y,1/2+z
x,-y,1/2+z
loop_
_atom_site_type_symbol
_atom_site_label
_atom_site_fract_x
_atom_site_fract_y
_atom_site_fract_z
Si Si1 0.166157 0.707862 0.680349
Si Si2 0.938290 0.400260 0.181209
Si Si3 0.594797 0.406294 0.817082
Si Si4 0.208534 0.908595 0.319459
Si Si5 0.279326 0.647849 0.829323
Si Si6 0.674375 0.145263 0.172187
Si Si7 0.560236 0.211742 0.681581
O O1 0.157094 0.703430 0.500000
O O2 0.112071 0.666902 0.767500
O O3 0.178529 0.813109 0.723688
O O4 0.223599 0.651044 0.724005
O O5 0.925857 0.500000 0.250000
O O6 0.000000 0.371971 0.250000
O O7 0.942062 0.406335 0.000000
O O8 0.570772 0.500000 0.750000
O O9 0.663336 0.404061 0.779860
O O10 0.569247 0.314926 0.743795
O O11 0.588667 0.402121 0.000000
O O12 0.208126 0.914397 0.500000
O O13 0.274296 0.902597 0.261308
O O14 0.182096 0.000000 0.250000
O O15 0.302908 0.750966 0.837593
O O16 0.262733 0.619112 0.000000
O O17 0.613696 0.152300 0.257319
O O18 0.668172 0.110655 0.000000
O O19 0.500000 0.178586 0.750000
O O20 0.559435 0.213086 0.500000
#
# Coordination Sequence:
#
# PCOD9393502 Si02
#       7
#     8   8   8   8   8   8   8
#     4  10  20  34  54  82 114 147 186 228 273 323
#     4  11  22  38  59  82 112 149 191 235 278 322
#     4  10  20  33  47  66  93 126 165 212 267 324
#     4  10  20  34  56  86 118 150 183 223 271 327
#     4   8  16  30  47  68  96 129 165 207 258 313
#     4   9  17  32  52  74 101 131 166 209 258 312
#     4  11  21  34  51  70  93 125 168 214 263 320
#
# _framework density 18.606922000000001
#
# number of rings (size 3 to 8) (size 9 to 14) (size 15 to 20)
#    0.000    2.143    0.000    5.571    0.000    6.571 
#    0.000    2.857    0.000    0.857    0.000    6.000 
#    0.000    0.000    0.000    0.000    0.000    0.000 
#
# Total GULP energy -312522.901715 kJ/mol
# GULP energy per Si atom -5580.766102 kJ/mol
# Density = 1.856457 g / cm^3
# Si number density = 18.606922 Si / 1000 Ang^3
#
#
#
# Elastic Constant Matrix: (Units=GPa)
#
#
# Indices 1 2 3 4 5 6 
#
# 1 115.2060 40.7072 73.7009 0.0000 0.0000 0.0000
# 2 40.7072 47.5462 29.8569 0.0000 0.0000 0.0000
# 3 73.7009 29.8569 108.9491 0.0000 0.0000 0.0000
# 4 0.0000 0.0000 0.0000 28.0465 0.0000 0.0000
# 5 0.0000 0.0000 0.0000 0.0000 30.6970 0.0000
# 6 0.0000 0.0000 0.0000 0.0000 0.0000 12.2828
#
#
#
# Elastic Compliance Matrix: (Units=1/GPa)
#
#
# Indices 1 2 3 4 5 6 
#
# 1 0.018294 -0.009532 -0.009763 0.000000 0.000000 0.000000
# 2 -0.009532 0.030370 -0.001875 0.000000 0.000000 0.000000
# 3 -0.009763 -0.001875 0.016297 0.000000 0.000000 0.000000
# 4 0.000000 0.000000 0.000000 0.035655 0.000000 0.000000
# 5 0.000000 0.000000 0.000000 0.000000 0.032576 0.000000
# 6 0.000000 0.000000 0.000000 0.000000 0.000000 0.081415
#
#
# Mechanical properties :
#
#
# Convention : Reuss Voigt Hill
#
# Bulk Modulus (GPa) = 44.20573 62.24789 53.22681
# Shear Modulus (GPa) = 18.90451 22.70102 20.80277
#
# Velocity S-wave (km/s) = 3.19092 3.49668 3.34730
# Velocity P-wave (km/s) = 6.11435 7.05898 6.60358
#
# Compressibility (1/GPa) = 0.02262150
#
# Stress axis : x y z
#
# Youngs Moduli (GPa) = 54.66326 32.92708 61.36139
#
# Poissons Ratio (x) = 0.31385 0.59908
# Poissons Ratio (y) = 0.52103 0.11505
# Poissons Ratio (z) = 0.53369 0.06174
#
# Static dielectric constant tensor:
#      x y z
#    x 1.636780 0.000000 0.000000 
#    y 0.000000 1.670580 0.000000 
#    z 0.000000 0.000000 1.633430 
# 
# From -- ./inp_files/5798.got.cif
#   From: 2010.05.17/outbox.cif.g08.bks.cpg/sg49_3_cif.got.tgz:5798.got - 2010.06.03 21:02:19.
