data_PCOD9393167
_publ_section_title
;
Structure prediction by ZEFSAII (Michael W. Deem and Ramdas Pophale) SiO2 
 PCOD9393167
Probable space group: P C C M
;
_chemical_formula_sum "Si O2"
_cell_formula_units_Z 64
_cell_length_a 25.156823
_cell_length_b 15.696885
_cell_length_c 8.583367
_cell_angle_alpha 90.000000
_cell_angle_beta 90.000000
_cell_angle_gamma 90.000000
_cell_volume 3389.432214
_symmetry_space_group_name_H-M "P C C M"
_symmetry_group_IT_number 49
_symmetry_cell_setting 'orthorhombic'
loop_
_space_group_symop_operation_xyz
x,y,z
-x,-y,z
x,-y,1/2-z
-x,y,1/2-z
-x,-y,-z
x,y,-z
-x,y,1/2+z
x,-y,1/2+z
loop_
_atom_site_type_symbol
_atom_site_label
_atom_site_fract_x
_atom_site_fract_y
_atom_site_fract_z
Si Si1 0.707764 0.631920 0.185836
Si Si2 0.147343 0.220613 0.188077
Si Si3 0.642924 0.909910 0.812761
Si Si4 0.405056 0.410964 0.316629
Si Si5 0.442964 0.231491 0.186008
Si Si6 0.059658 0.092931 0.313244
Si Si7 0.262628 0.186462 0.685787
Si Si8 0.827466 0.411250 0.313222
O O1 0.657643 0.594441 0.274884
O O2 0.712490 0.731434 0.227430
O O3 0.765183 0.595273 0.233499
O O4 0.700486 0.621208 0.000000
O O5 0.098508 0.166115 0.251275
O O6 0.202033 0.182466 0.256554
O O7 0.146426 0.321123 0.234510
O O8 0.149367 0.217125 0.000000
O O9 0.602880 0.834304 0.764430
O O10 0.700267 0.890935 0.737554
O O11 0.622921 0.000000 0.750000
O O12 0.646981 0.910441 0.000000
O O13 0.426024 0.500000 0.250000
O O14 0.412464 0.409021 0.500000
O O15 0.430459 0.326682 0.243516
O O16 0.500000 0.204457 0.250000
O O17 0.443949 0.232292 0.000000
O O18 0.059147 0.091306 0.500000
O O19 0.000000 0.106651 0.250000
O O20 0.077011 0.000000 0.250000
O O21 0.264235 0.198163 0.500000
O O22 0.849921 0.500000 0.250000
O O23 0.828785 0.413921 0.500000
#
# Coordination Sequence:
#
# PCOD9393167 Si02
#       8
#     8   8   8   8   8   8   8   8
#     4  10  19  34  54  81 117 156 196 239 290 346
#     4  10  21  38  58  86 124 164 204 251 300 352
#     4  11  24  42  65  90 120 154 192 241 295 356
#     4  12  24  38  60  88 118 153 194 239 292 354
#     4  11  25  45  67  88 116 150 191 243 297 353
#     4  11  22  39  63  91 121 158 202 251 304 360
#     4  11  21  35  58  88 121 158 198 240 294 355
#     4   9  19  32  51  79 117 159 199 243 290 343
#
# _framework density 18.882218000000002
#
# number of rings (size 3 to 8) (size 9 to 14) (size 15 to 20)
#    0.000    1.375    1.250    6.375    0.000    6.500 
#    0.000    5.000    0.000    0.375    0.000    2.625 
#    0.000    0.000    0.000    0.000    0.000    0.000 
#
# Total GULP energy -357688.905831 kJ/mol
# GULP energy per Si atom -5588.889154 kJ/mol
# Density = 1.883924 g / cm^3
# Si number density = 18.882218 Si / 1000 Ang^3
#
#
#
# Elastic Constant Matrix: (Units=GPa)
#
#
# Indices 1 2 3 4 5 6 
#
# 1 78.9135 58.2799 23.6194 0.0000 0.0000 0.0000
# 2 58.2799 125.1352 33.8833 0.0000 0.0000 0.0000
# 3 23.6194 33.8833 69.7831 0.0000 0.0000 0.0000
# 4 0.0000 0.0000 0.0000 27.3076 0.0000 0.0000
# 5 0.0000 0.0000 0.0000 0.0000 31.6798 0.0000
# 6 0.0000 0.0000 0.0000 0.0000 0.0000 -9.3984
#
#
#
# Elastic Compliance Matrix: (Units=1/GPa)
#
#
# Indices 1 2 3 4 5 6 
#
# 1 0.019702 -0.008486 -0.002548 0.000000 0.000000 0.000000
# 2 -0.008486 0.012856 -0.003370 0.000000 0.000000 0.000000
# 3 -0.002548 -0.003370 0.016829 0.000000 0.000000 0.000000
# 4 0.000000 0.000000 0.000000 0.036620 0.000000 0.000000
# 5 0.000000 0.000000 0.000000 0.000000 0.031566 0.000000
# 6 0.000000 0.000000 0.000000 0.000000 0.000000 -0.106402
#
#
# Mechanical properties :
#
#
# Convention : Reuss Voigt Hill
#
# Bulk Modulus (GPa) = 48.59403 56.15523 52.37463
# Shear Modulus (GPa) = 106.74896 20.45440 63.60168
#
# Velocity S-wave (km/s) = 7.52707 3.29487 5.81003
# Velocity P-wave (km/s) = 10.06646 6.65426 8.53267
#
# Compressibility (1/GPa) = 0.02057866
#
# Stress axis : x y z
#
# Youngs Moduli (GPa) = 50.75665 77.78432 59.42147
#
# Poissons Ratio (x) = 0.66007 0.15141
# Poissons Ratio (y) = 0.43072 0.20025
# Poissons Ratio (z) = 0.12933 0.26214
#
# Static dielectric constant tensor:
#      x y z
#    x 1.650920 0.000000 0.000000 
#    y 0.000000 1.701240 0.000000 
#    z 0.000000 0.000000 1.628370 
# 
# From -- ./inp_files/6551.got.cif
#   From: 2010.05.17/outbox.cif.g08.bks.cpg/sg49_4_cif.got.tgz:6551.got - 2010.06.03 21:02:19.
