data_PCOD9393868
_publ_section_title
;
Structure prediction by ZEFSAII (Michael W. Deem and Ramdas Pophale) SiO2 
 PCOD9393868
Probable space group: P C C M
;
_chemical_formula_sum "Si O2"
_cell_formula_units_Z 64
_cell_length_a 11.419685
_cell_length_b 15.856070
_cell_length_c 16.804325
_cell_angle_alpha 90.000000
_cell_angle_beta 90.000000
_cell_angle_gamma 90.000000
_cell_volume 3042.781389
_symmetry_space_group_name_H-M "P C C M"
_symmetry_group_IT_number 49
_symmetry_cell_setting 'orthorhombic'
loop_
_space_group_symop_operation_xyz
x,y,z
-x,-y,z
x,-y,1/2-z
-x,y,1/2-z
-x,-y,-z
x,y,-z
-x,y,1/2+z
x,-y,1/2+z
loop_
_atom_site_type_symbol
_atom_site_label
_atom_site_fract_x
_atom_site_fract_y
_atom_site_fract_z
Si Si1 0.495748 0.229308 0.595147
Si Si2 0.227278 0.585720 0.705359
Si Si3 0.759138 0.799277 0.905369
Si Si4 0.258312 0.139356 0.404153
Si Si5 0.474324 0.593194 0.344384
Si Si6 0.888769 0.725745 0.309366
Si Si7 0.065578 0.361126 0.089558
Si Si8 0.126791 0.030626 0.904017
O O1 0.503360 0.227782 0.500000
O O2 0.626631 0.209065 0.627370
O O3 0.391236 0.165746 0.616702
O O4 0.464573 0.325226 0.619325
O O5 0.257309 0.500000 0.750000
O O6 0.335614 0.604959 0.648187
O O7 0.199952 0.663529 0.763474
O O8 0.112441 0.572093 0.652598
O O9 0.844173 0.718342 0.900639
O O10 0.827643 0.880226 0.871464
O O11 0.744605 0.813821 0.000000
O O12 0.240402 0.156774 0.500000
O O13 0.173798 0.194431 0.347940
O O14 0.222506 0.042384 0.392076
O O15 0.500000 0.500000 0.376612
O O16 0.500000 0.593768 0.250000
O O17 0.000000 0.742333 0.250000
O O18 0.941981 0.673402 0.382785
O O19 0.068346 0.390571 0.000000
O O20 0.112429 0.041073 0.000000
O O21 0.000000 0.000000 0.873655
#
# Coordination Sequence:
#
# PCOD9393868 Si02
#       8
#     8   8   8   8   8   8   8   8
#     4  10  21  36  57  88 121 153 192 247 303 353
#     4  11  22  39  59  85 115 148 198 246 295 358
#     4   9  17  32  56  87 119 152 195 240 293 352
#     4  10  20  35  56  87 124 155 196 247 299 351
#     4  11  21  36  60  84 109 151 203 241 288 356
#     4  10  22  37  59  84 116 155 198 246 300 354
#     4  10  20  37  62  86 114 154 199 245 296 354
#     4   9  17  30  54  86 119 156 196 242 292 348
#
# _framework density 21.033387000000001
#
# number of rings (size 3 to 8) (size 9 to 14) (size 15 to 20)
#    0.000    2.000    2.500    1.875    0.000    5.000 
#    0.000    4.375    0.000    8.625    0.000    0.875 
#    0.000    0.000    0.000    0.000    0.000    0.000 
#
# Total GULP energy -357019.813480 kJ/mol
# GULP energy per Si atom -5578.434586 kJ/mol
# Density = 2.098551 g / cm^3
# Si number density = 21.033387 Si / 1000 Ang^3
#
#
#
# Elastic Constant Matrix: (Units=GPa)
#
#
# Indices 1 2 3 4 5 6 
#
# 1 82.8268 29.4684 -1.2160 0.0000 0.0000 0.0000
# 2 29.4684 61.0760 3.2954 0.0000 0.0000 0.0000
# 3 -1.2160 3.2954 23.7454 0.0000 0.0000 0.0000
# 4 0.0000 0.0000 0.0000 16.9827 0.0000 0.0000
# 5 0.0000 0.0000 0.0000 0.0000 22.7269 0.0000
# 6 0.0000 0.0000 0.0000 0.0000 0.0000 31.6311
#
#
#
# Elastic Compliance Matrix: (Units=1/GPa)
#
#
# Indices 1 2 3 4 5 6 
#
# 1 0.014647 -0.007161 0.001744 0.000000 0.000000 0.000000
# 2 -0.007161 0.019998 -0.003142 0.000000 0.000000 0.000000
# 3 0.001744 -0.003142 0.042639 0.000000 0.000000 0.000000
# 4 0.000000 0.000000 0.000000 0.058883 0.000000 0.000000
# 5 0.000000 0.000000 0.000000 0.000000 0.044001 0.000000
# 6 0.000000 0.000000 0.000000 0.000000 0.000000 0.031614
#
#
# Mechanical properties :
#
#
# Convention : Reuss Voigt Hill
#
# Bulk Modulus (GPa) = 16.62096 25.63819 21.12958
# Shear Modulus (GPa) = 20.08396 23.34150 21.71273
#
# Velocity S-wave (km/s) = 3.09343 3.33488 3.21643
# Velocity P-wave (km/s) = 4.54736 5.20042 4.88481
#
# Compressibility (1/GPa) = 0.06016500
#
# Stress axis : x y z
#
# Youngs Moduli (GPa) = 68.27462 50.00592 23.45283
#
# Poissons Ratio (x) = 0.35809 -0.04090
# Poissons Ratio (y) = 0.48891 0.07369
# Poissons Ratio (z) = -0.11906 0.15712
#
# Static dielectric constant tensor:
#      x y z
#    x 1.822690 0.000000 0.000000 
#    y 0.000000 1.776160 0.000000 
#    z 0.000000 0.000000 1.765450 
# 
# From -- ./inp_files/17286.got.cif
#   From: 2010.05.17/outbox.cif.g08.bks.cpg/sg49_9_cif.got.tgz:17286.got - 2010.06.03 21:02:19.
