data_PCOD9393837
_publ_section_title
;
Structure prediction by ZEFSAII (Michael W. Deem and Ramdas Pophale) SiO2 
 PCOD9393837
Probable space group: P C C M
;
_chemical_formula_sum "Si O2"
_cell_formula_units_Z 48
_cell_length_a 9.776120
_cell_length_b 30.853293
_cell_length_c 8.712526
_cell_angle_alpha 90.000000
_cell_angle_beta 90.000000
_cell_angle_gamma 90.000000
_cell_volume 2627.919965
_symmetry_space_group_name_H-M "P C C M"
_symmetry_group_IT_number 49
_symmetry_cell_setting 'orthorhombic'
loop_
_space_group_symop_operation_xyz
x,y,z
-x,-y,z
x,-y,1/2-z
-x,y,1/2-z
-x,-y,-z
x,y,-z
-x,y,1/2+z
x,-y,1/2+z
loop_
_atom_site_type_symbol
_atom_site_label
_atom_site_fract_x
_atom_site_fract_y
_atom_site_fract_z
Si Si1 0.350667 0.198032 0.684260
Si Si2 0.847878 0.125958 0.315961
Si Si3 0.151738 0.374252 0.685103
Si Si4 0.648646 0.047508 0.315929
Si Si5 0.649746 0.547346 0.684572
Si Si6 0.351866 0.298351 0.684809
O O1 0.500000 0.186075 0.750000
O O2 0.353657 0.194950 0.500000
O O3 0.236093 0.166654 0.750975
O O4 0.324969 0.248328 0.727996
O O5 0.852913 0.128616 0.500000
O O6 0.761784 0.082939 0.273825
O O7 0.000000 0.124492 0.250000
O O8 0.144879 0.373412 0.500000
O O9 0.240184 0.416434 0.728952
O O10 0.235599 0.331668 0.736211
O O11 0.000000 0.375419 0.750000
O O12 0.500000 0.060172 0.250000
O O13 0.639092 0.045011 0.500000
O O14 0.681008 0.000000 0.250000
O O15 0.685280 0.500000 0.750000
O O16 0.500000 0.558735 0.750000
O O17 0.641585 0.545236 0.500000
O O18 0.500000 0.310827 0.750000
O O19 0.359251 0.300173 0.500000
#
# Coordination Sequence:
#
# PCOD9393837 Si02
#       6
#     8   8   8   8   8   8
#     4  10  20  36  59  84 111 143 182 227 271 321
#     4  11  24  39  56  81 113 149 185 224 274 327
#     4  10  22  37  53  77 109 143 178 217 265 319
#     4  10  21  37  59  84 109 141 181 225 271 320
#     4  10  20  35  56  80 105 136 176 220 265 315
#     4   9  19  36  57  82 108 138 179 223 267 316
#
# _framework density 18.265395000000002
#
# number of rings (size 3 to 8) (size 9 to 14) (size 15 to 20)
#    0.000    2.000    0.000    4.000    0.000    8.000 
#    0.000    5.000    0.000    0.000    0.000    0.000 
#    0.000    0.000    0.000    0.000    0.000    0.000 
#
# Total GULP energy -268145.238406 kJ/mol
# GULP energy per Si atom -5586.359133 kJ/mol
# Density = 1.822382 g / cm^3
# Si number density = 18.265395 Si / 1000 Ang^3
#
#
#
# Elastic Constant Matrix: (Units=GPa)
#
#
# Indices 1 2 3 4 5 6 
#
# 1 192.7561 133.2407 52.9615 0.0000 0.0000 0.0000
# 2 133.2407 130.4561 47.0071 0.0000 0.0000 0.0000
# 3 52.9615 47.0071 43.0100 0.0000 0.0000 0.0000
# 4 0.0000 0.0000 0.0000 27.6280 0.0000 0.0000
# 5 0.0000 0.0000 0.0000 0.0000 36.4997 0.0000
# 6 0.0000 0.0000 0.0000 0.0000 0.0000 -12.0112
#
#
#
# Elastic Compliance Matrix: (Units=1/GPa)
#
#
# Indices 1 2 3 4 5 6 
#
# 1 0.017943 -0.017098 -0.003407 0.000000 0.000000 0.000000
# 2 -0.017098 0.028939 -0.010574 0.000000 0.000000 0.000000
# 3 -0.003407 -0.010574 0.039002 0.000000 0.000000 0.000000
# 4 0.000000 0.000000 0.000000 0.036195 0.000000 0.000000
# 5 0.000000 0.000000 0.000000 0.000000 0.027397 0.000000
# 6 0.000000 0.000000 0.000000 0.000000 0.000000 -0.083255
#
#
# Mechanical properties :
#
#
# Convention : Reuss Voigt Hill
#
# Bulk Modulus (GPa) = 42.14853 92.51563 67.33208
# Shear Modulus (GPa) = 36.68663 19.29081 27.98872
#
# Velocity S-wave (km/s) = 4.48653 3.25336 3.91875
# Velocity P-wave (km/s) = 7.06854 8.05439 7.57751
#
# Compressibility (1/GPa) = 0.02372562
#
# Stress axis : x y z
#
# Youngs Moduli (GPa) = 55.73117 34.55562 25.63942
#
# Poissons Ratio (x) = 0.59085 0.08736
# Poissons Ratio (y) = 0.95292 0.27110
# Poissons Ratio (z) = 0.18990 0.36538
#
# Static dielectric constant tensor:
#      x y z
#    x 1.584630 0.000000 0.000000 
#    y 0.000000 1.630780 0.000000 
#    z 0.000000 0.000000 1.617330 
# 
# From -- ./inp_files/2026.got.cif
#   From: 2010.05.17/outbox.cif.g08.bks.cpg/sg49_2_cif.got.tgz:2026.got - 2010.06.03 21:02:19.
