data_PCOD9393194
_publ_section_title
;
Structure prediction by ZEFSAII (Michael W. Deem and Ramdas Pophale) SiO2 
 PCOD9393194
Probable space group: P C C M
;
_chemical_formula_sum "Si O2"
_cell_formula_units_Z 64
_cell_length_a 22.945395
_cell_length_b 16.612138
_cell_length_c 8.620057
_cell_angle_alpha 90.000000
_cell_angle_beta 90.000000
_cell_angle_gamma 90.000000
_cell_volume 3285.724955
_symmetry_space_group_name_H-M "P C C M"
_symmetry_group_IT_number 49
_symmetry_cell_setting 'orthorhombic'
loop_
_space_group_symop_operation_xyz
x,y,z
-x,-y,z
x,-y,1/2-z
-x,y,1/2-z
-x,-y,-z
x,y,-z
-x,y,1/2+z
x,-y,1/2+z
loop_
_atom_site_type_symbol
_atom_site_label
_atom_site_fract_x
_atom_site_fract_y
_atom_site_fract_z
Si Si1 0.851295 0.587784 0.313684
Si Si2 0.909555 0.912221 0.813025
Si Si3 0.680406 0.795223 0.821613
Si Si4 0.560002 0.754967 0.315801
Si Si5 0.277992 0.387734 0.178418
Si Si6 0.937254 0.272749 0.312641
Si Si7 0.597208 0.418893 0.183693
Si Si8 0.774889 0.083963 0.312965
O O1 0.872147 0.500000 0.250000
O O2 0.853428 0.587289 0.500000
O O3 0.784229 0.596165 0.255846
O O4 0.888504 0.664675 0.251071
O O5 0.932178 0.822846 0.766081
O O6 0.841757 0.907374 0.764023
O O7 0.931297 0.000000 0.750000
O O8 0.914600 0.916665 0.000000
O O9 0.619651 0.797561 0.732888
O O10 0.708613 0.707083 0.825270
O O11 0.730877 0.849895 0.752985
O O12 0.668492 0.818557 0.000000
O O13 0.500000 0.788738 0.250000
O O14 0.556158 0.752375 0.500000
O O15 0.568929 0.663269 0.253996
O O16 0.334561 0.417967 0.270117
O O17 0.277643 0.417834 0.000000
O O18 0.934421 0.274820 0.500000
O O19 0.000000 0.300388 0.250000
O O20 0.570703 0.500000 0.250000
O O21 0.592461 0.418951 0.000000
O O22 0.775659 0.086666 0.500000
O O23 0.753132 0.000000 0.250000
#
# Coordination Sequence:
#
# PCOD9393194 Si02
#       8
#     8   8   8   8   8   8   8   8
#     4  12  25  41  61  85 113 149 192 240 291 343
#     4   9  19  36  60  89 123 156 188 226 274 333
#     4   9  18  33  54  77 106 142 178 217 267 320
#     4  10  21  35  51  71  97 131 176 221 264 313
#     4  10  19  34  56  81 109 141 177 222 274 329
#     4  11  24  43  63  86 116 152 195 241 285 334
#     4  10  20  33  49  73 103 135 171 214 263 319
#     4   9  17  31  52  81 112 142 172 208 257 315
#
# _framework density 19.478197999999999
#
# number of rings (size 3 to 8) (size 9 to 14) (size 15 to 20)
#    0.000    2.000    0.000    3.750    0.000    6.250 
#    0.000    6.250    0.000    0.375    0.000    2.625 
#    0.000    0.000    0.000    0.000    0.000    0.000 
#
# Total GULP energy -356893.813099 kJ/mol
# GULP energy per Si atom -5576.465830 kJ/mol
# Density = 1.943386 g / cm^3
# Si number density = 19.478198 Si / 1000 Ang^3
#
#
#
# Elastic Constant Matrix: (Units=GPa)
#
#
# Indices 1 2 3 4 5 6 
#
# 1 101.0520 35.8140 20.9245 0.0000 0.0000 0.0000
# 2 35.8140 67.9811 12.3523 0.0000 0.0000 0.0000
# 3 20.9245 12.3523 59.2708 0.0000 0.0000 0.0000
# 4 0.0000 0.0000 0.0000 24.2444 0.0000 0.0000
# 5 0.0000 0.0000 0.0000 0.0000 17.1010 0.0000
# 6 0.0000 0.0000 0.0000 0.0000 0.0000 153.0109
#
#
#
# Elastic Compliance Matrix: (Units=1/GPa)
#
#
# Indices 1 2 3 4 5 6 
#
# 1 0.012732 -0.006123 -0.003219 0.000000 0.000000 0.000000
# 2 -0.006123 0.018233 -0.001638 0.000000 0.000000 0.000000
# 3 -0.003219 -0.001638 0.018350 0.000000 0.000000 0.000000
# 4 0.000000 0.000000 0.000000 0.041247 0.000000 0.000000
# 5 0.000000 0.000000 0.000000 0.000000 0.058476 0.000000
# 6 0.000000 0.000000 0.000000 0.000000 0.000000 0.006535
#
#
# Mechanical properties :
#
#
# Convention : Reuss Voigt Hill
#
# Bulk Modulus (GPa) = 36.55632 40.72062 38.63847
# Shear Modulus (GPa) = 26.78780 49.48546 38.13663
#
# Velocity S-wave (km/s) = 3.71249 5.04586 4.42963
# Velocity P-wave (km/s) = 6.09798 7.40937 6.78543
#
# Compressibility (1/GPa) = 0.02735505
#
# Stress axis : x y z
#
# Youngs Moduli (GPa) = 78.53954 54.84464 54.49728
#
# Poissons Ratio (x) = 0.33581 0.17542
# Poissons Ratio (y) = 0.48089 0.08928
# Poissons Ratio (z) = 0.25281 0.08985
#
# Static dielectric constant tensor:
#      x y z
#    x 1.673670 0.000000 0.000000 
#    y 0.000000 1.727970 0.000000 
#    z 0.000000 0.000000 1.675180 
# 
# From -- ./inp_files/6529.got.cif
#   From: 2010.05.17/outbox.cif.g08.bks.cpg/sg49_4_cif.got.tgz:6529.got - 2010.06.03 21:02:19.
