data_PCOD9393005
_publ_section_title
;
Structure prediction by ZEFSAII (Michael W. Deem and Ramdas Pophale) SiO2 
 PCOD9393005
Probable space group: P C C M
;
_chemical_formula_sum "Si O2"
_cell_formula_units_Z 64
_cell_length_a 20.527261
_cell_length_b 20.510497
_cell_length_c 8.647194
_cell_angle_alpha 90.000000
_cell_angle_beta 90.000000
_cell_angle_gamma 90.000000
_cell_volume 3640.679018
_symmetry_space_group_name_H-M "P C C M"
_symmetry_group_IT_number 49
_symmetry_cell_setting 'orthorhombic'
loop_
_space_group_symop_operation_xyz
x,y,z
-x,-y,z
x,-y,1/2-z
-x,y,1/2-z
-x,-y,-z
x,y,-z
-x,y,1/2+z
x,-y,1/2+z
loop_
_atom_site_type_symbol
_atom_site_label
_atom_site_fract_x
_atom_site_fract_y
_atom_site_fract_z
Si Si1 0.432107 0.708539 0.814559
Si Si2 0.603681 0.568247 0.817299
Si Si3 0.068589 0.292644 0.813946
Si Si4 0.292055 0.752437 0.183681
Si Si5 0.829696 0.184063 0.685971
Si Si6 0.118266 0.567148 0.685666
Si Si7 0.258694 0.397984 0.315642
Si Si8 0.929628 0.072845 0.313676
O O1 0.500000 0.734741 0.750000
O O2 0.424866 0.633573 0.759192
O O3 0.367034 0.746863 0.761422
O O4 0.432598 0.708559 0.000000
O O5 0.578512 0.500000 0.750000
O O6 0.680372 0.572203 0.775028
O O7 0.593733 0.570484 0.000000
O O8 0.126866 0.245892 0.761452
O O9 0.080880 0.367275 0.766088
O O10 0.000000 0.269203 0.750000
O O11 0.067186 0.290680 0.000000
O O12 0.243367 0.804836 0.255731
O O13 0.262943 0.679921 0.211613
O O14 0.293361 0.762425 0.000000
O O15 0.828095 0.184541 0.500000
O O16 0.870681 0.120429 0.733689
O O17 0.089745 0.500000 0.750000
O O18 0.121372 0.564871 0.500000
O O19 0.190792 0.575211 0.754213
O O20 0.266037 0.409471 0.500000
O O21 0.933102 0.071537 0.500000
O O22 0.000000 0.095743 0.250000
O O23 0.919753 0.000000 0.250000
#
# Coordination Sequence:
#
# PCOD9393005 Si02
#       8
#     8   8   8   8   8   8   8   8
#     4  10  21  37  53  75 102 132 170 209 261 319
#     4  11  21  33  49  69  94 126 162 208 260 317
#     4  10  22  37  52  71  95 126 166 213 262 315
#     4   9  19  33  53  78 103 130 167 213 256 305
#     4  10  20  35  55  80 107 137 178 218 257 305
#     4  11  22  35  50  67  90 121 161 211 268 323
#     4  10  19  33  50  71  95 122 160 207 261 319
#     4  10  20  34  54  81 116 154 188 222 257 308
#
# _framework density 17.579136999999999
#
# number of rings (size 3 to 8) (size 9 to 14) (size 15 to 20)
#    0.000    1.875    1.250    4.500    0.000    5.500 
#    0.000    2.500    0.000    0.000    0.000    0.000 
#    0.000    0.500    0.000    5.500    0.000    4.000 
#
# Total GULP energy -357387.455721 kJ/mol
# GULP energy per Si atom -5584.178996 kJ/mol
# Density = 1.753913 g / cm^3
# Si number density = 17.579137 Si / 1000 Ang^3
#
#
#
# Elastic Constant Matrix: (Units=GPa)
#
#
# Indices 1 2 3 4 5 6 
#
# 1 127.7954 49.6473 23.5264 0.0000 0.0000 0.0000
# 2 49.6473 74.8207 24.2690 0.0000 0.0000 0.0000
# 3 23.5264 24.2690 45.9610 0.0000 0.0000 0.0000
# 4 0.0000 0.0000 0.0000 35.2081 0.0000 0.0000
# 5 0.0000 0.0000 0.0000 0.0000 26.4516 0.0000
# 6 0.0000 0.0000 0.0000 0.0000 0.0000 -244.4210
#
#
#
# Elastic Compliance Matrix: (Units=1/GPa)
#
#
# Indices 1 2 3 4 5 6 
#
# 1 0.010706 -0.006427 -0.002086 0.000000 0.000000 0.000000
# 2 -0.006427 0.019986 -0.007263 0.000000 0.000000 0.000000
# 3 -0.002086 -0.007263 0.026661 0.000000 0.000000 0.000000
# 4 0.000000 0.000000 0.000000 0.028403 0.000000 0.000000
# 5 0.000000 0.000000 0.000000 0.000000 0.037805 0.000000
# 6 0.000000 0.000000 0.000000 0.000000 0.000000 -0.004091
#
#
# Mechanical properties :
#
#
# Convention : Reuss Voigt Hill
#
# Bulk Modulus (GPa) = 38.76125 49.27363 44.01744
# Shear Modulus (GPa) = 31.32388 -26.47663 2.42362
#
# Velocity S-wave (km/s) = 4.22581 -3.88511 1.17545
# Velocity P-wave (km/s) = 6.77550 2.82223 5.19001
#
# Compressibility (1/GPa) = 0.02579896
#
# Stress axis : x y z
#
# Youngs Moduli (GPa) = 93.40532 50.03494 37.50823
#
# Poissons Ratio (x) = 0.32159 0.07826
# Poissons Ratio (y) = 0.60034 0.27243
# Poissons Ratio (z) = 0.19488 0.36342
#
# Static dielectric constant tensor:
#      x y z
#    x 1.617000 0.000000 0.000000 
#    y 0.000000 1.601220 0.000000 
#    z 0.000000 0.000000 1.590380 
# 
# From -- ./inp_files/6057.got.cif
#   From: 2010.05.17/outbox.cif.g08.bks.cpg/sg49_4_cif.got.tgz:6057.got - 2010.06.03 21:02:19.
