data_PCOD9393433
_publ_section_title
;
Structure prediction by ZEFSAII (Michael W. Deem and Ramdas Pophale) SiO2 
 PCOD9393433
Probable space group: P C C M
;
_chemical_formula_sum "Si O2"
_cell_formula_units_Z 58
_cell_length_a 18.674493
_cell_length_b 22.343942
_cell_length_c 9.014910
_cell_angle_alpha 90.000000
_cell_angle_beta 90.000000
_cell_angle_gamma 90.000000
_cell_volume 3761.577470
_symmetry_space_group_name_H-M "P C C M"
_symmetry_group_IT_number 49
_symmetry_cell_setting 'orthorhombic'
loop_
_space_group_symop_operation_xyz
x,y,z
-x,-y,z
x,-y,1/2-z
-x,y,1/2-z
-x,-y,-z
x,y,-z
-x,y,1/2+z
x,-y,1/2+z
loop_
_atom_site_type_symbol
_atom_site_label
_atom_site_fract_x
_atom_site_fract_y
_atom_site_fract_z
Si Si1 0.500000 0.500000 0.250000
Si Si2 0.640525 0.558014 0.665883
Si Si3 0.421814 0.201810 0.821526
Si Si4 0.794884 0.748872 0.668561
Si Si5 0.826867 0.063949 0.678710
Si Si6 0.326179 0.318280 0.824532
Si Si7 0.921941 0.830659 0.679685
Si Si8 0.300020 0.870503 0.828578
O O1 0.444495 0.457834 0.336299
O O2 0.671900 0.500000 0.750000
O O3 0.668019 0.561900 0.500000
O O4 0.653086 0.619739 0.748824
O O5 0.500000 0.201551 0.750000
O O6 0.381706 0.264745 0.786134
O O7 0.372896 0.149531 0.750996
O O8 0.424792 0.196144 0.000000
O O9 0.796107 0.725832 0.500000
O O10 0.751900 0.703802 0.771855
O O11 0.873366 0.772015 0.711819
O O12 0.748046 0.810014 0.667949
O O13 0.829824 0.063060 0.500000
O O14 0.881190 0.113248 0.745502
O O15 0.747835 0.083119 0.736119
O O16 0.844427 0.000000 0.750000
O O17 0.327568 0.325529 0.000000
O O18 0.000000 0.825706 0.750000
O O19 0.923579 0.161981 0.000000
O O20 0.310351 0.889342 0.000000
#
# Coordination Sequence:
#
# PCOD9393433 Si02
#       8
#     2   8   8   8   8   8   8   8
#     4   8  22  32  46  60  86 128 164 200 244 292
#     4  10  20  32  46  62  88 123 162 201 242 286
#     4  10  20  31  45  68  93 121 155 198 246 291
#     4   8  16  31  49  68  93 124 157 192 234 278
#     4  11  21  34  52  73  97 127 162 196 229 276
#     4  10  20  31  46  68  93 123 163 201 239 284
#     4  10  20  34  52  76 104 133 160 192 234 281
#     4   9  17  32  50  68  91 120 154 195 240 286
#
# _framework density 15.419064000000001
#
# number of rings (size 3 to 8) (size 9 to 14) (size 15 to 20)
#    0.414    1.931    0.000    4.345    0.966    5.793 
#    0.000    1.379    0.000    0.414    0.000    2.897 
#    0.000    0.552    0.000    5.793    0.000    3.172 
#
# Total GULP energy -323040.235936 kJ/mol
# GULP energy per Si atom -5569.659240 kJ/mol
# Density = 1.538397 g / cm^3
# Si number density = 15.419064 Si / 1000 Ang^3
#
#
#
# Elastic Constant Matrix: (Units=GPa)
#
#
# Indices 1 2 3 4 5 6 
#
# 1 113.3527 42.5289 55.1423 0.0000 0.0000 0.0000
# 2 42.5289 42.6163 31.5808 0.0000 0.0000 0.0000
# 3 55.1423 31.5808 96.6665 0.0000 0.0000 0.0000
# 4 0.0000 0.0000 0.0000 47.7134 0.0000 0.0000
# 5 0.0000 0.0000 0.0000 0.0000 46.9553 0.0000
# 6 0.0000 0.0000 0.0000 0.0000 0.0000 16.9498
#
#
#
# Elastic Compliance Matrix: (Units=1/GPa)
#
#
# Indices 1 2 3 4 5 6 
#
# 1 0.015800 -0.011992 -0.005095 0.000000 0.000000 0.000000
# 2 -0.011992 0.040062 -0.006248 0.000000 0.000000 0.000000
# 3 -0.005095 -0.006248 0.015292 0.000000 0.000000 0.000000
# 4 0.000000 0.000000 0.000000 0.020958 0.000000 0.000000
# 5 0.000000 0.000000 0.000000 0.000000 0.021297 0.000000
# 6 0.000000 0.000000 0.000000 0.000000 0.000000 0.058998
#
#
# Mechanical properties :
#
#
# Convention : Reuss Voigt Hill
#
# Bulk Modulus (GPa) = 40.84083 56.79328 48.81706
# Shear Modulus (GPa) = 22.00334 30.54928 26.27631
#
# Velocity S-wave (km/s) = 3.78169 4.45597 4.13261
# Velocity P-wave (km/s) = 6.75374 7.96162 7.38242
#
# Compressibility (1/GPa) = 0.02448530
#
# Stress axis : x y z
#
# Youngs Moduli (GPa) = 63.29187 24.96121 65.39165
#
# Poissons Ratio (x) = 0.29933 0.33318
# Poissons Ratio (y) = 0.75897 0.40855
# Poissons Ratio (z) = 0.32248 0.15595
#
# Static dielectric constant tensor:
#      x y z
#    x 1.511770 0.000000 0.000000 
#    y 0.000000 1.500510 0.000000 
#    z 0.000000 0.000000 1.525460 
# 
# From -- ./inp_files/4275.got.cif
#   From: 2010.05.17/outbox.cif.g08.bks.cpg/sg49_3_cif.got.tgz:4275.got - 2010.06.03 21:02:19.
