data_PCOD9393732
_publ_section_title
;
Structure prediction by ZEFSAII (Michael W. Deem and Ramdas Pophale) SiO2 
 PCOD9393732
Probable space group: P C C M
;
_chemical_formula_sum "Si O2"
_cell_formula_units_Z 48
_cell_length_a 11.054354
_cell_length_b 12.024059
_cell_length_c 15.040078
_cell_angle_alpha 90.000000
_cell_angle_beta 90.000000
_cell_angle_gamma 90.000000
_cell_volume 1999.100166
_symmetry_space_group_name_H-M "P C C M"
_symmetry_group_IT_number 49
_symmetry_cell_setting 'orthorhombic'
loop_
_space_group_symop_operation_xyz
x,y,z
-x,-y,z
x,-y,1/2-z
-x,y,1/2-z
-x,-y,-z
x,y,-z
-x,y,1/2+z
x,-y,1/2+z
loop_
_atom_site_type_symbol
_atom_site_label
_atom_site_fract_x
_atom_site_fract_y
_atom_site_fract_z
Si Si1 0.211149 0.371027 0.652186
Si Si2 0.414489 0.184685 0.105796
Si Si3 0.824122 0.950040 0.109011
Si Si4 0.978567 0.243565 0.600719
Si Si5 0.742023 0.619467 0.861408
Si Si6 0.324516 0.852206 0.102778
O O1 0.243518 0.375937 0.755514
O O2 0.238542 0.491724 0.612111
O O3 0.289495 0.275681 0.607314
O O4 0.074391 0.324646 0.646401
O O5 0.297774 0.116282 0.136862
O O6 0.381542 0.314580 0.118502
O O7 0.541690 0.142128 0.143804
O O8 0.419900 0.166968 0.000000
O O9 0.938532 0.876609 0.139447
O O10 0.786715 0.073826 0.138650
O O11 0.836885 0.947604 0.000000
O O12 0.024919 0.226163 0.500000
O O13 0.851937 0.309731 0.597930
O O14 0.335652 0.887773 0.000000
#
# Coordination Sequence:
#
# PCOD9393732 Si02
#       6
#     8   8   8   8   8   8
#     4  11  23  36  53  80 114 151 188 230 287 344
#     4   9  18  35  59  82 107 146 194 238 279 329
#     4   8  16  33  57  84 112 142 178 226 284 341
#     4  10  20  36  60  85 109 142 186 233 281 340
#     4  10  22  39  55  75 110 153 194 236 281 333
#     4  10  20  34  56  86 115 144 184 233 283 340
#
# _framework density 24.010802000000002
#
# number of rings (size 3 to 8) (size 9 to 14) (size 15 to 20)
#    0.000    2.333    0.000    3.500    0.000    8.667 
#    0.000    9.167    0.000    8.000    0.000    0.000 
#    0.000    0.000    0.000    0.000    0.000    0.000 
#
# Total GULP energy -267994.890732 kJ/mol
# GULP energy per Si atom -5583.226890 kJ/mol
# Density = 2.395615 g / cm^3
# Si number density = 24.010802 Si / 1000 Ang^3
#
#
#
# Elastic Constant Matrix: (Units=GPa)
#
#
# Indices 1 2 3 4 5 6 
#
# 1 105.1892 37.8584 -0.1263 0.0000 0.0000 0.0000
# 2 37.8584 155.9088 2.8347 0.0000 0.0000 0.0000
# 3 -0.1263 2.8347 43.6987 0.0000 0.0000 0.0000
# 4 0.0000 0.0000 0.0000 30.0801 0.0000 0.0000
# 5 0.0000 0.0000 0.0000 0.0000 12.0912 0.0000
# 6 0.0000 0.0000 0.0000 0.0000 0.0000 23.8877
#
#
#
# Elastic Compliance Matrix: (Units=1/GPa)
#
#
# Indices 1 2 3 4 5 6 
#
# 1 0.010419 -0.002533 0.000194 0.000000 0.000000 0.000000
# 2 -0.002533 0.007038 -0.000464 0.000000 0.000000 0.000000
# 3 0.000194 -0.000464 0.022915 0.000000 0.000000 0.000000
# 4 0.000000 0.000000 0.000000 0.033245 0.000000 0.000000
# 5 0.000000 0.000000 0.000000 0.000000 0.082705 0.000000
# 6 0.000000 0.000000 0.000000 0.000000 0.000000 0.041863
#
#
# Mechanical properties :
#
#
# Convention : Reuss Voigt Hill
#
# Bulk Modulus (GPa) = 28.76434 42.88116 35.82275
# Shear Modulus (GPa) = 23.21507 30.82710 27.02109
#
# Velocity S-wave (km/s) = 3.11281 3.58702 3.35830
# Velocity P-wave (km/s) = 4.99251 5.92060 5.47625
#
# Compressibility (1/GPa) = 0.03476526
#
# Stress axis : x y z
#
# Youngs Moduli (GPa) = 95.98103 142.09348 43.64025
#
# Poissons Ratio (x) = 0.35999 -0.00849
# Poissons Ratio (y) = 0.24316 0.02024
# Poissons Ratio (z) = -0.01866 0.06591
#
# Static dielectric constant tensor:
#      x y z
#    x 1.948440 0.000000 0.000000 
#    y 0.000000 1.959250 0.000000 
#    z 0.000000 0.000000 1.938010 
# 
# From -- ./inp_files/17100.got.cif
#   From: 2010.05.17/outbox.cif.g08.bks.cpg/sg49_9_cif.got.tgz:17100.got - 2010.06.03 21:02:19.
