data_PCOD9393961
_publ_section_title
;
Structure prediction by ZEFSAII (Michael W. Deem and Ramdas Pophale) SiO2 
 PCOD9393961
Probable space group: P C C M
;
_chemical_formula_sum "Si O2"
_cell_formula_units_Z 40
_cell_length_a 26.117246
_cell_length_b 9.736858
_cell_length_c 8.586453
_cell_angle_alpha 90.000000
_cell_angle_beta 90.000000
_cell_angle_gamma 90.000000
_cell_volume 2183.534274
_symmetry_space_group_name_H-M "P C C M"
_symmetry_group_IT_number 49
_symmetry_cell_setting 'orthorhombic'
loop_
_space_group_symop_operation_xyz
x,y,z
-x,-y,z
x,-y,1/2-z
-x,y,1/2-z
-x,-y,-z
x,y,-z
-x,y,1/2+z
x,-y,1/2+z
loop_
_atom_site_type_symbol
_atom_site_label
_atom_site_fract_x
_atom_site_fract_y
_atom_site_fract_z
Si Si1 0.850568 0.153970 0.687758
Si Si2 0.243764 0.346688 0.187620
Si Si3 0.445013 0.154536 0.813611
Si Si4 0.056500 0.651738 0.312696
Si Si5 0.644553 0.653771 0.686388
O O1 0.850824 0.149400 0.500000
O O2 0.800698 0.241611 0.734992
O O3 0.901089 0.238102 0.737108
O O4 0.849764 0.000000 0.750000
O O5 0.232640 0.500000 0.250000
O O6 0.299017 0.304555 0.254176
O O7 0.246474 0.352207 0.000000
O O8 0.500000 0.204574 0.750000
O O9 0.399112 0.247794 0.752243
O O10 0.438436 0.000000 0.750000
O O11 0.446021 0.152451 0.000000
O O12 0.069849 0.500000 0.250000
O O13 0.055035 0.646156 0.500000
O O14 0.000000 0.685687 0.250000
O O15 0.636030 0.500000 0.750000
O O16 0.643797 0.652914 0.500000
#
# Coordination Sequence:
#
# PCOD9393961 Si02
#       5
#     8   8   8   8   8
#     4  10  23  38  55  80 112 145 183 225 274 328
#     4  10  20  37  58  82 109 143 184 229 276 331
#     4  11  22  39  60  85 115 151 190 231 278 334
#     4  10  20  36  57  83 109 142 183 226 271 325
#     4  11  22  38  59  86 115 148 187 233 282 332
#
# _framework density 18.318925
#
# number of rings (size 3 to 8) (size 9 to 14) (size 15 to 20)
#    0.000    1.600    0.000    7.800    0.000    4.800 
#    0.000    6.000    0.000    0.000    0.000    0.000 
#    0.000    0.000    0.000    0.000    0.000    0.000 
#
# Total GULP energy -223556.392115 kJ/mol
# GULP energy per Si atom -5588.909803 kJ/mol
# Density = 1.827723 g / cm^3
# Si number density = 18.318925 Si / 1000 Ang^3
#
#
#
# Elastic Constant Matrix: (Units=GPa)
#
#
# Indices 1 2 3 4 5 6 
#
# 1 184.7526 136.2894 65.1213 0.0000 0.0000 0.0000
# 2 136.2894 127.6237 51.2711 0.0000 0.0000 0.0000
# 3 65.1213 51.2711 124.1584 0.0000 0.0000 0.0000
# 4 0.0000 0.0000 0.0000 35.9767 0.0000 0.0000
# 5 0.0000 0.0000 0.0000 0.0000 29.5107 0.0000
# 6 0.0000 0.0000 0.0000 0.0000 0.0000 112.1379
#
#
#
# Elastic Compliance Matrix: (Units=1/GPa)
#
#
# Indices 1 2 3 4 5 6 
#
# 1 0.026198 -0.026923 -0.002623 0.000000 0.000000 0.000000
# 2 -0.026923 0.037062 -0.001184 0.000000 0.000000 0.000000
# 3 -0.002623 -0.001184 0.009919 0.000000 0.000000 0.000000
# 4 0.000000 0.000000 0.000000 0.027796 0.000000 0.000000
# 5 0.000000 0.000000 0.000000 0.000000 0.033886 0.000000
# 6 0.000000 0.000000 0.000000 0.000000 0.000000 0.008918
#
#
# Mechanical properties :
#
#
# Convention : Reuss Voigt Hill
#
# Bulk Modulus (GPa) = 85.32756 104.65538 94.99147
# Shear Modulus (GPa) = 23.90696 47.78192 35.84444
#
# Velocity S-wave (km/s) = 3.61646 5.11273 4.42825
# Velocity P-wave (km/s) = 8.00739 9.59724 8.83814
#
# Compressibility (1/GPa) = 0.01171954
#
# Stress axis : x y z
#
# Youngs Moduli (GPa) = 38.17094 26.98170 100.81891
#
# Poissons Ratio (x) = 0.72643 0.26445
# Poissons Ratio (y) = 1.02768 0.11933
# Poissons Ratio (z) = 0.10012 0.03194
#
# Static dielectric constant tensor:
#      x y z
#    x 1.623220 0.000000 0.000000 
#    y 0.000000 1.598220 0.000000 
#    z 0.000000 0.000000 1.617350 
# 
# From -- ./inp_files/1912.got.cif
#   From: 2010.05.17/outbox.cif.g08.bks.cpg/sg49_1_cif.got.tgz:1912.got - 2010.06.03 21:02:19.
