data_PCOD9393029
_publ_section_title
;
Structure prediction by ZEFSAII (Michael W. Deem and Ramdas Pophale) SiO2 
 PCOD9393029
Probable space group: P C C M
;
_chemical_formula_sum "Si O2"
_cell_formula_units_Z 56
_cell_length_a 31.801420
_cell_length_b 5.141406
_cell_length_c 16.528621
_cell_angle_alpha 90.000000
_cell_angle_beta 90.000000
_cell_angle_gamma 90.000000
_cell_volume 2702.495840
_symmetry_space_group_name_H-M "P C C M"
_symmetry_group_IT_number 49
_symmetry_cell_setting 'orthorhombic'
loop_
_space_group_symop_operation_xyz
x,y,z
-x,-y,z
x,-y,1/2-z
-x,y,1/2-z
-x,-y,-z
x,y,-z
-x,y,1/2+z
x,-y,1/2+z
loop_
_atom_site_type_symbol
_atom_site_label
_atom_site_fract_x
_atom_site_fract_y
_atom_site_fract_z
Si Si1 0.268965 0.602858 0.840285
Si Si2 0.405794 0.924300 0.657081
Si Si3 0.175662 0.312704 0.596074
Si Si4 0.451049 0.431169 0.404795
Si Si5 0.687886 0.902458 0.092487
Si Si6 0.973037 0.742844 0.097707
Si Si7 0.878900 0.170237 0.403339
O O1 0.272761 0.500000 0.750000
O O2 0.220384 0.637262 0.863737
O O3 0.292697 0.382576 0.892775
O O4 0.290171 0.881961 0.852161
O O5 0.425590 0.640174 0.647265
O O6 0.361484 0.915301 0.611125
O O7 0.398692 0.000000 0.750000
O O8 0.437086 0.141275 0.619709
O O9 0.183518 0.270654 0.500000
O O10 0.147020 0.566252 0.605185
O O11 0.149091 0.067776 0.628711
O O12 0.500000 0.500000 0.393400
O O13 0.441356 0.468329 0.500000
O O14 0.695945 0.977700 0.000000
O O15 0.925867 0.786640 0.129560
O O16 0.000000 0.500000 0.129379
O O17 0.968794 0.702581 0.000000
O O18 0.000000 0.000000 0.110461
O O19 0.883825 0.115480 0.500000
#
# Coordination Sequence:
#
# PCOD9393029 Si02
#       7
#     8   8   8   8   8   8   8
#     4  12  25  42  63  91 123 155 198 254 309 359
#     4  12  25  42  65  95 129 163 204 256 310 362
#     4  10  19  33  52  75 106 146 190 232 284 348
#     4  11  24  43  66  93 127 168 212 255 303 363
#     4  12  25  44  67  91 122 162 205 246 301 370
#     4   9  15  23  37  61  97 138 177 222 281 338
#     4   9  17  28  45  70 102 142 187 232 279 341
#
# _framework density 20.721587
#
# number of rings (size 3 to 8) (size 9 to 14) (size 15 to 20)
#    0.000    1.286    0.000    7.286    0.000    7.429 
#    0.000    0.000    0.000    0.000    0.000    0.000 
#    0.000    8.571    0.000    0.000    0.000    0.000 
#
# Total GULP energy -313156.286428 kJ/mol
# GULP energy per Si atom -5592.076543 kJ/mol
# Density = 2.067442 g / cm^3
# Si number density = 20.721587 Si / 1000 Ang^3
#
#
#
# Elastic Constant Matrix: (Units=GPa)
#
#
# Indices 1 2 3 4 5 6 
#
# 1 94.1791 -1.0948 11.9418 0.0000 0.0000 0.0000
# 2 -1.0948 56.5204 12.5391 0.0000 0.0000 0.0000
# 3 11.9418 12.5391 30.6696 0.0000 0.0000 0.0000
# 4 0.0000 0.0000 0.0000 22.3250 0.0000 0.0000
# 5 0.0000 0.0000 0.0000 0.0000 25.0084 0.0000
# 6 0.0000 0.0000 0.0000 0.0000 0.0000 37.5740
#
#
#
# Elastic Compliance Matrix: (Units=1/GPa)
#
#
# Indices 1 2 3 4 5 6 
#
# 1 0.011257 0.001309 -0.004918 0.000000 0.000000 0.000000
# 2 0.001309 0.019610 -0.008527 0.000000 0.000000 0.000000
# 3 -0.004918 -0.008527 0.038007 0.000000 0.000000 0.000000
# 4 0.000000 0.000000 0.000000 0.044793 0.000000 0.000000
# 5 0.000000 0.000000 0.000000 0.000000 0.039987 0.000000
# 6 0.000000 0.000000 0.000000 0.000000 0.000000 0.026614
#
#
# Mechanical properties :
#
#
# Convention : Reuss Voigt Hill
#
# Bulk Modulus (GPa) = 22.42100 25.34903 23.88501
# Shear Modulus (GPa) = 22.78871 27.51368 25.15119
#
# Velocity S-wave (km/s) = 3.31986 3.64782 3.48770
# Velocity P-wave (km/s) = 5.05360 5.47739 5.26976
#
# Compressibility (1/GPa) = 0.04460105
#
# Stress axis : x y z
#
# Youngs Moduli (GPa) = 88.83415 50.99477 26.31102
#
# Poissons Ratio (x) = -0.06676 0.12941
# Poissons Ratio (y) = -0.11630 0.22436
# Poissons Ratio (z) = 0.43692 0.43484
#
# Static dielectric constant tensor:
#      x y z
#    x 1.729920 0.000000 0.000000 
#    y 0.000000 2.257080 0.000000 
#    z 0.000000 0.000000 1.750930 
# 
# From -- ./inp_files/14628.got.cif
#   From: 2010.05.17/outbox.cif.g08.bks.cpg/sg49_8_cif.got.tgz:14628.got - 2010.06.03 21:02:19.
