data_PCOD9393843
_publ_section_title
;
Structure prediction by ZEFSAII (Michael W. Deem and Ramdas Pophale) SiO2 
 PCOD9393843
Probable space group: P C C M
;
_chemical_formula_sum "Si O2"
_cell_formula_units_Z 58
_cell_length_a 19.430061
_cell_length_b 19.375426
_cell_length_c 9.022642
_cell_angle_alpha 90.000000
_cell_angle_beta 90.000000
_cell_angle_gamma 90.000000
_cell_volume 3396.715318
_symmetry_space_group_name_H-M "P C C M"
_symmetry_group_IT_number 49
_symmetry_cell_setting 'orthorhombic'
loop_
_space_group_symop_operation_xyz
x,y,z
-x,-y,z
x,-y,1/2-z
-x,y,1/2-z
-x,-y,-z
x,y,-z
-x,y,1/2+z
x,-y,1/2+z
loop_
_atom_site_type_symbol
_atom_site_label
_atom_site_fract_x
_atom_site_fract_y
_atom_site_fract_z
Si Si1 0.321811 0.574657 0.823778
Si Si2 0.256179 0.072243 0.676030
Si Si3 0.884352 0.892894 0.832925
Si Si4 0.425444 0.683118 0.676881
Si Si5 0.072803 0.734302 0.323708
Si Si6 0.688819 0.205711 0.676369
Si Si7 0.000000 0.000000 0.750000
Si Si8 0.792577 0.313762 0.176001
O O1 0.320256 0.500000 0.750000
O O2 0.380563 0.621881 0.749246
O O3 0.250081 0.615847 0.801640
O O4 0.334053 0.569703 0.000000
O O5 0.261577 0.069716 0.500000
O O6 0.176720 0.087143 0.722289
O O7 0.302351 0.133083 0.743656
O O8 0.275143 0.000000 0.750000
O O9 0.910499 0.815792 0.799006
O O10 0.947093 0.947288 0.828994
O O11 0.855217 0.892880 0.000000
O O12 0.500000 0.685961 0.750000
O O13 0.430206 0.672732 0.500000
O O14 0.382164 0.753394 0.703195
O O15 0.071377 0.723477 0.500000
O O16 0.132688 0.689963 0.247916
O O17 0.000000 0.719069 0.250000
O O18 0.698408 0.198853 0.500000
O O19 0.748102 0.254602 0.743547
O O20 0.795863 0.299953 0.000000
#
# Coordination Sequence:
#
# PCOD9393843 Si02
#       8
#     8   8   8   8   8   8   2   8
#     4  10  21  37  59  88 121 154 189 226 268 327
#     4  12  24  36  54  76 104 140 183 234 285 335
#     4  11  23  35  49  71 100 137 182 227 278 337
#     4  10  21  37  60  89 122 156 188 225 268 323
#     4  11  22  35  52  75 105 140 185 236 284 335
#     4  10  20  36  57  81 110 145 187 231 278 329
#     4  12  22  36  52  66 106 148 186 224 286 348
#     4  10  20  35  56  81 109 144 187 231 279 332
#
# _framework density 17.075320000000001
#
# number of rings (size 3 to 8) (size 9 to 14) (size 15 to 20)
#    0.000    1.379    2.759    3.517    0.000    4.690 
#    0.000    1.379    0.000    0.828    0.000    5.793 
#    0.000    0.000    0.000    0.000    0.000    0.000 
#
# Total GULP energy -323955.230077 kJ/mol
# GULP energy per Si atom -5585.435001 kJ/mol
# Density = 1.703646 g / cm^3
# Si number density = 17.075320 Si / 1000 Ang^3
#
#
#
# Elastic Constant Matrix: (Units=GPa)
#
#
# Indices 1 2 3 4 5 6 
#
# 1 132.5833 76.7681 84.2236 0.0000 0.0000 0.0000
# 2 76.7681 121.6229 86.5828 0.0000 0.0000 0.0000
# 3 84.2236 86.5828 140.9265 0.0000 0.0000 0.0000
# 4 0.0000 0.0000 0.0000 23.9938 0.0000 0.0000
# 5 0.0000 0.0000 0.0000 0.0000 29.2419 0.0000
# 6 0.0000 0.0000 0.0000 0.0000 0.0000 13.1456
#
#
#
# Elastic Compliance Matrix: (Units=1/GPa)
#
#
# Indices 1 2 3 4 5 6 
#
# 1 0.013680 -0.005003 -0.005102 0.000000 0.000000 0.000000
# 2 -0.005003 0.016443 -0.007113 0.000000 0.000000 0.000000
# 3 -0.005102 -0.007113 0.014515 0.000000 0.000000 0.000000
# 4 0.000000 0.000000 0.000000 0.041677 0.000000 0.000000
# 5 0.000000 0.000000 0.000000 0.000000 0.034197 0.000000
# 6 0.000000 0.000000 0.000000 0.000000 0.000000 0.076071
#
#
# Mechanical properties :
#
#
# Convention : Reuss Voigt Hill
#
# Bulk Modulus (GPa) = 98.00661 98.92016 98.46338
# Shear Modulus (GPa) = 21.32910 23.11347 22.22128
#
# Velocity S-wave (km/s) = 3.53812 3.68315 3.61136
# Velocity P-wave (km/s) = 8.61466 8.72610 8.67056
#
# Compressibility (1/GPa) = 0.01020339
#
# Stress axis : x y z
#
# Youngs Moduli (GPa) = 73.09752 60.81519 68.89318
#
# Poissons Ratio (x) = 0.30423 0.35152
# Poissons Ratio (y) = 0.36568 0.49001
# Poissons Ratio (z) = 0.37298 0.43256
#
# Static dielectric constant tensor:
#      x y z
#    x 1.563770 0.000000 0.000000 
#    y 0.000000 1.568860 0.000000 
#    z 0.000000 0.000000 1.542060 
# 
# From -- ./inp_files/5073.got.cif
#   From: 2010.05.17/outbox.cif.g08.bks.cpg/sg49_3_cif.got.tgz:5073.got - 2010.06.03 21:02:19.
