data_PCOD9393942
_publ_section_title
;
Structure prediction by ZEFSAII (Michael W. Deem and Ramdas Pophale) SiO2 
 PCOD9393942
Probable space group: P C C M
;
_chemical_formula_sum "Si O2"
_cell_formula_units_Z 64
_cell_length_a 9.729303
_cell_length_b 19.192055
_cell_length_c 14.910755
_cell_angle_alpha 90.000000
_cell_angle_beta 90.000000
_cell_angle_gamma 90.000000
_cell_volume 2784.215473
_symmetry_space_group_name_H-M "P C C M"
_symmetry_group_IT_number 49
_symmetry_cell_setting 'orthorhombic'
loop_
_space_group_symop_operation_xyz
x,y,z
-x,-y,z
x,-y,1/2-z
-x,y,1/2-z
-x,-y,-z
x,y,-z
-x,y,1/2+z
x,-y,1/2+z
loop_
_atom_site_type_symbol
_atom_site_label
_atom_site_fract_x
_atom_site_fract_y
_atom_site_fract_z
Si Si1 0.614428 0.455559 0.343812
Si Si2 0.424682 0.926226 0.103988
Si Si3 0.662130 0.825625 0.899183
Si Si4 0.497934 0.700827 0.150538
Si Si5 0.818193 0.684637 0.607200
Si Si6 0.866213 0.530579 0.604842
Si Si7 0.964567 0.798178 0.893049
Si Si8 0.115409 0.945175 0.893421
O O1 0.500000 0.500000 0.394948
O O2 0.630444 0.500000 0.250000
O O3 0.560069 0.377321 0.341950
O O4 0.756774 0.469091 0.389951
O O5 0.540401 0.873288 0.141629
O O6 0.271721 0.938926 0.143604
O O7 0.500000 0.000000 0.102871
O O8 0.401099 0.901977 0.000000
O O9 0.596819 0.749267 0.905656
O O10 0.811945 0.814258 0.855171
O O11 0.687101 0.855490 0.000000
O O12 0.500000 0.730296 0.250000
O O13 0.340207 0.705058 0.121387
O O14 0.835687 0.685036 0.500000
O O15 0.826277 0.605584 0.643933
O O16 0.938312 0.735610 0.642596
O O17 0.891255 0.544836 0.500000
O O18 0.000000 0.500000 0.648646
O O19 0.050276 0.868945 0.885171
O O20 0.943091 0.784182 0.000000
O O21 0.131657 0.962779 0.000000
O O22 0.000000 0.000000 0.858780
#
# Coordination Sequence:
#
# PCOD9393942 Si02
#       8
#     8   8   8   8   8   8   8   8
#     4  11  21  41  59  78 105 142 185 231 277 335
#     4   9  16  28  49  80 116 148 185 227 267 322
#     4  10  21  35  55  84 112 146 187 230 279 331
#     4  12  23  38  58  79 108 142 184 233 281 332
#     4  10  20  36  55  78 108 143 177 220 278 336
#     4  10  22  36  55  83 111 137 175 225 278 335
#     4   9  18  32  50  75 110 144 179 220 269 328
#     4   9  15  24  42  70 107 148 180 215 266 317
#
# _framework density 22.986726999999998
#
# number of rings (size 3 to 8) (size 9 to 14) (size 15 to 20)
#    0.000    2.000    2.500    1.875    1.750    6.500 
#    0.000    0.625    0.000    0.375    0.000    0.000 
#    0.000    1.000    0.000    0.000    0.000    0.000 
#
# Total GULP energy -356678.171032 kJ/mol
# GULP energy per Si atom -5573.096422 kJ/mol
# Density = 2.293441 g / cm^3
# Si number density = 22.986727 Si / 1000 Ang^3
#
#
#
# Elastic Constant Matrix: (Units=GPa)
#
#
# Indices 1 2 3 4 5 6 
#
# 1 216.7917 57.4827 5.1225 0.0000 0.0000 0.0000
# 2 57.4827 95.6389 11.9776 0.0000 0.0000 0.0000
# 3 5.1225 11.9776 39.8041 0.0000 0.0000 0.0000
# 4 0.0000 0.0000 0.0000 5.5412 0.0000 0.0000
# 5 0.0000 0.0000 0.0000 0.0000 -13.5351 0.0000
# 6 0.0000 0.0000 0.0000 0.0000 0.0000 49.3297
#
#
#
# Elastic Compliance Matrix: (Units=1/GPa)
#
#
# Indices 1 2 3 4 5 6 
#
# 1 0.005491 -0.003337 0.000298 0.000000 0.000000 0.000000
# 2 -0.003337 0.012894 -0.003450 0.000000 0.000000 0.000000
# 3 0.000298 -0.003450 0.026123 0.000000 0.000000 0.000000
# 4 0.000000 0.000000 0.000000 0.180465 0.000000 0.000000
# 5 0.000000 0.000000 0.000000 0.000000 -0.073882 0.000000
# 6 0.000000 0.000000 0.000000 0.000000 0.000000 0.020272
#
#
# Mechanical properties :
#
#
# Convention : Reuss Voigt Hill
#
# Bulk Modulus (GPa) = 31.71858 55.71113 43.71486
# Shear Modulus (GPa) = 25.66053 26.77730 26.21892
#
# Velocity S-wave (km/s) = 3.34476 3.41677 3.38096
# Velocity P-wave (km/s) = 5.36145 6.31305 5.85661
#
# Compressibility (1/GPa) = 0.03152726
#
# Stress axis : x y z
#
# Youngs Moduli (GPa) = 182.12974 77.55552 38.28045
#
# Poissons Ratio (x) = 0.25883 -0.01139
# Poissons Ratio (y) = 0.60783 0.13209
# Poissons Ratio (z) = -0.05421 0.26760
#
# Static dielectric constant tensor:
#      x y z
#    x 2.088660 0.000000 0.000000 
#    y 0.000000 1.839330 0.000000 
#    z 0.000000 0.000000 1.925420 
# 
# From -- ./inp_files/19993.got.cif
#   From: 2010.05.17/outbox.cif.g08.bks.cpg/sg49_10_cif.got.tgz:19993.got - 2010.06.03 21:02:19.
