data_PCOD9393804
_publ_section_title
;
Structure prediction by ZEFSAII (Michael W. Deem and Ramdas Pophale) SiO2 
 PCOD9393804
Probable space group: P C C M
;
_chemical_formula_sum "Si O2"
_cell_formula_units_Z 32
_cell_length_a 17.913244
_cell_length_b 7.219476
_cell_length_c 10.939510
_cell_angle_alpha 90.000000
_cell_angle_beta 90.000000
_cell_angle_gamma 90.000000
_cell_volume 1414.743764
_symmetry_space_group_name_H-M "P C C M"
_symmetry_group_IT_number 49
_symmetry_cell_setting 'orthorhombic'
loop_
_space_group_symop_operation_xyz
x,y,z
-x,-y,z
x,-y,1/2-z
-x,y,1/2-z
-x,-y,-z
x,y,-z
-x,y,1/2+z
x,-y,1/2+z
loop_
_atom_site_type_symbol
_atom_site_label
_atom_site_fract_x
_atom_site_fract_y
_atom_site_fract_z
Si Si1 0.853306 0.794535 0.264607
Si Si2 0.534511 0.290658 0.869085
Si Si3 0.069925 0.241770 0.500000
Si Si4 0.895195 0.798983 0.000000
Si Si5 0.710392 0.647474 0.641190
O O1 0.898897 0.687614 0.369851
O O2 0.856063 0.730068 0.124349
O O3 0.770244 0.802792 0.321036
O O4 0.886931 0.000000 0.250000
O O5 0.500000 0.500000 0.872512
O O6 0.500000 0.201808 0.750000
O O7 0.623586 0.298335 0.856084
O O8 0.515122 0.207657 0.000000
O O9 0.981487 0.259828 0.500000
O O10 0.098360 0.025420 0.500000
O O11 0.721197 0.500000 0.750000
O O12 0.725041 0.588833 0.500000
#
# Coordination Sequence:
#
# PCOD9393804 Si02
#       5
#     8   8   4   4   8
#     4  10  20  35  54  82 113 141 178 228 277 325
#     4   9  16  30  50  76 102 132 176 227 263 305
#     4   9  16  34  55  79 107 138 186 230 269 311
#     4   9  18  30  57  83 101 140 188 230 263 317
#     4  11  22  35  55  81 114 147 180 226 276 327
#
# _framework density 22.618938
#
# number of rings (size 3 to 8) (size 9 to 14) (size 15 to 20)
#    0.000    2.250    3.750    0.750    1.750    3.000 
#    0.000    0.000    0.000    5.250    0.000    3.500 
#    0.000    0.000    0.000    0.000    0.000    0.000 
#
# Total GULP energy -178293.850663 kJ/mol
# GULP energy per Si atom -5571.682833 kJ/mol
# Density = 2.256746 g / cm^3
# Si number density = 22.618938 Si / 1000 Ang^3
#
#
#
# Elastic Constant Matrix: (Units=GPa)
#
#
# Indices 1 2 3 4 5 6 
#
# 1 108.6600 -9.2338 64.9861 0.0000 0.0000 0.0000
# 2 -9.2338 51.2005 16.0853 0.0000 0.0000 0.0000
# 3 64.9861 16.0853 293.6408 0.0000 0.0000 0.0000
# 4 0.0000 0.0000 0.0000 -4.7047 0.0000 0.0000
# 5 0.0000 0.0000 0.0000 0.0000 44.7024 0.0000
# 6 0.0000 0.0000 0.0000 0.0000 0.0000 18.0588
#
#
#
# Elastic Compliance Matrix: (Units=1/GPa)
#
#
# Indices 1 2 3 4 5 6 
#
# 1 0.010986 0.002793 -0.002584 0.000000 0.000000 0.000000
# 2 0.002793 0.020583 -0.001746 0.000000 0.000000 0.000000
# 3 -0.002584 -0.001746 0.004073 0.000000 0.000000 0.000000
# 4 0.000000 0.000000 0.000000 -0.212555 0.000000 0.000000
# 5 0.000000 0.000000 0.000000 0.000000 0.022370 0.000000
# 6 0.000000 0.000000 0.000000 0.000000 0.000000 0.055375
#
#
# Mechanical properties :
#
#
# Convention : Reuss Voigt Hill
#
# Bulk Modulus (GPa) = 30.70442 66.35295 48.52869
# Shear Modulus (GPa) = -58.65915 37.05555 -10.80180
#
# Velocity S-wave (km/s) = -5.09803 4.05193 -2.18768
# Velocity P-wave (km/s) = 4.58793 7.16168 3.88848
#
# Compressibility (1/GPa) = 0.03256860
#
# Stress axis : x y z
#
# Youngs Moduli (GPa) = 91.02510 48.58327 245.51379
#
# Poissons Ratio (x) = -0.13570 0.63449
# Poissons Ratio (y) = -0.25425 0.42859
# Poissons Ratio (z) = 0.23524 0.08481
#
# Static dielectric constant tensor:
#      x y z
#    x 1.811900 0.000000 0.000000 
#    y 0.000000 1.867440 0.000000 
#    z 0.000000 0.000000 1.911350 
# 
# From -- ./inp_files/9155.got.cif
#   From: 2010.05.17/outbox.cif.g08.bks.cpg/sg49_5_cif.got.tgz:9155.got - 2010.06.03 21:02:19.
