data_PCOD9393078
_publ_section_title
;
Structure prediction by ZEFSAII (Michael W. Deem and Ramdas Pophale) SiO2 
 PCOD9393078
Probable space group: P C C M
;
_chemical_formula_sum "Si O2"
_cell_formula_units_Z 56
_cell_length_a 32.944766
_cell_length_b 5.132930
_cell_length_c 16.690274
_cell_angle_alpha 90.000000
_cell_angle_beta 90.000000
_cell_angle_gamma 90.000000
_cell_volume 2822.378371
_symmetry_space_group_name_H-M "P C C M"
_symmetry_group_IT_number 49
_symmetry_cell_setting 'orthorhombic'
loop_
_space_group_symop_operation_xyz
x,y,z
-x,-y,z
x,-y,1/2-z
-x,y,1/2-z
-x,-y,-z
x,y,-z
-x,y,1/2+z
x,-y,1/2+z
loop_
_atom_site_type_symbol
_atom_site_label
_atom_site_fract_x
_atom_site_fract_y
_atom_site_fract_z
Si Si1 0.301892 0.750867 0.806695
Si Si2 0.525589 0.749684 0.596470
Si Si3 0.092101 0.874679 0.594473
Si Si4 0.181361 0.084826 0.158849
Si Si5 0.606866 0.247590 0.806555
Si Si6 0.775269 0.403143 0.907259
Si Si7 0.039950 0.361058 0.593851
O O1 0.302321 0.500000 0.750000
O O2 0.347476 0.777021 0.841259
O O3 0.267211 0.695874 0.870908
O O4 0.293511 0.000000 0.750000
O O5 0.500000 0.500000 0.622905
O O6 0.527385 0.751280 0.500000
O O7 0.570763 0.743359 0.630385
O O8 0.500000 0.000000 0.623087
O O9 0.100250 0.934107 0.500000
O O10 0.133811 0.876131 0.642521
O O11 0.073386 0.587109 0.597443
O O12 0.059660 0.092182 0.624259
O O13 0.206323 0.346370 0.138371
O O14 0.188739 0.000000 0.250000
O O15 0.195328 0.843393 0.104316
O O16 0.605291 0.500000 0.750000
O O17 0.600647 0.000000 0.750000
O O18 0.771352 0.473109 0.000000
O O19 0.029677 0.304550 0.500000
O O20 0.000000 0.500000 0.629864
#
# Coordination Sequence:
#
# PCOD9393078 Si02
#       7
#     8   8   8   8   8   8   8
#     4  10  21  39  60  84 117 152 188 233 293 353
#     4  10  21  36  54  79 113 151 190 237 291 341
#     4  10  19  33  54  80 111 145 188 238 278 329
#     4  12  25  41  61  86 120 159 194 235 295 354
#     4  10  21  36  57  84 112 148 191 235 282 342
#     4  12  24  40  63  90 116 149 197 244 288 344
#     4   9  17  30  52  81 110 143 185 233 283 331
#
# _framework density 19.841422000000001
#
# number of rings (size 3 to 8) (size 9 to 14) (size 15 to 20)
#    0.000    1.571    0.000    6.000    0.000    5.143 
#    0.000    0.000    0.000   11.143    0.000    0.000 
#    0.000    0.000    0.000    0.000    0.000    0.000 
#
# Total GULP energy -312877.588413 kJ/mol
# GULP energy per Si atom -5587.099793 kJ/mol
# Density = 1.979626 g / cm^3
# Si number density = 19.841422 Si / 1000 Ang^3
#
#
#
# Elastic Constant Matrix: (Units=GPa)
#
#
# Indices 1 2 3 4 5 6 
#
# 1 94.1928 9.7268 32.6984 0.0000 0.0000 0.0000
# 2 9.7268 123.4197 14.6455 0.0000 0.0000 0.0000
# 3 32.6984 14.6455 41.4158 0.0000 0.0000 0.0000
# 4 0.0000 0.0000 0.0000 6.0747 0.0000 0.0000
# 5 0.0000 0.0000 0.0000 0.0000 15.3731 0.0000
# 6 0.0000 0.0000 0.0000 0.0000 0.0000 33.5146
#
#
#
# Elastic Compliance Matrix: (Units=1/GPa)
#
#
# Indices 1 2 3 4 5 6 
#
# 1 0.014631 0.000227 -0.011632 0.000000 0.000000 0.000000
# 2 0.000227 0.008461 -0.003171 0.000000 0.000000 0.000000
# 3 -0.011632 -0.003171 0.034450 0.000000 0.000000 0.000000
# 4 0.000000 0.000000 0.000000 0.164617 0.000000 0.000000
# 5 0.000000 0.000000 0.000000 0.000000 0.065049 0.000000
# 6 0.000000 0.000000 0.000000 0.000000 0.000000 0.029838
#
#
# Mechanical properties :
#
#
# Convention : Reuss Voigt Hill
#
# Bulk Modulus (GPa) = 35.22316 41.46330 38.34323
# Shear Modulus (GPa) = 14.05835 24.45631 19.25733
#
# Velocity S-wave (km/s) = 2.66472 3.51463 3.11876
# Velocity P-wave (km/s) = 5.22097 6.11661 5.68645
#
# Compressibility (1/GPa) = 0.02839041
#
# Stress axis : x y z
#
# Youngs Moduli (GPa) = 68.34843 118.19149 29.02738
#
# Poissons Ratio (x) = -0.02685 0.33764
# Poissons Ratio (y) = -0.01553 0.09205
# Poissons Ratio (z) = 0.79501 0.37482
#
# Static dielectric constant tensor:
#      x y z
#    x 1.714800 0.000000 0.000000 
#    y 0.000000 1.673660 0.000000 
#    z 0.000000 0.000000 1.678460 
# 
# From -- ./inp_files/14623.got.cif
#   From: 2010.05.17/outbox.cif.g08.bks.cpg/sg49_8_cif.got.tgz:14623.got - 2010.06.03 21:02:19.
