data_PCOD9393438
_publ_section_title
;
Structure prediction by ZEFSAII (Michael W. Deem and Ramdas Pophale) SiO2 
 PCOD9393438
Probable space group: P C C M
;
_chemical_formula_sum "Si O2"
_cell_formula_units_Z 58
_cell_length_a 11.591546
_cell_length_b 9.248446
_cell_length_c 29.764360
_cell_angle_alpha 90.000000
_cell_angle_beta 90.000000
_cell_angle_gamma 90.000000
_cell_volume 3190.852117
_symmetry_space_group_name_H-M "P C C M"
_symmetry_group_IT_number 49
_symmetry_cell_setting 'orthorhombic'
loop_
_space_group_symop_operation_xyz
x,y,z
-x,-y,z
x,-y,1/2-z
-x,y,1/2-z
-x,-y,-z
x,y,-z
-x,y,1/2+z
x,-y,1/2+z
loop_
_atom_site_type_symbol
_atom_site_label
_atom_site_fract_x
_atom_site_fract_y
_atom_site_fract_z
Si Si1 0.000000 0.500000 0.250000
Si Si2 0.285061 0.737530 0.157157
Si Si3 0.750366 0.581896 0.117708
Si Si4 0.064759 0.850876 0.122577
Si Si5 0.897846 0.742937 0.190881
Si Si6 0.935645 0.347835 0.550127
Si Si7 0.536949 0.338434 0.329967
Si Si8 0.692036 0.161451 0.741758
O O1 0.078351 0.395059 0.221097
O O2 0.243775 0.581482 0.137584
O O3 0.202415 0.848195 0.130199
O O4 0.423413 0.742724 0.152328
O O5 0.279135 0.759410 0.211164
O O6 0.827673 0.683232 0.149021
O O7 0.809366 0.611707 0.070065
O O8 0.621498 0.632986 0.128099
O O9 0.016659 0.800370 0.171249
O O10 0.014748 0.746483 0.083917
O O11 0.000000 0.000000 0.113965
O O12 0.814172 0.852472 0.215974
O O13 0.928369 0.284389 0.500000
O O14 0.000000 0.500000 0.547900
O O15 0.500000 0.500000 0.313539
O O16 0.605649 0.253965 0.290330
O O17 0.646027 0.000000 0.750000
#
# Coordination Sequence:
#
# PCOD9393438 Si02
#       8
#     2   8   8   8   8   8   8   8
#     4  12  20  28  50  80 108 156 194 240 284 322
#     4  11  20  33  53  74 111 150 189 232 276 322
#     4   9  18  35  55  79 105 138 181 231 279 329
#     4  11  22  36  55  82 116 149 180 228 295 360
#     4  10  20  31  48  74 106 142 192 228 274 324
#     4  10  20  37  64  89 109 137 181 234 287 354
#     4   9  21  36  55  79 108 149 199 244 280 330
#     4  11  22  35  50  74 110 155 199 242 279 323
#
# _framework density 18.176963000000001
#
# number of rings (size 3 to 8) (size 9 to 14) (size 15 to 20)
#    0.000    1.793    1.379    3.724    1.931    7.448 
#    0.000    1.379    0.000    4.552    0.000    0.966 
#    0.000    0.000    0.000    0.000    0.000    0.000 
#
# Total GULP energy -323074.838654 kJ/mol
# GULP energy per Si atom -5570.255839 kJ/mol
# Density = 1.813559 g / cm^3
# Si number density = 18.176963 Si / 1000 Ang^3
#
#
#
# Elastic Constant Matrix: (Units=GPa)
#
#
# Indices 1 2 3 4 5 6 
#
# 1 104.6874 30.8928 51.5070 0.0000 0.0000 0.0000
# 2 30.8928 65.5024 26.8269 0.0000 0.0000 0.0000
# 3 51.5070 26.8269 90.4522 0.0000 0.0000 0.0000
# 4 0.0000 0.0000 0.0000 9.4173 0.0000 0.0000
# 5 0.0000 0.0000 0.0000 0.0000 27.5597 0.0000
# 6 0.0000 0.0000 0.0000 0.0000 0.0000 24.2152
#
#
#
# Elastic Compliance Matrix: (Units=1/GPa)
#
#
# Indices 1 2 3 4 5 6 
#
# 1 0.014061 -0.003816 -0.006875 0.000000 0.000000 0.000000
# 2 -0.003816 0.018413 -0.003288 0.000000 0.000000 0.000000
# 3 -0.006875 -0.003288 0.015946 0.000000 0.000000 0.000000
# 4 0.000000 0.000000 0.000000 0.106188 0.000000 0.000000
# 5 0.000000 0.000000 0.000000 0.000000 0.036285 0.000000
# 6 0.000000 0.000000 0.000000 0.000000 0.000000 0.041296
#
#
# Mechanical properties :
#
#
# Convention : Reuss Voigt Hill
#
# Bulk Modulus (GPa) = 48.87240 53.23281 51.05260
# Shear Modulus (GPa) = 18.72889 22.33280 20.53084
#
# Velocity S-wave (km/s) = 3.21341 3.50899 3.36445
# Velocity P-wave (km/s) = 6.38070 6.76511 6.57572
#
# Compressibility (1/GPa) = 0.02046145
#
# Stress axis : x y z
#
# Youngs Moduli (GPa) = 71.11938 54.30961 62.71270
#
# Poissons Ratio (x) = 0.20723 0.43116
# Poissons Ratio (y) = 0.27138 0.20621
# Poissons Ratio (z) = 0.48895 0.17858
#
# Static dielectric constant tensor:
#      x y z
#    x 1.689560 0.000000 0.000000 
#    y 0.000000 1.650900 0.000000 
#    z 0.000000 0.000000 1.643210 
# 
# From -- ./inp_files/26632.got.cif
#   From: 2010.05.17/outbox.cif.g08.bks.cpg/sg49_14_cif.got.tgz:26632.got - 2010.06.03 21:02:19.
