data_PCOD9393385
_publ_section_title
;
Structure prediction by ZEFSAII (Michael W. Deem and Ramdas Pophale) SiO2 
 PCOD9393385
Probable space group: P C C M
;
_chemical_formula_sum "Si O2"
_cell_formula_units_Z 64
_cell_length_a 15.880688
_cell_length_b 24.360748
_cell_length_c 8.656141
_cell_angle_alpha 90.000000
_cell_angle_beta 90.000000
_cell_angle_gamma 90.000000
_cell_volume 3348.761783
_symmetry_space_group_name_H-M "P C C M"
_symmetry_group_IT_number 49
_symmetry_cell_setting 'orthorhombic'
loop_
_space_group_symop_operation_xyz
x,y,z
-x,-y,z
x,-y,1/2-z
-x,y,1/2-z
-x,-y,-z
x,y,-z
-x,y,1/2+z
x,-y,1/2+z
loop_
_atom_site_type_symbol
_atom_site_label
_atom_site_fract_x
_atom_site_fract_y
_atom_site_fract_z
Si Si1 0.909832 0.867517 0.814130
Si Si2 0.590741 0.870268 0.314684
Si Si3 0.158854 0.749592 0.687101
Si Si4 0.252328 0.938640 0.685853
Si Si5 0.410923 0.364942 0.815015
Si Si6 0.651698 0.250719 0.185058
Si Si7 0.090281 0.631325 0.313876
Si Si8 0.252035 0.438779 0.813275
O O1 0.888980 0.804975 0.765299
O O2 0.831919 0.905733 0.765629
O O3 0.000000 0.884929 0.750000
O O4 0.913231 0.868310 0.000000
O O5 0.500000 0.886985 0.250000
O O6 0.590927 0.873849 0.500000
O O7 0.666056 0.906874 0.248213
O O8 0.609104 0.806907 0.269906
O O9 0.166060 0.749517 0.500000
O O10 0.252332 0.749857 0.755956
O O11 0.111882 0.693819 0.734100
O O12 0.255119 0.939288 0.500000
O O13 0.250355 0.000000 0.750000
O O14 0.500000 0.384588 0.750000
O O15 0.393619 0.303396 0.756506
O O16 0.333069 0.403134 0.764748
O O17 0.413392 0.364508 0.000000
O O18 0.650132 0.254986 0.000000
O O19 0.087698 0.630391 0.500000
O O20 0.166950 0.592422 0.263264
O O21 0.000000 0.614465 0.250000
O O22 0.255576 0.500000 0.750000
O O23 0.251892 0.440186 0.000000
#
# Coordination Sequence:
#
# PCOD9393385 Si02
#       8
#     8   8   8   8   8   8   8   8
#     4  10  22  38  62  91 122 162 200 246 303 358
#     4  11  24  41  63  93 125 159 200 247 299 360
#     4  10  19  37  61  87 124 161 196 243 302 362
#     4  11  24  43  65  89 120 161 206 254 305 354
#     4  11  23  41  63  89 123 159 198 246 299 359
#     4  11  22  36  61  95 125 159 199 242 298 359
#     4  10  21  38  60  88 120 157 197 243 299 356
#     4  10  23  42  62  84 117 158 201 251 302 352
#
# _framework density 19.111542
#
# number of rings (size 3 to 8) (size 9 to 14) (size 15 to 20)
#    0.000    1.500    2.500    2.250    0.000    7.000 
#    0.000    5.000    0.000    0.000    0.000    0.000 
#    0.000    0.000    0.000    0.000    0.000    0.000 
#
# Total GULP energy -357787.246845 kJ/mol
# GULP energy per Si atom -5590.425732 kJ/mol
# Density = 1.906804 g / cm^3
# Si number density = 19.111542 Si / 1000 Ang^3
#
#
#
# Elastic Constant Matrix: (Units=GPa)
#
#
# Indices 1 2 3 4 5 6 
#
# 1 199.6586 86.9744 38.4859 0.0000 0.0000 0.0000
# 2 86.9744 153.3550 35.7397 0.0000 0.0000 0.0000
# 3 38.4859 35.7397 27.7652 0.0000 0.0000 0.0000
# 4 0.0000 0.0000 0.0000 46.7696 0.0000 0.0000
# 5 0.0000 0.0000 0.0000 0.0000 36.4819 0.0000
# 6 0.0000 0.0000 0.0000 0.0000 0.0000 7.2264
#
#
#
# Elastic Compliance Matrix: (Units=1/GPa)
#
#
# Indices 1 2 3 4 5 6 
#
# 1 0.007504 -0.002617 -0.007033 0.000000 0.000000 0.000000
# 2 -0.002617 0.010228 -0.009538 0.000000 0.000000 0.000000
# 3 -0.007033 -0.009538 0.058043 0.000000 0.000000 0.000000
# 4 0.000000 0.000000 0.000000 0.021381 0.000000 0.000000
# 5 0.000000 0.000000 0.000000 0.000000 0.027411 0.000000
# 6 0.000000 0.000000 0.000000 0.000000 0.000000 0.138382
#
#
# Mechanical properties :
#
#
# Convention : Reuss Voigt Hill
#
# Bulk Modulus (GPa) = 26.73916 78.13098 52.43507
# Shear Modulus (GPa) = 15.93413 32.73418 24.33415
#
# Velocity S-wave (km/s) = 2.89059 4.14308 3.57216
# Velocity P-wave (km/s) = 5.01619 7.99107 6.67156
#
# Compressibility (1/GPa) = 0.03739833
#
# Stress axis : x y z
#
# Youngs Moduli (GPa) = 133.25846 97.77247 17.22868
#
# Poissons Ratio (x) = 0.25586 0.12117
# Poissons Ratio (y) = 0.34872 0.16433
# Poissons Ratio (z) = 0.93724 0.93256
#
# Static dielectric constant tensor:
#      x y z
#    x 1.645090 0.000000 0.000000 
#    y 0.000000 1.646630 0.000000 
#    z 0.000000 0.000000 1.649930 
# 
# From -- ./inp_files/4313.got.cif
#   From: 2010.05.17/outbox.cif.g08.bks.cpg/sg49_3_cif.got.tgz:4313.got - 2010.06.03 21:02:19.
