data_PCOD9393355
_publ_section_title
;
Structure prediction by ZEFSAII (Michael W. Deem and Ramdas Pophale) SiO2 
 PCOD9393355
Probable space group: P C C M
;
_chemical_formula_sum "Si O2"
_cell_formula_units_Z 64
_cell_length_a 25.268206
_cell_length_b 15.525818
_cell_length_c 8.738027
_cell_angle_alpha 90.000000
_cell_angle_beta 90.000000
_cell_angle_gamma 90.000000
_cell_volume 3428.011594
_symmetry_space_group_name_H-M "P C C M"
_symmetry_group_IT_number 49
_symmetry_cell_setting 'orthorhombic'
loop_
_space_group_symop_operation_xyz
x,y,z
-x,-y,z
x,-y,1/2-z
-x,y,1/2-z
-x,-y,-z
x,y,-z
-x,y,1/2+z
x,-y,1/2+z
loop_
_atom_site_type_symbol
_atom_site_label
_atom_site_fract_x
_atom_site_fract_y
_atom_site_fract_z
Si Si1 0.173084 0.088753 0.181145
Si Si2 0.596361 0.088772 0.184084
Si Si3 0.640538 0.408377 0.682351
Si Si4 0.556404 0.275390 0.184154
Si Si5 0.742138 0.329028 0.821886
Si Si6 0.145919 0.719125 0.315632
Si Si7 0.715296 0.871437 0.677896
Si Si8 0.941249 0.407017 0.183645
O O1 0.147629 0.179763 0.232248
O O2 0.234880 0.095744 0.227190
O O3 0.151446 0.000000 0.250000
O O4 0.168598 0.084577 0.000000
O O5 0.566949 0.176080 0.230549
O O6 0.657929 0.098752 0.233017
O O7 0.574557 0.000000 0.250000
O O8 0.595997 0.085159 0.000000
O O9 0.623630 0.500000 0.750000
O O10 0.638039 0.408673 0.500000
O O11 0.602615 0.334789 0.749668
O O12 0.700154 0.389058 0.738078
O O13 0.500000 0.303187 0.250000
O O14 0.557138 0.280092 0.000000
O O15 0.798880 0.322184 0.741198
O O16 0.718071 0.232255 0.817556
O O17 0.748103 0.353435 0.000000
O O18 0.143130 0.715369 0.500000
O O19 0.098286 0.666524 0.241220
O O20 0.722144 0.897531 0.500000
O O21 0.923850 0.500000 0.250000
O O22 0.000000 0.391837 0.250000
O O23 0.942928 0.410731 0.000000
#
# Coordination Sequence:
#
# PCOD9393355 Si02
#       8
#     8   8   8   8   8   8   8   8
#     4  10  20  32  50  79 117 158 199 244 288 340
#     4  10  21  36  56  83 115 149 187 233 283 341
#     4  12  25  42  65  91 117 151 189 234 290 352
#     4  11  24  45  65  86 114 147 189 240 292 345
#     4  10  19  36  59  86 121 156 192 237 289 345
#     4  10  21  37  57  88 124 161 204 248 294 351
#     4   9  17  32  53  78 111 151 188 232 283 336
#     4  11  22  39  63  90 120 158 200 250 302 353
#
# _framework density 18.669716000000001
#
# number of rings (size 3 to 8) (size 9 to 14) (size 15 to 20)
#    0.000    1.625    1.250    4.500    0.000    5.500 
#    0.000    5.000    0.000    0.375    0.000    2.625 
#    0.000    0.000    0.000    0.000    0.000    0.000 
#
# Total GULP energy -357606.447915 kJ/mol
# GULP energy per Si atom -5587.600749 kJ/mol
# Density = 1.862722 g / cm^3
# Si number density = 18.669716 Si / 1000 Ang^3
#
#
#
# Elastic Constant Matrix: (Units=GPa)
#
#
# Indices 1 2 3 4 5 6 
#
# 1 78.7113 54.4967 37.3943 0.0000 0.0000 0.0000
# 2 54.4967 114.2921 50.5854 0.0000 0.0000 0.0000
# 3 37.3943 50.5854 102.1417 0.0000 0.0000 0.0000
# 4 0.0000 0.0000 0.0000 14.9338 0.0000 0.0000
# 5 0.0000 0.0000 0.0000 0.0000 11.5443 0.0000
# 6 0.0000 0.0000 0.0000 0.0000 0.0000 15.9438
#
#
#
# Elastic Compliance Matrix: (Units=1/GPa)
#
#
# Indices 1 2 3 4 5 6 
#
# 1 0.019795 -0.007981 -0.003295 0.000000 0.000000 0.000000
# 2 -0.007981 0.014423 -0.004221 0.000000 0.000000 0.000000
# 3 -0.003295 -0.004221 0.013087 0.000000 0.000000 0.000000
# 4 0.000000 0.000000 0.000000 0.066962 0.000000 0.000000
# 5 0.000000 0.000000 0.000000 0.000000 0.086623 0.000000
# 6 0.000000 0.000000 0.000000 0.000000 0.000000 0.062720
#
#
# Mechanical properties :
#
#
# Convention : Reuss Voigt Hill
#
# Bulk Modulus (GPa) = 61.30327 64.45532 62.87930
# Shear Modulus (GPa) = 16.66435 18.66230 17.66332
#
# Velocity S-wave (km/s) = 2.99086 3.16508 3.07920
# Velocity P-wave (km/s) = 6.69582 6.92502 6.81138
#
# Compressibility (1/GPa) = 0.01631234
#
# Stress axis : x y z
#
# Youngs Moduli (GPa) = 50.51678 69.33295 76.41084
#
# Poissons Ratio (x) = 0.55332 0.25176
# Poissons Ratio (y) = 0.40315 0.32255
# Poissons Ratio (z) = 0.16644 0.29268
#
# Static dielectric constant tensor:
#      x y z
#    x 1.617240 0.000000 0.000000 
#    y 0.000000 1.668030 0.000000 
#    z 0.000000 0.000000 1.626420 
# 
# From -- ./inp_files/6489.got.cif
#   From: 2010.05.17/outbox.cif.g08.bks.cpg/sg49_4_cif.got.tgz:6489.got - 2010.06.03 21:02:19.
