data_PCOD9393826
_publ_section_title
;
Structure prediction by ZEFSAII (Michael W. Deem and Ramdas Pophale) SiO2 
 PCOD9393826
Probable space group: P C C M
;
_chemical_formula_sum "Si O2"
_cell_formula_units_Z 64
_cell_length_a 14.626100
_cell_length_b 27.233749
_cell_length_c 8.287365
_cell_angle_alpha 90.000000
_cell_angle_beta 90.000000
_cell_angle_gamma 90.000000
_cell_volume 3301.052533
_symmetry_space_group_name_H-M "P C C M"
_symmetry_group_IT_number 49
_symmetry_cell_setting 'orthorhombic'
loop_
_space_group_symop_operation_xyz
x,y,z
-x,-y,z
x,-y,1/2-z
-x,y,1/2-z
-x,-y,-z
x,y,-z
-x,y,1/2+z
x,-y,1/2+z
loop_
_atom_site_type_symbol
_atom_site_label
_atom_site_fract_x
_atom_site_fract_y
_atom_site_fract_z
Si Si1 0.104990 0.147787 0.306732
Si Si2 0.396064 0.907459 0.695094
Si Si3 0.603972 0.307903 0.304995
Si Si4 0.104377 0.553623 0.693356
Si Si5 0.214899 0.647834 0.694624
Si Si6 0.788633 0.948397 0.192164
Si Si7 0.394868 0.200657 0.805904
Si Si8 0.894586 0.256500 0.806180
O O1 0.107769 0.147282 0.500000
O O2 0.158244 0.100427 0.244136
O O3 0.139498 0.202067 0.251912
O O4 0.000000 0.144539 0.250000
O O5 0.500000 0.916604 0.750000
O O6 0.398259 0.907722 0.500000
O O7 0.316382 0.943319 0.752707
O O8 0.363128 0.852805 0.750107
O O9 0.500000 0.315707 0.250000
O O10 0.602271 0.307313 0.500000
O O11 0.680291 0.346209 0.249961
O O12 0.639079 0.253706 0.249144
O O13 0.136317 0.500000 0.750000
O O14 0.104746 0.554037 0.500000
O O15 0.164484 0.599094 0.754985
O O16 0.000000 0.559903 0.750000
O O17 0.215718 0.645294 0.500000
O O18 0.160652 0.697186 0.740314
O O19 0.828932 0.000000 0.250000
O O20 0.786913 0.949079 0.000000
O O21 0.500000 0.201167 0.750000
O O22 0.388707 0.200433 0.000000
O O23 0.000000 0.260439 0.750000
O O24 0.891955 0.257803 0.000000
#
# Coordination Sequence:
#
# PCOD9393826 Si02
#       8
#     8   8   8   8   8   8   8   8
#     4  10  22  41  62  85 111 141 178 222 272 329
#     4   9  19  34  54  79 105 140 178 217 268 323
#     4   9  18  32  50  74 108 146 184 228 272 320
#     4  10  20  35  55  81 111 148 189 232 281 329
#     4  10  21  34  54  83 115 151 189 231 278 329
#     4  11  24  40  59  82 108 140 181 227 275 329
#     4   8  14  27  46  69  96 129 169 209 255 309
#     4  10  21  36  56  84 116 147 179 218 270 331
#
# _framework density 19.387756
#
# number of rings (size 3 to 8) (size 9 to 14) (size 15 to 20)
#    0.000    2.375    0.000    2.250    1.750    5.500 
#    0.000    2.500    0.000    0.375    0.000    2.625 
#    0.000    0.000    0.000    0.000    0.000    0.000 
#
# Total GULP energy -356900.792050 kJ/mol
# GULP energy per Si atom -5576.574876 kJ/mol
# Density = 1.934363 g / cm^3
# Si number density = 19.387756 Si / 1000 Ang^3
#
#
#
# Elastic Constant Matrix: (Units=GPa)
#
#
# Indices 1 2 3 4 5 6 
#
# 1 82.2557 78.9066 4.9133 0.0000 0.0000 0.0000
# 2 78.9066 166.2875 19.3354 0.0000 0.0000 0.0000
# 3 4.9133 19.3354 22.2497 0.0000 0.0000 0.0000
# 4 0.0000 0.0000 0.0000 20.5350 0.0000 0.0000
# 5 0.0000 0.0000 0.0000 0.0000 20.1382 0.0000
# 6 0.0000 0.0000 0.0000 0.0000 0.0000 33.2813
#
#
#
# Elastic Compliance Matrix: (Units=1/GPa)
#
#
# Indices 1 2 3 4 5 6 
#
# 1 0.022777 -0.011372 0.004853 0.000000 0.000000 0.000000
# 2 -0.011372 0.012368 -0.008237 0.000000 0.000000 0.000000
# 3 0.004853 -0.008237 0.051030 0.000000 0.000000 0.000000
# 4 0.000000 0.000000 0.000000 0.048697 0.000000 0.000000
# 5 0.000000 0.000000 0.000000 0.000000 0.049657 0.000000
# 6 0.000000 0.000000 0.000000 0.000000 0.000000 0.030047
#
#
# Mechanical properties :
#
#
# Convention : Reuss Voigt Hill
#
# Bulk Modulus (GPa) = 17.64810 53.01149 35.32979
# Shear Modulus (GPa) = 19.01323 25.96675 22.48999
#
# Velocity S-wave (km/s) = 3.13498 3.66367 3.40959
# Velocity P-wave (km/s) = 4.71451 6.73043 5.81057
#
# Compressibility (1/GPa) = 0.05666334
#
# Stress axis : x y z
#
# Youngs Moduli (GPa) = 43.90490 80.85563 19.59615
#
# Poissons Ratio (x) = 0.91951 -0.09510
# Poissons Ratio (y) = 0.49929 0.16140
# Poissons Ratio (z) = -0.21307 0.66597
#
# Static dielectric constant tensor:
#      x y z
#    x 1.671060 0.000000 0.000000 
#    y 0.000000 1.710380 0.000000 
#    z 0.000000 0.000000 1.670030 
# 
# From -- ./inp_files/4291.got.cif
#   From: 2010.05.17/outbox.cif.g08.bks.cpg/sg49_3_cif.got.tgz:4291.got - 2010.06.03 21:02:19.
