data_PCOD9393362
_publ_section_title
;
Structure prediction by ZEFSAII (Michael W. Deem and Ramdas Pophale) SiO2 
 PCOD9393362
Probable space group: P C C M
;
_chemical_formula_sum "Si O2"
_cell_formula_units_Z 64
_cell_length_a 18.094658
_cell_length_b 8.921040
_cell_length_c 21.163921
_cell_angle_alpha 90.000000
_cell_angle_beta 90.000000
_cell_angle_gamma 90.000000
_cell_volume 3416.347171
_symmetry_space_group_name_H-M "P C C M"
_symmetry_group_IT_number 49
_symmetry_cell_setting 'orthorhombic'
loop_
_space_group_symop_operation_xyz
x,y,z
-x,-y,z
x,-y,1/2-z
-x,y,1/2-z
-x,-y,-z
x,y,-z
-x,y,1/2+z
x,-y,1/2+z
loop_
_atom_site_type_symbol
_atom_site_label
_atom_site_fract_x
_atom_site_fract_y
_atom_site_fract_z
Si Si1 0.306372 0.337409 0.351760
Si Si2 0.443414 0.181072 0.929410
Si Si3 0.835723 0.323453 0.235014
Si Si4 0.079910 0.064488 0.320462
Si Si5 0.289967 0.370533 0.069671
Si Si6 0.326367 0.952180 0.073804
Si Si7 0.796359 0.137974 0.637185
Si Si8 0.528616 0.328797 0.184192
O O1 0.236787 0.305663 0.307963
O O2 0.295411 0.502378 0.378669
O O3 0.315567 0.219943 0.408842
O O4 0.383270 0.329033 0.314944
O O5 0.367000 0.278733 0.928224
O O6 0.495248 0.241392 0.874987
O O7 0.409745 0.014866 0.920837
O O8 0.475066 0.197504 0.000000
O O9 0.849721 0.500000 0.250000
O O10 0.900943 0.238887 0.194784
O O11 0.814644 0.232800 0.299378
O O12 0.090888 0.000000 0.250000
O O13 0.139037 0.985017 0.366000
O O14 0.000000 0.000000 0.339674
O O15 0.220617 0.263055 0.084531
O O16 0.282733 0.435379 0.000000
O O17 0.277841 0.038896 0.127130
O O18 0.304379 0.982326 0.000000
O O19 0.500000 0.500000 0.179122
O O20 0.500000 0.264125 0.250000
#
# Coordination Sequence:
#
# PCOD9393362 Si02
#       8
#     8   8   8   8   8   8   8   8
#     4  12  23  37  59  88 119 155 207 256 305 367
#     4   9  20  40  58  77 110 158 210 254 313 371
#     4  11  22  36  62  94 124 161 198 242 304 359
#     4   9  19  38  61  91 125 157 194 236 294 366
#     4  10  20  35  59  85 113 157 210 257 297 353
#     4  10  22  39  61  85 115 157 208 257 303 362
#     4  10  19  36  60  87 122 155 193 242 300 360
#     4  11  25  38  55  83 120 159 202 263 321 369
#
# _framework density 18.733457999999999
#
# number of rings (size 3 to 8) (size 9 to 14) (size 15 to 20)
#    0.000    1.750    3.750    1.500    5.250    1.750 
#    0.000    6.875    0.000    1.500    0.000    0.875 
#    0.000    0.000    0.000    0.000    0.000    0.000 
#
# Total GULP energy -356407.454513 kJ/mol
# GULP energy per Si atom -5568.866477 kJ/mol
# Density = 1.869082 g / cm^3
# Si number density = 18.733458 Si / 1000 Ang^3
#
#
#
# Elastic Constant Matrix: (Units=GPa)
#
#
# Indices 1 2 3 4 5 6 
#
# 1 79.5095 26.0370 30.4410 0.0000 0.0000 0.0000
# 2 26.0370 93.3126 25.6199 0.0000 0.0000 0.0000
# 3 30.4410 25.6199 65.1362 0.0000 0.0000 0.0000
# 4 0.0000 0.0000 0.0000 21.1318 0.0000 0.0000
# 5 0.0000 0.0000 0.0000 0.0000 18.2914 0.0000
# 6 0.0000 0.0000 0.0000 0.0000 0.0000 21.1161
#
#
#
# Elastic Compliance Matrix: (Units=1/GPa)
#
#
# Indices 1 2 3 4 5 6 
#
# 1 0.015897 -0.002686 -0.006373 0.000000 0.000000 0.000000
# 2 -0.002686 0.012468 -0.003649 0.000000 0.000000 0.000000
# 3 -0.006373 -0.003649 0.019766 0.000000 0.000000 0.000000
# 4 0.000000 0.000000 0.000000 0.047322 0.000000 0.000000
# 5 0.000000 0.000000 0.000000 0.000000 0.054670 0.000000
# 6 0.000000 0.000000 0.000000 0.000000 0.000000 0.047357
#
#
# Mechanical properties :
#
#
# Convention : Reuss Voigt Hill
#
# Bulk Modulus (GPa) = 44.02266 44.68380 44.35323
# Shear Modulus (GPa) = 21.69513 22.49856 22.09685
#
# Velocity S-wave (km/s) = 3.40677 3.46928 3.43817
# Velocity P-wave (km/s) = 6.24702 6.32076 6.28400
#
# Compressibility (1/GPa) = 0.02271558
#
# Stress axis : x y z
#
# Youngs Moduli (GPa) = 62.90687 80.20587 50.59239
#
# Poissons Ratio (x) = 0.21543 0.32241
# Poissons Ratio (y) = 0.16896 0.18460
# Poissons Ratio (z) = 0.40089 0.29265
#
# Static dielectric constant tensor:
#      x y z
#    x 1.671530 0.000000 0.000000 
#    y 0.000000 1.705280 0.000000 
#    z 0.000000 0.000000 1.633850 
# 
# From -- ./inp_files/21044.got.cif
#   From: 2010.05.17/outbox.cif.g08.bks.cpg/sg49_11_cif.got.tgz:21044.got - 2010.06.03 21:02:19.
