data_PCOD9393872
_publ_section_title
;
Structure prediction by ZEFSAII (Michael W. Deem and Ramdas Pophale) SiO2 
 PCOD9393872
Probable space group: P C C M
;
_chemical_formula_sum "Si O2"
_cell_formula_units_Z 64
_cell_length_a 22.571765
_cell_length_b 9.362717
_cell_length_c 16.418290
_cell_angle_alpha 90.000000
_cell_angle_beta 90.000000
_cell_angle_gamma 90.000000
_cell_volume 3469.727267
_symmetry_space_group_name_H-M "P C C M"
_symmetry_group_IT_number 49
_symmetry_cell_setting 'orthorhombic'
loop_
_space_group_symop_operation_xyz
x,y,z
-x,-y,z
x,-y,1/2-z
-x,y,1/2-z
-x,-y,-z
x,y,-z
-x,y,1/2+z
x,-y,1/2+z
loop_
_atom_site_type_symbol
_atom_site_label
_atom_site_fract_x
_atom_site_fract_y
_atom_site_fract_z
Si Si1 0.271921 0.823032 0.598404
Si Si2 0.929493 0.666651 0.759886
Si Si3 0.147306 0.103093 0.328544
Si Si4 0.728992 0.151951 0.901440
Si Si5 0.384492 0.668898 0.098272
Si Si6 0.135814 0.186564 0.905424
Si Si7 0.499635 0.162663 0.847435
Si Si8 0.613741 0.656246 0.098746
O O1 0.271659 0.815422 0.500000
O O2 0.204434 0.787786 0.622099
O O3 0.324264 0.722659 0.628601
O O4 0.286261 0.987218 0.618972
O O5 0.912887 0.500000 0.750000
O O6 0.898244 0.773768 0.695901
O O7 0.907265 0.725916 0.846975
O O8 0.000000 0.677882 0.750000
O O9 0.207970 0.174132 0.358991
O O10 0.157053 0.000000 0.250000
O O11 0.126795 0.984478 0.394175
O O12 0.676524 0.256274 0.874841
O O13 0.735581 0.161495 0.000000
O O14 0.441243 0.759019 0.123631
O O15 0.391369 0.506609 0.127290
O O16 0.382467 0.666384 0.000000
O O17 0.129923 0.224351 0.000000
O O18 0.500000 0.159566 0.750000
O O19 0.441690 0.248159 0.875524
O O20 0.500000 0.000000 0.878495
O O21 0.614879 0.655454 0.000000
#
# Coordination Sequence:
#
# PCOD9393872 Si02
#       8
#     8   8   8   8   8   8   8   8
#     4   8  15  30  54  82 108 136 173 223 271 317
#     4  10  22  40  57  80 121 161 193 230 286 346
#     4   9  18  34  57  85 113 150 187 236 281 329
#     4   9  17  33  55  81 111 141 180 226 271 324
#     4  10  21  36  55  79 107 139 175 219 271 330
#     4   9  18  36  61  88 115 148 195 242 284 333
#     4  11  24  40  53  73 100 138 182 228 271 321
#     4  10  20  35  57  81 105 136 175 217 272 330
#
# _framework density 18.445253999999998
#
# number of rings (size 3 to 8) (size 9 to 14) (size 15 to 20)
#    0.000    2.500    0.000    2.625    0.000    7.250 
#    9.000    5.625    0.000    0.000    0.000    0.000 
#    0.000    0.000    0.000    0.000    0.000    0.000 
#
# Total GULP energy -356985.349991 kJ/mol
# GULP energy per Si atom -5577.896094 kJ/mol
# Density = 1.840327 g / cm^3
# Si number density = 18.445254 Si / 1000 Ang^3
#
#
#
# Elastic Constant Matrix: (Units=GPa)
#
#
# Indices 1 2 3 4 5 6 
#
# 1 132.4838 104.1739 35.7852 0.0000 0.0000 0.0000
# 2 104.1739 145.5387 33.5226 0.0000 0.0000 0.0000
# 3 35.7852 33.5226 30.9662 0.0000 0.0000 0.0000
# 4 0.0000 0.0000 0.0000 15.9536 0.0000 0.0000
# 5 0.0000 0.0000 0.0000 0.0000 26.2017 0.0000
# 6 0.0000 0.0000 0.0000 0.0000 0.0000 98.2859
#
#
#
# Elastic Compliance Matrix: (Units=1/GPa)
#
#
# Indices 1 2 3 4 5 6 
#
# 1 0.019254 -0.011532 -0.009766 0.000000 0.000000 0.000000
# 2 -0.011532 0.016061 -0.004060 0.000000 0.000000 0.000000
# 3 -0.009766 -0.004060 0.047974 0.000000 0.000000 0.000000
# 4 0.000000 0.000000 0.000000 0.062682 0.000000 0.000000
# 5 0.000000 0.000000 0.000000 0.000000 0.038166 0.000000
# 6 0.000000 0.000000 0.000000 0.000000 0.000000 0.010174
#
#
# Mechanical properties :
#
#
# Convention : Reuss Voigt Hill
#
# Bulk Modulus (GPa) = 30.70054 72.88357 51.79205
# Shear Modulus (GPa) = 19.54016 37.12204 28.33110
#
# Velocity S-wave (km/s) = 3.25831 4.49101 3.92338
# Velocity P-wave (km/s) = 5.55299 8.15423 6.97593
#
# Compressibility (1/GPa) = 0.03257272
#
# Stress axis : x y z
#
# Youngs Moduli (GPa) = 51.93764 62.26430 20.84462
#
# Poissons Ratio (x) = 0.71804 0.20357
# Poissons Ratio (y) = 0.59895 0.08462
# Poissons Ratio (z) = 0.50723 0.25277
#
# Static dielectric constant tensor:
#      x y z
#    x 1.613840 0.000000 0.000000 
#    y 0.000000 1.630020 0.000000 
#    z 0.000000 0.000000 1.660340 
# 
# From -- ./inp_files/18297.got.cif
#   From: 2010.05.17/outbox.cif.g08.bks.cpg/sg49_10_cif.got.tgz:18297.got - 2010.06.03 21:02:19.
