data_PCOD9393530
_publ_section_title
;
Structure prediction by ZEFSAII (Michael W. Deem and Ramdas Pophale) SiO2 
 PCOD9393530
Probable space group: P C C M
;
_chemical_formula_sum "Si O2"
_cell_formula_units_Z 58
_cell_length_a 32.285828
_cell_length_b 5.482076
_cell_length_c 14.118273
_cell_angle_alpha 90.000000
_cell_angle_beta 90.000000
_cell_angle_gamma 90.000000
_cell_volume 2498.840615
_symmetry_space_group_name_H-M "P C C M"
_symmetry_group_IT_number 49
_symmetry_cell_setting 'orthorhombic'
loop_
_space_group_symop_operation_xyz
x,y,z
-x,-y,z
x,-y,1/2-z
-x,y,1/2-z
-x,-y,-z
x,y,-z
-x,y,1/2+z
x,-y,1/2+z
loop_
_atom_site_type_symbol
_atom_site_label
_atom_site_fract_x
_atom_site_fract_y
_atom_site_fract_z
Si Si1 0.173722 0.102082 0.615874
Si Si2 0.042249 0.612604 0.354797
Si Si3 0.729907 0.095138 0.884745
Si Si4 0.590065 0.419449 0.615316
Si Si5 0.000000 0.000000 0.250000
Si Si6 0.685983 0.405986 0.615507
Si Si7 0.136246 0.601863 0.607187
Si Si8 0.453544 0.078681 0.384706
O O1 0.170435 0.108193 0.500000
O O2 0.221891 0.081434 0.640512
O O3 0.149611 0.861107 0.648773
O O4 0.154478 0.356038 0.650844
O O5 0.044879 0.500000 0.250000
O O6 0.086693 0.581250 0.398513
O O7 0.000000 0.500000 0.397386
O O8 0.031413 0.114740 0.173541
O O9 0.705403 0.852429 0.853475
O O10 0.710788 0.353273 0.853697
O O11 0.727841 0.095705 0.000000
O O12 0.587870 0.421226 0.500000
O O13 0.638068 0.439190 0.641752
O O14 0.574058 0.152762 0.644771
O O15 0.563274 0.655739 0.646798
O O16 0.687421 0.401850 0.500000
O O17 0.153290 0.607757 0.500000
O O18 0.452766 0.089295 0.500000
O O19 0.500000 0.000000 0.358108
#
# Coordination Sequence:
#
# PCOD9393530 Si02
#       8
#     8   8   8   8   2   8   8   8
#     4   9  18  30  44  64  91 117 142 175 215 265
#     4   9  20  35  54  74  96 128 159 191 227 269
#     4   9  15  24  36  50  70  97 123 148 192 246
#     4   9  15  21  27  38  52  67  99 142 180 228
#     4   8  18  36  54  70  96 124 162 190 226 268
#     4   9  15  21  32  46  61  84 115 151 188 235
#     4  10  20  33  50  73  98 123 153 189 227 265
#     4   9  15  21  27  33  46  69  95 131 186 243
#
# _framework density 23.210761999999999
#
# number of rings (size 3 to 8) (size 9 to 14) (size 15 to 20)
#    0.000    3.034    0.000    2.069    3.862    8.552 
#    0.000    0.345    0.000    0.000    0.000    0.000 
#    0.000    0.000    0.000    0.000    0.000    0.000 
#
# Total GULP energy -323693.135029 kJ/mol
# GULP energy per Si atom -5580.916121 kJ/mol
# Density = 2.315793 g / cm^3
# Si number density = 23.210762 Si / 1000 Ang^3
#
#
#
# Elastic Constant Matrix: (Units=GPa)
#
#
# Indices 1 2 3 4 5 6 
#
# 1 156.5710 101.8932 -10.6955 0.0000 0.0000 0.0000
# 2 101.8932 206.0826 16.8570 0.0000 0.0000 0.0000
# 3 -10.6955 16.8570 69.1176 0.0000 0.0000 0.0000
# 4 0.0000 0.0000 0.0000 14.7141 0.0000 0.0000
# 5 0.0000 0.0000 0.0000 0.0000 140.6286 0.0000
# 6 0.0000 0.0000 0.0000 0.0000 0.0000 56.9715
#
#
#
# Elastic Compliance Matrix: (Units=1/GPa)
#
#
# Indices 1 2 3 4 5 6 
#
# 1 0.009916 -0.005131 0.002786 0.000000 0.000000 0.000000
# 2 -0.005131 0.007606 -0.002649 0.000000 0.000000 0.000000
# 3 0.002786 -0.002649 0.015545 0.000000 0.000000 0.000000
# 4 0.000000 0.000000 0.000000 0.067962 0.000000 0.000000
# 5 0.000000 0.000000 0.000000 0.000000 0.007111 0.000000
# 6 0.000000 0.000000 0.000000 0.000000 0.000000 0.017553
#
#
# Mechanical properties :
#
#
# Convention : Reuss Voigt Hill
#
# Bulk Modulus (GPa) = 43.32844 71.98672 57.65758
# Shear Modulus (GPa) = 34.87389 64.04394 49.45892
#
# Velocity S-wave (km/s) = 3.88040 5.25854 4.62113
# Velocity P-wave (km/s) = 6.22773 8.24326 7.30534
#
# Compressibility (1/GPa) = 0.02307953
#
# Stress axis : x y z
#
# Youngs Moduli (GPa) = 100.84590 131.47761 64.32845
#
# Poissons Ratio (x) = 0.67457 -0.17920
# Poissons Ratio (y) = 0.51741 0.17040
# Poissons Ratio (z) = -0.28093 0.34827
#
# Static dielectric constant tensor:
#      x y z
#    x 1.799090 0.000000 0.000000 
#    y 0.000000 1.796000 0.000000 
#    z 0.000000 0.000000 0.020510 
# 
# From -- ./inp_files/15392.got.cif
#   From: 2010.05.17/outbox.cif.g08.bks.cpg/sg49_8_cif.got.tgz:15392.got - 2010.06.03 21:02:19.
