data_PCOD9393185
_publ_section_title
;
Structure prediction by ZEFSAII (Michael W. Deem and Ramdas Pophale) SiO2 
 PCOD9393185
Probable space group: P C C M
;
_chemical_formula_sum "Si O2"
_cell_formula_units_Z 38
_cell_length_a 6.027140
_cell_length_b 11.133690
_cell_length_c 27.508092
_cell_angle_alpha 90.000000
_cell_angle_beta 90.000000
_cell_angle_gamma 90.000000
_cell_volume 1845.911488
_symmetry_space_group_name_H-M "P C C M"
_symmetry_group_IT_number 49
_symmetry_cell_setting 'orthorhombic'
loop_
_space_group_symop_operation_xyz
x,y,z
-x,-y,z
x,-y,1/2-z
-x,y,1/2-z
-x,-y,-z
x,y,-z
-x,y,1/2+z
x,-y,1/2+z
loop_
_atom_site_type_symbol
_atom_site_label
_atom_site_fract_x
_atom_site_fract_y
_atom_site_fract_z
Si Si1 0.826411 0.194163 0.891447
Si Si2 0.547787 0.629808 0.145694
Si Si3 0.783004 0.853670 0.173080
Si Si4 0.858491 0.377365 0.444958
Si Si5 0.500000 0.000000 0.403832
Si Si6 0.500000 0.000000 0.250000
O O1 0.669205 0.292355 0.865917
O O2 0.686063 0.094885 0.922015
O O3 0.964429 0.136936 0.845961
O O4 0.992592 0.266450 0.926196
O O5 0.500000 0.500000 0.167652
O O6 0.716278 0.713621 0.175697
O O7 0.663146 0.609393 0.093511
O O8 0.645803 0.910137 0.128439
O O9 0.670450 0.919983 0.218296
O O10 0.781555 0.357074 0.500000
O O11 0.000000 0.500000 0.443765
#
# Coordination Sequence:
#
# PCOD9393185 Si02
#       6
#     8   8   8   8   4   2
#     4  10  19  35  57  84 117 162 202 247 301 366
#     4  10  19  34  55  87 122 162 201 237 298 368
#     4   9  20  35  61  86 119 149 194 245 298 363
#     4  10  20  33  54  87 122 159 210 262 302 350
#     4   9  18  35  55  82 109 154 207 242 289 369
#     4  10  20  44  64  98 120 144 192 254 300 362
#
# _framework density 20.586034000000001
#
# number of rings (size 3 to 8) (size 9 to 14) (size 15 to 20)
#    0.000    2.316    2.105    0.632    0.000    1.263 
#    0.000   20.000    0.000   16.421    0.000   50.105 
#    0.000    0.000    0.000    0.000    0.000    0.000 
#
# Total GULP energy -211636.571124 kJ/mol
# GULP energy per Si atom -5569.383451 kJ/mol
# Density = 2.053918 g / cm^3
# Si number density = 20.586034 Si / 1000 Ang^3
#
#
#
# Elastic Constant Matrix: (Units=GPa)
#
#
# Indices 1 2 3 4 5 6 
#
# 1 84.4088 30.9019 17.8261 0.0000 0.0000 0.0000
# 2 30.9019 133.1554 18.8517 0.0000 0.0000 0.0000
# 3 17.8261 18.8517 60.6116 0.0000 0.0000 0.0000
# 4 0.0000 0.0000 0.0000 6.5137 0.0000 0.0000
# 5 0.0000 0.0000 0.0000 0.0000 6.5003 0.0000
# 6 0.0000 0.0000 0.0000 0.0000 0.0000 46.7610
#
#
#
# Elastic Compliance Matrix: (Units=1/GPa)
#
#
# Indices 1 2 3 4 5 6 
#
# 1 0.013493 -0.002688 -0.003132 0.000000 0.000000 0.000000
# 2 -0.002688 0.008391 -0.001819 0.000000 0.000000 0.000000
# 3 -0.003132 -0.001819 0.017986 0.000000 0.000000 0.000000
# 4 0.000000 0.000000 0.000000 0.153524 0.000000 0.000000
# 5 0.000000 0.000000 0.000000 0.000000 0.153840 0.000000
# 6 0.000000 0.000000 0.000000 0.000000 0.000000 0.021385
#
#
# Mechanical properties :
#
#
# Convention : Reuss Voigt Hill
#
# Bulk Modulus (GPa) = 40.66599 45.92613 43.29606
# Shear Modulus (GPa) = 12.75203 25.99473 19.37338
#
# Velocity S-wave (km/s) = 2.49158 3.55735 3.07105
# Velocity P-wave (km/s) = 5.29852 6.26345 5.80108
#
# Compressibility (1/GPa) = 0.02459057
#
# Stress axis : x y z
#
# Youngs Moduli (GPa) = 74.11469 119.16983 55.60006
#
# Poissons Ratio (x) = 0.32031 0.17415
# Poissons Ratio (y) = 0.19921 0.10116
# Poissons Ratio (z) = 0.23215 0.21682
#
# Static dielectric constant tensor:
#      x y z
#    x 1.650750 0.000000 0.000000 
#    y 0.000000 1.852490 0.000000 
#    z 0.000000 0.000000 1.719770 
# 
# From -- ./inp_files/23806.got.cif
#   From: 2010.05.17/outbox.cif.g08.bks.cpg/sg49_12_cif.got.tgz:23806.got - 2010.06.03 21:02:19.
