data_PCOD9393161
_publ_section_title
;
Structure prediction by ZEFSAII (Michael W. Deem and Ramdas Pophale) SiO2 
 PCOD9393161
Probable space group: P C C M
;
_chemical_formula_sum "Si O2"
_cell_formula_units_Z 48
_cell_length_a 14.781886
_cell_length_b 20.890717
_cell_length_c 8.662064
_cell_angle_alpha 90.000000
_cell_angle_beta 90.000000
_cell_angle_gamma 90.000000
_cell_volume 2674.881719
_symmetry_space_group_name_H-M "P C C M"
_symmetry_group_IT_number 49
_symmetry_cell_setting 'orthorhombic'
loop_
_space_group_symop_operation_xyz
x,y,z
-x,-y,z
x,-y,1/2-z
-x,y,1/2-z
-x,-y,-z
x,y,-z
-x,y,1/2+z
x,-y,1/2+z
loop_
_atom_site_type_symbol
_atom_site_label
_atom_site_fract_x
_atom_site_fract_y
_atom_site_fract_z
Si Si1 0.595439 0.383816 0.685182
Si Si2 0.212623 0.185254 0.684947
Si Si3 0.210869 0.567223 0.685617
Si Si4 0.405659 0.760124 0.184735
Si Si5 0.101299 0.305698 0.813919
Si Si6 0.901513 0.929241 0.815690
O O1 0.500000 0.408526 0.750000
O O2 0.591709 0.383867 0.500000
O O3 0.685248 0.420990 0.736582
O O4 0.605595 0.310612 0.742777
O O5 0.203218 0.181667 0.500000
O O6 0.317709 0.198181 0.722233
O O7 0.156562 0.245942 0.746936
O O8 0.171737 0.121846 0.760184
O O9 0.177122 0.500000 0.750000
O O10 0.210470 0.564849 0.500000
O O11 0.151410 0.628415 0.732090
O O12 0.500000 0.786404 0.250000
O O13 0.411816 0.753208 0.000000
O O14 0.000000 0.304815 0.750000
O O15 0.100701 0.301657 0.000000
O O16 0.000000 0.909575 0.750000
O O17 0.882843 0.000000 0.750000
O O18 0.906281 0.931665 0.000000
#
# Coordination Sequence:
#
# PCOD9393161 Si02
#       6
#     8   8   8   8   8   8
#     4  10  19  34  54  79 108 140 179 225 279 337
#     4  11  22  37  59  88 117 151 190 230 278 332
#     4  10  23  39  56  76 106 143 183 230 283 340
#     4  10  20  33  55  84 114 147 184 228 277 331
#     4  11  23  40  58  81 109 142 185 235 284 335
#     4  11  22  38  60  87 122 159 193 234 278 330
#
# _framework density 17.944718000000002
#
# number of rings (size 3 to 8) (size 9 to 14) (size 15 to 20)
#    0.000    1.500    1.667    5.500    0.000    5.333 
#    0.000    3.333    0.000    0.500    0.000    3.500 
#    0.000    0.000    0.000    0.000    0.000    0.000 
#
# Total GULP energy -268244.787654 kJ/mol
# GULP energy per Si atom -5588.433076 kJ/mol
# Density = 1.790388 g / cm^3
# Si number density = 17.944718 Si / 1000 Ang^3
#
#
#
# Elastic Constant Matrix: (Units=GPa)
#
#
# Indices 1 2 3 4 5 6 
#
# 1 131.2306 58.4176 46.4894 0.0000 0.0000 0.0000
# 2 58.4176 80.7478 33.9218 0.0000 0.0000 0.0000
# 3 46.4894 33.9218 78.9406 0.0000 0.0000 0.0000
# 4 0.0000 0.0000 0.0000 27.0401 0.0000 0.0000
# 5 0.0000 0.0000 0.0000 0.0000 28.5913 0.0000
# 6 0.0000 0.0000 0.0000 0.0000 0.0000 -4.9885
#
#
#
# Elastic Compliance Matrix: (Units=1/GPa)
#
#
# Indices 1 2 3 4 5 6 
#
# 1 0.012267 -0.007126 -0.004162 0.000000 0.000000 0.000000
# 2 -0.007126 0.019252 -0.004076 0.000000 0.000000 0.000000
# 3 -0.004162 -0.004076 0.016870 0.000000 0.000000 0.000000
# 4 0.000000 0.000000 0.000000 0.036982 0.000000 0.000000
# 5 0.000000 0.000000 0.000000 0.000000 0.034976 0.000000
# 6 0.000000 0.000000 0.000000 0.000000 0.000000 -0.200463
#
#
# Mechanical properties :
#
#
# Convention : Reuss Voigt Hill
#
# Bulk Modulus (GPa) = 56.62259 63.17515 59.89887
# Shear Modulus (GPa) = -114.94107 20.26793 -47.33657
#
# Velocity S-wave (km/s) = -8.01199 3.36440 -5.14163
# Velocity P-wave (km/s) = 7.34621 7.09747 1.34029
#
# Compressibility (1/GPa) = 0.01766080
#
# Stress axis : x y z
#
# Youngs Moduli (GPa) = 81.52118 51.94257 59.27554
#
# Poissons Ratio (x) = 0.37015 0.24670
# Poissons Ratio (y) = 0.58093 0.24162
# Poissons Ratio (z) = 0.33928 0.21173
#
# Static dielectric constant tensor:
#      x y z
#    x 1.620090 0.000000 0.000000 
#    y 0.000000 1.586690 0.000000 
#    z 0.000000 0.000000 1.598850 
# 
# From -- ./inp_files/3736.got.cif
#   From: 2010.05.17/outbox.cif.g08.bks.cpg/sg49_2_cif.got.tgz:3736.got - 2010.06.03 21:02:19.
