data_PCOD9393174
_publ_section_title
;
Structure prediction by ZEFSAII (Michael W. Deem and Ramdas Pophale) SiO2 
 PCOD9393174
Probable space group: P C C M
;
_chemical_formula_sum "Si O2"
_cell_formula_units_Z 48
_cell_length_a 17.165491
_cell_length_b 8.506835
_cell_length_c 17.675073
_cell_angle_alpha 90.000000
_cell_angle_beta 90.000000
_cell_angle_gamma 90.000000
_cell_volume 2580.984853
_symmetry_space_group_name_H-M "P C C M"
_symmetry_group_IT_number 49
_symmetry_cell_setting 'orthorhombic'
loop_
_space_group_symop_operation_xyz
x,y,z
-x,-y,z
x,-y,1/2-z
-x,y,1/2-z
-x,-y,-z
x,y,-z
-x,y,1/2+z
x,-y,1/2+z
loop_
_atom_site_type_symbol
_atom_site_label
_atom_site_fract_x
_atom_site_fract_y
_atom_site_fract_z
Si Si1 0.345644 0.713892 0.410394
Si Si2 0.664869 0.341721 0.088727
Si Si3 0.087979 0.684266 0.232566
Si Si4 0.787481 0.105558 0.320943
Si Si5 0.833599 0.811890 0.589124
Si Si6 0.506869 0.308713 0.163335
O O1 0.335829 0.740952 0.500000
O O2 0.331159 0.528133 0.394776
O O3 0.283626 0.809352 0.361727
O O4 0.434023 0.751060 0.385351
O O5 0.747458 0.261086 0.102632
O O6 0.592352 0.269216 0.133097
O O7 0.646865 0.327213 0.000000
O O8 0.093989 0.500000 0.250000
O O9 0.149907 0.775979 0.284610
O O10 0.108857 0.721020 0.145467
O O11 0.000000 0.736527 0.250000
O O12 0.760038 0.000000 0.250000
O O13 0.828539 0.990139 0.381156
O O14 0.851157 0.800217 0.500000
O O15 0.500000 0.500000 0.160089
O O16 0.500000 0.259812 0.250000
#
# Coordination Sequence:
#
# PCOD9393174 Si02
#       6
#     8   8   8   8   8   8
#     4  10  19  34  55  80 110 146 192 239 283 329
#     4   9  18  33  55  81 109 147 191 239 282 324
#     4  10  22  42  65  89 115 147 186 236 286 338
#     4  10  22  36  57  84 114 151 187 228 280 343
#     4  10  21  38  60  86 120 155 191 230 283 343
#     4   9  18  29  49  80 110 144 190 239 283 326
#
# _framework density 18.597552
#
# number of rings (size 3 to 8) (size 9 to 14) (size 15 to 20)
#    0.000    2.333    0.000    2.000    4.667    5.000 
#    0.000    5.833    0.000    3.000    0.000    0.000 
#    0.000    0.000    0.000    0.000    0.000    0.000 
#
# Total GULP energy -267950.736933 kJ/mol
# GULP energy per Si atom -5582.307019 kJ/mol
# Density = 1.855522 g / cm^3
# Si number density = 18.597552 Si / 1000 Ang^3
#
#
#
# Elastic Constant Matrix: (Units=GPa)
#
#
# Indices 1 2 3 4 5 6 
#
# 1 112.4050 44.1829 88.8340 0.0000 0.0000 0.0000
# 2 44.1829 44.1792 55.5476 0.0000 0.0000 0.0000
# 3 88.8340 55.5476 127.5243 0.0000 0.0000 0.0000
# 4 0.0000 0.0000 0.0000 16.9380 0.0000 0.0000
# 5 0.0000 0.0000 0.0000 0.0000 32.4714 0.0000
# 6 0.0000 0.0000 0.0000 0.0000 0.0000 -39.0676
#
#
#
# Elastic Compliance Matrix: (Units=1/GPa)
#
#
# Indices 1 2 3 4 5 6 
#
# 1 0.020402 -0.005603 -0.011771 0.000000 0.000000 0.000000
# 2 -0.005603 0.051580 -0.018564 0.000000 0.000000 0.000000
# 3 -0.011771 -0.018564 0.024128 0.000000 0.000000 0.000000
# 4 0.000000 0.000000 0.000000 0.059039 0.000000 0.000000
# 5 0.000000 0.000000 0.000000 0.000000 0.030796 0.000000
# 6 0.000000 0.000000 0.000000 0.000000 0.000000 -0.025597
#
#
# Mechanical properties :
#
#
# Convention : Reuss Voigt Hill
#
# Bulk Modulus (GPa) = 41.26729 73.47083 57.36906
# Shear Modulus (GPa) = 20.80705 8.43796 14.62251
#
# Velocity S-wave (km/s) = 3.34848 2.13237 2.80707
# Velocity P-wave (km/s) = 6.09816 6.75678 6.43590
#
# Compressibility (1/GPa) = 0.02423227
#
# Stress axis : x y z
#
# Youngs Moduli (GPa) = 49.01553 19.38729 41.44571
#
# Poissons Ratio (x) = 0.10863 0.48787
# Poissons Ratio (y) = 0.27464 0.76941
# Poissons Ratio (z) = 0.57698 0.35991
#
# Static dielectric constant tensor:
#      x y z
#    x 1.618600 0.000000 0.000000 
#    y 0.000000 1.662190 0.000000 
#    z 0.000000 0.000000 1.627270 
# 
# From -- ./inp_files/17684.got.cif
#   From: 2010.05.17/outbox.cif.g08.bks.cpg/sg49_9_cif.got.tgz:17684.got - 2010.06.03 21:02:19.
