data_PCOD9393434
_publ_section_title
;
Structure prediction by ZEFSAII (Michael W. Deem and Ramdas Pophale) SiO2 
 PCOD9393434
Probable space group: P C C M
;
_chemical_formula_sum "Si O2"
_cell_formula_units_Z 64
_cell_length_a 25.335880
_cell_length_b 15.190974
_cell_length_c 8.894456
_cell_angle_alpha 90.000000
_cell_angle_beta 90.000000
_cell_angle_gamma 90.000000
_cell_volume 3423.268823
_symmetry_space_group_name_H-M "P C C M"
_symmetry_group_IT_number 49
_symmetry_cell_setting 'orthorhombic'
loop_
_space_group_symop_operation_xyz
x,y,z
-x,-y,z
x,-y,1/2-z
-x,y,1/2-z
-x,-y,-z
x,y,-z
-x,y,1/2+z
x,-y,1/2+z
loop_
_atom_site_type_symbol
_atom_site_label
_atom_site_fract_x
_atom_site_fract_y
_atom_site_fract_z
Si Si1 0.557521 0.093121 0.179967
Si Si2 0.840534 0.836627 0.826203
Si Si3 0.730991 0.909125 0.819103
Si Si4 0.806968 0.366847 0.673567
Si Si5 0.913899 0.588798 0.322609
Si Si6 0.054061 0.216296 0.679294
Si Si7 0.349195 0.227913 0.320079
Si Si8 0.684988 0.406474 0.319700
O O1 0.500000 0.110396 0.250000
O O2 0.598022 0.171870 0.212494
O O3 0.575984 0.000000 0.250000
O O4 0.553406 0.083185 0.000000
O O5 0.792440 0.897523 0.775900
O O6 0.815893 0.738138 0.821641
O O7 0.893825 0.835218 0.731340
O O8 0.853543 0.855689 0.000000
O O9 0.697973 0.828716 0.752272
O O10 0.710752 0.000000 0.750000
O O11 0.727348 0.908621 0.000000
O O12 0.816441 0.395034 0.500000
O O13 0.851934 0.405416 0.780193
O O14 0.747338 0.390673 0.715409
O O15 0.935668 0.500000 0.250000
O O16 0.920646 0.584394 0.500000
O O17 0.937732 0.681754 0.267628
O O18 0.050796 0.216526 0.500000
O O19 0.000000 0.182429 0.750000
O O20 0.342679 0.232790 0.500000
O O21 0.346775 0.324865 0.249980
O O22 0.669455 0.500000 0.250000
O O23 0.679942 0.406877 0.500000
#
# Coordination Sequence:
#
# PCOD9393434 Si02
#       8
#     8   8   8   8   8   8   8   8
#     4  10  21  37  60  90 122 159 201 243 292 345
#     4   9  18  35  55  76 106 140 177 221 271 331
#     4  11  22  37  58  88 121 155 189 227 284 347
#     4   9  17  32  51  72 100 138 181 224 272 326
#     4  10  20  31  45  68  95 128 169 217 271 329
#     4  10  21  35  52  73  95 128 174 220 275 334
#     4  11  23  38  58  87 122 160 200 244 290 342
#     4  11  22  36  54  80 114 156 201 245 292 342
#
# _framework density 18.69558
#
# number of rings (size 3 to 8) (size 9 to 14) (size 15 to 20)
#    0.000    1.875    1.250    3.375    0.000    7.750 
#    0.000    1.250    0.000    0.750    0.000    5.250 
#    0.000    0.000    0.000    0.000    0.000    0.000 
#
# Total GULP energy -357457.333157 kJ/mol
# GULP energy per Si atom -5585.270831 kJ/mol
# Density = 1.865303 g / cm^3
# Si number density = 18.695580 Si / 1000 Ang^3
#
#
#
# Elastic Constant Matrix: (Units=GPa)
#
#
# Indices 1 2 3 4 5 6 
#
# 1 103.6956 51.4004 51.2481 0.0000 0.0000 0.0000
# 2 51.4004 101.5340 40.6863 0.0000 0.0000 0.0000
# 3 51.2481 40.6863 61.0027 0.0000 0.0000 0.0000
# 4 0.0000 0.0000 0.0000 11.3476 0.0000 0.0000
# 5 0.0000 0.0000 0.0000 0.0000 19.1754 0.0000
# 6 0.0000 0.0000 0.0000 0.0000 0.0000 5.6606
#
#
#
# Elastic Compliance Matrix: (Units=1/GPa)
#
#
# Indices 1 2 3 4 5 6 
#
# 1 0.017650 -0.004085 -0.012103 0.000000 0.000000 0.000000
# 2 -0.004085 0.014387 -0.006163 0.000000 0.000000 0.000000
# 3 -0.012103 -0.006163 0.030671 0.000000 0.000000 0.000000
# 4 0.000000 0.000000 0.000000 0.088124 0.000000 0.000000
# 5 0.000000 0.000000 0.000000 0.000000 0.052150 0.000000
# 6 0.000000 0.000000 0.000000 0.000000 0.000000 0.176658
#
#
# Mechanical properties :
#
#
# Convention : Reuss Voigt Hill
#
# Bulk Modulus (GPa) = 55.54125 61.43353 58.48739
# Shear Modulus (GPa) = 11.61855 15.42990 13.52422
#
# Velocity S-wave (km/s) = 2.49561 2.87596 2.69251
# Velocity P-wave (km/s) = 6.17064 6.63019 6.40454
#
# Compressibility (1/GPa) = 0.01800464
#
# Stress axis : x y z
#
# Youngs Moduli (GPa) = 56.65652 69.50810 32.60386
#
# Poissons Ratio (x) = 0.28396 0.39461
# Poissons Ratio (y) = 0.23146 0.20095
# Poissons Ratio (z) = 0.68572 0.42840
#
# Static dielectric constant tensor:
#      x y z
#    x 1.641680 0.000000 0.000000 
#    y 0.000000 1.670550 0.000000 
#    z 0.000000 0.000000 1.626830 
# 
# From -- ./inp_files/6531.got.cif
#   From: 2010.05.17/outbox.cif.g08.bks.cpg/sg49_4_cif.got.tgz:6531.got - 2010.06.03 21:02:19.
