data_PCOD9393585
_publ_section_title
;
Structure prediction by ZEFSAII (Michael W. Deem and Ramdas Pophale) SiO2 
 PCOD9393585
Probable space group: P C C M
;
_chemical_formula_sum "Si O2"
_cell_formula_units_Z 56
_cell_length_a 22.863142
_cell_length_b 15.148112
_cell_length_c 8.798961
_cell_angle_alpha 90.000000
_cell_angle_beta 90.000000
_cell_angle_gamma 90.000000
_cell_volume 3047.374394
_symmetry_space_group_name_H-M "P C C M"
_symmetry_group_IT_number 49
_symmetry_cell_setting 'orthorhombic'
loop_
_space_group_symop_operation_xyz
x,y,z
-x,-y,z
x,-y,1/2-z
-x,y,1/2-z
-x,-y,-z
x,y,-z
-x,y,1/2+z
x,-y,1/2+z
loop_
_atom_site_type_symbol
_atom_site_label
_atom_site_fract_x
_atom_site_fract_y
_atom_site_fract_z
Si Si1 0.335484 0.094686 0.817055
Si Si2 0.064015 0.405947 0.818199
Si Si3 0.167185 0.271017 0.818397
Si Si4 0.398192 0.406072 0.679959
Si Si5 0.207007 0.904760 0.818367
Si Si6 0.559940 0.773847 0.818927
Si Si7 0.741241 0.405036 0.819276
O O1 0.272405 0.114436 0.744499
O O2 0.383968 0.167038 0.777947
O O3 0.353581 0.000000 0.750000
O O4 0.329495 0.089726 0.000000
O O5 0.083803 0.500000 0.750000
O O6 0.110127 0.329443 0.782309
O O7 0.000000 0.387870 0.750000
O O8 0.059813 0.414438 0.000000
O O9 0.167825 0.175962 0.739416
O O10 0.222176 0.327931 0.759154
O O11 0.171332 0.260424 0.000000
O O12 0.415474 0.500000 0.750000
O O13 0.408273 0.406449 0.500000
O O14 0.430107 0.324092 0.755783
O O15 0.328290 0.394677 0.706755
O O16 0.190053 0.000000 0.750000
O O17 0.208211 0.909384 0.000000
O O18 0.500000 0.810502 0.750000
O O19 0.555499 0.771537 0.000000
O O20 0.758315 0.500000 0.750000
O O21 0.751731 0.404655 0.000000
#
# Coordination Sequence:
#
# PCOD9393585 Si02
#       7
#     8   8   8   8   8   8   8
#     4  10  21  38  60  84 111 142 175 217 269 326
#     4  10  21  36  56  81 114 154 194 234 273 317
#     4  11  22  35  54  82 114 148 186 229 274 324
#     4  10  21  37  56  77 104 137 175 218 266 321
#     4  11  22  37  59  85 113 145 180 223 273 327
#     4  11  24  39  56  78 104 136 176 221 267 317
#     4  10  20  33  52  80 111 144 178 219 271 326
#
# _framework density 18.376474000000002
#
# number of rings (size 3 to 8) (size 9 to 14) (size 15 to 20)
#    0.000    1.571    0.000    6.429    0.000   10.286 
#    0.000    2.857    0.000    0.429    0.000    3.000 
#    0.000    0.000    0.000    0.000    0.000    0.000 
#
# Total GULP energy -313103.737202 kJ/mol
# GULP energy per Si atom -5591.138164 kJ/mol
# Density = 1.833465 g / cm^3
# Si number density = 18.376474 Si / 1000 Ang^3
#
#
#
# Elastic Constant Matrix: (Units=GPa)
#
#
# Indices 1 2 3 4 5 6 
#
# 1 55.0611 62.7093 48.4424 0.0000 0.0000 0.0000
# 2 62.7093 137.8297 60.5221 0.0000 0.0000 0.0000
# 3 48.4424 60.5221 85.6827 0.0000 0.0000 0.0000
# 4 0.0000 0.0000 0.0000 29.8704 0.0000 0.0000
# 5 0.0000 0.0000 0.0000 0.0000 37.0969 0.0000
# 6 0.0000 0.0000 0.0000 0.0000 0.0000 9.0661
#
#
#
# Elastic Compliance Matrix: (Units=1/GPa)
#
#
# Indices 1 2 3 4 5 6 
#
# 1 0.052260 -0.015660 -0.018484 0.000000 0.000000 0.000000
# 2 -0.015660 0.015210 -0.001890 0.000000 0.000000 0.000000
# 3 -0.018484 -0.001890 0.023456 0.000000 0.000000 0.000000
# 4 0.000000 0.000000 0.000000 0.033478 0.000000 0.000000
# 5 0.000000 0.000000 0.000000 0.000000 0.026956 0.000000
# 6 0.000000 0.000000 0.000000 0.000000 0.000000 0.110301
#
#
# Mechanical properties :
#
#
# Convention : Reuss Voigt Hill
#
# Bulk Modulus (GPa) = 53.03025 69.10235 61.06630
# Shear Modulus (GPa) = 14.70515 22.33331 18.51923
#
# Velocity S-wave (km/s) = 2.83188 3.48993 3.17798
# Velocity P-wave (km/s) = 6.29389 7.34335 6.83878
#
# Compressibility (1/GPa) = 0.01885716
#
# Stress axis : x y z
#
# Youngs Moduli (GPa) = 19.13522 65.74491 42.63220
#
# Poissons Ratio (x) = 1.02959 0.78803
# Poissons Ratio (y) = 0.29966 0.08057
# Poissons Ratio (z) = 0.35370 0.12426
#
# Static dielectric constant tensor:
#      x y z
#    x 1.631480 0.000000 0.000000 
#    y 0.000000 1.621790 0.000000 
#    z 0.000000 0.000000 1.610120 
# 
# From -- ./inp_files/4060.got.cif
#   From: 2010.05.17/outbox.cif.g08.bks.cpg/sg49_3_cif.got.tgz:4060.got - 2010.06.03 21:02:19.
