data_PCOD9393731
_publ_section_title
;
Structure prediction by ZEFSAII (Michael W. Deem and Ramdas Pophale) SiO2 
 PCOD9393731
Probable space group: P C C M
;
_chemical_formula_sum "Si O2"
_cell_formula_units_Z 58
_cell_length_a 26.282721
_cell_length_b 13.060170
_cell_length_c 8.836543
_cell_angle_alpha 90.000000
_cell_angle_beta 90.000000
_cell_angle_gamma 90.000000
_cell_volume 3033.203511
_symmetry_space_group_name_H-M "P C C M"
_symmetry_group_IT_number 49
_symmetry_cell_setting 'orthorhombic'
loop_
_space_group_symop_operation_xyz
x,y,z
-x,-y,z
x,-y,1/2-z
-x,y,1/2-z
-x,-y,-z
x,y,-z
-x,y,1/2+z
x,-y,1/2+z
loop_
_atom_site_type_symbol
_atom_site_label
_atom_site_fract_x
_atom_site_fract_y
_atom_site_fract_z
Si Si1 0.948845 0.886377 0.819290
Si Si2 0.443368 0.104641 0.681095
Si Si3 0.418548 0.322687 0.174698
Si Si4 0.155392 0.190342 0.680653
Si Si5 0.306453 0.688572 0.320384
Si Si6 0.197708 0.605555 0.318886
Si Si7 0.500000 0.500000 0.250000
Si Si8 0.265649 0.893567 0.180102
O O1 0.895812 0.839274 0.766049
O O2 0.000000 0.836309 0.750000
O O3 0.947580 0.000000 0.750000
O O4 0.952494 0.889666 0.000000
O O5 0.500000 0.104014 0.750000
O O6 0.443441 0.095732 0.500000
O O7 0.425415 0.218992 0.727580
O O8 0.418424 0.000000 0.750000
O O9 0.361353 0.359003 0.212867
O O10 0.459505 0.414841 0.186309
O O11 0.420171 0.288330 0.000000
O O12 0.148289 0.182307 0.500000
O O13 0.169887 0.303336 0.733349
O O14 0.206039 0.125235 0.722013
O O15 0.304274 0.708277 0.500000
O O16 0.257744 0.619927 0.283532
O O17 0.297485 0.796929 0.238944
O O18 0.179656 0.500000 0.250000
O O19 0.190998 0.611697 0.500000
O O20 0.282934 0.000000 0.250000
O O21 0.268824 0.897128 0.000000
#
# Coordination Sequence:
#
# PCOD9393731 Si02
#       8
#     8   8   8   8   8   8   2   8
#     4  11  21  34  53  81 118 160 203 245 292 344
#     4  11  22  39  64  89 115 146 183 228 276 332
#     4  11  24  43  63  90 122 154 194 236 289 351
#     4  10  20  35  55  82 115 153 198 245 293 347
#     4   9  21  39  58  81 114 150 186 231 280 339
#     4  10  20  36  58  83 111 146 189 238 292 346
#     4  12  26  40  70  90 122 152 194 238 300 344
#     4  10  20  34  56  85 118 153 191 234 286 347
#
# _framework density 19.121697999999999
#
# number of rings (size 3 to 8) (size 9 to 14) (size 15 to 20)
#    0.000    1.655    0.690    5.172    0.966    4.966 
#    0.000    0.000    0.000    0.414    0.000    2.897 
#    0.000    0.000    0.000    0.000    0.000    0.000 
#
# Total GULP energy -323411.281379 kJ/mol
# GULP energy per Si atom -5576.056575 kJ/mol
# Density = 1.907818 g / cm^3
# Si number density = 19.121698 Si / 1000 Ang^3
#
#
#
# Elastic Constant Matrix: (Units=GPa)
#
#
# Indices 1 2 3 4 5 6 
#
# 1 111.3014 17.1426 40.3673 0.0000 0.0000 0.0000
# 2 17.1426 87.7269 32.5658 0.0000 0.0000 0.0000
# 3 40.3673 32.5658 80.3707 0.0000 0.0000 0.0000
# 4 0.0000 0.0000 0.0000 24.1894 0.0000 0.0000
# 5 0.0000 0.0000 0.0000 0.0000 22.7178 0.0000
# 6 0.0000 0.0000 0.0000 0.0000 0.0000 -13.4590
#
#
#
# Elastic Compliance Matrix: (Units=1/GPa)
#
#
# Indices 1 2 3 4 5 6 
#
# 1 0.010987 -0.000116 -0.005471 0.000000 0.000000 0.000000
# 2 -0.000116 0.013418 -0.005379 0.000000 0.000000 0.000000
# 3 -0.005471 -0.005379 0.017370 0.000000 0.000000 0.000000
# 4 0.000000 0.000000 0.000000 0.041340 0.000000 0.000000
# 5 0.000000 0.000000 0.000000 0.000000 0.044018 0.000000
# 6 0.000000 0.000000 0.000000 0.000000 0.000000 -0.074300
#
#
# Mechanical properties :
#
#
# Convention : Reuss Voigt Hill
#
# Bulk Modulus (GPa) = 50.39568 51.06114 50.72841
# Shear Modulus (GPa) = 61.43982 19.31121 40.37551
#
# Velocity S-wave (km/s) = 5.67457 3.18136 4.60009
# Velocity P-wave (km/s) = 8.32747 6.34476 7.40279
#
# Compressibility (1/GPa) = 0.01984297
#
# Stress axis : x y z
#
# Youngs Moduli (GPa) = 91.01810 74.52467 57.57088
#
# Poissons Ratio (x) = 0.00863 0.31499
# Poissons Ratio (y) = 0.01055 0.30967
# Poissons Ratio (z) = 0.49799 0.40086
#
# Static dielectric constant tensor:
#      x y z
#    x 1.718740 0.000000 0.000000 
#    y 0.000000 1.636190 0.000000 
#    z 0.000000 0.000000 1.646550 
# 
# From -- ./inp_files/6733.got.cif
#   From: 2010.05.17/outbox.cif.g08.bks.cpg/sg49_4_cif.got.tgz:6733.got - 2010.06.03 21:02:19.
