data_PCOD9393427
_publ_section_title
;
Structure prediction by ZEFSAII (Michael W. Deem and Ramdas Pophale) SiO2 
 PCOD9393427
Probable space group: P C C M
;
_chemical_formula_sum "Si O2"
_cell_formula_units_Z 40
_cell_length_a 19.745327
_cell_length_b 14.177877
_cell_length_c 8.873642
_cell_angle_alpha 90.000000
_cell_angle_beta 90.000000
_cell_angle_gamma 90.000000
_cell_volume 2484.147838
_symmetry_space_group_name_H-M "P C C M"
_symmetry_group_IT_number 49
_symmetry_cell_setting 'orthorhombic'
loop_
_space_group_symop_operation_xyz
x,y,z
-x,-y,z
x,-y,1/2-z
-x,y,1/2-z
-x,-y,-z
x,y,-z
-x,y,1/2+z
x,-y,1/2+z
loop_
_atom_site_type_symbol
_atom_site_label
_atom_site_fract_x
_atom_site_fract_y
_atom_site_fract_z
Si Si1 0.072045 0.105127 0.181823
Si Si2 0.566297 0.604281 0.178628
Si Si3 0.071148 0.585881 0.169345
Si Si4 0.825868 0.753321 0.673838
Si Si5 0.279369 0.393252 0.180458
O O1 0.139358 0.161334 0.234699
O O2 0.000000 0.143408 0.250000
O O3 0.077183 0.000000 0.250000
O O4 0.067156 0.104448 0.000000
O O5 0.567884 0.500000 0.250000
O O6 0.500000 0.653113 0.250000
O O7 0.642517 0.639222 0.206275
O O8 0.556420 0.597924 0.000000
O O9 0.109049 0.500000 0.250000
O O10 0.112608 0.679776 0.169851
O O11 0.000000 0.599379 0.250000
O O12 0.060484 0.555961 0.000000
O O13 0.808730 0.779174 0.500000
O O14 0.767485 0.688901 0.749277
O O15 0.271276 0.500000 0.250000
O O16 0.267863 0.400786 0.000000
#
# Coordination Sequence:
#
# PCOD9393427 Si02
#       5
#     8   8   8   8   8
#     4  11  22  38  58  77  97 121 154 198 245 294
#     4   9  16  26  42  63  89 123 164 202 238 277
#     4  10  20  31  44  61  84 115 152 189 224 266
#     4  11  22  34  49  70  94 123 158 196 240 288
#     4  10  20  32  46  68  98 133 168 203 241 284
#
# _framework density 16.102101000000001
#
# number of rings (size 3 to 8) (size 9 to 14) (size 15 to 20)
#    0.000    1.800    0.000    7.200    0.000    8.800 
#    0.000    0.000    0.000    0.000    0.000    0.000 
#    0.000    0.800    0.000    8.400    0.000    4.600 
#
# Total GULP energy -222717.225496 kJ/mol
# GULP energy per Si atom -5567.930637 kJ/mol
# Density = 1.606545 g / cm^3
# Si number density = 16.102101 Si / 1000 Ang^3
#
#
#
# Elastic Constant Matrix: (Units=GPa)
#
#
# Indices 1 2 3 4 5 6 
#
# 1 118.6022 37.1314 64.4809 0.0000 0.0000 0.0000
# 2 37.1314 53.7567 35.5822 0.0000 0.0000 0.0000
# 3 64.4809 35.5822 140.3643 0.0000 0.0000 0.0000
# 4 0.0000 0.0000 0.0000 10.2054 0.0000 0.0000
# 5 0.0000 0.0000 0.0000 0.0000 19.4517 0.0000
# 6 0.0000 0.0000 0.0000 0.0000 0.0000 -3.0149
#
#
#
# Elastic Compliance Matrix: (Units=1/GPa)
#
#
# Indices 1 2 3 4 5 6 
#
# 1 0.012607 -0.005857 -0.004306 0.000000 0.000000 0.000000
# 2 -0.005857 0.025074 -0.003666 0.000000 0.000000 0.000000
# 3 -0.004306 -0.003666 0.010032 0.000000 0.000000 0.000000
# 4 0.000000 0.000000 0.000000 0.097987 0.000000 0.000000
# 5 0.000000 0.000000 0.000000 0.000000 0.051409 0.000000
# 6 0.000000 0.000000 0.000000 0.000000 0.000000 -0.331688
#
#
# Mechanical properties :
#
#
# Convention : Reuss Voigt Hill
#
# Bulk Modulus (GPa) = 49.86480 65.23470 57.54975
# Shear Modulus (GPa) = -49.88254 17.03037 -16.42608
#
# Velocity S-wave (km/s) = -5.57191 3.25568 -3.19740
# Velocity P-wave (km/s) = 3.21866 7.39822 4.71031
#
# Compressibility (1/GPa) = 0.02005423
#
# Stress axis : x y z
#
# Youngs Moduli (GPa) = 79.32343 39.88128 99.68244
#
# Poissons Ratio (x) = 0.23360 0.42928
# Poissons Ratio (y) = 0.46462 0.36540
# Poissons Ratio (z) = 0.34160 0.14619
#
# Static dielectric constant tensor:
#      x y z
#    x 1.595510 0.000000 0.000000 
#    y 0.000000 1.540340 0.000000 
#    z 0.000000 0.000000 1.577900 
# 
# From -- ./inp_files/5640.got.cif
#   From: 2010.05.17/outbox.cif.g08.bks.cpg/sg49_3_cif.got.tgz:5640.got - 2010.06.03 21:02:19.
