data_PCOD9393982
_publ_section_title
;
Structure prediction by ZEFSAII (Michael W. Deem and Ramdas Pophale) SiO2 
 PCOD9393982
Probable space group: P C C M
;
_chemical_formula_sum "Si O2"
_cell_formula_units_Z 64
_cell_length_a 11.189267
_cell_length_b 17.781698
_cell_length_c 15.314186
_cell_angle_alpha 90.000000
_cell_angle_beta 90.000000
_cell_angle_gamma 90.000000
_cell_volume 3046.974255
_symmetry_space_group_name_H-M "P C C M"
_symmetry_group_IT_number 49
_symmetry_cell_setting 'orthorhombic'
loop_
_space_group_symop_operation_xyz
x,y,z
-x,-y,z
x,-y,1/2-z
-x,y,1/2-z
-x,-y,-z
x,y,-z
-x,y,1/2+z
x,-y,1/2+z
loop_
_atom_site_type_symbol
_atom_site_label
_atom_site_fract_x
_atom_site_fract_y
_atom_site_fract_z
Si Si1 0.119731 0.962386 0.896573
Si Si2 0.371584 0.359490 0.273651
Si Si3 0.780255 0.542168 0.403375
Si Si4 0.883396 0.806114 0.688742
Si Si5 0.764547 0.637577 0.902918
Si Si6 0.618971 0.039831 0.103382
Si Si7 0.975582 0.649676 0.648260
Si Si8 0.382290 0.806603 0.192954
O O1 0.108768 0.873635 0.879476
O O2 0.250809 0.986538 0.861585
O O3 0.121341 0.977416 0.000000
O O4 0.000000 0.000000 0.859008
O O5 0.500000 0.392218 0.250000
O O6 0.294564 0.418202 0.327626
O O7 0.310651 0.338479 0.181167
O O8 0.389505 0.282185 0.327632
O O9 0.731818 0.559914 0.500000
O O10 0.779673 0.452731 0.394405
O O11 0.910575 0.579522 0.395246
O O12 0.891611 0.723129 0.646981
O O13 0.752400 0.814935 0.732550
O O14 0.000000 0.810725 0.750000
O O15 0.898075 0.669359 0.893957
O O16 0.716028 0.654229 0.000000
O O17 0.613067 0.129363 0.119533
O O18 0.500000 0.000000 0.139819
O O19 0.620607 0.025452 0.000000
O O20 0.000000 0.631625 0.750000
O O21 0.500000 0.821466 0.250000
#
# Coordination Sequence:
#
# PCOD9393982 Si02
#       8
#     8   8   8   8   8   8   8   8
#     4   9  19  35  55  82 117 155 195 240 299 369
#     4  11  23  42  63  85 122 167 212 261 318 381
#     4  11  23  38  61  92 121 158 209 262 319 384
#     4  10  20  36  58  85 118 154 198 249 303 369
#     4  11  24  40  60  90 126 162 207 263 322 384
#     4   9  19  37  61  88 119 156 200 253 309 369
#     4  11  20  37  62  88 121 161 204 257 324 385
#     4  10  21  39  60  85 116 156 203 250 306 371
#
# _framework density 21.004445
#
# number of rings (size 3 to 8) (size 9 to 14) (size 15 to 20)
#    0.000    1.750    2.500    1.875    0.000    6.000 
#    0.000    5.625    0.000    1.500    0.000    0.000 
#    0.000    0.000    0.000    0.000    0.000    0.000 
#
# Total GULP energy -356907.779252 kJ/mol
# GULP energy per Si atom -5576.684051 kJ/mol
# Density = 2.095664 g / cm^3
# Si number density = 21.004445 Si / 1000 Ang^3
#
#
#
# Elastic Constant Matrix: (Units=GPa)
#
#
# Indices 1 2 3 4 5 6 
#
# 1 145.7092 20.4728 20.9116 0.0000 0.0000 0.0000
# 2 20.4728 64.1698 12.5131 0.0000 0.0000 0.0000
# 3 20.9116 12.5131 63.7882 0.0000 0.0000 0.0000
# 4 0.0000 0.0000 0.0000 8.0406 0.0000 0.0000
# 5 0.0000 0.0000 0.0000 0.0000 -5.5663 0.0000
# 6 0.0000 0.0000 0.0000 0.0000 0.0000 12.2775
#
#
#
# Elastic Compliance Matrix: (Units=1/GPa)
#
#
# Indices 1 2 3 4 5 6 
#
# 1 0.007434 -0.001972 -0.002050 0.000000 0.000000 0.000000
# 2 -0.001972 0.016727 -0.002635 0.000000 0.000000 0.000000
# 3 -0.002050 -0.002635 0.016866 0.000000 0.000000 0.000000
# 4 0.000000 0.000000 0.000000 0.124368 0.000000 0.000000
# 5 0.000000 0.000000 0.000000 0.000000 -0.179653 0.000000
# 6 0.000000 0.000000 0.000000 0.000000 0.000000 0.081450
#
#
# Mechanical properties :
#
#
# Convention : Reuss Voigt Hill
#
# Bulk Modulus (GPa) = 36.08464 42.38469 39.23466
# Shear Modulus (GPa) = 55.71427 17.60168 36.65798
#
# Velocity S-wave (km/s) = 5.15583 2.89796 4.18215
# Velocity P-wave (km/s) = 7.25674 5.60538 6.48385
#
# Compressibility (1/GPa) = 0.02771262
#
# Stress axis : x y z
#
# Youngs Moduli (GPa) = 134.51124 59.78511 59.29137
#
# Poissons Ratio (x) = 0.11790 0.12157
# Poissons Ratio (y) = 0.26526 0.15621
# Poissons Ratio (z) = 0.27579 0.15752
#
# Static dielectric constant tensor:
#      x y z
#    x 1.820470 0.000000 0.000000 
#    y 0.000000 1.815340 0.000000 
#    z 0.000000 0.000000 1.765080 
# 
# From -- ./inp_files/13082.got.cif
#   From: 2010.05.17/outbox.cif.g08.bks.cpg/sg49_7_cif.got.tgz:13082.got - 2010.06.03 21:02:19.
