data_PCOD9393929
_publ_section_title
;
Structure prediction by ZEFSAII (Michael W. Deem and Ramdas Pophale) SiO2 
 PCOD9393929
Probable space group: P C C M
;
_chemical_formula_sum "Si O2"
_cell_formula_units_Z 40
_cell_length_a 9.093617
_cell_length_b 8.705171
_cell_length_c 22.478394
_cell_angle_alpha 90.000000
_cell_angle_beta 90.000000
_cell_angle_gamma 90.000000
_cell_volume 1779.423184
_symmetry_space_group_name_H-M "P C C M"
_symmetry_group_IT_number 49
_symmetry_cell_setting 'orthorhombic'
loop_
_space_group_symop_operation_xyz
x,y,z
-x,-y,z
x,-y,1/2-z
-x,y,1/2-z
-x,-y,-z
x,y,-z
-x,y,1/2+z
x,-y,1/2+z
loop_
_atom_site_type_symbol
_atom_site_label
_atom_site_fract_x
_atom_site_fract_y
_atom_site_fract_z
Si Si1 0.000000 0.500000 0.894520
Si Si2 0.235973 0.276297 0.409093
Si Si3 0.168396 0.823467 0.771751
Si Si4 0.830585 0.948564 0.065253
Si Si5 0.259321 0.306718 0.840932
Si Si6 0.500000 0.500000 0.899171
O O1 0.913388 0.365102 0.928338
O O2 0.872730 0.576377 0.855350
O O3 0.203230 0.228461 0.339067
O O4 0.256486 0.108624 0.435980
O O5 0.369101 0.392169 0.425479
O O6 0.267296 0.725300 0.728038
O O7 0.000000 0.793775 0.750000
O O8 0.193391 0.000000 0.750000
O O9 0.778968 0.841534 0.118798
O O10 0.818428 0.872873 0.000000
O O11 0.000000 0.000000 0.075157
O O12 0.409307 0.377432 0.862324
#
# Coordination Sequence:
#
# PCOD9393929 Si02
#       6
#     4   8   8   8   8   4
#     4  10  20  35  63  88 130 158 207 257 304 372
#     4  11  22  42  62  97 127 170 211 254 318 374
#     4  11  20  34  67  97 127 160 213 268 306 374
#     4  11  22  42  72  99 120 157 221 279 311 362
#     4  11  22  42  62  97 127 170 211 254 318 374
#     4  10  28  43  61  92 144 170 203 255 316 394
#
# _framework density 22.479194
#
# number of rings (size 3 to 8) (size 9 to 14) (size 15 to 20)
#    0.000    1.200    6.000    0.000    0.000    6.400 
#    0.000    9.000    0.000    0.000    0.000    0.000 
#    0.000    0.000    0.000    0.000    0.000    0.000 
#
# Total GULP energy -223106.232572 kJ/mol
# GULP energy per Si atom -5577.655814 kJ/mol
# Density = 2.242803 g / cm^3
# Si number density = 22.479194 Si / 1000 Ang^3
#
#
#
# Elastic Constant Matrix: (Units=GPa)
#
#
# Indices 1 2 3 4 5 6 
#
# 1 77.4898 6.1503 6.4469 0.0000 0.0000 0.0000
# 2 6.1503 91.6986 19.5416 0.0000 0.0000 0.0000
# 3 6.4469 19.5416 132.9469 0.0000 0.0000 0.0000
# 4 0.0000 0.0000 0.0000 -43.5315 0.0000 0.0000
# 5 0.0000 0.0000 0.0000 0.0000 -92.8274 0.0000
# 6 0.0000 0.0000 0.0000 0.0000 0.0000 35.6378
#
#
#
# Elastic Compliance Matrix: (Units=1/GPa)
#
#
# Indices 1 2 3 4 5 6 
#
# 1 0.013009 -0.000762 -0.000519 0.000000 0.000000 0.000000
# 2 -0.000762 0.011303 -0.001624 0.000000 0.000000 0.000000
# 3 -0.000519 -0.001624 0.007786 0.000000 0.000000 0.000000
# 4 0.000000 0.000000 0.000000 -0.022972 0.000000 0.000000
# 5 0.000000 0.000000 0.000000 0.000000 -0.010773 0.000000
# 6 0.000000 0.000000 0.000000 0.000000 0.000000 0.028060
#
#
# Mechanical properties :
#
#
# Convention : Reuss Voigt Hill
#
# Bulk Modulus (GPa) = 38.04225 40.71254 39.37739
# Shear Modulus (GPa) = 121.99621 -2.14445 59.92588
#
# Velocity S-wave (km/s) = 7.37486 -0.97777 5.16878
# Velocity P-wave (km/s) = 9.45929 4.10802 7.29225
#
# Compressibility (1/GPa) = 0.02628657
#
# Stress axis : x y z
#
# Youngs Moduli (GPa) = 76.87243 88.47544 128.44023
#
# Poissons Ratio (x) = 0.06741 0.06664
# Poissons Ratio (y) = 0.05857 0.20864
# Poissons Ratio (z) = 0.03988 0.14372
#
# Static dielectric constant tensor:
#      x y z
#    x 1.812780 0.000000 0.000000 
#    y 0.000000 1.894730 0.000000 
#    z 0.000000 0.000000 1.821530 
# 
# From -- ./inp_files/24376.got.cif
#   From: 2010.05.17/outbox.cif.g08.bks.cpg/sg49_13_cif.got.tgz:24376.got - 2010.06.03 21:02:19.
