data_PCOD9393632
_publ_section_title
;
Structure prediction by ZEFSAII (Michael W. Deem and Ramdas Pophale) SiO2 
 PCOD9393632
Probable space group: P C C M
;
_chemical_formula_sum "Si O2"
_cell_formula_units_Z 64
_cell_length_a 9.487465
_cell_length_b 21.722300
_cell_length_c 15.950130
_cell_angle_alpha 90.000000
_cell_angle_beta 90.000000
_cell_angle_gamma 90.000000
_cell_volume 3287.155289
_symmetry_space_group_name_H-M "P C C M"
_symmetry_group_IT_number 49
_symmetry_cell_setting 'orthorhombic'
loop_
_space_group_symop_operation_xyz
x,y,z
-x,-y,z
x,-y,1/2-z
-x,y,1/2-z
-x,-y,-z
x,y,-z
-x,y,1/2+z
x,-y,1/2+z
loop_
_atom_site_type_symbol
_atom_site_label
_atom_site_fract_x
_atom_site_fract_y
_atom_site_fract_z
Si Si1 0.508243 0.148660 0.595006
Si Si2 0.333133 0.497748 0.898024
Si Si3 0.257775 0.087696 0.677242
Si Si4 0.758698 0.764238 0.897630
Si Si5 0.817755 0.371060 0.598674
Si Si6 0.934134 0.561935 0.656096
Si Si7 0.018581 0.866566 0.595497
Si Si8 0.269805 0.952199 0.629453
O O1 0.462070 0.162800 0.500000
O O2 0.378382 0.135610 0.654444
O O3 0.614746 0.201415 0.625749
O O4 0.601061 0.086190 0.592772
O O5 0.500000 0.500000 0.878317
O O6 0.268773 0.431184 0.871136
O O7 0.232045 0.549531 0.854818
O O8 0.319242 0.504051 0.000000
O O9 0.268182 0.066078 0.772466
O O10 0.108461 0.116677 0.655491
O O11 0.277867 0.025337 0.622662
O O12 0.773192 0.694879 0.865628
O O13 0.888971 0.808371 0.874690
O O14 0.759442 0.763996 0.000000
O O15 0.789739 0.368812 0.500000
O O16 0.984731 0.382447 0.612074
O O17 0.000000 0.500000 0.615328
O O18 0.000000 0.564086 0.750000
O O19 0.968830 0.855441 0.500000
O O20 0.126434 0.923896 0.593926
#
# Coordination Sequence:
#
# PCOD9393632 Si02
#       8
#     8   8   8   8   8   8   8   8
#     4  10  20  34  52  72  96 127 166 208 249 299
#     4   9  17  30  52  82 109 134 171 220 269 313
#     4  11  21  33  51  75  99 125 161 207 254 302
#     4   8  17  34  52  71  97 133 172 210 256 302
#     4   9  16  31  54  72  96 138 179 210 247 308
#     4   9  17  30  48  75 107 138 172 210 257 310
#     4  10  20  34  52  73  97 125 163 208 249 297
#     4  10  21  35  50  71 101 132 158 193 256 321
#
# _framework density 19.469722000000001
#
# number of rings (size 3 to 8) (size 9 to 14) (size 15 to 20)
#    0.000    2.500    0.000    3.375    0.000    6.500 
#    0.000    8.750    0.000    7.500    0.000    0.000 
#    0.000    0.000    0.000    0.000    0.000    0.000 
#
# Total GULP energy -356775.719949 kJ/mol
# GULP energy per Si atom -5574.620624 kJ/mol
# Density = 1.942541 g / cm^3
# Si number density = 19.469722 Si / 1000 Ang^3
#
#
#
# Elastic Constant Matrix: (Units=GPa)
#
#
# Indices 1 2 3 4 5 6 
#
# 1 118.3495 38.8518 17.6714 0.0000 0.0000 0.0000
# 2 38.8518 103.8535 9.7297 0.0000 0.0000 0.0000
# 3 17.6714 9.7297 42.1756 0.0000 0.0000 0.0000
# 4 0.0000 0.0000 0.0000 13.6322 0.0000 0.0000
# 5 0.0000 0.0000 0.0000 0.0000 33.0040 0.0000
# 6 0.0000 0.0000 0.0000 0.0000 0.0000 8.6263
#
#
#
# Elastic Compliance Matrix: (Units=1/GPa)
#
#
# Indices 1 2 3 4 5 6 
#
# 1 0.010097 -0.003455 -0.003433 0.000000 0.000000 0.000000
# 2 -0.003455 0.011024 -0.001095 0.000000 0.000000 0.000000
# 3 -0.003433 -0.001095 0.025402 0.000000 0.000000 0.000000
# 4 0.000000 0.000000 0.000000 0.073356 0.000000 0.000000
# 5 0.000000 0.000000 0.000000 0.000000 0.030299 0.000000
# 6 0.000000 0.000000 0.000000 0.000000 0.000000 0.115925
#
#
# Mechanical properties :
#
#
# Convention : Reuss Voigt Hill
#
# Bulk Modulus (GPa) = 32.72876 44.09826 38.41351
# Shear Modulus (GPa) = 17.10832 24.26087 20.68460
#
# Velocity S-wave (km/s) = 2.96753 3.53382 3.26298
# Velocity P-wave (km/s) = 5.34679 6.27290 5.82827
#
# Compressibility (1/GPa) = 0.03055417
#
# Stress axis : x y z
#
# Youngs Moduli (GPa) = 99.04363 90.70885 39.36754
#
# Poissons Ratio (x) = 0.31344 0.13516
# Poissons Ratio (y) = 0.34224 0.04312
# Poissons Ratio (z) = 0.34004 0.09936
#
# Static dielectric constant tensor:
#      x y z
#    x 1.686230 0.000000 0.000000 
#    y 0.000000 1.691180 0.000000 
#    z 0.000000 0.000000 1.736150 
# 
# From -- ./inp_files/16590.got.cif
#   From: 2010.05.17/outbox.cif.g08.bks.cpg/sg49_9_cif.got.tgz:16590.got - 2010.06.03 21:02:19.
