data_PCOD9393339
_publ_section_title
;
Structure prediction by ZEFSAII (Michael W. Deem and Ramdas Pophale) SiO2 
 PCOD9393339
Probable space group: P C C M
;
_chemical_formula_sum "Si O2"
_cell_formula_units_Z 56
_cell_length_a 8.126254
_cell_length_b 13.601011
_cell_length_c 20.465808
_cell_angle_alpha 90.000000
_cell_angle_beta 90.000000
_cell_angle_gamma 90.000000
_cell_volume 2261.988956
_symmetry_space_group_name_H-M "P C C M"
_symmetry_group_IT_number 49
_symmetry_cell_setting 'orthorhombic'
loop_
_space_group_symop_operation_xyz
x,y,z
-x,-y,z
x,-y,1/2-z
-x,y,1/2-z
-x,-y,-z
x,y,-z
-x,y,1/2+z
x,-y,1/2+z
loop_
_atom_site_type_symbol
_atom_site_label
_atom_site_fract_x
_atom_site_fract_y
_atom_site_fract_z
Si Si1 0.066875 0.268012 0.392489
Si Si2 0.176383 0.259557 0.747334
Si Si3 0.302333 0.648238 0.638404
Si Si4 0.533192 0.825054 0.074718
Si Si5 0.262645 0.060960 0.184927
Si Si6 0.823693 0.076933 0.070391
Si Si7 0.808444 0.469746 0.071495
O O1 0.178919 0.243261 0.328976
O O2 0.044726 0.164416 0.427200
O O3 0.174742 0.353033 0.425348
O O4 0.882188 0.309927 0.380556
O O5 0.310309 0.322955 0.785276
O O6 0.168747 0.154957 0.784404
O O7 0.000000 0.314375 0.750000
O O8 0.429531 0.713223 0.597112
O O9 0.294660 0.533072 0.622966
O O10 0.607905 0.889772 0.134566
O O11 0.348507 0.864214 0.070881
O O12 0.599012 0.837337 0.000000
O O13 0.315247 0.000000 0.250000
O O14 0.171163 0.989216 0.134710
O O15 0.829874 0.024897 0.000000
O O16 0.000000 0.500000 0.078854
O O17 0.751014 0.501746 0.000000
#
# Coordination Sequence:
#
# PCOD9393339 Si02
#       7
#     8   8   8   8   8   8   8
#     4  10  19  36  57  85 116 147 190 236 285 339
#     4   9  19  36  56  83 113 148 183 236 289 333
#     4   9  19  36  59  83 113 152 189 231 286 340
#     4  10  22  39  57  81 115 149 189 237 284 337
#     4  11  21  38  58  82 106 150 192 232 276 346
#     4  11  23  38  56  83 116 149 188 241 289 332
#     4   9  17  30  54  84 113 147 189 233 277 337
#
# _framework density 24.756972000000001
#
# number of rings (size 3 to 8) (size 9 to 14) (size 15 to 20)
#    0.000    2.143    1.429    1.714    0.000    4.857 
#    2.571    3.571    0.000    6.000    0.000    2.000 
#    0.000    0.000    0.000    0.000    0.000    0.000 
#
# Total GULP energy -312278.766124 kJ/mol
# GULP energy per Si atom -5576.406538 kJ/mol
# Density = 2.470062 g / cm^3
# Si number density = 24.756972 Si / 1000 Ang^3
#
#
#
# Elastic Constant Matrix: (Units=GPa)
#
#
# Indices 1 2 3 4 5 6 
#
# 1 67.8665 4.9510 17.0043 0.0000 0.0000 0.0000
# 2 4.9510 85.1303 19.2693 0.0000 0.0000 0.0000
# 3 17.0043 19.2693 159.3622 0.0000 0.0000 0.0000
# 4 0.0000 0.0000 0.0000 24.5890 0.0000 0.0000
# 5 0.0000 0.0000 0.0000 0.0000 13.4385 0.0000
# 6 0.0000 0.0000 0.0000 0.0000 0.0000 18.4978
#
#
#
# Elastic Compliance Matrix: (Units=1/GPa)
#
#
# Indices 1 2 3 4 5 6 
#
# 1 0.015163 -0.000530 -0.001554 0.000000 0.000000 0.000000
# 2 -0.000530 0.012096 -0.001406 0.000000 0.000000 0.000000
# 3 -0.001554 -0.001406 0.006611 0.000000 0.000000 0.000000
# 4 0.000000 0.000000 0.000000 0.040669 0.000000 0.000000
# 5 0.000000 0.000000 0.000000 0.000000 0.074413 0.000000
# 6 0.000000 0.000000 0.000000 0.000000 0.000000 0.054060
#
#
# Mechanical properties :
#
#
# Convention : Reuss Voigt Hill
#
# Bulk Modulus (GPa) = 37.18921 43.86758 40.52839
# Shear Modulus (GPa) = 22.83582 29.38070 26.10826
#
# Velocity S-wave (km/s) = 3.04040 3.44868 3.25096
# Velocity P-wave (km/s) = 5.23256 5.79790 5.52247
#
# Compressibility (1/GPa) = 0.02688952
#
# Stress axis : x y z
#
# Youngs Moduli (GPa) = 65.95092 82.67347 151.26725
#
# Poissons Ratio (x) = 0.04383 0.23504
# Poissons Ratio (y) = 0.03496 0.21268
# Poissons Ratio (z) = 0.10247 0.11624
#
# Static dielectric constant tensor:
#      x y z
#    x 2.011990 0.000000 0.000000 
#    y 0.000000 1.985390 0.000000 
#    z 0.000000 0.000000 2.043220 
# 
# From -- ./inp_files/19899.got.cif
#   From: 2010.05.17/outbox.cif.g08.bks.cpg/sg49_10_cif.got.tgz:19899.got - 2010.06.03 21:02:19.
