data_PCOD9393099
_publ_section_title
;
Structure prediction by ZEFSAII (Michael W. Deem and Ramdas Pophale) SiO2 
 PCOD9393099
Probable space group: P C C M
;
_chemical_formula_sum "Si O2"
_cell_formula_units_Z 40
_cell_length_a 5.064337
_cell_length_b 22.621966
_cell_length_c 15.652653
_cell_angle_alpha 90.000000
_cell_angle_beta 90.000000
_cell_angle_gamma 90.000000
_cell_volume 1793.250252
_symmetry_space_group_name_H-M "P C C M"
_symmetry_group_IT_number 49
_symmetry_cell_setting 'orthorhombic'
loop_
_space_group_symop_operation_xyz
x,y,z
-x,-y,z
x,-y,1/2-z
-x,y,1/2-z
-x,-y,-z
x,y,-z
-x,y,1/2+z
x,-y,1/2+z
loop_
_atom_site_type_symbol
_atom_site_label
_atom_site_fract_x
_atom_site_fract_y
_atom_site_fract_z
Si Si1 0.631971 0.866490 0.398816
Si Si2 0.853665 0.057825 0.600909
Si Si3 0.875415 0.332752 0.597091
Si Si4 0.261843 0.461113 0.899040
Si Si5 0.389854 0.732990 0.842752
O O1 0.573414 0.858131 0.500000
O O2 0.926305 0.891598 0.392637
O O3 0.618421 0.803270 0.355082
O O4 0.420290 0.915063 0.365732
O O5 0.802898 0.043885 0.500000
O O6 0.000000 0.000000 0.637635
O O7 0.971080 0.343249 0.500000
O O8 0.799717 0.396243 0.636783
O O9 0.609923 0.294526 0.595686
O O10 0.107330 0.296866 0.642689
O O11 0.500000 0.500000 0.862043
O O12 0.000000 0.500000 0.894447
O O13 0.327987 0.450923 0.000000
O O14 0.500000 0.718893 0.750000
#
# Coordination Sequence:
#
# PCOD9393099 Si02
#       5
#     8   8   8   8   8
#     4  10  19  33  55  80 109 148 195 240 286 351
#     4   9  17  30  52  82 110 138 182 243 299 345
#     4  11  22  39  64  90 118 156 204 249 293 356
#     4   9  17  31  55  88 118 143 182 239 291 334
#     4  12  25  40  58  85 124 163 200 247 303 355
#
# _framework density 22.305866000000002
#
# number of rings (size 3 to 8) (size 9 to 14) (size 15 to 20)
#    0.000    1.800    0.000    5.400    0.000    7.200 
#    0.000    0.000    0.000   12.600    0.000    0.000 
#    0.000    0.000    0.000    0.000    0.000    0.800 
#
# Total GULP energy -223526.174088 kJ/mol
# GULP energy per Si atom -5588.154352 kJ/mol
# Density = 2.225510 g / cm^3
# Si number density = 22.305866 Si / 1000 Ang^3
#
#
#
# Elastic Constant Matrix: (Units=GPa)
#
#
# Indices 1 2 3 4 5 6 
#
# 1 95.9495 6.2998 7.8693 0.0000 0.0000 0.0000
# 2 6.2998 86.1690 7.1297 0.0000 0.0000 0.0000
# 3 7.8693 7.1297 36.5476 0.0000 0.0000 0.0000
# 4 0.0000 0.0000 0.0000 -12.5890 0.0000 0.0000
# 5 0.0000 0.0000 0.0000 0.0000 -31.6988 0.0000
# 6 0.0000 0.0000 0.0000 0.0000 0.0000 32.4598
#
#
#
# Elastic Compliance Matrix: (Units=1/GPa)
#
#
# Indices 1 2 3 4 5 6 
#
# 1 0.010640 -0.000598 -0.002174 0.000000 0.000000 0.000000
# 2 -0.000598 0.011829 -0.002179 0.000000 0.000000 0.000000
# 3 -0.002174 -0.002179 0.028255 0.000000 0.000000 0.000000
# 4 0.000000 0.000000 0.000000 -0.079434 0.000000 0.000000
# 5 0.000000 0.000000 0.000000 0.000000 -0.031547 0.000000
# 6 0.000000 0.000000 0.000000 0.000000 0.000000 0.030807
#
#
# Mechanical properties :
#
#
# Convention : Reuss Voigt Hill
#
# Bulk Modulus (GPa) = 24.49694 29.02929 26.76311
# Shear Modulus (GPa) = -841.61330 10.79221 -415.41054
#
# Velocity S-wave (km/s) = -19.44543 2.20200 -13.66155
# Velocity P-wave (km/s) = 22.20722 4.41673 15.38917
#
# Compressibility (1/GPa) = 0.04082143
#
# Stress axis : x y z
#
# Youngs Moduli (GPa) = 93.98731 84.53723 35.39226
#
# Poissons Ratio (x) = 0.05055 0.07695
# Poissons Ratio (y) = 0.05620 0.07712
# Poissons Ratio (z) = 0.20435 0.18420
#
# Static dielectric constant tensor:
#      x y z
#    x 1.778650 0.000000 0.000000 
#    y 0.000000 1.811770 0.000000 
#    z 0.000000 0.000000 1.860530 
# 
# From -- ./inp_files/15252.got.cif
#   From: 2010.05.17/outbox.cif.g08.bks.cpg/sg49_8_cif.got.tgz:15252.got - 2010.06.03 21:02:19.
