data_PCOD9393734
_publ_section_title
;
Structure prediction by ZEFSAII (Michael W. Deem and Ramdas Pophale) SiO2 
 PCOD9393734
Probable space group: P C C M
;
_chemical_formula_sum "Si O2"
_cell_formula_units_Z 58
_cell_length_a 11.753143
_cell_length_b 9.760067
_cell_length_c 26.854490
_cell_angle_alpha 90.000000
_cell_angle_beta 90.000000
_cell_angle_gamma 90.000000
_cell_volume 3080.517840
_symmetry_space_group_name_H-M "P C C M"
_symmetry_group_IT_number 49
_symmetry_cell_setting 'orthorhombic'
loop_
_space_group_symop_operation_xyz
x,y,z
-x,-y,z
x,-y,1/2-z
-x,y,1/2-z
-x,-y,-z
x,y,-z
-x,y,1/2+z
x,-y,1/2+z
loop_
_atom_site_type_symbol
_atom_site_label
_atom_site_fract_x
_atom_site_fract_y
_atom_site_fract_z
Si Si1 0.500000 0.000000 0.750000
Si Si2 0.276181 0.489899 0.556994
Si Si3 0.116483 0.226459 0.556728
Si Si4 0.179286 0.623254 0.285482
Si Si5 0.111856 0.699786 0.386836
Si Si6 0.375864 0.539458 0.159392
Si Si7 0.135953 0.997634 0.137005
Si Si8 0.294397 0.178907 0.707794
O O1 0.410311 0.099223 0.721753
O O2 0.309856 0.521052 0.500000
O O3 0.209875 0.345345 0.556829
O O4 0.189310 0.602220 0.579467
O O5 0.369820 0.477465 0.599915
O O6 0.088559 0.191052 0.500000
O O7 0.151754 0.094817 0.588048
O O8 0.005861 0.283048 0.584715
O O9 0.141277 0.500000 0.250000
O O10 0.092126 0.649327 0.330250
O O11 0.289218 0.565357 0.314673
O O12 0.222571 0.753049 0.253436
O O13 0.168271 0.847847 0.377041
O O14 0.500000 0.500000 0.178037
O O15 0.332504 0.689995 0.174867
O O16 0.211082 0.925539 0.179164
O O17 0.000000 0.000000 0.149448
#
# Coordination Sequence:
#
# PCOD9393734 Si02
#       8
#     2   8   8   8   8   8   8   8
#     4  12  24  32  60  84 110 160 200 236 300 344
#     4  10  20  36  59  84 114 150 192 245 297 349
#     4  10  20  37  60  85 114 154 195 237 295 359
#     4   9  20  37  58  81 112 151 193 241 294 342
#     4  10  20  34  56  87 115 147 197 239 288 349
#     4  10  20  36  62  86 113 148 196 255 301 347
#     4  10  22  38  60  84 122 161 194 238 299 362
#     4  11  21  40  59  85 121 156 205 248 293 364
#
# _framework density 18.828002999999999
#
# number of rings (size 3 to 8) (size 9 to 14) (size 15 to 20)
#    0.000    1.931    1.379    2.483    0.000    7.448 
#    0.000    7.931    6.069    0.000    0.000    1.931 
#    0.000    0.000    0.000    0.000    0.000    0.000 
#
# Total GULP energy -323574.718016 kJ/mol
# GULP energy per Si atom -5578.874449 kJ/mol
# Density = 1.878515 g / cm^3
# Si number density = 18.828003 Si / 1000 Ang^3
#
#
#
# Elastic Constant Matrix: (Units=GPa)
#
#
# Indices 1 2 3 4 5 6 
#
# 1 30.4317 5.7467 30.3431 0.0000 0.0000 0.0000
# 2 5.7467 60.7884 33.2490 0.0000 0.0000 0.0000
# 3 30.3431 33.2490 135.7292 0.0000 0.0000 0.0000
# 4 0.0000 0.0000 0.0000 15.6045 0.0000 0.0000
# 5 0.0000 0.0000 0.0000 0.0000 2.0940 0.0000
# 6 0.0000 0.0000 0.0000 0.0000 0.0000 17.0111
#
#
#
# Elastic Compliance Matrix: (Units=1/GPa)
#
#
# Indices 1 2 3 4 5 6 
#
# 1 0.042383 0.001358 -0.009808 0.000000 0.000000 0.000000
# 2 0.001358 0.019039 -0.004967 0.000000 0.000000 0.000000
# 3 -0.009808 -0.004967 0.010777 0.000000 0.000000 0.000000
# 4 0.000000 0.000000 0.000000 0.064084 0.000000 0.000000
# 5 0.000000 0.000000 0.000000 0.000000 0.477553 0.000000
# 6 0.000000 0.000000 0.000000 0.000000 0.000000 0.058785
#
#
# Mechanical properties :
#
#
# Convention : Reuss Voigt Hill
#
# Bulk Modulus (GPa) = 22.04366 40.62522 31.33444
# Shear Modulus (GPa) = 6.99713 17.44928 12.22321
#
# Velocity S-wave (km/s) = 1.92987 3.04760 2.55071
# Velocity P-wave (km/s) = 4.08647 5.83161 5.03522
#
# Compressibility (1/GPa) = 0.04536451
#
# Stress axis : x y z
#
# Youngs Moduli (GPa) = 23.59431 52.52324 92.79014
#
# Poissons Ratio (x) = -0.07131 0.91005
# Poissons Ratio (y) = -0.03203 0.46093
# Poissons Ratio (z) = 0.23140 0.26091
#
# Static dielectric constant tensor:
#      x y z
#    x 1.630820 0.000000 0.000000 
#    y 0.000000 1.670500 0.000000 
#    z 0.000000 0.000000 1.678680 
# 
# From -- ./inp_files/24860.got.cif
#   From: 2010.05.17/outbox.cif.g08.bks.cpg/sg49_13_cif.got.tgz:24860.got - 2010.06.03 21:02:19.
