data_PCOD9393875
_publ_section_title
;
Structure prediction by ZEFSAII (Michael W. Deem and Ramdas Pophale) SiO2 
 PCOD9393875
Probable space group: P C C M
;
_chemical_formula_sum "Si O2"
_cell_formula_units_Z 40
_cell_length_a 23.006550
_cell_length_b 7.078466
_cell_length_c 10.528958
_cell_angle_alpha 90.000000
_cell_angle_beta 90.000000
_cell_angle_gamma 90.000000
_cell_volume 1714.652202
_symmetry_space_group_name_H-M "P C C M"
_symmetry_group_IT_number 49
_symmetry_cell_setting 'orthorhombic'
loop_
_space_group_symop_operation_xyz
x,y,z
-x,-y,z
x,-y,1/2-z
-x,y,1/2-z
-x,-y,-z
x,y,-z
-x,y,1/2+z
x,-y,1/2+z
loop_
_atom_site_type_symbol
_atom_site_label
_atom_site_fract_x
_atom_site_fract_y
_atom_site_fract_z
Si Si1 0.633715 0.729531 0.738170
Si Si2 0.576397 0.270490 0.500000
Si Si3 0.051590 0.754681 0.000000
Si Si4 0.880268 0.212476 0.768647
Si Si5 0.083523 0.206722 0.000000
Si Si6 0.557732 0.271773 0.000000
Si Si7 0.242639 0.326335 0.650225
O O1 0.633791 0.500000 0.750000
O O2 0.611651 0.790136 0.875696
O O3 0.589159 0.788590 0.628913
O O4 0.698523 0.778742 0.693082
O O5 0.568040 0.499757 0.500000
O O6 0.509159 0.212664 0.500000
O O7 0.078866 0.682985 0.131121
O O8 0.983124 0.727776 0.000000
O O9 0.073322 0.976774 0.000000
O O10 0.882380 0.277870 0.623770
O O11 0.816201 0.210204 0.828023
O O12 0.903253 0.000000 0.750000
O O13 0.237048 0.500000 0.750000
O O14 0.248058 0.378706 0.500000
#
# Coordination Sequence:
#
# PCOD9393875 Si02
#       7
#     8   4   4   8   4   4   8
#     4   9  17  27  42  63  94 133 171 207 256 309
#     4   9  16  23  40  62  93 125 166 215 256 312
#     4   9  16  33  53  81 111 133 166 215 266 314
#     4  10  20  35  57  82 108 135 173 221 262 306
#     4   9  18  29  55  85 105 133 170 213 268 316
#     4   9  14  25  38  62  91 129 166 209 260 308
#     4  11  23  37  54  74 107 147 182 215 257 316
#
# _framework density 23.328346
#
# number of rings (size 3 to 8) (size 9 to 14) (size 15 to 20)
#    0.000    2.400    2.000    1.200    5.600    4.800 
#    0.000    0.000    0.000    3.600    0.000    0.000 
#    0.000    4.800    0.000    0.000    0.000    0.000 
#
# Total GULP energy -223298.303566 kJ/mol
# GULP energy per Si atom -5582.457589 kJ/mol
# Density = 2.327525 g / cm^3
# Si number density = 23.328346 Si / 1000 Ang^3
#
#
#
# Elastic Constant Matrix: (Units=GPa)
#
#
# Indices 1 2 3 4 5 6 
#
# 1 105.8061 -40.4198 76.0780 0.0000 0.0000 0.0000
# 2 -40.4198 73.1785 -6.7187 0.0000 0.0000 0.0000
# 3 76.0780 -6.7187 251.3552 0.0000 0.0000 0.0000
# 4 0.0000 0.0000 0.0000 -8.8113 0.0000 0.0000
# 5 0.0000 0.0000 0.0000 0.0000 40.7988 0.0000
# 6 0.0000 0.0000 0.0000 0.0000 0.0000 29.2984
#
#
#
# Elastic Compliance Matrix: (Units=1/GPa)
#
#
# Indices 1 2 3 4 5 6 
#
# 1 0.015976 0.008401 -0.004611 0.000000 0.000000 0.000000
# 2 0.008401 0.018116 -0.002058 0.000000 0.000000 0.000000
# 3 -0.004611 -0.002058 0.005319 0.000000 0.000000 0.000000
# 4 0.000000 0.000000 0.000000 -0.113491 0.000000 0.000000
# 5 0.000000 0.000000 0.000000 0.000000 0.024511 0.000000
# 6 0.000000 0.000000 0.000000 0.000000 0.000000 0.034132
#
#
# Mechanical properties :
#
#
# Convention : Reuss Voigt Hill
#
# Bulk Modulus (GPa) = 23.32391 54.24652 38.78522
# Shear Modulus (GPa) = -1084.89438 39.01721 -522.93859
#
# Velocity S-wave (km/s) = -21.58851 4.09409 -14.98837
# Velocity P-wave (km/s) = 24.72647 6.75668 16.81883
#
# Compressibility (1/GPa) = 0.04287446
#
# Stress axis : x y z
#
# Youngs Moduli (GPa) = 62.59411 55.19851 188.00526
#
# Poissons Ratio (x) = -0.46372 0.86687
# Poissons Ratio (y) = -0.52585 0.38700
# Poissons Ratio (z) = 0.28862 0.11362
#
# Static dielectric constant tensor:
#      x y z
#    x 1.831670 0.000000 0.000000 
#    y 0.000000 1.954110 0.000000 
#    z 0.000000 0.000000 1.897720 
# 
# From -- ./inp_files/2824.got.cif
#   From: 2010.05.17/outbox.cif.g08.bks.cpg/sg49_2_cif.got.tgz:2824.got - 2010.06.03 21:02:19.
