data_PCOD9393158
_publ_section_title
;
Structure prediction by ZEFSAII (Michael W. Deem and Ramdas Pophale) SiO2 
 PCOD9393158
Probable space group: P C C M
;
_chemical_formula_sum "Si O2"
_cell_formula_units_Z 40
_cell_length_a 9.307159
_cell_length_b 27.292784
_cell_length_c 8.574867
_cell_angle_alpha 90.000000
_cell_angle_beta 90.000000
_cell_angle_gamma 90.000000
_cell_volume 2178.172969
_symmetry_space_group_name_H-M "P C C M"
_symmetry_group_IT_number 49
_symmetry_cell_setting 'orthorhombic'
loop_
_space_group_symop_operation_xyz
x,y,z
-x,-y,z
x,-y,1/2-z
-x,y,1/2-z
-x,-y,-z
x,y,-z
-x,y,1/2+z
x,-y,1/2+z
loop_
_atom_site_type_symbol
_atom_site_label
_atom_site_fract_x
_atom_site_fract_y
_atom_site_fract_z
Si Si1 0.161622 0.052808 0.813560
Si Si2 0.836853 0.656079 0.187798
Si Si3 0.339095 0.144402 0.313853
Si Si4 0.835591 0.550335 0.812997
Si Si5 0.836518 0.763478 0.188109
O O1 0.259421 0.096814 0.753981
O O2 0.000000 0.060213 0.750000
O O3 0.211422 0.000000 0.750000
O O4 0.158083 0.051770 0.000000
O O5 0.771611 0.603379 0.235456
O O6 0.777006 0.709293 0.233962
O O7 0.000000 0.656117 0.250000
O O8 0.841570 0.655760 0.000000
O O9 0.500000 0.146115 0.250000
O O10 0.338959 0.141957 0.500000
O O11 0.254990 0.192697 0.258298
O O12 0.768277 0.500000 0.750000
O O13 0.000000 0.551035 0.750000
O O14 0.839630 0.547665 0.000000
O O15 0.000000 0.766963 0.250000
O O16 0.837902 0.767041 0.000000
#
# Coordination Sequence:
#
# PCOD9393158 Si02
#       5
#     8   8   8   8   8
#     4  11  22  40  64  91 118 148 182 219 258 304
#     4   8  15  25  39  59  87 121 162 205 251 301
#     4  12  25  41  58  81 110 143 179 220 266 316
#     4   9  14  20  30  49  78 116 155 196 243 298
#     4  10  19  34  54  77 103 137 177 221 265 313
#
# _framework density 18.364014999999998
#
# number of rings (size 3 to 8) (size 9 to 14) (size 15 to 20)
#    0.000    2.000    0.000    6.600    0.000    2.000 
#    0.000    2.000    0.000    0.000    0.000    0.000 
#    0.000    0.800    0.000    9.200    0.000    5.400 
#
# Total GULP energy -223027.939475 kJ/mol
# GULP energy per Si atom -5575.698487 kJ/mol
# Density = 1.832222 g / cm^3
# Si number density = 18.364015 Si / 1000 Ang^3
#
#
#
# Elastic Constant Matrix: (Units=GPa)
#
#
# Indices 1 2 3 4 5 6 
#
# 1 46.9833 76.4216 29.3538 0.0000 0.0000 0.0000
# 2 76.4216 242.0463 75.1991 0.0000 0.0000 0.0000
# 3 29.3538 75.1991 125.0512 0.0000 0.0000 0.0000
# 4 0.0000 0.0000 0.0000 79.2737 0.0000 0.0000
# 5 0.0000 0.0000 0.0000 0.0000 20.6767 0.0000
# 6 0.0000 0.0000 0.0000 0.0000 0.0000 -8.4312
#
#
#
# Elastic Compliance Matrix: (Units=1/GPa)
#
#
# Indices 1 2 3 4 5 6 
#
# 1 0.044356 -0.013244 -0.002448 0.000000 0.000000 0.000000
# 2 -0.013244 0.009035 -0.002324 0.000000 0.000000 0.000000
# 3 -0.002448 -0.002324 0.009969 0.000000 0.000000 0.000000
# 4 0.000000 0.000000 0.000000 0.012615 0.000000 0.000000
# 5 0.000000 0.000000 0.000000 0.000000 0.048364 0.000000
# 6 0.000000 0.000000 0.000000 0.000000 0.000000 -0.118607
#
#
# Mechanical properties :
#
#
# Convention : Reuss Voigt Hill
#
# Bulk Modulus (GPa) = 36.59272 86.22553 61.40913
# Shear Modulus (GPa) = 98.28564 33.84427 66.06496
#
# Velocity S-wave (km/s) = 7.32373 4.29764 6.00444
# Velocity P-wave (km/s) = 9.56481 8.46650 9.03237
#
# Compressibility (1/GPa) = 0.02732784
#
# Stress axis : x y z
#
# Youngs Moduli (GPa) = 22.54503 110.67863 100.31075
#
# Poissons Ratio (x) = 1.46584 0.24551
# Poissons Ratio (y) = 0.29859 0.23317
# Poissons Ratio (z) = 0.05518 0.25726
#
# Static dielectric constant tensor:
#      x y z
#    x 1.576660 0.000000 0.000000 
#    y 0.000000 1.703270 0.000000 
#    z 0.000000 0.000000 1.619250 
# 
# From -- ./inp_files/1905.got.cif
#   From: 2010.05.17/outbox.cif.g08.bks.cpg/sg49_1_cif.got.tgz:1905.got - 2010.06.03 21:02:19.
