data_PCOD9393346
_publ_section_title
;
Structure prediction by ZEFSAII (Michael W. Deem and Ramdas Pophale) SiO2 
 PCOD9393346
Probable space group: P C C M
;
_chemical_formula_sum "Si O2"
_cell_formula_units_Z 64
_cell_length_a 13.638202
_cell_length_b 12.196232
_cell_length_c 15.329244
_cell_angle_alpha 90.000000
_cell_angle_beta 90.000000
_cell_angle_gamma 90.000000
_cell_volume 2549.784829
_symmetry_space_group_name_H-M "P C C M"
_symmetry_group_IT_number 49
_symmetry_cell_setting 'orthorhombic'
loop_
_space_group_symop_operation_xyz
x,y,z
-x,-y,z
x,-y,1/2-z
-x,y,1/2-z
-x,-y,-z
x,y,-z
-x,y,1/2+z
x,-y,1/2+z
loop_
_atom_site_type_symbol
_atom_site_label
_atom_site_fract_x
_atom_site_fract_y
_atom_site_fract_z
Si Si1 0.104357 0.271847 0.651108
Si Si2 0.903318 0.364881 0.400447
Si Si3 0.564014 0.102520 0.898309
Si Si4 0.704593 0.482436 0.606061
Si Si5 0.103866 0.968421 0.099243
Si Si6 0.618585 0.252521 0.398555
Si Si7 0.806026 0.833688 0.173970
Si Si8 0.315998 0.292075 0.398126
O O1 0.095151 0.161057 0.596549
O O2 0.138447 0.220062 0.743583
O O3 0.201250 0.322440 0.610386
O O4 0.009011 0.348602 0.646181
O O5 0.922512 0.398454 0.500000
O O6 0.814027 0.440442 0.363038
O O7 0.856300 0.242817 0.399790
O O8 0.488967 0.204186 0.891856
O O9 0.660323 0.168582 0.864704
O O10 0.500000 0.000000 0.861962
O O11 0.584692 0.070073 0.000000
O O12 0.713133 0.492241 0.500000
O O13 0.634029 0.379111 0.620521
O O14 0.650295 0.591940 0.641037
O O15 0.178855 0.038703 0.155576
O O16 0.114541 0.006935 0.000000
O O17 0.000000 0.000000 0.138701
O O18 0.647924 0.232602 0.500000
O O19 0.691782 0.190066 0.334380
O O20 0.343231 0.285825 0.500000
#
# Coordination Sequence:
#
# PCOD9393346 Si02
#       8
#     8   8   8   8   8   8   8   8
#     4  12  24  35  53  86 123 159 201 254 315 369
#     4  10  19  36  58  83 116 158 207 249 301 364
#     4   9  19  35  58  91 122 155 203 261 318 379
#     4   8  17  34  59  88 115 153 204 258 300 357
#     4  11  22  36  57  82 112 160 210 250 303 367
#     4   9  18  36  62  86 114 157 207 257 313 371
#     4  11  22  36  55  83 120 155 202 254 307 371
#     4  10  21  38  58  85 122 159 205 258 313 371
#
# _framework density 25.100156999999999
#
# number of rings (size 3 to 8) (size 9 to 14) (size 15 to 20)
#    0.000    2.000    1.250    3.750    1.750    1.500 
#    0.000    7.500    0.000    3.750    0.000    3.500 
#    0.000    0.000    0.000    0.000    0.000    0.000 
#
# Total GULP energy -356527.631419 kJ/mol
# GULP energy per Si atom -5570.744241 kJ/mol
# Density = 2.504303 g / cm^3
# Si number density = 25.100157 Si / 1000 Ang^3
#
#
#
# Elastic Constant Matrix: (Units=GPa)
#
#
# Indices 1 2 3 4 5 6 
#
# 1 47.8724 11.1146 0.9786 0.0000 0.0000 0.0000
# 2 11.1146 134.2751 0.9739 0.0000 0.0000 0.0000
# 3 0.9786 0.9739 64.0285 0.0000 0.0000 0.0000
# 4 0.0000 0.0000 0.0000 6.1165 0.0000 0.0000
# 5 0.0000 0.0000 0.0000 0.0000 15.5814 0.0000
# 6 0.0000 0.0000 0.0000 0.0000 0.0000 27.8972
#
#
#
# Elastic Compliance Matrix: (Units=1/GPa)
#
#
# Indices 1 2 3 4 5 6 
#
# 1 0.021304 -0.001761 -0.000299 0.000000 0.000000 0.000000
# 2 -0.001761 0.007594 -0.000089 0.000000 0.000000 0.000000
# 3 -0.000299 -0.000089 0.015624 0.000000 0.000000 0.000000
# 4 0.000000 0.000000 0.000000 0.163493 0.000000 0.000000
# 5 0.000000 0.000000 0.000000 0.000000 0.064179 0.000000
# 6 0.000000 0.000000 0.000000 0.000000 0.000000 0.035846
#
#
# Mechanical properties :
#
#
# Convention : Reuss Voigt Hill
#
# Bulk Modulus (GPa) = 24.86058 30.25669 27.55864
# Shear Modulus (GPa) = 15.34941 25.45961 20.40451
#
# Velocity S-wave (km/s) = 2.47559 3.18830 2.85427
# Velocity P-wave (km/s) = 4.25411 5.06302 4.67609
#
# Compressibility (1/GPa) = 0.04022432
#
# Stress axis : x y z
#
# Youngs Moduli (GPa) = 46.93984 131.68586 64.00428
#
# Poissons Ratio (x) = 0.23193 0.01913
# Poissons Ratio (y) = 0.08267 0.00567
# Poissons Ratio (z) = 0.01403 0.01167
#
# Static dielectric constant tensor:
#      x y z
#    x 2.163120 0.000000 0.000000 
#    y 0.000000 1.748750 0.000000 
#    z 0.000000 0.000000 2.025400 
# 
# From -- ./inp_files/17923.got.cif
#   From: 2010.05.17/outbox.cif.g08.bks.cpg/sg49_9_cif.got.tgz:17923.got - 2010.06.03 21:02:19.
