data_PCOD9393354
_publ_section_title
;
Structure prediction by ZEFSAII (Michael W. Deem and Ramdas Pophale) SiO2 
 PCOD9393354
Probable space group: P C C M
;
_chemical_formula_sum "Si O2"
_cell_formula_units_Z 56
_cell_length_a 18.574522
_cell_length_b 9.386057
_cell_length_c 16.482609
_cell_angle_alpha 90.000000
_cell_angle_beta 90.000000
_cell_angle_gamma 90.000000
_cell_volume 2873.603144
_symmetry_space_group_name_H-M "P C C M"
_symmetry_group_IT_number 49
_symmetry_cell_setting 'orthorhombic'
loop_
_space_group_symop_operation_xyz
x,y,z
-x,-y,z
x,-y,1/2-z
-x,y,1/2-z
-x,-y,-z
x,y,-z
-x,y,1/2+z
x,-y,1/2+z
loop_
_atom_site_type_symbol
_atom_site_label
_atom_site_fract_x
_atom_site_fract_y
_atom_site_fract_z
Si Si1 0.799628 0.708815 0.318529
Si Si2 0.735889 0.019839 0.092867
Si Si3 0.424543 0.062644 0.841657
Si Si4 0.706158 0.483906 0.912263
Si Si5 0.814229 0.269601 0.373021
Si Si6 0.081443 0.507727 0.094702
Si Si7 0.552424 0.623571 0.094658
O O1 0.729493 0.614264 0.338564
O O2 0.812970 0.725656 0.224115
O O3 0.865404 0.618135 0.358769
O O4 0.777032 0.858993 0.356587
O O5 0.654050 0.980505 0.121880
O O6 0.788106 0.883232 0.098609
O O7 0.729462 0.065128 0.000000
O O8 0.435990 0.232643 0.853799
O O9 0.500000 0.000000 0.877751
O O10 0.421962 0.000000 0.750000
O O11 0.755283 0.622141 0.907101
O O12 0.626820 0.540066 0.909124
O O13 0.719920 0.412392 0.000000
O O14 0.887173 0.347271 0.399677
O O15 0.000000 0.500000 0.126122
O O16 0.080624 0.550371 0.000000
O O17 0.500000 0.500000 0.126546
O O18 0.532147 0.660818 0.000000
#
# Coordination Sequence:
#
# PCOD9393354 Si02
#       7
#     8   8   8   8   8   8   8
#     4  11  23  37  60  94 126 161 206 257 313 369
#     4  12  24  41  65  89 124 169 214 264 312 383
#     4  11  25  44  61  91 128 167 210 268 336 393
#     4  10  19  36  59  85 118 157 205 255 301 365
#     4  11  21  38  61  90 123 163 201 254 315 367
#     4  10  21  40  66  95 129 166 208 255 304 372
#     4  10  22  40  63  90 120 162 218 268 316 382
#
# _framework density 19.487729000000002
#
# number of rings (size 3 to 8) (size 9 to 14) (size 15 to 20)
#    0.000    1.286    1.429    6.857    2.000    2.286 
#    0.000    2.143    0.000    4.286    0.000    0.000 
#    0.000    0.000    0.000    0.000    0.000    0.000 
#
# Total GULP energy -312244.021454 kJ/mol
# GULP energy per Si atom -5575.786097 kJ/mol
# Density = 1.944337 g / cm^3
# Si number density = 19.487729 Si / 1000 Ang^3
#
#
#
# Elastic Constant Matrix: (Units=GPa)
#
#
# Indices 1 2 3 4 5 6 
#
# 1 133.1458 44.8768 18.3794 0.0000 0.0000 0.0000
# 2 44.8768 118.6503 19.4601 0.0000 0.0000 0.0000
# 3 18.3794 19.4601 89.1495 0.0000 0.0000 0.0000
# 4 0.0000 0.0000 0.0000 -322.8072 0.0000 0.0000
# 5 0.0000 0.0000 0.0000 0.0000 8.4622 0.0000
# 6 0.0000 0.0000 0.0000 0.0000 0.0000 6.9584
#
#
#
# Elastic Compliance Matrix: (Units=1/GPa)
#
#
# Indices 1 2 3 4 5 6 
#
# 1 0.008714 -0.003113 -0.001117 0.000000 0.000000 0.000000
# 2 -0.003113 0.009853 -0.001509 0.000000 0.000000 0.000000
# 3 -0.001117 -0.001509 0.011777 0.000000 0.000000 0.000000
# 4 0.000000 0.000000 0.000000 -0.003098 0.000000 0.000000
# 5 0.000000 0.000000 0.000000 0.000000 0.118172 0.000000
# 6 0.000000 0.000000 0.000000 0.000000 0.000000 0.143712
#
#
# Mechanical properties :
#
#
# Convention : Reuss Voigt Hill
#
# Bulk Modulus (GPa) = 53.00489 56.26424 54.63456
# Shear Modulus (GPa) = 16.29216 -44.26203 -13.98494
#
# Velocity S-wave (km/s) = 2.89454 -4.77096 -2.68176
# Velocity P-wave (km/s) = 6.19914 1.18959 4.30199
#
# Compressibility (1/GPa) = 0.01886618
#
# Stress axis : x y z
#
# Youngs Moduli (GPa) = 114.75960 101.49287 84.91260
#
# Poissons Ratio (x) = 0.31591 0.09485
# Poissons Ratio (y) = 0.35720 0.12814
# Poissons Ratio (z) = 0.12819 0.15316
#
# Static dielectric constant tensor:
#      x y z
#    x 3.069800 0.000000 0.000000 
#    y 0.000000 1.496600 0.000000 
#    z 0.000000 0.000000 1.762660 
# 
# From -- ./inp_files/14416.got.cif
#   From: 2010.05.17/outbox.cif.g08.bks.cpg/sg49_8_cif.got.tgz:14416.got - 2010.06.03 21:02:19.
