data_PCOD9393746
_publ_section_title
;
Structure prediction by ZEFSAII (Michael W. Deem and Ramdas Pophale) SiO2 
 PCOD9393746
Probable space group: P C C M
;
_chemical_formula_sum "Si O2"
_cell_formula_units_Z 48
_cell_length_a 14.650637
_cell_length_b 20.862826
_cell_length_c 8.623849
_cell_angle_alpha 90.000000
_cell_angle_beta 90.000000
_cell_angle_gamma 90.000000
_cell_volume 2635.911273
_symmetry_space_group_name_H-M "P C C M"
_symmetry_group_IT_number 49
_symmetry_cell_setting 'orthorhombic'
loop_
_space_group_symop_operation_xyz
x,y,z
-x,-y,z
x,-y,1/2-z
-x,y,1/2-z
-x,-y,-z
x,y,-z
-x,y,1/2+z
x,-y,1/2+z
loop_
_atom_site_type_symbol
_atom_site_label
_atom_site_fract_x
_atom_site_fract_y
_atom_site_fract_z
Si Si1 0.598089 0.389133 0.685095
Si Si2 0.210539 0.187858 0.685377
Si Si3 0.211544 0.567565 0.815017
Si Si4 0.404898 0.754945 0.185574
Si Si5 0.897578 0.310543 0.685597
Si Si6 0.899837 0.929280 0.815001
O O1 0.500000 0.410893 0.750000
O O2 0.600616 0.395256 0.500000
O O3 0.683714 0.424305 0.760966
O O4 0.607369 0.314271 0.733559
O O5 0.198386 0.185729 0.500000
O O6 0.316885 0.201882 0.717774
O O7 0.154032 0.247765 0.751988
O O8 0.172204 0.123138 0.758954
O O9 0.176590 0.500000 0.750000
O O10 0.155717 0.626944 0.745568
O O11 0.206573 0.569005 0.000000
O O12 0.500000 0.781903 0.250000
O O13 0.411154 0.744605 0.000000
O O14 0.898167 0.309811 0.500000
O O15 0.000000 0.311078 0.750000
O O16 0.000000 0.911138 0.750000
O O17 0.879075 0.000000 0.750000
O O18 0.904234 0.931543 0.000000
#
# Coordination Sequence:
#
# PCOD9393746 Si02
#       6
#     8   8   8   8   8   8
#     4  11  21  36  59  86 117 152 192 239 295 354
#     4  11  22  38  61  90 123 159 198 243 292 346
#     4  12  25  43  62  85 115 151 195 243 298 358
#     4  10  20  34  57  86 120 155 194 241 292 346
#     4  12  25  42  63  88 116 152 195 245 296 349
#     4  11  22  38  60  88 124 162 201 244 293 351
#
# _framework density 18.210021000000001
#
# number of rings (size 3 to 8) (size 9 to 14) (size 15 to 20)
#    0.000    0.833    1.667    9.000    0.000    2.667 
#    0.000    3.333    0.000    0.500    0.000    3.500 
#    0.000    0.000    0.000    0.000    0.000    0.000 
#
# Total GULP energy -268575.551669 kJ/mol
# GULP energy per Si atom -5595.323993 kJ/mol
# Density = 1.816857 g / cm^3
# Si number density = 18.210021 Si / 1000 Ang^3
#
#
#
# Elastic Constant Matrix: (Units=GPa)
#
#
# Indices 1 2 3 4 5 6 
#
# 1 121.1886 57.7387 56.7097 0.0000 0.0000 0.0000
# 2 57.7387 87.5868 44.4647 0.0000 0.0000 0.0000
# 3 56.7097 44.4647 157.9876 0.0000 0.0000 0.0000
# 4 0.0000 0.0000 0.0000 31.4227 0.0000 0.0000
# 5 0.0000 0.0000 0.0000 0.0000 37.4759 0.0000
# 6 0.0000 0.0000 0.0000 0.0000 0.0000 -97.8415
#
#
#
# Elastic Compliance Matrix: (Units=1/GPa)
#
#
# Indices 1 2 3 4 5 6 
#
# 1 0.012889 -0.007173 -0.002608 0.000000 0.000000 0.000000
# 2 -0.007173 0.017312 -0.002298 0.000000 0.000000 0.000000
# 3 -0.002608 -0.002298 0.007912 0.000000 0.000000 0.000000
# 4 0.000000 0.000000 0.000000 0.031824 0.000000 0.000000
# 5 0.000000 0.000000 0.000000 0.000000 0.026684 0.000000
# 6 0.000000 0.000000 0.000000 0.000000 0.000000 -0.010221
#
#
# Mechanical properties :
#
#
# Convention : Reuss Voigt Hill
#
# Bulk Modulus (GPa) = 71.64886 76.06547 73.85717
# Shear Modulus (GPa) = 43.39872 8.06808 25.73340
#
# Velocity S-wave (km/s) = 4.88713 2.10718 3.76326
# Velocity P-wave (km/s) = 8.44255 6.91246 7.71553
#
# Compressibility (1/GPa) = 0.01395696
#
# Stress axis : x y z
#
# Youngs Moduli (GPa) = 77.58300 57.76255 126.38430
#
# Poissons Ratio (x) = 0.41433 0.32959
# Poissons Ratio (y) = 0.55650 0.29039
# Poissons Ratio (z) = 0.20233 0.13272
#
# Static dielectric constant tensor:
#      x y z
#    x 1.629330 0.000000 0.000000 
#    y 0.000000 1.606100 0.000000 
#    z 0.000000 0.000000 1.605180 
# 
# From -- ./inp_files/3735.got.cif
#   From: 2010.05.17/outbox.cif.g08.bks.cpg/sg49_2_cif.got.tgz:3735.got - 2010.06.03 21:02:19.
