data_PCOD9393411
_publ_section_title
;
Structure prediction by ZEFSAII (Michael W. Deem and Ramdas Pophale) SiO2 
 PCOD9393411
Probable space group: P C C M
;
_chemical_formula_sum "Si O2"
_cell_formula_units_Z 58
_cell_length_a 15.629691
_cell_length_b 12.385920
_cell_length_c 14.500249
_cell_angle_alpha 90.000000
_cell_angle_beta 90.000000
_cell_angle_gamma 90.000000
_cell_volume 2807.075688
_symmetry_space_group_name_H-M "P C C M"
_symmetry_group_IT_number 49
_symmetry_cell_setting 'orthorhombic'
loop_
_space_group_symop_operation_xyz
x,y,z
-x,-y,z
x,-y,1/2-z
-x,y,1/2-z
-x,-y,-z
x,y,-z
-x,y,1/2+z
x,-y,1/2+z
loop_
_atom_site_type_symbol
_atom_site_label
_atom_site_fract_x
_atom_site_fract_y
_atom_site_fract_z
Si Si1 0.332523 0.324968 0.596289
Si Si2 0.121042 0.132523 0.391194
Si Si3 0.693839 0.449588 0.652863
Si Si4 0.000000 0.000000 0.250000
Si Si5 0.778789 0.742740 0.247106
Si Si6 0.553405 0.901431 0.896311
Si Si7 0.739031 0.955970 0.849505
Si Si8 0.522829 0.337061 0.351075
O O1 0.310114 0.267954 0.500000
O O2 0.284138 0.440683 0.599871
O O3 0.307021 0.260840 0.688584
O O4 0.433337 0.349361 0.596867
O O5 0.097308 0.152005 0.500000
O O6 0.053466 0.074553 0.321867
O O7 0.152690 0.235926 0.329653
O O8 0.198533 0.044836 0.391780
O O9 0.665627 0.500000 0.750000
O O10 0.766861 0.363676 0.683098
O O11 0.609848 0.391436 0.612562
O O12 0.784680 0.843306 0.177531
O O13 0.652361 0.932134 0.901433
O O14 0.543359 0.789387 0.845557
O O15 0.500000 0.000000 0.856570
O O16 0.519435 0.882298 0.000000
O O17 0.711638 0.000000 0.750000
O O18 0.500000 0.377401 0.250000
#
# Coordination Sequence:
#
# PCOD9393411 Si02
#       8
#     8   8   8   2   8   8   8   8
#     4  11  23  34  52  80 109 151 213 274 320 369
#     4  11  23  40  68  98 130 165 196 237 291 363
#     4  10  20  35  55  74 105 149 201 260 314 357
#     4  12  22  44  68 102 140 160 194 224 284 362
#     4  10  19  39  58  80 114 155 194 239 299 364
#     4  11  25  35  46  75 111 152 206 258 300 355
#     4  10  20  38  57  80 112 158 202 245 297 357
#     4  12  21  34  52  69 100 155 205 263 322 365
#
# _framework density 20.662072999999999
#
# number of rings (size 3 to 8) (size 9 to 14) (size 15 to 20)
#    0.000    1.241    6.207    1.862    5.793    1.655 
#    0.000    0.000    0.000    0.000    0.000    4.345 
#    0.000   11.034    0.000    0.000    0.000    0.000 
#
# Total GULP energy -322976.497662 kJ/mol
# GULP energy per Si atom -5568.560305 kJ/mol
# Density = 2.061504 g / cm^3
# Si number density = 20.662073 Si / 1000 Ang^3
#
#
#
# Elastic Constant Matrix: (Units=GPa)
#
#
# Indices 1 2 3 4 5 6 
#
# 1 50.4235 23.2783 21.8809 0.0000 0.0000 0.0000
# 2 23.2783 80.7001 -7.3259 0.0000 0.0000 0.0000
# 3 21.8809 -7.3259 92.6702 0.0000 0.0000 0.0000
# 4 0.0000 0.0000 0.0000 21.1101 0.0000 0.0000
# 5 0.0000 0.0000 0.0000 0.0000 -0.5751 0.0000
# 6 0.0000 0.0000 0.0000 0.0000 0.0000 21.6352
#
#
#
# Elastic Compliance Matrix: (Units=1/GPa)
#
#
# Indices 1 2 3 4 5 6 
#
# 1 0.026701 -0.008334 -0.006963 0.000000 0.000000 0.000000
# 2 -0.008334 0.015082 0.003160 0.000000 0.000000 0.000000
# 3 -0.006963 0.003160 0.012685 0.000000 0.000000 0.000000
# 4 0.000000 0.000000 0.000000 0.047371 0.000000 0.000000
# 5 0.000000 0.000000 0.000000 0.000000 -1.738976 0.000000
# 6 0.000000 0.000000 0.000000 0.000000 0.000000 0.046221
#
#
# Mechanical properties :
#
#
# Convention : Reuss Voigt Hill
#
# Bulk Modulus (GPa) = 33.11948 33.27336 33.19642
# Shear Modulus (GPa) = -3.21218 20.83143 8.80962
#
# Velocity S-wave (km/s) = -1.24820 3.17866 2.06711
# Velocity P-wave (km/s) = 3.73986 5.44154 4.66888
#
# Compressibility (1/GPa) = 0.03019371
#
# Stress axis : x y z
#
# Youngs Moduli (GPa) = 37.45141 66.30211 78.83353
#
# Poissons Ratio (x) = 0.55258 0.54895
# Poissons Ratio (y) = 0.31213 -0.24913
# Poissons Ratio (z) = 0.26079 -0.20953
#
# Static dielectric constant tensor:
#      x y z
#    x 1.750060 0.000000 0.000000 
#    y 0.000000 1.814150 0.000000 
#    z 0.000000 0.000000 1.837380 
# 
# From -- ./inp_files/17898.got.cif
#   From: 2010.05.17/outbox.cif.g08.bks.cpg/sg49_9_cif.got.tgz:17898.got - 2010.06.03 21:02:19.
