data_PCOD9393471
_publ_section_title
;
Structure prediction by ZEFSAII (Michael W. Deem and Ramdas Pophale) SiO2 
 PCOD9393471
Probable space group: P C C M
;
_chemical_formula_sum "Si O2"
_cell_formula_units_Z 40
_cell_length_a 5.197840
_cell_length_b 24.664487
_cell_length_c 14.742317
_cell_angle_alpha 90.000000
_cell_angle_beta 90.000000
_cell_angle_gamma 90.000000
_cell_volume 1889.995366
_symmetry_space_group_name_H-M "P C C M"
_symmetry_group_IT_number 49
_symmetry_cell_setting 'orthorhombic'
loop_
_space_group_symop_operation_xyz
x,y,z
-x,-y,z
x,-y,1/2-z
-x,y,1/2-z
-x,-y,-z
x,y,-z
-x,y,1/2+z
x,-y,1/2+z
loop_
_atom_site_type_symbol
_atom_site_label
_atom_site_fract_x
_atom_site_fract_y
_atom_site_fract_z
Si Si1 0.746477 0.233708 0.314541
Si Si2 0.247956 0.353037 0.186860
Si Si3 0.000226 0.062746 0.139139
Si Si4 0.250596 0.530296 0.392069
Si Si5 0.510969 0.126485 0.639571
O O1 0.500000 0.241185 0.250000
O O2 0.783016 0.293177 0.357619
O O3 0.641862 0.185363 0.378452
O O4 0.000000 0.220483 0.250000
O O5 0.500000 0.354421 0.250000
O O6 0.255888 0.405818 0.125261
O O7 0.000000 0.358396 0.250000
O O8 0.766359 0.102891 0.110656
O O9 0.000000 0.063449 0.250000
O O10 0.272415 0.085382 0.108700
O O11 0.000000 0.000000 0.111805
O O12 0.500000 0.500000 0.355054
O O13 0.250020 0.522532 0.500000
O O14 0.000000 0.500000 0.355528
O O15 0.500000 0.125680 0.750000
#
# Coordination Sequence:
#
# PCOD9393471 Si02
#       5
#     8   8   8   8   8
#     4   9  16  26  38  55  78 104 138 180 226 268
#     4  10  20  32  49  72  95 120 156 200 237 275
#     4   9  15  20  27  41  61  89 129 170 204 242
#     4  10  21  36  52  71  97 127 156 188 234 291
#     4   9  14  21  31  42  62  93 126 165 211 250
#
# _framework density 21.164071
#
# number of rings (size 3 to 8) (size 9 to 14) (size 15 to 20)
#    0.000    2.600    0.000    4.800    0.000    4.800 
#    0.000    0.000    0.000    0.000    0.000    0.000 
#    0.000    0.000    0.000    0.000    0.000    6.000 
#
# Total GULP energy -222711.787303 kJ/mol
# GULP energy per Si atom -5567.794683 kJ/mol
# Density = 2.111590 g / cm^3
# Si number density = 21.164071 Si / 1000 Ang^3
#
#
#
# Elastic Constant Matrix: (Units=GPa)
#
#
# Indices 1 2 3 4 5 6 
#
# 1 172.9693 52.3957 11.2262 0.0000 0.0000 0.0000
# 2 52.3957 175.4374 9.3094 0.0000 0.0000 0.0000
# 3 11.2262 9.3094 45.7873 0.0000 0.0000 0.0000
# 4 0.0000 0.0000 0.0000 -55.8946 0.0000 0.0000
# 5 0.0000 0.0000 0.0000 0.0000 -20.0199 0.0000
# 6 0.0000 0.0000 0.0000 0.0000 0.0000 38.0533
#
#
#
# Elastic Compliance Matrix: (Units=1/GPa)
#
#
# Indices 1 2 3 4 5 6 
#
# 1 0.006421 -0.001854 -0.001197 0.000000 0.000000 0.000000
# 2 -0.001854 0.006298 -0.000826 0.000000 0.000000 0.000000
# 3 -0.001197 -0.000826 0.022302 0.000000 0.000000 0.000000
# 4 0.000000 0.000000 0.000000 -0.017891 0.000000 0.000000
# 5 0.000000 0.000000 0.000000 0.000000 -0.049950 0.000000
# 6 0.000000 0.000000 0.000000 0.000000 0.000000 0.026279
#
#
# Mechanical properties :
#
#
# Convention : Reuss Voigt Hill
#
# Bulk Modulus (GPa) = 36.67631 60.00629 48.34130
# Shear Modulus (GPa) = 485.41107 13.84528 249.62818
#
# Velocity S-wave (km/s) = 15.16094 2.56048 10.87222
# Velocity P-wave (km/s) = 17.99553 6.09556 13.43494
#
# Compressibility (1/GPa) = 0.02726556
#
# Stress axis : x y z
#
# Youngs Moduli (GPa) = 155.74603 158.79089 44.83984
#
# Poissons Ratio (x) = 0.29441 0.05369
# Poissons Ratio (y) = 0.28876 0.03703
# Poissons Ratio (z) = 0.18647 0.13114
#
# Static dielectric constant tensor:
#      x y z
#    x 1.734930 0.000000 0.000000 
#    y 0.000000 1.847900 0.000000 
#    z 0.000000 0.000000 1.815800 
# 
# From -- ./inp_files/15339.got.cif
#   From: 2010.05.17/outbox.cif.g08.bks.cpg/sg49_8_cif.got.tgz:15339.got - 2010.06.03 21:02:19.
