data_PCOD9393752
_publ_section_title
;
Structure prediction by ZEFSAII (Michael W. Deem and Ramdas Pophale) SiO2 
 PCOD9393752
Probable space group: P C C M
;
_chemical_formula_sum "Si O2"
_cell_formula_units_Z 64
_cell_length_a 15.251646
_cell_length_b 12.048231
_cell_length_c 17.049916
_cell_angle_alpha 90.000000
_cell_angle_beta 90.000000
_cell_angle_gamma 90.000000
_cell_volume 3133.013353
_symmetry_space_group_name_H-M "P C C M"
_symmetry_group_IT_number 49
_symmetry_cell_setting 'orthorhombic'
loop_
_space_group_symop_operation_xyz
x,y,z
-x,-y,z
x,-y,1/2-z
-x,y,1/2-z
-x,-y,-z
x,y,-z
-x,y,1/2+z
x,-y,1/2+z
loop_
_atom_site_type_symbol
_atom_site_label
_atom_site_fract_x
_atom_site_fract_y
_atom_site_fract_z
Si Si1 0.661411 0.280759 0.863214
Si Si2 0.505561 0.870320 0.844407
Si Si3 0.946579 0.395834 0.909422
Si Si4 0.230956 0.695180 0.706426
Si Si5 0.077136 0.802157 0.197723
Si Si6 0.696052 0.135933 0.592414
Si Si7 0.751441 0.507625 0.588815
Si Si8 0.210767 0.908468 0.911108
O O1 0.570431 0.214404 0.871185
O O2 0.693708 0.289461 0.772623
O O3 0.673433 0.404173 0.896972
O O4 0.732824 0.203548 0.906012
O O5 0.500000 0.871014 0.750000
O O6 0.600022 0.835190 0.875807
O O7 0.500000 0.000000 0.870567
O O8 0.963001 0.281534 0.866041
O O9 0.843615 0.426026 0.907411
O O10 0.000000 0.500000 0.875300
O O11 0.973306 0.384198 0.000000
O O12 0.141052 0.721161 0.751831
O O13 0.238103 0.788994 0.640674
O O14 0.242769 0.581335 0.658793
O O15 0.135512 0.892762 0.153020
O O16 0.000000 0.849420 0.250000
O O17 0.700030 0.154195 0.500000
O O18 0.723543 0.008853 0.608097
O O19 0.744754 0.460526 0.500000
O O20 0.177638 0.923519 0.000000
#
# Coordination Sequence:
#
# PCOD9393752 Si02
#       8
#     8   8   8   8   8   8   8   8
#     4  11  21  36  66  96 125 166 216 260 329 391
#     4  11  22  38  65 100 131 156 201 268 330 385
#     4  10  20  34  57  90 127 167 215 273 327 383
#     4  11  23  40  61  89 130 176 217 269 316 388
#     4  11  23  37  62  95 129 170 221 278 328 394
#     4  11  24  42  65  92 126 167 211 264 328 394
#     4  11  22  38  60  88 129 178 219 262 321 391
#     4  10  21  40  64  92 128 166 211 270 331 391
#
# _framework density 20.427617999999999
#
# number of rings (size 3 to 8) (size 9 to 14) (size 15 to 20)
#    0.000    1.250    5.000    2.250    0.000    4.500 
#    0.000    3.750    0.000    3.000    0.000    0.000 
#    0.000    0.000    0.000    0.000    0.000    0.000 
#
# Total GULP energy -357381.739197 kJ/mol
# GULP energy per Si atom -5584.089675 kJ/mol
# Density = 2.038112 g / cm^3
# Si number density = 20.427618 Si / 1000 Ang^3
#
#
#
# Elastic Constant Matrix: (Units=GPa)
#
#
# Indices 1 2 3 4 5 6 
#
# 1 84.0721 23.3987 40.5617 0.0000 0.0000 0.0000
# 2 23.3987 56.5322 27.2400 0.0000 0.0000 0.0000
# 3 40.5617 27.2400 95.5205 0.0000 0.0000 0.0000
# 4 0.0000 0.0000 0.0000 24.3955 0.0000 0.0000
# 5 0.0000 0.0000 0.0000 0.0000 19.6313 0.0000
# 6 0.0000 0.0000 0.0000 0.0000 0.0000 25.3355
#
#
#
# Elastic Compliance Matrix: (Units=1/GPa)
#
#
# Indices 1 2 3 4 5 6 
#
# 1 0.015631 -0.003792 -0.005556 0.000000 0.000000 0.000000
# 2 -0.003792 0.021427 -0.004500 0.000000 0.000000 0.000000
# 3 -0.005556 -0.004500 0.014111 0.000000 0.000000 0.000000
# 4 0.000000 0.000000 0.000000 0.040991 0.000000 0.000000
# 5 0.000000 0.000000 0.000000 0.000000 0.050939 0.000000
# 6 0.000000 0.000000 0.000000 0.000000 0.000000 0.039470
#
#
# Mechanical properties :
#
#
# Convention : Reuss Voigt Hill
#
# Bulk Modulus (GPa) = 42.60307 46.50286 44.55297
# Shear Modulus (GPa) = 22.92629 23.53409 23.23019
#
# Velocity S-wave (km/s) = 3.35374 3.39790 3.37589
# Velocity P-wave (km/s) = 5.99146 6.18130 6.08712
#
# Compressibility (1/GPa) = 0.02347248
#
# Stress axis : x y z
#
# Youngs Moduli (GPa) = 63.97731 46.66997 70.86431
#
# Poissons Ratio (x) = 0.17699 0.39371
# Poissons Ratio (y) = 0.24263 0.31889
# Poissons Ratio (z) = 0.35545 0.21002
#
# Static dielectric constant tensor:
#      x y z
#    x 1.721940 0.000000 0.000000 
#    y 0.000000 1.744200 0.000000 
#    z 0.000000 0.000000 1.759290 
# 
# From -- ./inp_files/17982.got.cif
#   From: 2010.05.17/outbox.cif.g08.bks.cpg/sg49_9_cif.got.tgz:17982.got - 2010.06.03 21:02:19.
