data_PCOD9393330
_publ_section_title
;
Structure prediction by ZEFSAII (Michael W. Deem and Ramdas Pophale) SiO2 
 PCOD9393330
Probable space group: P C C M
;
_chemical_formula_sum "Si O2"
_cell_formula_units_Z 64
_cell_length_a 16.372960
_cell_length_b 9.325276
_cell_length_c 21.886179
_cell_angle_alpha 90.000000
_cell_angle_beta 90.000000
_cell_angle_gamma 90.000000
_cell_volume 3341.633700
_symmetry_space_group_name_H-M "P C C M"
_symmetry_group_IT_number 49
_symmetry_cell_setting 'orthorhombic'
loop_
_space_group_symop_operation_xyz
x,y,z
-x,-y,z
x,-y,1/2-z
-x,y,1/2-z
-x,-y,-z
x,y,-z
-x,y,1/2+z
x,-y,1/2+z
loop_
_atom_site_type_symbol
_atom_site_label
_atom_site_fract_x
_atom_site_fract_y
_atom_site_fract_z
Si Si1 0.057962 0.363798 0.068750
Si Si2 0.175251 0.002165 0.930625
Si Si3 0.732759 0.770139 0.643078
Si Si4 0.759007 0.508935 0.069492
Si Si5 0.051812 0.863880 0.666485
Si Si6 0.595257 0.004166 0.823307
Si Si7 0.706933 0.232003 0.621131
Si Si8 0.821407 0.673163 0.764637
O O1 0.150262 0.421311 0.082884
O O2 0.019788 0.256769 0.118818
O O3 0.000000 0.500000 0.067060
O O4 0.061418 0.300059 0.000000
O O5 0.112223 0.054175 0.880009
O O6 0.243475 0.123979 0.922405
O O7 0.214092 0.857535 0.905804
O O8 0.146226 0.990746 0.000000
O O9 0.730244 0.613336 0.614914
O O10 0.780923 0.750532 0.706533
O O11 0.649588 0.859983 0.654151
O O12 0.692478 0.632879 0.078691
O O13 0.763826 0.458046 0.000000
O O14 0.097758 0.765534 0.717015
O O15 0.000000 0.000000 0.688136
O O16 0.635819 0.861307 0.850383
O O17 0.500000 0.000000 0.839580
O O18 0.602426 0.000000 0.750000
O O19 0.760430 0.294514 0.678343
O O20 0.832453 0.500000 0.750000
#
# Coordination Sequence:
#
# PCOD9393330 Si02
#       8
#     8   8   8   8   8   8   8   8
#     4  10  21  37  58  86 124 163 206 266 326 363
#     4  10  21  37  59  87 118 156 206 258 304 354
#     4  11  22  37  65  89 123 159 203 254 305 374
#     4  11  21  38  64  93 119 160 218 261 301 369
#     4  11  24  39  60  87 122 161 212 261 320 375
#     4  10  21  38  62  96 131 160 196 249 312 372
#     4  10  19  35  64  91 121 158 200 251 308 370
#     4  11  20  40  67  89 120 164 206 254 318 372
#
# _framework density 19.152308000000001
#
# number of rings (size 3 to 8) (size 9 to 14) (size 15 to 20)
#    0.000    1.500    5.000    1.125    1.750    1.000 
#    0.000    1.875    0.000   16.500    0.000    0.000 
#    0.000    0.000    0.000    0.000    0.000    0.000 
#
# Total GULP energy -356527.910516 kJ/mol
# GULP energy per Si atom -5570.748602 kJ/mol
# Density = 1.910872 g / cm^3
# Si number density = 19.152308 Si / 1000 Ang^3
#
#
#
# Elastic Constant Matrix: (Units=GPa)
#
#
# Indices 1 2 3 4 5 6 
#
# 1 59.5561 41.9946 41.8402 0.0000 0.0000 0.0000
# 2 41.9946 111.1931 39.2007 0.0000 0.0000 0.0000
# 3 41.8402 39.2007 93.3855 0.0000 0.0000 0.0000
# 4 0.0000 0.0000 0.0000 77.8788 0.0000 0.0000
# 5 0.0000 0.0000 0.0000 0.0000 75.9758 0.0000
# 6 0.0000 0.0000 0.0000 0.0000 0.0000 3.5300
#
#
#
# Elastic Compliance Matrix: (Units=1/GPa)
#
#
# Indices 1 2 3 4 5 6 
#
# 1 0.028977 -0.007473 -0.009846 0.000000 0.000000 0.000000
# 2 -0.007473 0.012483 -0.001892 0.000000 0.000000 0.000000
# 3 -0.009846 -0.001892 0.015914 0.000000 0.000000 0.000000
# 4 0.000000 0.000000 0.000000 0.012840 0.000000 0.000000
# 5 0.000000 0.000000 0.000000 0.000000 0.013162 0.000000
# 6 0.000000 0.000000 0.000000 0.000000 0.000000 0.283286
#
#
# Mechanical properties :
#
#
# Convention : Reuss Voigt Hill
#
# Bulk Modulus (GPa) = 52.76339 56.68950 54.72645
# Shear Modulus (GPa) = 12.15359 40.88351 26.51855
#
# Velocity S-wave (km/s) = 2.52181 4.62524 3.72508
# Velocity P-wave (km/s) = 6.00737 7.62807 6.86571
#
# Compressibility (1/GPa) = 0.01895253
#
# Stress axis : x y z
#
# Youngs Moduli (GPa) = 34.50973 80.11174 62.83851
#
# Poissons Ratio (x) = 0.59866 0.61871
# Poissons Ratio (y) = 0.25788 0.11888
# Poissons Ratio (z) = 0.33978 0.15155
#
# Static dielectric constant tensor:
#      x y z
#    x 1.697680 0.000000 0.000000 
#    y 0.000000 1.638580 0.000000 
#    z 0.000000 0.000000 1.709220 
# 
# From -- ./inp_files/21067.got.cif
#   From: 2010.05.17/outbox.cif.g08.bks.cpg/sg49_11_cif.got.tgz:21067.got - 2010.06.03 21:02:19.
