data_PCOD9393636
_publ_section_title
;
Structure prediction by ZEFSAII (Michael W. Deem and Ramdas Pophale) SiO2 
 PCOD9393636
Probable space group: P C C M
;
_chemical_formula_sum "Si O2"
_cell_formula_units_Z 48
_cell_length_a 9.569703
_cell_length_b 31.423607
_cell_length_c 8.548932
_cell_angle_alpha 90.000000
_cell_angle_beta 90.000000
_cell_angle_gamma 90.000000
_cell_volume 2570.788549
_symmetry_space_group_name_H-M "P C C M"
_symmetry_group_IT_number 49
_symmetry_cell_setting 'orthorhombic'
loop_
_space_group_symop_operation_xyz
x,y,z
-x,-y,z
x,-y,1/2-z
-x,y,1/2-z
-x,-y,-z
x,y,-z
-x,y,1/2+z
x,-y,1/2+z
loop_
_atom_site_type_symbol
_atom_site_label
_atom_site_fract_x
_atom_site_fract_y
_atom_site_fract_z
Si Si1 0.842384 0.200400 0.188422
Si Si2 0.343624 0.280138 0.311324
Si Si3 0.344256 0.623997 0.188824
Si Si4 0.342730 0.877601 0.687023
Si Si5 0.157535 0.544948 0.187923
Si Si6 0.847149 0.952249 0.687316
O O1 0.765221 0.244077 0.238035
O O2 0.751111 0.161496 0.253063
O O3 0.000000 0.198520 0.250000
O O4 0.843677 0.198320 0.000000
O O5 0.500000 0.271319 0.250000
O O6 0.349394 0.279607 0.500000
O O7 0.302998 0.328089 0.261086
O O8 0.500000 0.616653 0.250000
O O9 0.244399 0.585973 0.241342
O O10 0.345681 0.623614 0.000000
O O11 0.500000 0.873579 0.750000
O O12 0.344321 0.878131 0.500000
O O13 0.269814 0.920325 0.750624
O O14 0.215799 0.500000 0.250000
O O15 0.000000 0.548425 0.250000
O O16 0.155547 0.543658 0.000000
O O17 0.849762 0.952500 0.500000
O O18 0.000000 0.938460 0.750000
O O19 0.823932 0.000000 0.750000
#
# Coordination Sequence:
#
# PCOD9393636 Si02
#       6
#     8   8   8   8   8   8
#     4  11  23  39  59  85 115 149 188 233 280 333
#     4   9  19  36  57  80 109 142 180 223 273 328
#     4   9  19  35  54  78 106 139 177 221 269 325
#     4  12  25  42  62  87 118 154 194 238 286 338
#     4  10  20  34  52  74 103 137 177 220 268 321
#     4  11  22  40  64  92 123 158 197 239 287 338
#
# _framework density 18.671313999999999
#
# number of rings (size 3 to 8) (size 9 to 14) (size 15 to 20)
#    0.000    1.667    0.000    6.000    0.000    5.333 
#    0.000    3.333    0.000    0.000    0.000    0.000 
#    0.000    0.000    0.000    0.000    0.000    0.000 
#
# Total GULP energy -268210.060241 kJ/mol
# GULP energy per Si atom -5587.709588 kJ/mol
# Density = 1.862882 g / cm^3
# Si number density = 18.671314 Si / 1000 Ang^3
#
#
#
# Elastic Constant Matrix: (Units=GPa)
#
#
# Indices 1 2 3 4 5 6 
#
# 1 146.7207 111.5788 47.9856 0.0000 0.0000 0.0000
# 2 111.5788 141.4550 50.9433 0.0000 0.0000 0.0000
# 3 47.9856 50.9433 98.2410 0.0000 0.0000 0.0000
# 4 0.0000 0.0000 0.0000 27.8928 0.0000 0.0000
# 5 0.0000 0.0000 0.0000 0.0000 34.3543 0.0000
# 6 0.0000 0.0000 0.0000 0.0000 0.0000 43.9559
#
#
#
# Elastic Compliance Matrix: (Units=1/GPa)
#
#
# Indices 1 2 3 4 5 6 
#
# 1 0.017257 -0.013006 -0.001685 0.000000 0.000000 0.000000
# 2 -0.013006 0.018494 -0.003238 0.000000 0.000000 0.000000
# 3 -0.001685 -0.003238 0.012681 0.000000 0.000000 0.000000
# 4 0.000000 0.000000 0.000000 0.035852 0.000000 0.000000
# 5 0.000000 0.000000 0.000000 0.000000 0.029108 0.000000
# 6 0.000000 0.000000 0.000000 0.000000 0.000000 0.022750
#
#
# Mechanical properties :
#
#
# Convention : Reuss Voigt Hill
#
# Bulk Modulus (GPa) = 79.51874 89.71469 84.61672
# Shear Modulus (GPa) = 28.37819 32.96784 30.67301
#
# Velocity S-wave (km/s) = 3.90280 4.20658 4.05753
# Velocity P-wave (km/s) = 7.93664 8.47039 8.20785
#
# Compressibility (1/GPa) = 0.01257565
#
# Stress axis : x y z
#
# Youngs Moduli (GPa) = 57.94610 54.07115 78.85753
#
# Poissons Ratio (x) = 0.70323 0.13289
# Poissons Ratio (y) = 0.75363 0.25531
# Poissons Ratio (z) = 0.09765 0.17506
#
# Static dielectric constant tensor:
#      x y z
#    x 1.601200 0.000000 0.000000 
#    y 0.000000 1.657160 0.000000 
#    z 0.000000 0.000000 1.633080 
# 
# From -- ./inp_files/2080.got.cif
#   From: 2010.05.17/outbox.cif.g08.bks.cpg/sg49_2_cif.got.tgz:2080.got - 2010.06.03 21:02:19.
