data_PCOD9393214
_publ_section_title
;
Structure prediction by ZEFSAII (Michael W. Deem and Ramdas Pophale) SiO2 
 PCOD9393214
Probable space group: P C C M
;
_chemical_formula_sum "Si O2"
_cell_formula_units_Z 48
_cell_length_a 30.048143
_cell_length_b 9.049943
_cell_length_c 9.516796
_cell_angle_alpha 90.000000
_cell_angle_beta 90.000000
_cell_angle_gamma 90.000000
_cell_volume 2587.940227
_symmetry_space_group_name_H-M "P C C M"
_symmetry_group_IT_number 49
_symmetry_cell_setting 'orthorhombic'
loop_
_space_group_symop_operation_xyz
x,y,z
-x,-y,z
x,-y,1/2-z
-x,y,1/2-z
-x,-y,-z
x,y,-z
-x,y,1/2+z
x,-y,1/2+z
loop_
_atom_site_type_symbol
_atom_site_label
_atom_site_fract_x
_atom_site_fract_y
_atom_site_fract_z
Si Si1 0.795524 0.346020 0.331445
Si Si2 0.885965 0.822220 0.240906
Si Si3 0.953979 0.827769 0.000000
Si Si4 0.289927 0.850070 0.663926
Si Si5 0.547418 0.842799 0.324552
Si Si6 0.945380 0.813910 0.500000
Si Si7 0.378288 0.347705 0.830877
O O1 0.794292 0.500000 0.250000
O O2 0.795161 0.369003 0.500000
O O3 0.839899 0.257289 0.289682
O O4 0.752293 0.248952 0.293401
O O5 0.923241 0.786181 0.127692
O O6 0.913156 0.773109 0.375122
O O7 0.878407 0.000000 0.250000
O O8 0.003513 0.762545 0.000000
O O9 0.953297 0.007760 0.000000
O O10 0.284051 0.887238 0.500000
O O11 0.334943 0.755915 0.677628
O O12 0.292580 0.000000 0.750000
O O13 0.500000 0.806679 0.250000
O O14 0.545809 0.849180 0.500000
O O15 0.582674 0.727915 0.261081
O O16 0.559309 0.000000 0.250000
O O17 0.368508 0.500000 0.750000
O O18 0.388789 0.365308 0.000000
#
# Coordination Sequence:
#
# PCOD9393214 Si02
#       7
#     8   8   4   8   8   4   8
#     4  11  24  41  59  83 116 153 193 237 290 349
#     4  10  19  34  57  83 115 145 188 238 287 342
#     4   9  16  32  51  85 115 147 179 245 276 343
#     4  10  23  42  65  92 120 152 196 247 298 357
#     4  11  22  39  63  92 127 168 217 266 315 365
#     4   9  18  28  55  85 113 143 191 225 298 333
#     4  11  23  40  62  91 128 166 207 253 308 367
#
# _framework density 18.54757
#
# number of rings (size 3 to 8) (size 9 to 14) (size 15 to 20)
#    0.000    1.667    0.833    4.500    1.167    5.667 
#    0.000    1.667    0.000    3.000    0.000    0.000 
#    0.000    0.000    0.000    0.000    0.000    0.000 
#
# Total GULP energy -267435.700276 kJ/mol
# GULP energy per Si atom -5571.577089 kJ/mol
# Density = 1.850535 g / cm^3
# Si number density = 18.547570 Si / 1000 Ang^3
#
#
#
# Elastic Constant Matrix: (Units=GPa)
#
#
# Indices 1 2 3 4 5 6 
#
# 1 64.4959 64.4112 53.5372 0.0000 0.0000 0.0000
# 2 64.4112 101.1722 63.2353 0.0000 0.0000 0.0000
# 3 53.5372 63.2353 165.6974 0.0000 0.0000 0.0000
# 4 0.0000 0.0000 0.0000 33.8746 0.0000 0.0000
# 5 0.0000 0.0000 0.0000 0.0000 37.8299 0.0000
# 6 0.0000 0.0000 0.0000 0.0000 0.0000 -36.1968
#
#
#
# Elastic Compliance Matrix: (Units=1/GPa)
#
#
# Indices 1 2 3 4 5 6 
#
# 1 0.045267 -0.025842 -0.004764 0.000000 0.000000 0.000000
# 2 -0.025842 0.027733 -0.002234 0.000000 0.000000 0.000000
# 3 -0.004764 -0.002234 0.008427 0.000000 0.000000 0.000000
# 4 0.000000 0.000000 0.000000 0.029521 0.000000 0.000000
# 5 0.000000 0.000000 0.000000 0.000000 0.026434 0.000000
# 6 0.000000 0.000000 0.000000 0.000000 0.000000 -0.027627
#
#
# Mechanical properties :
#
#
# Convention : Reuss Voigt Hill
#
# Bulk Modulus (GPa) = 63.50338 77.08143 70.29240
# Shear Modulus (GPa) = 27.67281 17.11367 22.39324
#
# Velocity S-wave (km/s) = 3.86682 3.04088 3.47845
# Velocity P-wave (km/s) = 7.36538 7.34699 7.35619
#
# Compressibility (1/GPa) = 0.01574719
#
# Stress axis : x y z
#
# Youngs Moduli (GPa) = 22.09118 36.05869 118.66718
#
# Poissons Ratio (x) = 0.93181 0.56532
# Poissons Ratio (y) = 0.57087 0.26512
# Poissons Ratio (z) = 0.10524 0.08056
#
# Static dielectric constant tensor:
#      x y z
#    x 1.619150 0.000000 0.000000 
#    y 0.000000 1.633530 0.000000 
#    z 0.000000 0.000000 1.609560 
# 
# From -- ./inp_files/6909.got.cif
#   From: 2010.05.17/outbox.cif.g08.bks.cpg/sg49_4_cif.got.tgz:6909.got - 2010.06.03 21:02:19.
