data_PCOD9393269
_publ_section_title
;
Structure prediction by ZEFSAII (Michael W. Deem and Ramdas Pophale) SiO2 
 PCOD9393269
Probable space group: P C C M
;
_chemical_formula_sum "Si O2"
_cell_formula_units_Z 48
_cell_length_a 14.937931
_cell_length_b 18.809854
_cell_length_c 9.355703
_cell_angle_alpha 90.000000
_cell_angle_beta 90.000000
_cell_angle_gamma 90.000000
_cell_volume 2628.768247
_symmetry_space_group_name_H-M "P C C M"
_symmetry_group_IT_number 49
_symmetry_cell_setting 'orthorhombic'
loop_
_space_group_symop_operation_xyz
x,y,z
-x,-y,z
x,-y,1/2-z
-x,y,1/2-z
-x,-y,-z
x,y,-z
-x,y,1/2+z
x,-y,1/2+z
loop_
_atom_site_type_symbol
_atom_site_label
_atom_site_fract_x
_atom_site_fract_y
_atom_site_fract_z
Si Si1 0.916817 0.719744 0.659606
Si Si2 0.411031 0.720054 0.328929
Si Si3 0.860300 0.437676 0.841496
Si Si4 0.350262 0.425908 0.673857
Si Si5 0.773283 0.204281 0.334158
Si Si6 0.906572 0.925470 0.827880
O O1 0.923946 0.747184 0.500000
O O2 0.914101 0.634772 0.659115
O O3 0.825743 0.743602 0.730587
O O4 0.000000 0.744941 0.750000
O O5 0.500000 0.746382 0.250000
O O6 0.423166 0.708654 0.500000
O O7 0.388374 0.644555 0.251229
O O8 0.331001 0.777822 0.311862
O O9 0.899222 0.500000 0.750000
O O10 0.757100 0.422512 0.800660
O O11 0.855290 0.466677 0.000000
O O12 0.380780 0.500000 0.750000
O O13 0.366067 0.426084 0.500000
O O14 0.792096 0.222328 0.500000
O O15 0.823164 0.128866 0.309075
O O16 0.000000 0.902645 0.750000
O O17 0.885123 0.000000 0.750000
O O18 0.920941 0.933175 0.000000
#
# Coordination Sequence:
#
# PCOD9393269 Si02
#       6
#     8   8   8   8   8   8
#     4  11  22  35  52  78 108 143 186 228 275 332
#     4  11  23  39  59  84 112 146 188 238 290 344
#     4   9  19  33  50  71  99 137 180 227 276 329
#     4  10  19  35  56  80 107 141 186 238 296 350
#     4  10  22  39  59  83 114 149 185 228 278 330
#     4  10  20  36  59  91 124 155 188 223 265 320
#
# _framework density 18.259502000000001
#
# number of rings (size 3 to 8) (size 9 to 14) (size 15 to 20)
#    0.000    1.833    1.667    3.000    0.000    6.000 
#    0.000    3.333    0.000    0.500    0.000    3.500 
#    0.000    0.000    0.000    0.000    0.000    0.000 
#
# Total GULP energy -267558.029872 kJ/mol
# GULP energy per Si atom -5574.125622 kJ/mol
# Density = 1.821794 g / cm^3
# Si number density = 18.259502 Si / 1000 Ang^3
#
#
#
# Elastic Constant Matrix: (Units=GPa)
#
#
# Indices 1 2 3 4 5 6 
#
# 1 110.7569 34.5087 78.9775 0.0000 0.0000 0.0000
# 2 34.5087 89.2950 57.2549 0.0000 0.0000 0.0000
# 3 78.9775 57.2549 110.2808 0.0000 0.0000 0.0000
# 4 0.0000 0.0000 0.0000 92.3015 0.0000 0.0000
# 5 0.0000 0.0000 0.0000 0.0000 44.8410 0.0000
# 6 0.0000 0.0000 0.0000 0.0000 0.0000 -6.3170
#
#
#
# Elastic Compliance Matrix: (Units=1/GPa)
#
#
# Indices 1 2 3 4 5 6 
#
# 1 0.018695 0.002038 -0.014447 0.000000 0.000000 0.000000
# 2 0.002038 0.017009 -0.010290 0.000000 0.000000 0.000000
# 3 -0.014447 -0.010290 0.024756 0.000000 0.000000 0.000000
# 4 0.000000 0.000000 0.000000 0.010834 0.000000 0.000000
# 5 0.000000 0.000000 0.000000 0.000000 0.022301 0.000000
# 6 0.000000 0.000000 0.000000 0.000000 0.000000 -0.158304
#
#
# Mechanical properties :
#
#
# Convention : Reuss Voigt Hill
#
# Bulk Modulus (GPa) = 66.38849 72.42391 69.40620
# Shear Modulus (GPa) = -349.92430 35.47121 -157.22654
#
# Velocity S-wave (km/s) = -13.85841 4.41229 -9.28944
# Velocity P-wave (km/s) = 14.82015 8.10602 8.77295
#
# Compressibility (1/GPa) = 0.01506285
#
# Stress axis : x y z
#
# Youngs Moduli (GPa) = 53.48920 58.79158 40.39367
#
# Poissons Ratio (x) = -0.11983 0.58356
# Poissons Ratio (y) = -0.10902 0.41567
# Poissons Ratio (z) = 0.77275 0.60499
#
# Static dielectric constant tensor:
#      x y z
#    x 1.774230 0.000000 0.000000 
#    y 0.000000 1.627150 0.000000 
#    z 0.000000 0.000000 1.627880 
# 
# From -- ./inp_files/3679.got.cif
#   From: 2010.05.17/outbox.cif.g08.bks.cpg/sg49_2_cif.got.tgz:3679.got - 2010.06.03 21:02:19.
