data_PCOD9393648
_publ_section_title
;
Structure prediction by ZEFSAII (Michael W. Deem and Ramdas Pophale) SiO2 
 PCOD9393648
Probable space group: P C C M
;
_chemical_formula_sum "Si O2"
_cell_formula_units_Z 64
_cell_length_a 27.514608
_cell_length_b 14.350978
_cell_length_c 8.097849
_cell_angle_alpha 90.000000
_cell_angle_beta 90.000000
_cell_angle_gamma 90.000000
_cell_volume 3197.529079
_symmetry_space_group_name_H-M "P C C M"
_symmetry_group_IT_number 49
_symmetry_cell_setting 'orthorhombic'
loop_
_space_group_symop_operation_xyz
x,y,z
-x,-y,z
x,-y,1/2-z
-x,y,1/2-z
-x,-y,-z
x,y,-z
-x,y,1/2+z
x,-y,1/2+z
loop_
_atom_site_type_symbol
_atom_site_label
_atom_site_fract_x
_atom_site_fract_y
_atom_site_fract_z
Si Si1 0.701011 0.391468 0.698929
Si Si2 0.447772 0.790847 0.194769
Si Si3 0.594759 0.392993 0.302353
Si Si4 0.193240 0.606972 0.302508
Si Si5 0.851657 0.787118 0.301970
Si Si6 0.244753 0.108307 0.699673
Si Si7 0.351471 0.108123 0.300136
Si Si8 0.946610 0.892591 0.697029
O O1 0.701204 0.500000 0.750000
O O2 0.700797 0.383657 0.500000
O O3 0.648356 0.359055 0.760402
O O4 0.753426 0.357775 0.760821
O O5 0.500000 0.827923 0.250000
O O6 0.443074 0.681883 0.238050
O O7 0.399588 0.840774 0.265849
O O8 0.445726 0.801356 0.000000
O O9 0.586995 0.500000 0.250000
O O10 0.594905 0.390975 0.500000
O O11 0.186601 0.500000 0.250000
O O12 0.194102 0.609565 0.500000
O O13 0.153631 0.678645 0.238384
O O14 0.851509 0.797980 0.500000
O O15 0.802877 0.838224 0.237170
O O16 0.900972 0.833797 0.237637
O O17 0.244700 0.113482 0.500000
O O18 0.298116 0.143543 0.757808
O O19 0.241195 0.000000 0.750000
O O20 0.351393 0.114224 0.500000
O O21 0.354084 0.000000 0.250000
O O22 0.945432 0.890094 0.500000
O O23 0.000000 0.859317 0.750000
O O24 0.941450 0.000000 0.750000
#
# Coordination Sequence:
#
# PCOD9393648 Si02
#       8
#     8   8   8   8   8   8   8   8
#     4   8  16  30  48  73 102 134 173 213 258 312
#     4  11  24  40  57  80 105 136 178 223 271 324
#     4  10  20  36  57  81 109 140 175 218 267 322
#     4  10  20  34  52  77 111 150 190 229 273 323
#     4  10  21  34  53  82 115 150 188 229 277 326
#     4   9  18  34  54  80 112 143 174 216 267 325
#     4   9  20  38  59  81 106 138 175 216 269 325
#     4  10  20  35  56  83 115 153 193 236 281 329
#
# _framework density 20.015454999999999
#
# number of rings (size 3 to 8) (size 9 to 14) (size 15 to 20)
#    0.000    2.375    0.000    2.250    1.750    4.000 
#    0.000    2.500    0.000    0.375    0.000    2.625 
#    0.000    0.000    0.000    0.000    0.000    0.000 
#
# Total GULP energy -357057.321179 kJ/mol
# GULP energy per Si atom -5579.020643 kJ/mol
# Density = 1.996990 g / cm^3
# Si number density = 20.015455 Si / 1000 Ang^3
#
#
#
# Elastic Constant Matrix: (Units=GPa)
#
#
# Indices 1 2 3 4 5 6 
#
# 1 180.8456 76.6365 21.5727 0.0000 0.0000 0.0000
# 2 76.6365 70.1559 -5.1064 0.0000 0.0000 0.0000
# 3 21.5727 -5.1064 24.1035 0.0000 0.0000 0.0000
# 4 0.0000 0.0000 0.0000 23.5700 0.0000 0.0000
# 5 0.0000 0.0000 0.0000 0.0000 19.0963 0.0000
# 6 0.0000 0.0000 0.0000 0.0000 0.0000 33.2657
#
#
#
# Elastic Compliance Matrix: (Units=1/GPa)
#
#
# Indices 1 2 3 4 5 6 
#
# 1 0.015136 -0.017795 -0.017317 0.000000 0.000000 0.000000
# 2 -0.017795 0.035397 0.023425 0.000000 0.000000 0.000000
# 3 -0.017317 0.023425 0.061949 0.000000 0.000000 0.000000
# 4 0.000000 0.000000 0.000000 0.042427 0.000000 0.000000
# 5 0.000000 0.000000 0.000000 0.000000 0.052366 0.000000
# 6 0.000000 0.000000 0.000000 0.000000 0.000000 0.030061
#
#
# Mechanical properties :
#
#
# Convention : Reuss Voigt Hill
#
# Bulk Modulus (GPa) = 11.22201 51.25671 31.23936
# Shear Modulus (GPa) = 17.21692 27.31988 22.26840
#
# Velocity S-wave (km/s) = 2.93607 3.69852 3.33912
# Velocity P-wave (km/s) = 4.13677 6.62592 5.52339
#
# Compressibility (1/GPa) = 0.08911058
#
# Stress axis : x y z
#
# Youngs Moduli (GPa) = 66.06751 28.25065 16.14230
#
# Poissons Ratio (x) = 0.50271 0.27953
# Poissons Ratio (y) = 1.17565 -0.37814
# Poissons Ratio (z) = 1.14407 -0.66178
#
# Static dielectric constant tensor:
#      x y z
#    x 1.767070 0.000000 0.000000 
#    y 0.000000 1.682930 0.000000 
#    z 0.000000 0.000000 1.697070 
# 
# From -- ./inp_files/6515.got.cif
#   From: 2010.05.17/outbox.cif.g08.bks.cpg/sg49_4_cif.got.tgz:6515.got - 2010.06.03 21:02:19.
