data_PCOD9393263
_publ_section_title
;
Structure prediction by ZEFSAII (Michael W. Deem and Ramdas Pophale) SiO2 
 PCOD9393263
Probable space group: P C C M
;
_chemical_formula_sum "Si O2"
_cell_formula_units_Z 58
_cell_length_a 13.370642
_cell_length_b 26.427390
_cell_length_c 8.920279
_cell_angle_alpha 90.000000
_cell_angle_beta 90.000000
_cell_angle_gamma 90.000000
_cell_volume 3151.991027
_symmetry_space_group_name_H-M "P C C M"
_symmetry_group_IT_number 49
_symmetry_cell_setting 'orthorhombic'
loop_
_space_group_symop_operation_xyz
x,y,z
-x,-y,z
x,-y,1/2-z
-x,y,1/2-z
-x,-y,-z
x,y,-z
-x,y,1/2+z
x,-y,1/2+z
loop_
_atom_site_type_symbol
_atom_site_label
_atom_site_fract_x
_atom_site_fract_y
_atom_site_fract_z
Si Si1 0.893682 0.803919 0.319881
Si Si2 0.105283 0.396600 0.821110
Si Si3 0.828967 0.914721 0.677936
Si Si4 0.000000 0.000000 0.750000
Si Si5 0.397006 0.943685 0.182392
Si Si6 0.795179 0.709070 0.821621
Si Si7 0.604629 0.658410 0.677281
Si Si8 0.702552 0.551936 0.323391
O O1 0.898404 0.804052 0.500000
O O2 0.865407 0.860275 0.264528
O O3 0.820420 0.760523 0.262880
O O4 0.000000 0.790720 0.250000
O O5 0.129310 0.337460 0.786523
O O6 0.194209 0.429930 0.752565
O O7 0.000000 0.410706 0.750000
O O8 0.104184 0.402207 0.000000
O O9 0.819874 0.910464 0.500000
O O10 0.914217 0.958026 0.700402
O O11 0.714056 0.924129 0.729357
O O12 0.500000 0.919591 0.250000
O O13 0.396924 0.000000 0.250000
O O14 0.403440 0.943937 0.000000
O O15 0.689972 0.688413 0.764201
O O16 0.796323 0.716835 0.000000
O O17 0.500000 0.671266 0.750000
O O18 0.608512 0.669071 0.500000
O O19 0.627526 0.598765 0.697530
O O20 0.667667 0.500000 0.250000
O O21 0.718572 0.544800 0.500000
#
# Coordination Sequence:
#
# PCOD9393263 Si02
#       8
#     8   8   8   2   8   8   8   8
#     4  11  22  38  57  84 118 153 189 235 288 345
#     4  10  20  34  54  78 107 142 185 231 280 337
#     4  10  22  36  56  84 118 155 195 241 292 350
#     4  12  18  40  58  82 120 160 202 238 300 352
#     4  10  19  35  55  80 107 141 185 230 277 328
#     4  10  21  38  59  84 111 145 187 235 286 344
#     4  10  21  38  61  87 114 149 190 238 289 346
#     4  10  21  36  54  79 113 149 189 233 283 335
#
# _framework density 18.401067999999999
#
# number of rings (size 3 to 8) (size 9 to 14) (size 15 to 20)
#    0.000    1.793    1.379    3.517    0.000    4.966 
#    0.000    6.207    0.000    1.655    0.000    0.000 
#    0.000    0.000    0.000    0.000    0.000    0.000 
#
# Total GULP energy -323172.587078 kJ/mol
# GULP energy per Si atom -5571.941157 kJ/mol
# Density = 1.835919 g / cm^3
# Si number density = 18.401068 Si / 1000 Ang^3
#
#
#
# Elastic Constant Matrix: (Units=GPa)
#
#
# Indices 1 2 3 4 5 6 
#
# 1 90.8007 2.8799 18.9038 0.0000 0.0000 0.0000
# 2 2.8799 73.9339 23.9890 0.0000 0.0000 0.0000
# 3 18.9038 23.9890 47.5955 0.0000 0.0000 0.0000
# 4 0.0000 0.0000 0.0000 30.5361 0.0000 0.0000
# 5 0.0000 0.0000 0.0000 0.0000 17.7704 0.0000
# 6 0.0000 0.0000 0.0000 0.0000 0.0000 -9.0542
#
#
#
# Elastic Compliance Matrix: (Units=1/GPa)
#
#
# Indices 1 2 3 4 5 6 
#
# 1 0.012110 0.001302 -0.005466 0.000000 0.000000 0.000000
# 2 0.001302 0.016310 -0.008738 0.000000 0.000000 0.000000
# 3 -0.005466 -0.008738 0.027585 0.000000 0.000000 0.000000
# 4 0.000000 0.000000 0.000000 0.032748 0.000000 0.000000
# 5 0.000000 0.000000 0.000000 0.000000 0.056273 0.000000
# 6 0.000000 0.000000 0.000000 0.000000 0.000000 -0.110446
#
#
# Mechanical properties :
#
#
# Convention : Reuss Voigt Hill
#
# Bulk Modulus (GPa) = 33.11075 33.76394 33.43735
# Shear Modulus (GPa) = 70.97170 18.95427 44.96299
#
# Velocity S-wave (km/s) = 6.21716 3.21294 4.94854
# Velocity P-wave (km/s) = 8.34089 5.67034 7.13173
#
# Compressibility (1/GPa) = 0.03020167
#
# Stress axis : x y z
#
# Youngs Moduli (GPa) = 82.57783 61.31238 36.25132
#
# Poissons Ratio (x) = -0.07982 0.19814
# Poissons Ratio (y) = -0.10750 0.31675
# Poissons Ratio (z) = 0.45136 0.53572
#
# Static dielectric constant tensor:
#      x y z
#    x 1.624750 0.000000 0.000000 
#    y 0.000000 1.638210 0.000000 
#    z 0.000000 0.000000 1.619090 
# 
# From -- ./inp_files/3027.got.cif
#   From: 2010.05.17/outbox.cif.g08.bks.cpg/sg49_2_cif.got.tgz:3027.got - 2010.06.03 21:02:19.
