data_PCOD9393416
_publ_section_title
;
Structure prediction by ZEFSAII (Michael W. Deem and Ramdas Pophale) SiO2 
 PCOD9393416
Probable space group: P C C M
;
_chemical_formula_sum "Si O2"
_cell_formula_units_Z 64
_cell_length_a 14.520165
_cell_length_b 12.928699
_cell_length_c 16.546532
_cell_angle_alpha 90.000000
_cell_angle_beta 90.000000
_cell_angle_gamma 90.000000
_cell_volume 3106.228210
_symmetry_space_group_name_H-M "P C C M"
_symmetry_group_IT_number 49
_symmetry_cell_setting 'orthorhombic'
loop_
_space_group_symop_operation_xyz
x,y,z
-x,-y,z
x,-y,1/2-z
-x,y,1/2-z
-x,-y,-z
x,y,-z
-x,y,1/2+z
x,-y,1/2+z
loop_
_atom_site_type_symbol
_atom_site_label
_atom_site_fract_x
_atom_site_fract_y
_atom_site_fract_z
Si Si1 0.904704 0.309151 0.346477
Si Si2 0.582515 0.760329 0.904770
Si Si3 0.797155 0.487832 0.150739
Si Si4 0.775334 0.066508 0.833044
Si Si5 0.108956 0.278745 0.343115
Si Si6 0.404035 0.538760 0.657558
Si Si7 0.229815 0.138966 0.908435
Si Si8 0.576216 0.912511 0.596092
O O1 0.863803 0.418417 0.376446
O O2 0.907006 0.312204 0.249646
O O3 0.832443 0.218257 0.361095
O O4 0.005661 0.278884 0.378970
O O5 0.597148 0.662060 0.849074
O O6 0.662821 0.843862 0.886471
O O7 0.482065 0.808028 0.894522
O O8 0.592088 0.732345 0.000000
O O9 0.794110 0.500000 0.250000
O O10 0.833035 0.375708 0.124348
O O11 0.692630 0.502081 0.121236
O O12 0.837161 0.169329 0.841710
O O13 0.668052 0.090509 0.850956
O O14 0.784963 0.000000 0.750000
O O15 0.800151 0.978493 0.897775
O O16 0.500000 0.500000 0.619560
O O17 0.404715 0.500000 0.750000
O O18 0.220626 0.170835 0.000000
O O19 0.599399 0.927495 0.500000
O O20 0.500000 0.000000 0.616506
#
# Coordination Sequence:
#
# PCOD9393416 Si02
#       8
#     8   8   8   8   8   8   8   8
#     4  10  19  40  63  89 117 160 213 254 311 373
#     4  10  21  40  64  87 120 169 215 250 302 378
#     4   9  18  35  61  87 121 157 201 251 310 371
#     4  12  24  39  59  95 132 161 203 262 318 373
#     4  10  22  36  61  93 125 156 199 266 318 364
#     4  10  21  35  56  93 126 156 195 260 316 362
#     4  11  22  41  66  88 121 170 212 251 305 377
#     4  10  21  41  64  86 120 167 212 249 297 371
#
# _framework density 20.603766
#
# number of rings (size 3 to 8) (size 9 to 14) (size 15 to 20)
#    0.000    1.750    3.750    0.750    1.750    2.500 
#    2.250    1.875    0.000    3.750    0.000    0.000 
#    0.000    0.000    0.000    0.000    0.000    0.000 
#
# Total GULP energy -356816.309737 kJ/mol
# GULP energy per Si atom -5575.254840 kJ/mol
# Density = 2.055687 g / cm^3
# Si number density = 20.603766 Si / 1000 Ang^3
#
#
#
# Elastic Constant Matrix: (Units=GPa)
#
#
# Indices 1 2 3 4 5 6 
#
# 1 146.3397 60.8803 16.8441 0.0000 0.0000 0.0000
# 2 60.8803 133.1318 9.0347 0.0000 0.0000 0.0000
# 3 16.8441 9.0347 10.2679 0.0000 0.0000 0.0000
# 4 0.0000 0.0000 0.0000 41.0880 0.0000 0.0000
# 5 0.0000 0.0000 0.0000 0.0000 9.2633 0.0000
# 6 0.0000 0.0000 0.0000 0.0000 0.0000 18.9524
#
#
#
# Elastic Compliance Matrix: (Units=1/GPa)
#
#
# Indices 1 2 3 4 5 6 
#
# 1 0.009827 -0.003616 -0.012939 0.000000 0.000000 0.000000
# 2 -0.003616 0.009319 -0.002268 0.000000 0.000000 0.000000
# 3 -0.012939 -0.002268 0.120614 0.000000 0.000000 0.000000
# 4 0.000000 0.000000 0.000000 0.024338 0.000000 0.000000
# 5 0.000000 0.000000 0.000000 0.000000 0.107953 0.000000
# 6 0.000000 0.000000 0.000000 0.000000 0.000000 0.052764
#
#
# Mechanical properties :
#
#
# Convention : Reuss Voigt Hill
#
# Bulk Modulus (GPa) = 9.79306 51.47306 30.63306
# Shear Modulus (GPa) = 12.61039 27.39276 20.00158
#
# Velocity S-wave (km/s) = 2.47663 3.65019 3.11910
# Velocity P-wave (km/s) = 3.59745 6.54231 5.27937
#
# Compressibility (1/GPa) = 0.10211310
#
# Stress axis : x y z
#
# Youngs Moduli (GPa) = 101.76048 107.31090 8.29093
#
# Poissons Ratio (x) = 0.38801 0.10728
# Poissons Ratio (y) = 0.36794 0.01880
# Poissons Ratio (z) = 1.31672 0.24339
#
# Static dielectric constant tensor:
#      x y z
#    x 1.770850 0.000000 0.000000 
#    y 0.000000 1.730000 0.000000 
#    z 0.000000 0.000000 1.750110 
# 
# From -- ./inp_files/17987.got.cif
#   From: 2010.05.17/outbox.cif.g08.bks.cpg/sg49_9_cif.got.tgz:17987.got - 2010.06.03 21:02:19.
