data_PCOD9393688
_publ_section_title
;
Structure prediction by ZEFSAII (Michael W. Deem and Ramdas Pophale) SiO2 
 PCOD9393688
Probable space group: P C C M
;
_chemical_formula_sum "Si O2"
_cell_formula_units_Z 58
_cell_length_a 14.511555
_cell_length_b 21.901090
_cell_length_c 9.397296
_cell_angle_alpha 90.000000
_cell_angle_beta 90.000000
_cell_angle_gamma 90.000000
_cell_volume 2986.638015
_symmetry_space_group_name_H-M "P C C M"
_symmetry_group_IT_number 49
_symmetry_cell_setting 'orthorhombic'
loop_
_space_group_symop_operation_xyz
x,y,z
-x,-y,z
x,-y,1/2-z
-x,y,1/2-z
-x,-y,-z
x,y,-z
-x,y,1/2+z
x,-y,1/2+z
loop_
_atom_site_type_symbol
_atom_site_label
_atom_site_fract_x
_atom_site_fract_y
_atom_site_fract_z
Si Si1 0.905969 0.061780 0.331011
Si Si2 0.000000 0.500000 0.250000
Si Si3 0.224570 0.140543 0.661072
Si Si4 0.412135 0.690925 0.336517
Si Si5 0.345773 0.444261 0.164139
Si Si6 0.595563 0.937412 0.669706
Si Si7 0.163789 0.588680 0.161996
Si Si8 0.766968 0.717295 0.339405
O O1 0.917706 0.053704 0.500000
O O2 0.831132 0.110944 0.288847
O O3 0.000000 0.079242 0.250000
O O4 0.876875 0.000000 0.250000
O O5 0.072033 0.547890 0.178131
O O6 0.197112 0.119067 0.500000
O O7 0.329517 0.116856 0.679098
O O8 0.204517 0.212508 0.664751
O O9 0.500000 0.713008 0.250000
O O10 0.419794 0.708650 0.500000
O O11 0.403965 0.617443 0.326442
O O12 0.316281 0.711907 0.269962
O O13 0.387478 0.500000 0.250000
O O14 0.244674 0.431727 0.231688
O O15 0.335022 0.460200 0.000000
O O16 0.500000 0.921927 0.750000
O O17 0.581671 0.949067 0.500000
O O18 0.628103 0.000000 0.750000
O O19 0.159163 0.662596 0.184431
O O20 0.195800 0.579558 0.000000
O O21 0.730213 0.706471 0.500000
#
# Coordination Sequence:
#
# PCOD9393688 Si02
#       8
#     8   2   8   8   8   8   8   8
#     4  11  22  38  62  90 121 155 198 249 300 353
#     4  12  22  32  60  94 116 136 188 232 286 356
#     4  10  21  38  60  86 118 158 203 247 302 361
#     4  10  21  36  55  80 108 143 187 233 277 334
#     4  10  20  34  54  78 108 139 173 219 274 334
#     4  10  20  34  54  83 120 159 198 248 294 345
#     4  10  21  37  57  82 112 147 182 227 286 343
#     4   9  20  40  60  79 114 156 192 237 292 349
#
# _framework density 19.419829
#
# number of rings (size 3 to 8) (size 9 to 14) (size 15 to 20)
#    0.000    1.931    0.690    3.931    0.000    5.793 
#    1.241    2.759    0.000    0.000    0.000    0.000 
#    0.000    0.000    0.000    0.000    0.000    0.000 
#
# Total GULP energy -323199.040253 kJ/mol
# GULP energy per Si atom -5572.397246 kJ/mol
# Density = 1.937563 g / cm^3
# Si number density = 19.419829 Si / 1000 Ang^3
#
#
#
# Elastic Constant Matrix: (Units=GPa)
#
#
# Indices 1 2 3 4 5 6 
#
# 1 73.5831 14.5382 39.5571 0.0000 0.0000 0.0000
# 2 14.5382 96.6718 39.3168 0.0000 0.0000 0.0000
# 3 39.5571 39.3168 154.6958 0.0000 0.0000 0.0000
# 4 0.0000 0.0000 0.0000 23.8849 0.0000 0.0000
# 5 0.0000 0.0000 0.0000 0.0000 23.2012 0.0000
# 6 0.0000 0.0000 0.0000 0.0000 0.0000 15.0894
#
#
#
# Elastic Compliance Matrix: (Units=1/GPa)
#
#
# Indices 1 2 3 4 5 6 
#
# 1 0.015814 -0.000818 -0.003836 0.000000 0.000000 0.000000
# 2 -0.000818 0.011579 -0.002734 0.000000 0.000000 0.000000
# 3 -0.003836 -0.002734 0.008140 0.000000 0.000000 0.000000
# 4 0.000000 0.000000 0.000000 0.041867 0.000000 0.000000
# 5 0.000000 0.000000 0.000000 0.000000 0.043101 0.000000
# 6 0.000000 0.000000 0.000000 0.000000 0.000000 0.066272
#
#
# Mechanical properties :
#
#
# Convention : Reuss Voigt Hill
#
# Bulk Modulus (GPa) = 48.17522 56.86389 52.51955
# Shear Modulus (GPa) = 23.98453 27.87101 25.92777
#
# Velocity S-wave (km/s) = 3.51815 3.79249 3.65789
# Velocity P-wave (km/s) = 6.43150 6.96579 6.70397
#
# Compressibility (1/GPa) = 0.02075756
#
# Stress axis : x y z
#
# Youngs Moduli (GPa) = 63.23595 86.36237 122.85120
#
# Poissons Ratio (x) = 0.07066 0.47123
# Poissons Ratio (y) = 0.05174 0.33584
# Poissons Ratio (z) = 0.24256 0.23609
#
# Static dielectric constant tensor:
#      x y z
#    x 1.681720 0.000000 0.000000 
#    y 0.000000 1.727200 0.000000 
#    z 0.000000 0.000000 1.668800 
# 
# From -- ./inp_files/4281.got.cif
#   From: 2010.05.17/outbox.cif.g08.bks.cpg/sg49_3_cif.got.tgz:4281.got - 2010.06.03 21:02:19.
