data_PCOD9393049
_publ_section_title
;
Structure prediction by ZEFSAII (Michael W. Deem and Ramdas Pophale) SiO2 
 PCOD9393049
Probable space group: P C C M
;
_chemical_formula_sum "Si O2"
_cell_formula_units_Z 48
_cell_length_a 9.278192
_cell_length_b 32.538648
_cell_length_c 8.619238
_cell_angle_alpha 90.000000
_cell_angle_beta 90.000000
_cell_angle_gamma 90.000000
_cell_volume 2602.146431
_symmetry_space_group_name_H-M "P C C M"
_symmetry_group_IT_number 49
_symmetry_cell_setting 'orthorhombic'
loop_
_space_group_symop_operation_xyz
x,y,z
-x,-y,z
x,-y,1/2-z
-x,y,1/2-z
-x,-y,-z
x,y,-z
-x,y,1/2+z
x,-y,1/2+z
loop_
_atom_site_type_symbol
_atom_site_label
_atom_site_fract_x
_atom_site_fract_y
_atom_site_fract_z
Si Si1 0.839078 0.797782 0.814187
Si Si2 0.660955 0.120843 0.686515
Si Si3 0.663219 0.630817 0.686882
Si Si4 0.664569 0.457924 0.186141
Si Si5 0.663336 0.279148 0.186626
Si Si6 0.838660 0.955553 0.685577
O O1 0.751315 0.838669 0.768577
O O2 0.758478 0.757637 0.751102
O O3 0.000000 0.799942 0.750000
O O4 0.842738 0.795985 0.000000
O O5 0.500000 0.124532 0.750000
O O6 0.659218 0.117990 0.500000
O O7 0.736813 0.080649 0.755667
O O8 0.500000 0.630831 0.750000
O O9 0.657903 0.630531 0.500000
O O10 0.729053 0.586600 0.733479
O O11 0.722944 0.675456 0.733426
O O12 0.732288 0.500000 0.250000
O O13 0.500000 0.457237 0.250000
O O14 0.659907 0.460393 0.000000
O O15 0.500000 0.275569 0.250000
O O16 0.658909 0.277056 0.000000
O O17 0.843092 0.956736 0.500000
O O18 0.000000 0.948316 0.750000
O O19 0.791684 0.000000 0.750000
#
# Coordination Sequence:
#
# PCOD9393049 Si02
#       6
#     8   8   8   8   8   8
#     4  11  24  40  59  82 109 141 178 221 269 322
#     4  11  24  41  61  87 117 149 186 227 273 322
#     4   8  15  25  38  58  86 122 161 203 250 302
#     4   9  14  20  30  48  77 114 156 197 242 294
#     4  10  19  33  53  76 104 137 175 218 265 317
#     4  11  22  39  63  90 121 156 194 233 275 322
#
# _framework density 18.446311000000001
#
# number of rings (size 3 to 8) (size 9 to 14) (size 15 to 20)
#    0.000    2.000    0.000    5.500    0.000    7.000 
#    0.000    1.667    0.000    0.000    0.000    0.000 
#    0.000    0.667    0.000    7.667    0.000    4.500 
#
# Total GULP energy -267747.136329 kJ/mol
# GULP energy per Si atom -5578.065340 kJ/mol
# Density = 1.840433 g / cm^3
# Si number density = 18.446311 Si / 1000 Ang^3
#
#
#
# Elastic Constant Matrix: (Units=GPa)
#
#
# Indices 1 2 3 4 5 6 
#
# 1 81.1419 97.4014 34.7632 0.0000 0.0000 0.0000
# 2 97.4014 230.7065 67.9884 0.0000 0.0000 0.0000
# 3 34.7632 67.9884 74.1682 0.0000 0.0000 0.0000
# 4 0.0000 0.0000 0.0000 32.8569 0.0000 0.0000
# 5 0.0000 0.0000 0.0000 0.0000 24.2218 0.0000
# 6 0.0000 0.0000 0.0000 0.0000 0.0000 -20.7258
#
#
#
# Elastic Compliance Matrix: (Units=1/GPa)
#
#
# Indices 1 2 3 4 5 6 
#
# 1 0.025418 -0.009893 -0.002845 0.000000 0.000000 0.000000
# 2 -0.009893 0.009789 -0.004337 0.000000 0.000000 0.000000
# 3 -0.002845 -0.004337 0.018792 0.000000 0.000000 0.000000
# 4 0.000000 0.000000 0.000000 0.030435 0.000000 0.000000
# 5 0.000000 0.000000 0.000000 0.000000 0.041285 0.000000
# 6 0.000000 0.000000 0.000000 0.000000 0.000000 -0.048249
#
#
# Mechanical properties :
#
#
# Convention : Reuss Voigt Hill
#
# Bulk Modulus (GPa) = 50.37842 87.36919 68.87381
# Shear Modulus (GPa) = 42.28837 19.66149 30.97493
#
# Velocity S-wave (km/s) = 4.79321 3.26832 4.10224
# Velocity P-wave (km/s) = 7.61599 7.85553 7.73669
#
# Compressibility (1/GPa) = 0.01984977
#
# Stress axis : x y z
#
# Youngs Moduli (GPa) = 39.34204 102.15446 53.21481
#
# Poissons Ratio (x) = 1.01059 0.15141
# Poissons Ratio (y) = 0.38920 0.23077
# Poissons Ratio (z) = 0.11194 0.44301
#
# Static dielectric constant tensor:
#      x y z
#    x 1.589100 0.000000 0.000000 
#    y 0.000000 1.690890 0.000000 
#    z 0.000000 0.000000 1.621190 
# 
# From -- ./inp_files/2094.got.cif
#   From: 2010.05.17/outbox.cif.g08.bks.cpg/sg49_2_cif.got.tgz:2094.got - 2010.06.03 21:02:19.
