data_PCOD9393827
_publ_section_title
;
Structure prediction by ZEFSAII (Michael W. Deem and Ramdas Pophale) SiO2 
 PCOD9393827
Probable space group: P C C M
;
_chemical_formula_sum "Si O2"
_cell_formula_units_Z 58
_cell_length_a 24.454260
_cell_length_b 15.031647
_cell_length_c 8.741476
_cell_angle_alpha 90.000000
_cell_angle_beta 90.000000
_cell_angle_gamma 90.000000
_cell_volume 3213.259966
_symmetry_space_group_name_H-M "P C C M"
_symmetry_group_IT_number 49
_symmetry_cell_setting 'orthorhombic'
loop_
_space_group_symop_operation_xyz
x,y,z
-x,-y,z
x,-y,1/2-z
-x,y,1/2-z
-x,-y,-z
x,y,-z
-x,y,1/2+z
x,-y,1/2+z
loop_
_atom_site_type_symbol
_atom_site_label
_atom_site_fract_x
_atom_site_fract_y
_atom_site_fract_z
Si Si1 0.556841 0.730951 0.184231
Si Si2 0.607545 0.903001 0.316518
Si Si3 0.727613 0.097942 0.316015
Si Si4 0.221274 0.402332 0.816129
Si Si5 0.179364 0.774065 0.181700
Si Si6 0.652810 0.596879 0.816229
Si Si7 0.892439 0.088939 0.671471
Si Si8 0.000000 0.000000 0.750000
O O1 0.500000 0.694674 0.250000
O O2 0.567195 0.827463 0.256646
O O3 0.607927 0.668850 0.230379
O O4 0.555062 0.736429 0.000000
O O5 0.609498 0.906175 0.500000
O O6 0.667567 0.879843 0.249274
O O7 0.593458 0.000000 0.250000
O O8 0.725866 0.096366 0.500000
O O9 0.772011 0.167903 0.257131
O O10 0.740108 0.000000 0.250000
O O11 0.209070 0.500000 0.750000
O O12 0.184039 0.324968 0.747220
O O13 0.284613 0.381013 0.771980
O O14 0.217626 0.403217 0.000000
O O15 0.124535 0.826142 0.231360
O O16 0.184993 0.774029 0.000000
O O17 0.639903 0.500000 0.750000
O O18 0.651963 0.591914 0.000000
O O19 0.871412 0.098862 0.500000
O O20 0.868325 0.000000 0.750000
O O21 0.956866 0.064820 0.667096
#
# Coordination Sequence:
#
# PCOD9393827 Si02
#       8
#     8   8   8   8   8   8   8   2
#     4  11  23  39  56  79 106 136 175 223 273 324
#     4  11  22  38  58  79 103 137 176 218 270 331
#     4  11  21  35  53  77 110 145 180 223 273 332
#     4  10  20  37  58  82 111 145 184 230 283 340
#     4  12  23  34  52  81 114 151 192 234 281 332
#     4   9  20  37  59  81 106 138 173 216 271 333
#     4  10  20  35  55  81 115 155 196 239 282 328
#     4   8  22  36  62  80 120 160 206 240 288 324
#
# _framework density 18.050204999999998
#
# number of rings (size 3 to 8) (size 9 to 14) (size 15 to 20)
#    0.414    1.103    0.000    7.241    0.000    3.310 
#    0.000    2.759    0.000    0.000    0.000    0.483 
#    0.000    3.310    0.000    0.000    0.000    0.000 
#
# Total GULP energy -323823.403700 kJ/mol
# GULP energy per Si atom -5583.162133 kJ/mol
# Density = 1.800912 g / cm^3
# Si number density = 18.050205 Si / 1000 Ang^3
#
#
#
# Elastic Constant Matrix: (Units=GPa)
#
#
# Indices 1 2 3 4 5 6 
#
# 1 62.3759 50.8948 27.4102 0.0000 0.0000 0.0000
# 2 50.8948 103.7959 44.9517 0.0000 0.0000 0.0000
# 3 27.4102 44.9517 133.9177 0.0000 0.0000 0.0000
# 4 0.0000 0.0000 0.0000 30.4916 0.0000 0.0000
# 5 0.0000 0.0000 0.0000 0.0000 22.8123 0.0000
# 6 0.0000 0.0000 0.0000 0.0000 0.0000 15.5944
#
#
#
# Elastic Compliance Matrix: (Units=1/GPa)
#
#
# Indices 1 2 3 4 5 6 
#
# 1 0.026905 -0.012646 -0.001262 0.000000 0.000000 0.000000
# 2 -0.012646 0.017217 -0.003191 0.000000 0.000000 0.000000
# 3 -0.001262 -0.003191 0.008797 0.000000 0.000000 0.000000
# 4 0.000000 0.000000 0.000000 0.032796 0.000000 0.000000
# 5 0.000000 0.000000 0.000000 0.000000 0.043836 0.000000
# 6 0.000000 0.000000 0.000000 0.000000 0.000000 0.064125
#
#
# Mechanical properties :
#
#
# Convention : Reuss Voigt Hill
#
# Bulk Modulus (GPa) = 53.41632 60.73365 57.07498
# Shear Modulus (GPa) = 21.35724 25.56850 23.46287
#
# Velocity S-wave (km/s) = 3.44352 3.76775 3.60928
# Velocity P-wave (km/s) = 6.74299 7.25590 7.00414
#
# Compressibility (1/GPa) = 0.01872087
#
# Stress axis : x y z
#
# Youngs Moduli (GPa) = 37.16849 58.08290 113.67978
#
# Poissons Ratio (x) = 0.73450 0.14347
# Poissons Ratio (y) = 0.47002 0.36273
# Poissons Ratio (z) = 0.04691 0.18533
#
# Static dielectric constant tensor:
#      x y z
#    x 1.646690 0.000000 0.000000 
#    y 0.000000 1.607080 0.000000 
#    z 0.000000 0.000000 1.607720 
# 
# From -- ./inp_files/6469.got.cif
#   From: 2010.05.17/outbox.cif.g08.bks.cpg/sg49_4_cif.got.tgz:6469.got - 2010.06.03 21:02:19.
