data_PCOD9393421
_publ_section_title
;
Structure prediction by ZEFSAII (Michael W. Deem and Ramdas Pophale) SiO2 
 PCOD9393421
Probable space group: P C C M
;
_chemical_formula_sum "Si O2"
_cell_formula_units_Z 64
_cell_length_a 24.724660
_cell_length_b 7.207908
_cell_length_c 15.076748
_cell_angle_alpha 90.000000
_cell_angle_beta 90.000000
_cell_angle_gamma 90.000000
_cell_volume 2686.873616
_symmetry_space_group_name_H-M "P C C M"
_symmetry_group_IT_number 49
_symmetry_cell_setting 'orthorhombic'
loop_
_space_group_symop_operation_xyz
x,y,z
-x,-y,z
x,-y,1/2-z
-x,y,1/2-z
-x,-y,-z
x,y,-z
-x,y,1/2+z
x,-y,1/2+z
loop_
_atom_site_type_symbol
_atom_site_label
_atom_site_fract_x
_atom_site_fract_y
_atom_site_fract_z
Si Si1 0.924554 0.186464 0.401258
Si Si2 0.045891 0.745127 0.098251
Si Si3 0.252417 0.619132 0.395819
Si Si4 0.760350 0.236656 0.798241
Si Si5 0.625232 0.298473 0.595000
Si Si6 0.562619 0.775552 0.736486
Si Si7 0.123177 0.802477 0.233438
Si Si8 0.349263 0.857865 0.898617
O O1 0.911062 0.246636 0.500000
O O2 0.877991 0.257163 0.335321
O O3 0.983433 0.265307 0.374553
O O4 0.936460 0.963637 0.409430
O O5 0.087191 0.675272 0.171487
O O6 0.051488 0.665634 0.000000
O O7 0.235837 0.658060 0.500000
O O8 0.245019 0.753491 0.309459
O O9 0.231802 0.429355 0.351879
O O10 0.317473 0.601073 0.400975
O O11 0.819735 0.151032 0.810442
O O12 0.704828 0.161136 0.839367
O O13 0.598311 0.339575 0.500000
O O14 0.591982 0.327907 0.683181
O O15 0.638136 0.077432 0.596100
O O16 0.500000 0.725700 0.750000
O O17 0.599506 0.757365 0.648138
O O18 0.564391 0.000000 0.750000
O O19 0.093592 0.000000 0.250000
O O20 0.340083 0.795162 0.000000
#
# Coordination Sequence:
#
# PCOD9393421 Si02
#       8
#     8   8   8   8   8   8   8   8
#     4   8  14  27  45  68 103 143 178 214 265 328
#     4   8  14  26  44  68 104 145 177 211 265 326
#     4  10  22  40  57  74  99 143 191 227 272 327
#     4  11  23  36  56  79 109 147 182 230 278 329
#     4   9  18  34  58  80 106 145 189 229 270 326
#     4   9  17  30  52  83 118 145 177 228 278 329
#     4  10  20  29  47  78 112 142 176 222 271 329
#     4  10  20  34  55  83 113 147 185 228 278 329
#
# _framework density 23.819506000000001
#
# number of rings (size 3 to 8) (size 9 to 14) (size 15 to 20)
#    0.000    2.625    1.250    1.500    1.750    3.500 
#    0.000    2.500    0.000    1.500    0.000    9.625 
#    0.000   12.000    0.000    0.000    0.000    0.000 
#
# Total GULP energy -356467.632584 kJ/mol
# GULP energy per Si atom -5569.806759 kJ/mol
# Density = 2.376529 g / cm^3
# Si number density = 23.819506 Si / 1000 Ang^3
#
#
#
# Elastic Constant Matrix: (Units=GPa)
#
#
# Indices 1 2 3 4 5 6 
#
# 1 101.4884 -1.8330 75.8827 0.0000 0.0000 0.0000
# 2 -1.8330 57.5997 10.6825 0.0000 0.0000 0.0000
# 3 75.8827 10.6825 182.0473 0.0000 0.0000 0.0000
# 4 0.0000 0.0000 0.0000 14.0768 0.0000 0.0000
# 5 0.0000 0.0000 0.0000 0.0000 -3.1240 0.0000
# 6 0.0000 0.0000 0.0000 0.0000 0.0000 9.3131
#
#
#
# Elastic Compliance Matrix: (Units=1/GPa)
#
#
# Indices 1 2 3 4 5 6 
#
# 1 0.014458 0.001595 -0.006120 0.000000 0.000000 0.000000
# 2 0.001595 0.017728 -0.001705 0.000000 0.000000 0.000000
# 3 -0.006120 -0.001705 0.008144 0.000000 0.000000 0.000000
# 4 0.000000 0.000000 0.000000 0.071039 0.000000 0.000000
# 5 0.000000 0.000000 0.000000 0.000000 -0.320103 0.000000
# 6 0.000000 0.000000 0.000000 0.000000 0.000000 0.107376
#
#
# Mechanical properties :
#
#
# Convention : Reuss Voigt Hill
#
# Bulk Modulus (GPa) = 35.88066 56.73330 46.30698
# Shear Modulus (GPa) = -62.80875 21.14673 -20.83101
#
# Velocity S-wave (km/s) = -5.14061 2.98281 -2.96046
# Velocity P-wave (km/s) = 4.48756 5.97768 2.79235
#
# Compressibility (1/GPa) = 0.02787017
#
# Stress axis : x y z
#
# Youngs Moduli (GPa) = 69.16478 56.40724 122.78635
#
# Poissons Ratio (x) = -0.08998 0.75148
# Poissons Ratio (y) = -0.11033 0.20938
# Poissons Ratio (z) = 0.42330 0.09619
#
# Static dielectric constant tensor:
#      x y z
#    x 2.111640 0.000000 0.000000 
#    y 0.000000 2.058170 0.000000 
#    z 0.000000 0.000000 2.128020 
# 
# From -- ./inp_files/14519.got.cif
#   From: 2010.05.17/outbox.cif.g08.bks.cpg/sg49_8_cif.got.tgz:14519.got - 2010.06.03 21:02:19.
