data_PCOD9393257
_publ_section_title
;
Structure prediction by ZEFSAII (Michael W. Deem and Ramdas Pophale) SiO2 
 PCOD9393257
Probable space group: P C C M
;
_chemical_formula_sum "Si O2"
_cell_formula_units_Z 48
_cell_length_a 19.353028
_cell_length_b 15.012791
_cell_length_c 8.524809
_cell_angle_alpha 90.000000
_cell_angle_beta 90.000000
_cell_angle_gamma 90.000000
_cell_volume 2476.823279
_symmetry_space_group_name_H-M "P C C M"
_symmetry_group_IT_number 49
_symmetry_cell_setting 'orthorhombic'
loop_
_space_group_symop_operation_xyz
x,y,z
-x,-y,z
x,-y,1/2-z
-x,y,1/2-z
-x,-y,-z
x,y,-z
-x,y,1/2+z
x,-y,1/2+z
loop_
_atom_site_type_symbol
_atom_site_label
_atom_site_fract_x
_atom_site_fract_y
_atom_site_fract_z
Si Si1 0.922756 0.402389 0.186199
Si Si2 0.714873 0.406932 0.818152
Si Si3 0.574151 0.848598 0.818710
Si Si4 0.273318 0.902554 0.690668
Si Si5 0.811543 0.266087 0.316494
Si Si6 0.426593 0.366948 0.182307
O O1 0.900481 0.500000 0.250000
O O2 0.873070 0.321240 0.235768
O O3 0.000000 0.387146 0.250000
O O4 0.924471 0.408522 0.000000
O O5 0.740390 0.500000 0.750000
O O6 0.745840 0.329506 0.711701
O O7 0.633252 0.402852 0.793127
O O8 0.733819 0.395933 0.000000
O O9 0.500000 0.877738 0.750000
O O10 0.647968 0.881389 0.751761
O O11 0.575916 0.740999 0.810719
O O12 0.573279 0.875548 0.000000
O O13 0.274843 0.898545 0.500000
O O14 0.216593 0.829226 0.742345
O O15 0.254715 0.000000 0.750000
O O16 0.827942 0.258661 0.500000
O O17 0.500000 0.394653 0.250000
O O18 0.416631 0.392802 0.000000
#
# Coordination Sequence:
#
# PCOD9393257 Si02
#       6
#     8   8   8   8   8   8
#     4  11  22  39  64  98 132 166 201 236 281 338
#     4  12  24  37  55  81 110 148 193 238 289 349
#     4   9  18  34  54  78 107 145 188 243 304 358
#     4  10  22  39  59  84 116 153 197 247 302 357
#     4  11  22  41  62  85 121 159 193 241 294 345
#     4  10  19  35  54  75 105 142 188 238 294 350
#
# _framework density 19.379663000000001
#
# number of rings (size 3 to 8) (size 9 to 14) (size 15 to 20)
#    0.000    1.500    1.667    5.000    0.000    3.333 
#    0.000    3.333    0.000    0.500    0.000    3.500 
#    0.000    0.000    0.000    0.000    0.000    0.000 
#
# Total GULP energy -268063.170862 kJ/mol
# GULP energy per Si atom -5584.649393 kJ/mol
# Density = 1.933555 g / cm^3
# Si number density = 19.379663 Si / 1000 Ang^3
#
#
#
# Elastic Constant Matrix: (Units=GPa)
#
#
# Indices 1 2 3 4 5 6 
#
# 1 130.0032 55.7814 27.0239 0.0000 0.0000 0.0000
# 2 55.7814 122.4028 26.5803 0.0000 0.0000 0.0000
# 3 27.0239 26.5803 71.9224 0.0000 0.0000 0.0000
# 4 0.0000 0.0000 0.0000 24.1734 0.0000 0.0000
# 5 0.0000 0.0000 0.0000 0.0000 23.1694 0.0000
# 6 0.0000 0.0000 0.0000 0.0000 0.0000 25.0002
#
#
#
# Elastic Compliance Matrix: (Units=1/GPa)
#
#
# Indices 1 2 3 4 5 6 
#
# 1 0.009879 -0.004019 -0.002227 0.000000 0.000000 0.000000
# 2 -0.004019 0.010517 -0.002377 0.000000 0.000000 0.000000
# 3 -0.002227 -0.002377 0.015619 0.000000 0.000000 0.000000
# 4 0.000000 0.000000 0.000000 0.041368 0.000000 0.000000
# 5 0.000000 0.000000 0.000000 0.000000 0.043160 0.000000
# 6 0.000000 0.000000 0.000000 0.000000 0.000000 0.040000
#
#
# Mechanical properties :
#
#
# Convention : Reuss Voigt Hill
#
# Bulk Modulus (GPa) = 53.27422 60.34439 56.80930
# Shear Modulus (GPa) = 27.16724 28.79812 27.98268
#
# Velocity S-wave (km/s) = 3.74818 3.85905 3.80402
# Velocity P-wave (km/s) = 6.80303 7.14576 6.97650
#
# Compressibility (1/GPa) = 0.01877080
#
# Stress axis : x y z
#
# Youngs Moduli (GPa) = 101.22149 95.08166 64.02454
#
# Poissons Ratio (x) = 0.38210 0.14257
# Poissons Ratio (y) = 0.40677 0.15218
# Poissons Ratio (z) = 0.22541 0.22600
#
# Static dielectric constant tensor:
#      x y z
#    x 1.698430 0.000000 0.000000 
#    y 0.000000 1.690830 0.000000 
#    z 0.000000 0.000000 1.669700 
# 
# From -- ./inp_files/4877.got.cif
#   From: 2010.05.17/outbox.cif.g08.bks.cpg/sg49_3_cif.got.tgz:4877.got - 2010.06.03 21:02:19.
