data_PCOD9393839
_publ_section_title
;
Structure prediction by ZEFSAII (Michael W. Deem and Ramdas Pophale) SiO2 
 PCOD9393839
Probable space group: P C C M
;
_chemical_formula_sum "Si O2"
_cell_formula_units_Z 44
_cell_length_a 5.230755
_cell_length_b 14.668430
_cell_length_c 26.147631
_cell_angle_alpha 90.000000
_cell_angle_beta 90.000000
_cell_angle_gamma 90.000000
_cell_volume 2006.228331
_symmetry_space_group_name_H-M "P C C M"
_symmetry_group_IT_number 49
_symmetry_cell_setting 'orthorhombic'
loop_
_space_group_symop_operation_xyz
x,y,z
-x,-y,z
x,-y,1/2-z
-x,y,1/2-z
-x,-y,-z
x,y,-z
-x,y,1/2+z
x,-y,1/2+z
loop_
_atom_site_type_symbol
_atom_site_label
_atom_site_fract_x
_atom_site_fract_y
_atom_site_fract_z
Si Si1 0.115514 0.621799 0.804448
Si Si2 0.613473 0.395989 0.441574
Si Si3 0.000000 0.500000 0.111366
Si Si4 0.405545 0.285776 0.839954
Si Si5 0.515958 0.891924 0.383884
Si Si6 0.015492 0.890248 0.444195
O O1 0.185616 0.542475 0.845420
O O2 0.878410 0.679627 0.827505
O O3 0.000000 0.593985 0.750000
O O4 0.376607 0.676999 0.802516
O O5 0.500000 0.500000 0.438236
O O6 0.584288 0.364987 0.500000
O O7 0.529663 0.326444 0.397140
O O8 0.904329 0.420262 0.425402
O O9 0.429894 0.177118 0.840316
O O10 0.798103 0.865976 0.403490
O O11 0.304414 0.872434 0.427587
O O12 0.500000 0.000000 0.372353
O O13 0.959366 0.850917 0.500000
O O14 0.000000 0.000000 0.447478
#
# Coordination Sequence:
#
# PCOD9393839 Si02
#       6
#     8   8   4   8   8   8
#     4  11  23  40  64  88 117 150 193 254 310 354
#     4  10  20  36  57  84 125 164 194 228 279 346
#     4  10  20  38  60  90 120 156 200 240 292 358
#     4  11  23  40  59  89 120 155 202 243 293 359
#     4  10  20  35  56  80 113 157 198 247 300 342
#     4   9  17  30  50  77 110 149 194 241 287 335
#
# _framework density 21.931701
#
# number of rings (size 3 to 8) (size 9 to 14) (size 15 to 20)
#    0.000    1.818    1.818    2.727    0.000    3.636 
#    0.000    1.818    0.000    3.273    0.000    0.000 
#    0.000    0.000    0.000    0.000    0.000    0.000 
#
# Total GULP energy -245073.344268 kJ/mol
# GULP energy per Si atom -5569.848733 kJ/mol
# Density = 2.188178 g / cm^3
# Si number density = 21.931701 Si / 1000 Ang^3
#
#
#
# Elastic Constant Matrix: (Units=GPa)
#
#
# Indices 1 2 3 4 5 6 
#
# 1 77.8480 16.6892 20.3977 0.0000 0.0000 0.0000
# 2 16.6892 73.8131 23.0470 0.0000 0.0000 0.0000
# 3 20.3977 23.0470 93.4672 0.0000 0.0000 0.0000
# 4 0.0000 0.0000 0.0000 5.0099 0.0000 0.0000
# 5 0.0000 0.0000 0.0000 0.0000 20.2677 0.0000
# 6 0.0000 0.0000 0.0000 0.0000 0.0000 22.1006
#
#
#
# Elastic Compliance Matrix: (Units=1/GPa)
#
#
# Indices 1 2 3 4 5 6 
#
# 1 0.014005 -0.002397 -0.002465 0.000000 0.000000 0.000000
# 2 -0.002397 0.015088 -0.003197 0.000000 0.000000 0.000000
# 3 -0.002465 -0.003197 0.012025 0.000000 0.000000 0.000000
# 4 0.000000 0.000000 0.000000 0.199605 0.000000 0.000000
# 5 0.000000 0.000000 0.000000 0.000000 0.049340 0.000000
# 6 0.000000 0.000000 0.000000 0.000000 0.000000 0.045248
#
#
# Mechanical properties :
#
#
# Convention : Reuss Voigt Hill
#
# Bulk Modulus (GPa) = 40.00068 40.59956 40.30012
# Shear Modulus (GPa) = 13.89801 21.80859 17.85330
#
# Velocity S-wave (km/s) = 2.52006 3.15681 2.85624
# Velocity P-wave (km/s) = 5.17165 5.64263 5.41227
#
# Compressibility (1/GPa) = 0.02499958
#
# Stress axis : x y z
#
# Youngs Moduli (GPa) = 71.40114 66.27800 83.15759
#
# Poissons Ratio (x) = 0.15886 0.20502
# Poissons Ratio (y) = 0.17114 0.26588
# Poissons Ratio (z) = 0.17604 0.21191
#
# Static dielectric constant tensor:
#      x y z
#    x 1.946090 0.000000 0.000000 
#    y 0.000000 1.889050 0.000000 
#    z 0.000000 0.000000 1.816280 
# 
# From -- ./inp_files/23889.got.cif
#   From: 2010.05.17/outbox.cif.g08.bks.cpg/sg49_12_cif.got.tgz:23889.got - 2010.06.03 21:02:19.
