data_PCOD9393609
_publ_section_title
;
Structure prediction by ZEFSAII (Michael W. Deem and Ramdas Pophale) SiO2 
 PCOD9393609
Probable space group: P C C M
;
_chemical_formula_sum "Si O2"
_cell_formula_units_Z 64
_cell_length_a 16.722033
_cell_length_b 23.326582
_cell_length_c 7.950892
_cell_angle_alpha 90.000000
_cell_angle_beta 90.000000
_cell_angle_gamma 90.000000
_cell_volume 3101.387539
_symmetry_space_group_name_H-M "P C C M"
_symmetry_group_IT_number 49
_symmetry_cell_setting 'orthorhombic'
loop_
_space_group_symop_operation_xyz
x,y,z
-x,-y,z
x,-y,1/2-z
-x,y,1/2-z
-x,-y,-z
x,y,-z
-x,y,1/2+z
x,-y,1/2+z
loop_
_atom_site_type_symbol
_atom_site_label
_atom_site_fract_x
_atom_site_fract_y
_atom_site_fract_z
Si Si1 0.863591 0.777330 0.692503
Si Si2 0.589808 0.590354 0.797235
Si Si3 0.082280 0.103145 0.200767
Si Si4 0.698357 0.182550 0.306988
Si Si5 0.769986 0.563172 0.797512
Si Si6 0.254311 0.062268 0.797754
Si Si7 0.586801 0.278621 0.297724
Si Si8 0.089703 0.349657 0.201312
O O1 0.836663 0.775016 0.500000
O O2 0.917113 0.833758 0.715579
O O3 0.787892 0.792996 0.806484
O O4 0.900143 0.715936 0.737191
O O5 0.500000 0.568286 0.750000
O O6 0.676592 0.566876 0.737240
O O7 0.593045 0.656336 0.735973
O O8 0.591117 0.587511 0.000000
O O9 0.162228 0.070615 0.258537
O O10 0.000000 0.073582 0.250000
O O11 0.086264 0.109861 0.000000
O O12 0.670442 0.176543 0.500000
O O13 0.700324 0.118843 0.232084
O O14 0.647678 0.232773 0.225466
O O15 0.799721 0.500000 0.750000
O O16 0.834869 0.611030 0.738596
O O17 0.766663 0.568731 0.000000
O O18 0.284997 0.000000 0.750000
O O19 0.254383 0.066036 0.000000
O O20 0.500000 0.257316 0.250000
O O21 0.596841 0.282807 0.500000
O O22 0.000000 0.369948 0.250000
O O23 0.093581 0.348991 0.000000
#
# Coordination Sequence:
#
# PCOD9393609 Si02
#       8
#     8   8   8   8   8   8   8   8
#     4  11  21  33  53  81 107 134 171 217 264 316
#     4   9  18  34  56  84 113 144 174 210 262 320
#     4  10  20  34  50  71 100 133 166 206 258 314
#     4   9  18  34  53  74 104 142 174 211 264 318
#     4  10  23  41  60  80 108 145 185 225 269 317
#     4   9  19  33  49  68  93 129 173 215 258 304
#     4   9  17  31  53  79 109 137 167 206 255 313
#     4  11  23  40  59  80 108 144 183 227 277 328
#
# _framework density 20.635925
#
# number of rings (size 3 to 8) (size 9 to 14) (size 15 to 20)
#    0.000    2.250    0.000    3.750    0.000    7.250 
#    0.000    6.250    0.000    0.375    0.000    2.625 
#    0.000    0.000    0.000    0.000    0.000    0.000 
#
# Total GULP energy -356655.496973 kJ/mol
# GULP energy per Si atom -5572.742140 kJ/mol
# Density = 2.058896 g / cm^3
# Si number density = 20.635925 Si / 1000 Ang^3
#
#
#
# Elastic Constant Matrix: (Units=GPa)
#
#
# Indices 1 2 3 4 5 6 
#
# 1 70.1078 40.5842 -6.6394 0.0000 0.0000 0.0000
# 2 40.5842 105.7743 4.1725 0.0000 0.0000 0.0000
# 3 -6.6394 4.1725 36.2698 0.0000 0.0000 0.0000
# 4 0.0000 0.0000 0.0000 14.1165 0.0000 0.0000
# 5 0.0000 0.0000 0.0000 0.0000 2.4140 0.0000
# 6 0.0000 0.0000 0.0000 0.0000 0.0000 5.2528
#
#
#
# Elastic Compliance Matrix: (Units=1/GPa)
#
#
# Indices 1 2 3 4 5 6 
#
# 1 0.018991 -0.007458 0.004334 0.000000 0.000000 0.000000
# 2 -0.007458 0.012426 -0.002795 0.000000 0.000000 0.000000
# 3 0.004334 -0.002795 0.028686 0.000000 0.000000 0.000000
# 4 0.000000 0.000000 0.000000 0.070839 0.000000 0.000000
# 5 0.000000 0.000000 0.000000 0.000000 0.414246 0.000000
# 6 0.000000 0.000000 0.000000 0.000000 0.000000 0.190374
#
#
# Mechanical properties :
#
#
# Convention : Reuss Voigt Hill
#
# Bulk Modulus (GPa) = 20.71793 32.04295 26.38044
# Shear Modulus (GPa) = 6.54891 15.95899 11.25395
#
# Velocity S-wave (km/s) = 1.78338 2.78395 2.33782
# Velocity P-wave (km/s) = 3.78181 5.08874 4.48316
#
# Compressibility (1/GPa) = 0.04826736
#
# Stress axis : x y z
#
# Youngs Moduli (GPa) = 52.65549 80.47798 34.86010
#
# Poissons Ratio (x) = 0.60018 -0.15110
# Poissons Ratio (y) = 0.39269 0.09742
# Poissons Ratio (z) = -0.22823 0.22491
#
# Static dielectric constant tensor:
#      x y z
#    x 1.784250 0.000000 0.000000 
#    y 0.000000 1.750480 0.000000 
#    z 0.000000 0.000000 1.751440 
# 
# From -- ./inp_files/4343.got.cif
#   From: 2010.05.17/outbox.cif.g08.bks.cpg/sg49_3_cif.got.tgz:4343.got - 2010.06.03 21:02:19.
