data_PCOD9393830
_publ_section_title
;
Structure prediction by ZEFSAII (Michael W. Deem and Ramdas Pophale) SiO2 
 PCOD9393830
Probable space group: P C C M
;
_chemical_formula_sum "Si O2"
_cell_formula_units_Z 40
_cell_length_a 9.285837
_cell_length_b 26.648214
_cell_length_c 8.718643
_cell_angle_alpha 90.000000
_cell_angle_beta 90.000000
_cell_angle_gamma 90.000000
_cell_volume 2157.436681
_symmetry_space_group_name_H-M "P C C M"
_symmetry_group_IT_number 49
_symmetry_cell_setting 'orthorhombic'
loop_
_space_group_symop_operation_xyz
x,y,z
-x,-y,z
x,-y,1/2-z
-x,y,1/2-z
-x,-y,-z
x,y,-z
-x,y,1/2+z
x,-y,1/2+z
loop_
_atom_site_type_symbol
_atom_site_label
_atom_site_fract_x
_atom_site_fract_y
_atom_site_fract_z
Si Si1 0.659636 0.553365 0.183517
Si Si2 0.837565 0.161983 0.315541
Si Si3 0.339541 0.745272 0.816530
Si Si4 0.160311 0.652190 0.315731
Si Si5 0.162174 0.949606 0.682854
O O1 0.710012 0.500000 0.250000
O O2 0.500000 0.562621 0.250000
O O3 0.763055 0.599473 0.223019
O O4 0.649515 0.549645 0.000000
O O5 0.843001 0.167389 0.500000
O O6 0.740718 0.204953 0.242680
O O7 0.778972 0.105778 0.280135
O O8 0.000000 0.165950 0.250000
O O9 0.500000 0.743661 0.750000
O O10 0.251796 0.697469 0.754894
O O11 0.343201 0.744658 0.000000
O O12 0.157431 0.657273 0.500000
O O13 0.000000 0.653588 0.250000
O O14 0.154481 0.954408 0.500000
O O15 0.000000 0.948457 0.750000
O O16 0.233020 0.000000 0.750000
#
# Coordination Sequence:
#
# PCOD9393830 Si02
#       5
#     8   8   8   8   8
#     4  10  21  37  60  87 117 153 192 232 277 329
#     4  10  20  35  55  82 114 148 186 230 279 331
#     4  12  25  41  61  83 110 146 186 232 282 338
#     4  11  24  41  61  87 117 151 189 233 283 334
#     4   9  16  26  45  73 107 143 180 223 271 323
#
# _framework density 18.540520999999998
#
# number of rings (size 3 to 8) (size 9 to 14) (size 15 to 20)
#    0.000    1.600    0.000    6.600    0.000    7.600 
#    0.000    2.000    0.000    0.600    0.000    4.200 
#    0.000    0.000    0.000    0.000    0.000    0.000 
#
# Total GULP energy -223444.291407 kJ/mol
# GULP energy per Si atom -5586.107285 kJ/mol
# Density = 1.849832 g / cm^3
# Si number density = 18.540521 Si / 1000 Ang^3
#
#
#
# Elastic Constant Matrix: (Units=GPa)
#
#
# Indices 1 2 3 4 5 6 
#
# 1 112.3974 109.3115 57.8878 0.0000 0.0000 0.0000
# 2 109.3115 219.1285 96.6331 0.0000 0.0000 0.0000
# 3 57.8878 96.6331 113.4209 0.0000 0.0000 0.0000
# 4 0.0000 0.0000 0.0000 32.5311 0.0000 0.0000
# 5 0.0000 0.0000 0.0000 0.0000 22.8921 0.0000
# 6 0.0000 0.0000 0.0000 0.0000 0.0000 104.3589
#
#
#
# Elastic Compliance Matrix: (Units=1/GPa)
#
#
# Indices 1 2 3 4 5 6 
#
# 1 0.017685 -0.007756 -0.002418 0.000000 0.000000 0.000000
# 2 -0.007756 0.010711 -0.005167 0.000000 0.000000 0.000000
# 3 -0.002418 -0.005167 0.014454 0.000000 0.000000 0.000000
# 4 0.000000 0.000000 0.000000 0.030740 0.000000 0.000000
# 5 0.000000 0.000000 0.000000 0.000000 0.043683 0.000000
# 6 0.000000 0.000000 0.000000 0.000000 0.000000 0.009582
#
#
# Mechanical properties :
#
#
# Convention : Reuss Voigt Hill
#
# Bulk Modulus (GPa) = 82.18995 108.06797 95.12896
# Shear Modulus (GPa) = 30.94158 44.03072 37.48615
#
# Velocity S-wave (km/s) = 4.08960 4.87852 4.50138
# Velocity P-wave (km/s) = 8.16860 9.49459 8.85644
#
# Compressibility (1/GPa) = 0.01216694
#
# Stress axis : x y z
#
# Youngs Moduli (GPa) = 56.54358 93.35942 69.18672
#
# Poissons Ratio (x) = 0.72408 0.16732
# Poissons Ratio (y) = 0.43854 0.35752
# Poissons Ratio (z) = 0.13675 0.48243
#
# Static dielectric constant tensor:
#      x y z
#    x 1.599650 0.000000 0.000000 
#    y 0.000000 1.666190 0.000000 
#    z 0.000000 0.000000 1.618750 
# 
# From -- ./inp_files/1667.got.cif
#   From: 2010.05.17/outbox.cif.g08.bks.cpg/sg49_1_cif.got.tgz:1667.got - 2010.06.03 21:02:19.
