data_PCOD9393226
_publ_section_title
;
Structure prediction by ZEFSAII (Michael W. Deem and Ramdas Pophale) SiO2 
 PCOD9393226
Probable space group: P C C M
;
_chemical_formula_sum "Si O2"
_cell_formula_units_Z 64
_cell_length_a 24.489941
_cell_length_b 7.789545
_cell_length_c 16.137272
_cell_angle_alpha 90.000000
_cell_angle_beta 90.000000
_cell_angle_gamma 90.000000
_cell_volume 3078.434721
_symmetry_space_group_name_H-M "P C C M"
_symmetry_group_IT_number 49
_symmetry_cell_setting 'orthorhombic'
loop_
_space_group_symop_operation_xyz
x,y,z
-x,-y,z
x,-y,1/2-z
-x,y,1/2-z
-x,-y,-z
x,y,-z
-x,y,1/2+z
x,-y,1/2+z
loop_
_atom_site_type_symbol
_atom_site_label
_atom_site_fract_x
_atom_site_fract_y
_atom_site_fract_z
Si Si1 0.629640 0.704654 0.590690
Si Si2 0.748033 0.792215 0.654016
Si Si3 0.629640 0.704655 0.909310
Si Si4 0.865735 0.793478 0.408383
Si Si5 0.865735 0.793479 0.091617
Si Si6 0.938573 0.296043 0.250000
Si Si7 0.748033 0.207784 0.654016
Si Si8 0.436837 0.710608 0.750000
O O1 0.615401 0.775220 0.500000
O O2 0.693471 0.733727 0.608635
O O3 0.620451 0.499999 0.588483
O O4 0.594751 0.771729 0.667981
O O5 0.804493 0.731996 0.613183
O O6 0.746236 0.736561 0.750000
O O7 0.748412 1.000000 0.652985
O O8 0.693471 0.733729 0.891365
O O9 0.594751 0.771729 0.832019
O O10 0.615400 0.775221 0.000000
O O11 0.882548 0.731441 0.500000
O O12 0.905580 0.752347 0.332669
O O13 0.863021 1.000000 0.411791
O O14 0.905580 0.752347 0.167331
O O15 0.804493 0.731997 0.113183
O O16 0.882548 0.731441 0.000000
O O17 0.942379 0.500000 0.250000
O O18 0.000000 0.223037 0.250000
O O19 0.434902 0.500000 0.750000
O O20 0.500000 0.760412 0.750000
#
# Coordination Sequence:
#
# PCOD9393226 Si02
#       8
#     8   8   8   8   8   8   8   8
#     4  10  20  33  52  79 108 139 176 218 268 325
#     4  10  19  34  58  84 111 143 176 216 270 328
#     4  10  20  33  52  79 108 139 176 218 268 325
#     4  10  21  39  63  88 113 145 188 234 278 329
#     4  10  21  39  63  88 113 145 188 234 278 329
#     4  11  25  42  59  82 116 155 190 229 278 331
#     4  10  19  34  58  84 111 143 176 216 270 328
#     4   9  18  33  51  72 102 139 180 227 270 309
#
# _framework density 20.789784999999998
#
# number of rings (size 3 to 8) (size 9 to 14) (size 15 to 20)
#    0.000    2.000    2.500    1.125    0.000    5.000 
#    0.000    5.000    0.000    1.500    0.000    1.750 
#    0.000    0.000    0.000    0.000    0.000    0.000 
#
# Total GULP energy -357488.210907 kJ/mol
# GULP energy per Si atom -5585.753295 kJ/mol
# Density = 2.074247 g / cm^3
# Si number density = 20.789785 Si / 1000 Ang^3
#
#
#
# Elastic Constant Matrix: (Units=GPa)
#
#
# Indices 1 2 3 4 5 6 
#
# 1 167.7567 -0.3822 110.9322 0.0000 0.0000 0.0000
# 2 -0.3822 26.3428 13.0697 0.0000 0.0000 0.0000
# 3 110.9322 13.0697 240.9036 0.0000 0.0000 0.0000
# 4 0.0000 0.0000 0.0000 4.7347 0.0000 0.0000
# 5 0.0000 0.0000 0.0000 0.0000 -3.6818 0.0000
# 6 0.0000 0.0000 0.0000 0.0000 0.0000 25.7266
#
#
#
# Elastic Compliance Matrix: (Units=1/GPa)
#
#
# Indices 1 2 3 4 5 6 
#
# 1 0.008690 0.002170 -0.004119 0.000000 0.000000 0.000000
# 2 0.002170 0.039553 -0.003145 0.000000 0.000000 0.000000
# 3 -0.004119 -0.003145 0.006219 0.000000 0.000000 0.000000
# 4 0.000000 0.000000 0.000000 0.211208 0.000000 0.000000
# 5 0.000000 0.000000 0.000000 0.000000 -0.271605 0.000000
# 6 0.000000 0.000000 0.000000 0.000000 0.000000 0.038870
#
#
# Mechanical properties :
#
#
# Convention : Reuss Voigt Hill
#
# Bulk Modulus (GPa) = 22.58746 75.80470 49.19608
# Shear Modulus (GPa) = 86.38551 26.11479 56.25015
#
# Velocity S-wave (km/s) = 6.45307 3.54805 5.20724
# Velocity P-wave (km/s) = 8.14930 7.30250 7.73749
#
# Compressibility (1/GPa) = 0.04427235
#
# Stress axis : x y z
#
# Youngs Moduli (GPa) = 115.07600 25.28261 160.80981
#
# Poissons Ratio (x) = -0.05486 0.66242
# Poissons Ratio (y) = -0.24969 0.50575
# Poissons Ratio (z) = 0.47403 0.07951
#
# Static dielectric constant tensor:
#      x y z
#    x 1.707090 0.000000 0.000000 
#    y 0.000000 1.763010 0.000000 
#    z 0.000000 0.000000 1.868430 
# 
# From -- ./inp_files/14531.got.cif
#   From: 2010.05.17/outbox.cif.g08.bks.cpg/sg49_8_cif.got.tgz:14531.got - 2010.06.03 21:02:19.
