data_PCOD9393222
_publ_section_title
;
Structure prediction by ZEFSAII (Michael W. Deem and Ramdas Pophale) SiO2 
 PCOD9393222
Probable space group: P C C M
;
_chemical_formula_sum "Si O2"
_cell_formula_units_Z 48
_cell_length_a 10.636465
_cell_length_b 13.541360
_cell_length_c 16.821257
_cell_angle_alpha 90.000000
_cell_angle_beta 90.000000
_cell_angle_gamma 90.000000
_cell_volume 2422.802681
_symmetry_space_group_name_H-M "P C C M"
_symmetry_group_IT_number 49
_symmetry_cell_setting 'orthorhombic'
loop_
_space_group_symop_operation_xyz
x,y,z
-x,-y,z
x,-y,1/2-z
-x,y,1/2-z
-x,-y,-z
x,y,-z
-x,y,1/2+z
x,-y,1/2+z
loop_
_atom_site_type_symbol
_atom_site_label
_atom_site_fract_x
_atom_site_fract_y
_atom_site_fract_z
Si Si1 0.606897 0.232223 0.695516
Si Si2 0.145646 0.465904 0.662855
Si Si3 0.929601 0.260357 0.096589
Si Si4 0.211112 0.345404 0.087508
Si Si5 0.573800 0.899370 0.586582
Si Si6 0.200139 0.098702 0.298642
O O1 0.500000 0.280188 0.750000
O O2 0.688919 0.309441 0.649560
O O3 0.519379 0.167795 0.637570
O O4 0.709257 0.163903 0.741081
O O5 0.194848 0.500000 0.750000
O O6 0.148772 0.351980 0.635791
O O7 0.201078 0.537300 0.596220
O O8 0.000000 0.500000 0.665057
O O9 0.901847 0.166673 0.154461
O O10 0.074943 0.295130 0.102898
O O11 0.905304 0.247612 0.000000
O O12 0.250114 0.314853 0.000000
O O13 0.600224 0.855103 0.500000
O O14 0.701943 0.926196 0.631230
O O15 0.500000 0.000000 0.578264
O O16 0.159996 0.000000 0.250000
#
# Coordination Sequence:
#
# PCOD9393222 Si02
#       6
#     8   8   8   8   8   8
#     4  10  21  35  58  85 114 152 202 257 303 363
#     4   9  17  32  59  91 122 158 200 242 292 360
#     4  10  21  37  59  90 127 164 205 251 306 372
#     4  10  20  37  60  90 124 157 196 246 308 371
#     4  10  19  34  58  81 106 148 205 259 304 355
#     4  11  21  36  57  81 117 155 203 252 304 360
#
# _framework density 19.811765000000001
#
# number of rings (size 3 to 8) (size 9 to 14) (size 15 to 20)
#    0.000    2.000    1.667    2.500    0.000    4.000 
#    0.000    1.667    0.000   13.500    0.000   16.333 
#    0.000    0.000    0.000    0.000    0.000    0.000 
#
# Total GULP energy -267295.841865 kJ/mol
# GULP energy per Si atom -5568.663372 kJ/mol
# Density = 1.976667 g / cm^3
# Si number density = 19.811765 Si / 1000 Ang^3
#
#
#
# Elastic Constant Matrix: (Units=GPa)
#
#
# Indices 1 2 3 4 5 6 
#
# 1 45.2054 33.0317 41.7207 0.0000 0.0000 0.0000
# 2 33.0317 88.9906 46.4293 0.0000 0.0000 0.0000
# 3 41.7207 46.4293 127.7057 0.0000 0.0000 0.0000
# 4 0.0000 0.0000 0.0000 25.1187 0.0000 0.0000
# 5 0.0000 0.0000 0.0000 0.0000 30.5062 0.0000
# 6 0.0000 0.0000 0.0000 0.0000 0.0000 19.0427
#
#
#
# Elastic Compliance Matrix: (Units=1/GPa)
#
#
# Indices 1 2 3 4 5 6 
#
# 1 0.036832 -0.009124 -0.008716 0.000000 0.000000 0.000000
# 2 -0.009124 0.016128 -0.002883 0.000000 0.000000 0.000000
# 3 -0.008716 -0.002883 0.011726 0.000000 0.000000 0.000000
# 4 0.000000 0.000000 0.000000 0.039811 0.000000 0.000000
# 5 0.000000 0.000000 0.000000 0.000000 0.032780 0.000000
# 6 0.000000 0.000000 0.000000 0.000000 0.000000 0.052513
#
#
# Mechanical properties :
#
#
# Convention : Reuss Voigt Hill
#
# Bulk Modulus (GPa) = 43.02769 56.02946 49.52857
# Shear Modulus (GPa) = 20.92205 24.31488 22.61846
#
# Velocity S-wave (km/s) = 3.25321 3.50708 3.38252
# Velocity P-wave (km/s) = 5.98970 6.68893 6.34895
#
# Compressibility (1/GPa) = 0.02324085
#
# Stress axis : x y z
#
# Youngs Moduli (GPa) = 27.15026 62.00440 85.28151
#
# Poissons Ratio (x) = 0.56574 0.74328
# Poissons Ratio (y) = 0.24772 0.24584
# Poissons Ratio (z) = 0.23663 0.17874
#
# Static dielectric constant tensor:
#      x y z
#    x 1.697790 0.000000 0.000000 
#    y 0.000000 1.698870 0.000000 
#    z 0.000000 0.000000 1.803710 
# 
# From -- ./inp_files/17088.got.cif
#   From: 2010.05.17/outbox.cif.g08.bks.cpg/sg49_9_cif.got.tgz:17088.got - 2010.06.03 21:02:19.
