data_PCOD9393327
_publ_section_title
;
Structure prediction by ZEFSAII (Michael W. Deem and Ramdas Pophale) SiO2 
 PCOD9393327
Probable space group: P C C M
;
_chemical_formula_sum "Si O2"
_cell_formula_units_Z 64
_cell_length_a 13.980521
_cell_length_b 12.525493
_cell_length_c 16.024078
_cell_angle_alpha 90.000000
_cell_angle_beta 90.000000
_cell_angle_gamma 90.000000
_cell_volume 2806.023056
_symmetry_space_group_name_H-M "P C C M"
_symmetry_group_IT_number 49
_symmetry_cell_setting 'orthorhombic'
loop_
_space_group_symop_operation_xyz
x,y,z
-x,-y,z
x,-y,1/2-z
-x,y,1/2-z
-x,-y,-z
x,y,-z
-x,y,1/2+z
x,-y,1/2+z
loop_
_atom_site_type_symbol
_atom_site_label
_atom_site_fract_x
_atom_site_fract_y
_atom_site_fract_z
Si Si1 0.614165 0.491604 0.100186
Si Si2 0.247029 0.665771 0.353247
Si Si3 0.097934 0.046928 0.343959
Si Si4 0.112976 0.519464 0.909753
Si Si5 0.306625 0.961388 0.099256
Si Si6 0.400505 0.169127 0.097253
Si Si7 0.105494 0.286519 0.289404
Si Si8 0.397402 0.745319 0.898189
O O1 0.500000 0.500000 0.106964
O O2 0.670412 0.575879 0.156353
O O3 0.638465 0.371090 0.126044
O O4 0.635779 0.510683 0.000000
O O5 0.166385 0.592556 0.397178
O O6 0.306290 0.758148 0.398566
O O7 0.188807 0.720530 0.278982
O O8 0.196101 0.013377 0.386537
O O9 0.096326 0.175510 0.339137
O O10 0.101867 0.000000 0.250000
O O11 0.000000 0.000000 0.381507
O O12 0.131930 0.608872 0.841739
O O13 0.000000 0.500000 0.908345
O O14 0.141332 0.563365 0.000000
O O15 0.333477 0.844020 0.131173
O O16 0.373937 0.054499 0.135035
O O17 0.323211 0.957790 0.000000
O O18 0.494257 0.228980 0.130742
O O19 0.423474 0.150934 0.000000
O O20 0.000000 0.304428 0.250000
O O21 0.397835 0.740395 0.000000
#
# Coordination Sequence:
#
# PCOD9393327 Si02
#       8
#     8   8   8   8   8   8   8   8
#     4  10  19  35  61  99 146 188 227 273 333 410
#     4  12  23  38  68 101 135 178 228 275 336 418
#     4  11  24  45  68  90 125 177 231 272 343 417
#     4  11  25  43  66  96 131 170 223 280 339 415
#     4  10  22  38  64 100 132 170 227 286 338 394
#     4  10  19  35  63  99 138 180 227 277 331 402
#     4  12  25  46  69  93 132 176 221 283 351 413
#     4   9  18  35  59  95 141 180 217 272 338 401
#
# _framework density 22.80808
#
# number of rings (size 3 to 8) (size 9 to 14) (size 15 to 20)
#    0.000    1.375    3.750    2.625    1.750    2.250 
#    0.000    0.000    0.000    9.750    0.000    0.000 
#    0.000    0.000    0.000    0.000    0.000    0.000 
#
# Total GULP energy -357588.055954 kJ/mol
# GULP energy per Si atom -5587.313374 kJ/mol
# Density = 2.275617 g / cm^3
# Si number density = 22.808080 Si / 1000 Ang^3
#
#
#
# Elastic Constant Matrix: (Units=GPa)
#
#
# Indices 1 2 3 4 5 6 
#
# 1 127.2848 16.9332 6.0607 0.0000 0.0000 0.0000
# 2 16.9332 110.5585 -2.0322 0.0000 0.0000 0.0000
# 3 6.0607 -2.0322 10.6917 0.0000 0.0000 0.0000
# 4 0.0000 0.0000 0.0000 11.2958 0.0000 0.0000
# 5 0.0000 0.0000 0.0000 0.0000 -196.8274 0.0000
# 6 0.0000 0.0000 0.0000 0.0000 0.0000 34.6446
#
#
#
# Elastic Compliance Matrix: (Units=1/GPa)
#
#
# Indices 1 2 3 4 5 6 
#
# 1 0.008273 -0.001358 -0.004948 0.000000 0.000000 0.000000
# 2 -0.001358 0.009300 0.002537 0.000000 0.000000 0.000000
# 3 -0.004948 0.002537 0.096818 0.000000 0.000000 0.000000
# 4 0.000000 0.000000 0.000000 0.088528 0.000000 0.000000
# 5 0.000000 0.000000 0.000000 0.000000 -0.005081 0.000000
# 6 0.000000 0.000000 0.000000 0.000000 0.000000 0.028865
#
#
# Mechanical properties :
#
#
# Convention : Reuss Voigt Hill
#
# Bulk Modulus (GPa) = 9.35861 32.27315 20.81588
# Shear Modulus (GPa) = 18.52837 -15.00586 1.76125
#
# Velocity S-wave (km/s) = 2.85329 -2.56778 0.87971
# Velocity P-wave (km/s) = 3.86873 2.32149 3.19033
#
# Compressibility (1/GPa) = 0.10685346
#
# Stress axis : x y z
#
# Youngs Moduli (GPa) = 120.88046 107.53133 10.32871
#
# Poissons Ratio (x) = 0.14603 0.05110
# Poissons Ratio (y) = 0.16415 -0.02621
# Poissons Ratio (z) = 0.59806 -0.27284
#
# Static dielectric constant tensor:
#      x y z
#    x 1.855200 0.000000 0.000000 
#    y 0.000000 1.884560 0.000000 
#    z 0.000000 0.000000 1.867030 
# 
# From -- ./inp_files/17964.got.cif
#   From: 2010.05.17/outbox.cif.g08.bks.cpg/sg49_9_cif.got.tgz:17964.got - 2010.06.03 21:02:19.
