data_PCOD9393442
_publ_section_title
;
Structure prediction by ZEFSAII (Michael W. Deem and Ramdas Pophale) SiO2 
 PCOD9393442
Probable space group: P C C M
;
_chemical_formula_sum "Si O2"
_cell_formula_units_Z 30
_cell_length_a 14.304912
_cell_length_b 5.470640
_cell_length_c 20.063140
_cell_angle_alpha 90.000000
_cell_angle_beta 90.000000
_cell_angle_gamma 90.000000
_cell_volume 1570.081624
_symmetry_space_group_name_H-M "P C C M"
_symmetry_group_IT_number 49
_symmetry_cell_setting 'orthorhombic'
loop_
_space_group_symop_operation_xyz
x,y,z
-x,-y,z
x,-y,1/2-z
-x,y,1/2-z
-x,-y,-z
x,y,-z
-x,y,1/2+z
x,-y,1/2+z
loop_
_atom_site_type_symbol
_atom_site_label
_atom_site_fract_x
_atom_site_fract_y
_atom_site_fract_z
Si Si1 0.095000 0.845297 0.355179
Si Si2 0.060049 0.746099 0.500000
Si Si3 0.703045 0.007756 0.828749
Si Si4 0.390595 0.494546 0.831304
Si Si5 0.000000 0.500000 0.750000
O O1 0.185599 0.999495 0.336596
O O2 0.112651 0.743013 0.429362
O O3 0.068969 0.650182 0.298561
O O4 0.000000 0.000000 0.358259
O O5 0.000000 0.500000 0.500000
O O6 0.000000 0.000000 0.500000
O O7 0.658304 0.755316 0.855283
O O8 0.681890 0.000000 0.750000
O O9 0.659738 0.258532 0.855718
O O10 0.500000 0.500000 0.848172
O O11 0.384168 0.500000 0.750000
#
# Coordination Sequence:
#
# PCOD9393442 Si02
#       5
#     8   4   8   8   2
#     4  11  24  37  56  85 118 158 196 238 289 347
#     4  10  22  42  58  76 113 160 205 238 278 340
#     4  10  20  31  52  79 112 143 188 230 286 345
#     4   9  18  32  50  76 110 146 182 229 291 347
#     4  12  22  34  60  78 130 150 198 236 302 338
#
# _framework density 19.107285999999998
#
# number of rings (size 3 to 8) (size 9 to 14) (size 15 to 20)
#    0.000    1.867    1.333    2.800    9.333    3.200 
#    0.000    0.000    0.000    0.000    0.000    5.600 
#    0.000    0.000    0.000    0.000    0.000    0.000 
#
# Total GULP energy -167255.909128 kJ/mol
# GULP energy per Si atom -5575.196971 kJ/mol
# Density = 1.906380 g / cm^3
# Si number density = 19.107286 Si / 1000 Ang^3
#
#
#
# Elastic Constant Matrix: (Units=GPa)
#
#
# Indices 1 2 3 4 5 6 
#
# 1 128.2980 85.4862 -3.9683 0.0000 0.0000 0.0000
# 2 85.4862 156.5834 28.3371 0.0000 0.0000 0.0000
# 3 -3.9683 28.3371 78.3181 0.0000 0.0000 0.0000
# 4 0.0000 0.0000 0.0000 13.7836 0.0000 0.0000
# 5 0.0000 0.0000 0.0000 0.0000 -17.0796 0.0000
# 6 0.0000 0.0000 0.0000 0.0000 0.0000 39.6051
#
#
#
# Elastic Compliance Matrix: (Units=1/GPa)
#
#
# Indices 1 2 3 4 5 6 
#
# 1 0.013078 -0.007768 0.003473 0.000000 0.000000 0.000000
# 2 -0.007768 0.011448 -0.004536 0.000000 0.000000 0.000000
# 3 0.003473 -0.004536 0.014586 0.000000 0.000000 0.000000
# 4 0.000000 0.000000 0.000000 0.072550 0.000000 0.000000
# 5 0.000000 0.000000 0.000000 0.000000 -0.058549 0.000000
# 6 0.000000 0.000000 0.000000 0.000000 0.000000 0.025249
#
#
# Mechanical properties :
#
#
# Convention : Reuss Voigt Hill
#
# Bulk Modulus (GPa) = 46.61968 64.76773 55.69371
# Shear Modulus (GPa) = 48.46191 24.15146 36.30668
#
# Velocity S-wave (km/s) = 5.04164 3.55912 4.36380
# Velocity P-wave (km/s) = 7.63824 7.13164 7.38928
#
# Compressibility (1/GPa) = 0.02145017
#
# Stress axis : x y z
#
# Youngs Moduli (GPa) = 76.46432 87.34836 68.56068
#
# Poissons Ratio (x) = 0.67856 -0.23814
# Poissons Ratio (y) = 0.59401 0.31098
# Poissons Ratio (z) = -0.26559 0.39620
#
# Static dielectric constant tensor:
#      x y z
#    x 1.657660 0.000000 0.000000 
#    y 0.000000 1.718870 0.000000 
#    z 0.000000 0.000000 1.712990 
# 
# From -- ./inp_files/15097.got.cif
#   From: 2010.05.17/outbox.cif.g08.bks.cpg/sg49_8_cif.got.tgz:15097.got - 2010.06.03 21:02:19.
