data_PCOD9393930
_publ_section_title
;
Structure prediction by ZEFSAII (Michael W. Deem and Ramdas Pophale) SiO2 
 PCOD9393930
Probable space group: P C C M
;
_chemical_formula_sum "Si O2"
_cell_formula_units_Z 48
_cell_length_a 14.271322
_cell_length_b 5.735012
_cell_length_c 26.893862
_cell_angle_alpha 90.000000
_cell_angle_beta 90.000000
_cell_angle_gamma 90.000000
_cell_volume 2201.160487
_symmetry_space_group_name_H-M "P C C M"
_symmetry_group_IT_number 49
_symmetry_cell_setting 'orthorhombic'
loop_
_space_group_symop_operation_xyz
x,y,z
-x,-y,z
x,-y,1/2-z
-x,y,1/2-z
-x,-y,-z
x,y,-z
-x,y,1/2+z
x,-y,1/2+z
loop_
_atom_site_type_symbol
_atom_site_label
_atom_site_fract_x
_atom_site_fract_y
_atom_site_fract_z
Si Si1 0.394661 0.607321 0.556217
Si Si2 0.604256 0.928097 0.844777
Si Si3 0.244501 0.679003 0.705698
Si Si4 0.109058 0.039097 0.146426
Si Si5 0.258132 0.677566 0.117388
Si Si6 0.055205 0.253150 0.052753
O O1 0.500000 0.500000 0.557000
O O2 0.381115 0.702949 0.500000
O O3 0.394137 0.781559 0.603327
O O4 0.310356 0.424515 0.568774
O O5 0.654246 0.799192 0.798677
O O6 0.500000 0.000000 0.833122
O O7 0.666473 0.150046 0.857958
O O8 0.228380 0.500000 0.750000
O O9 0.166562 0.875706 0.694382
O O10 0.244230 0.523844 0.656664
O O11 0.111058 0.234695 0.103344
O O12 0.161546 0.824099 0.118989
O O13 0.000000 0.000000 0.158825
O O14 0.000000 0.500000 0.053905
O O15 0.107944 0.254753 0.000000
O O16 0.000000 0.000000 0.052572
#
# Coordination Sequence:
#
# PCOD9393930 Si02
#       6
#     8   8   8   8   8   8
#     4  10  20  35  63  97 132 176 220 266 328 408
#     4  10  20  39  65  92 132 174 215 270 333 403
#     4  10  24  44  66  93 131 168 220 289 343 412
#     4  10  23  40  68  92 128 178 227 280 348 411
#     4  10  22  41  62  91 131 170 213 283 334 405
#     4   9  19  36  62  93 128 172 227 284 339 409
#
# _framework density 21.806678000000002
#
# number of rings (size 3 to 8) (size 9 to 14) (size 15 to 20)
#    0.000    2.167    1.667    0.000    4.667    4.333 
#    0.000   11.667    0.000    0.000    0.000    0.000 
#    0.000    0.000    0.000    0.000    0.000    0.000 
#
# Total GULP energy -267321.875921 kJ/mol
# GULP energy per Si atom -5569.205748 kJ/mol
# Density = 2.175704 g / cm^3
# Si number density = 21.806678 Si / 1000 Ang^3
#
#
#
# Elastic Constant Matrix: (Units=GPa)
#
#
# Indices 1 2 3 4 5 6 
#
# 1 156.5730 46.1354 44.3770 0.0000 0.0000 0.0000
# 2 46.1354 75.5017 17.8984 0.0000 0.0000 0.0000
# 3 44.3770 17.8984 95.6266 0.0000 0.0000 0.0000
# 4 0.0000 0.0000 0.0000 25.8086 0.0000 0.0000
# 5 0.0000 0.0000 0.0000 0.0000 8.8080 0.0000
# 6 0.0000 0.0000 0.0000 0.0000 0.0000 31.8801
#
#
#
# Elastic Compliance Matrix: (Units=1/GPa)
#
#
# Indices 1 2 3 4 5 6 
#
# 1 0.008610 -0.004514 -0.003151 0.000000 0.000000 0.000000
# 2 -0.004514 0.016227 -0.000942 0.000000 0.000000 0.000000
# 3 -0.003151 -0.000942 0.012096 0.000000 0.000000 0.000000
# 4 0.000000 0.000000 0.000000 0.038747 0.000000 0.000000
# 5 0.000000 0.000000 0.000000 0.000000 0.113533 0.000000
# 6 0.000000 0.000000 0.000000 0.000000 0.000000 0.031368
#
#
# Mechanical properties :
#
#
# Convention : Reuss Voigt Hill
#
# Bulk Modulus (GPa) = 50.71490 60.50257 55.60873
# Shear Modulus (GPa) = 20.46110 27.91869 24.18990
#
# Velocity S-wave (km/s) = 3.06648 3.58198 3.33421
# Velocity P-wave (km/s) = 5.98706 6.70169 6.35443
#
# Compressibility (1/GPa) = 0.01971807
#
# Stress axis : x y z
#
# Youngs Moduli (GPa) = 116.14500 61.62756 82.67325
#
# Poissons Ratio (x) = 0.27820 0.26047
# Poissons Ratio (y) = 0.52430 0.07790
# Poissons Ratio (z) = 0.36593 0.05807
#
# Static dielectric constant tensor:
#      x y z
#    x 1.785350 0.000000 0.000000 
#    y 0.000000 1.841120 0.000000 
#    z 0.000000 0.000000 1.795530 
# 
# From -- ./inp_files/25021.got.cif
#   From: 2010.05.17/outbox.cif.g08.bks.cpg/sg49_13_cif.got.tgz:25021.got - 2010.06.03 21:02:19.
