data_PCOD9393727
_publ_section_title
;
Structure prediction by ZEFSAII (Michael W. Deem and Ramdas Pophale) SiO2 
 PCOD9393727
Probable space group: P C C M
;
_chemical_formula_sum "Si O2"
_cell_formula_units_Z 48
_cell_length_a 12.542394
_cell_length_b 7.999130
_cell_length_c 25.219342
_cell_angle_alpha 90.000000
_cell_angle_beta 90.000000
_cell_angle_gamma 90.000000
_cell_volume 2530.212200
_symmetry_space_group_name_H-M "P C C M"
_symmetry_group_IT_number 49
_symmetry_cell_setting 'orthorhombic'
loop_
_space_group_symop_operation_xyz
x,y,z
-x,-y,z
x,-y,1/2-z
-x,y,1/2-z
-x,-y,-z
x,y,-z
-x,y,1/2+z
x,-y,1/2+z
loop_
_atom_site_type_symbol
_atom_site_label
_atom_site_fract_x
_atom_site_fract_y
_atom_site_fract_z
Si Si1 0.789856 0.247890 0.343203
Si Si2 0.671354 0.397416 0.560076
Si Si3 0.439594 0.241662 0.558907
Si Si4 0.617228 0.951013 0.337402
Si Si5 0.012312 0.697648 0.813529
Si Si6 0.785349 0.810458 0.729195
O O1 0.751942 0.361922 0.391844
O O2 0.784198 0.307354 0.281351
O O3 0.917318 0.212846 0.345536
O O4 0.704800 0.097311 0.342759
O O5 0.713544 0.368214 0.500000
O O6 0.564570 0.284839 0.566371
O O7 0.625368 0.584940 0.561836
O O8 0.425053 0.171265 0.500000
O O9 0.399301 0.125676 0.605049
O O10 0.669353 0.823642 0.295992
O O11 0.500000 0.000000 0.318470
O O12 0.133653 0.757946 0.817451
O O13 0.000000 0.500000 0.823406
O O14 0.000000 0.728765 0.750000
O O15 0.814206 0.000000 0.750000
#
# Coordination Sequence:
#
# PCOD9393727 Si02
#       6
#     8   8   8   8   8   8
#     4  10  20  34  56  82 111 147 187 229 283 334
#     4   9  18  35  56  81 110 147 190 236 283 335
#     4   9  19  35  55  78 113 151 189 231 278 337
#     4  11  21  34  52  85 118 150 184 223 283 343
#     4   9  19  36  57  80 105 143 198 236 266 327
#     4   9  21  36  55  80 116 154 184 231 281 334
#
# _framework density 18.970739999999999
#
# number of rings (size 3 to 8) (size 9 to 14) (size 15 to 20)
#    0.000    2.500    1.667    1.000    2.333   11.667 
#    0.000    0.000    0.000    3.500    0.000    5.833 
#    0.000    0.000    0.000    0.000    0.000    0.000 
#
# Total GULP energy -267230.389539 kJ/mol
# GULP energy per Si atom -5567.299782 kJ/mol
# Density = 1.892756 g / cm^3
# Si number density = 18.970740 Si / 1000 Ang^3
#
#
#
# Elastic Constant Matrix: (Units=GPa)
#
#
# Indices 1 2 3 4 5 6 
#
# 1 138.8511 30.0297 68.3782 0.0000 0.0000 0.0000
# 2 30.0297 34.2660 22.9573 0.0000 0.0000 0.0000
# 3 68.3782 22.9573 106.4996 0.0000 0.0000 0.0000
# 4 0.0000 0.0000 0.0000 27.1937 0.0000 0.0000
# 5 0.0000 0.0000 0.0000 0.0000 14.0422 0.0000
# 6 0.0000 0.0000 0.0000 0.0000 0.0000 20.7352
#
#
#
# Elastic Compliance Matrix: (Units=1/GPa)
#
#
# Indices 1 2 3 4 5 6 
#
# 1 0.011498 -0.005996 -0.006089 0.000000 0.000000 0.000000
# 2 -0.005996 0.037237 -0.004177 0.000000 0.000000 0.000000
# 3 -0.006089 -0.004177 0.014200 0.000000 0.000000 0.000000
# 4 0.000000 0.000000 0.000000 0.036773 0.000000 0.000000
# 5 0.000000 0.000000 0.000000 0.000000 0.071214 0.000000
# 6 0.000000 0.000000 0.000000 0.000000 0.000000 0.048227
#
#
# Mechanical properties :
#
#
# Convention : Reuss Voigt Hill
#
# Bulk Modulus (GPa) = 32.88509 58.03856 45.46182
# Shear Modulus (GPa) = 19.09779 22.94433 21.02106
#
# Velocity S-wave (km/s) = 3.17629 3.48150 3.33239
# Velocity P-wave (km/s) = 5.55194 6.84261 6.23078
#
# Compressibility (1/GPa) = 0.03040892
#
# Stress axis : x y z
#
# Youngs Moduli (GPa) = 86.97456 26.85503 70.42346
#
# Poissons Ratio (x) = 0.16103 0.42884
# Poissons Ratio (y) = 0.52154 0.29415
# Poissons Ratio (z) = 0.52963 0.11217
#
# Static dielectric constant tensor:
#      x y z
#    x 1.748340 0.000000 0.000000 
#    y 0.000000 1.727510 0.000000 
#    z 0.000000 0.000000 1.673880 
# 
# From -- ./inp_files/22846.got.cif
#   From: 2010.05.17/outbox.cif.g08.bks.cpg/sg49_12_cif.got.tgz:22846.got - 2010.06.03 21:02:19.
