data_PCOD9393410
_publ_section_title
;
Structure prediction by ZEFSAII (Michael W. Deem and Ramdas Pophale) SiO2 
 PCOD9393410
Probable space group: P C C M
;
_chemical_formula_sum "Si O2"
_cell_formula_units_Z 56
_cell_length_a 8.925271
_cell_length_b 21.401327
_cell_length_c 14.938892
_cell_angle_alpha 90.000000
_cell_angle_beta 90.000000
_cell_angle_gamma 90.000000
_cell_volume 2853.517248
_symmetry_space_group_name_H-M "P C C M"
_symmetry_group_IT_number 49
_symmetry_cell_setting 'orthorhombic'
loop_
_space_group_symop_operation_xyz
x,y,z
-x,-y,z
x,-y,1/2-z
-x,y,1/2-z
-x,-y,-z
x,y,-z
-x,y,1/2+z
x,-y,1/2+z
loop_
_atom_site_type_symbol
_atom_site_label
_atom_site_fract_x
_atom_site_fract_y
_atom_site_fract_z
Si Si1 0.819434 0.599724 0.755749
Si Si2 0.612731 0.842437 0.894366
Si Si3 0.260011 0.821429 0.102041
Si Si4 0.817967 0.505736 0.602951
Si Si5 0.670940 0.980731 0.104339
Si Si6 0.084843 0.938833 0.842439
Si Si7 0.321658 0.265807 0.238858
O O1 0.774508 0.566588 0.661678
O O2 0.772123 0.553410 0.836287
O O3 0.754598 0.667753 0.773607
O O4 0.000000 0.602561 0.750000
O O5 0.431539 0.846391 0.880922
O O6 0.685440 0.908621 0.868801
O O7 0.683444 0.785712 0.839759
O O8 0.635163 0.834129 0.000000
O O9 0.130182 0.873826 0.111661
O O10 0.247886 0.767117 0.174690
O O11 0.258603 0.798797 0.000000
O O12 0.765677 0.506320 0.500000
O O13 0.000000 0.500000 0.600639
O O14 0.500000 0.000000 0.104601
O O15 0.754331 0.029464 0.165734
O O16 0.720025 0.987583 0.000000
O O17 0.000000 0.926952 0.750000
O O18 0.000000 0.000000 0.885116
O O19 0.500000 0.276013 0.250000
#
# Coordination Sequence:
#
# PCOD9393410 Si02
#       7
#     8   8   8   8   8   8   8
#     4   9  18  34  56  84 118 156 191 238 287 339
#     4   9  19  37  63  87 107 146 203 255 298 358
#     4  10  21  41  62  79 108 156 207 245 293 364
#     4   8  15  31  58  87 115 152 200 237 272 334
#     4  10  19  38  67  87 104 143 203 258 306 372
#     4  11  25  38  55  87 120 147 182 251 328 378
#     4  10  22  37  58  85 119 156 195 246 300 358
#
# _framework density 19.624904000000001
#
# number of rings (size 3 to 8) (size 9 to 14) (size 15 to 20)
#    0.000    2.429    1.429    1.286    4.000    2.857 
#    0.000    2.857    0.000    0.857    0.000    0.000 
#    0.000    0.000    0.000    0.000    0.000    0.000 
#
# Total GULP energy -312069.594241 kJ/mol
# GULP energy per Si atom -5572.671326 kJ/mol
# Density = 1.958024 g / cm^3
# Si number density = 19.624904 Si / 1000 Ang^3
#
#
#
# Elastic Constant Matrix: (Units=GPa)
#
#
# Indices 1 2 3 4 5 6 
#
# 1 28.9801 21.2625 31.8848 0.0000 0.0000 0.0000
# 2 21.2625 140.4331 72.3026 0.0000 0.0000 0.0000
# 3 31.8848 72.3026 118.9461 0.0000 0.0000 0.0000
# 4 0.0000 0.0000 0.0000 7.6005 0.0000 0.0000
# 5 0.0000 0.0000 0.0000 0.0000 25.5781 0.0000
# 6 0.0000 0.0000 0.0000 0.0000 0.0000 37.5069
#
#
#
# Elastic Compliance Matrix: (Units=1/GPa)
#
#
# Indices 1 2 3 4 5 6 
#
# 1 0.049028 -0.000956 -0.012562 0.000000 0.000000 0.000000
# 2 -0.000956 0.010383 -0.006055 0.000000 0.000000 0.000000
# 3 -0.012562 -0.006055 0.015455 0.000000 0.000000 0.000000
# 4 0.000000 0.000000 0.000000 0.131570 0.000000 0.000000
# 5 0.000000 0.000000 0.000000 0.000000 0.039096 0.000000
# 6 0.000000 0.000000 0.000000 0.000000 0.000000 0.026662
#
#
# Mechanical properties :
#
#
# Convention : Reuss Voigt Hill
#
# Bulk Modulus (GPa) = 27.99450 59.91768 43.95609
# Shear Modulus (GPa) = 15.46809 24.99774 20.23291
#
# Velocity S-wave (km/s) = 2.81051 3.57287 3.21437
# Velocity P-wave (km/s) = 4.98274 6.90060 6.01856
#
# Compressibility (1/GPa) = 0.03572130
#
# Stress axis : x y z
#
# Youngs Moduli (GPa) = 20.39639 96.31005 64.70324
#
# Poissons Ratio (x) = 0.09206 0.81277
# Poissons Ratio (y) = 0.01950 0.39180
# Poissons Ratio (z) = 0.25621 0.58318
#
# Static dielectric constant tensor:
#      x y z
#    x 1.769130 0.000000 0.000000 
#    y 0.000000 1.673850 0.000000 
#    z 0.000000 0.000000 1.726710 
# 
# From -- ./inp_files/12018.got.cif
#   From: 2010.05.17/outbox.cif.g08.bks.cpg/sg49_7_cif.got.tgz:12018.got - 2010.06.03 21:02:19.
