data_PCOD9393777
_publ_section_title
;
Structure prediction by ZEFSAII (Michael W. Deem and Ramdas Pophale) SiO2 
 PCOD9393777
Probable space group: P C C M
;
_chemical_formula_sum "Si O2"
_cell_formula_units_Z 64
_cell_length_a 7.579057
_cell_length_b 24.224341
_cell_length_c 16.178904
_cell_angle_alpha 90.000000
_cell_angle_beta 90.000000
_cell_angle_gamma 90.000000
_cell_volume 2970.408936
_symmetry_space_group_name_H-M "P C C M"
_symmetry_group_IT_number 49
_symmetry_cell_setting 'orthorhombic'
loop_
_space_group_symop_operation_xyz
x,y,z
-x,-y,z
x,-y,1/2-z
-x,y,1/2-z
-x,-y,-z
x,y,-z
-x,y,1/2+z
x,-y,1/2+z
loop_
_atom_site_type_symbol
_atom_site_label
_atom_site_fract_x
_atom_site_fract_y
_atom_site_fract_z
Si Si1 0.798157 0.682892 0.750000
Si Si2 0.215285 0.000000 0.653832
Si Si3 0.785351 0.500000 0.845679
Si Si4 0.783901 0.380492 0.091088
Si Si5 0.786817 0.119105 0.408246
Si Si6 0.298297 0.806195 0.750000
Si Si7 0.783901 0.619508 0.908912
Si Si8 0.213183 0.880895 0.908246
O O1 0.720815 0.658125 0.665777
O O2 0.802551 0.748632 0.750000
O O3 0.720815 0.658125 0.834223
O O4 0.000000 0.662140 0.750000
O O5 0.273095 0.943472 0.610893
O O6 0.268023 0.000000 0.750000
O O7 0.273094 0.056528 0.610893
O O8 0.000000 0.000000 0.652142
O O9 0.729205 0.500000 0.750000
O O10 0.731169 0.443461 0.889389
O O11 0.731169 0.556538 0.889389
O O12 0.000000 0.500000 0.845760
O O13 0.000000 0.379116 0.089491
O O14 0.724175 0.363573 0.000000
O O15 0.726918 0.136375 0.500000
O O16 0.736405 0.157702 0.331763
O O17 1.000000 0.118256 0.409353
O O18 0.500000 0.789456 0.750000
O O19 0.263594 0.842298 0.831763
O O20 0.724174 0.636427 0.000000
O O21 0.273082 0.863625 0.000000
#
# Coordination Sequence:
#
# PCOD9393777 Si02
#       8
#     8   8   8   8   8   8   8   8
#     4  10  20  35  53  73 100 136 186 234 269 312
#     4   9  15  29  59  93 121 142 171 222 279 334
#     4   9  13  21  39  68 107 140 158 194 266 337
#     4   9  16  26  44  72 104 135 167 210 268 329
#     4  10  20  37  63  91 116 145 184 229 277 331
#     4  12  26  41  56  77 112 154 195 236 283 332
#     4   9  16  26  44  72 104 135 167 210 268 329
#     4  10  20  37  63  91 116 145 184 229 277 331
#
# _framework density 21.545853999999999
#
# number of rings (size 3 to 8) (size 9 to 14) (size 15 to 20)
#    0.000    2.250    2.500    1.875    0.000    4.500 
#    0.000    3.750    0.000    1.500    0.000    1.750 
#    0.000    2.000    0.000    0.000    0.000    0.000 
#
# Total GULP energy -357426.117827 kJ/mol
# GULP energy per Si atom -5584.783091 kJ/mol
# Density = 2.149681 g / cm^3
# Si number density = 21.545854 Si / 1000 Ang^3
#
#
#
# Elastic Constant Matrix: (Units=GPa)
#
#
# Indices 1 2 3 4 5 6 
#
# 1 49.9935 -10.0748 5.4817 0.0000 0.0000 0.0000
# 2 -10.0748 118.9577 84.1664 0.0000 0.0000 0.0000
# 3 5.4817 84.1664 230.7811 0.0000 0.0000 0.0000
# 4 0.0000 0.0000 0.0000 2.1499 0.0000 0.0000
# 5 0.0000 0.0000 0.0000 0.0000 -19.0988 0.0000
# 6 0.0000 0.0000 0.0000 0.0000 0.0000 -63.9780
#
#
#
# Elastic Compliance Matrix: (Units=1/GPa)
#
#
# Indices 1 2 3 4 5 6 
#
# 1 0.020742 0.002837 -0.001527 0.000000 0.000000 0.000000
# 2 0.002837 0.011718 -0.004341 0.000000 0.000000 0.000000
# 3 -0.001527 -0.004341 0.005953 0.000000 0.000000 0.000000
# 4 0.000000 0.000000 0.000000 0.465132 0.000000 0.000000
# 5 0.000000 0.000000 0.000000 0.000000 -0.052359 0.000000
# 6 0.000000 0.000000 0.000000 0.000000 0.000000 -0.015630
#
#
# Mechanical properties :
#
#
# Convention : Reuss Voigt Hill
#
# Bulk Modulus (GPa) = 30.91153 62.09765 46.50459
# Shear Modulus (GPa) = 11.05215 5.15857 8.10536
#
# Velocity S-wave (km/s) = 2.26732 1.54901 1.94167
# Velocity P-wave (km/s) = 4.60785 5.66418 5.16310
#
# Compressibility (1/GPa) = 0.03235039
#
# Stress axis : x y z
#
# Youngs Moduli (GPa) = 48.21161 85.33843 167.99484
#
# Poissons Ratio (x) = -0.24214 0.25661
# Poissons Ratio (y) = -0.13680 0.72927
# Poissons Ratio (z) = 0.07364 0.37045
#
# Static dielectric constant tensor:
#      x y z
#    x 1.825200 0.000000 0.000000 
#    y 0.000000 1.732630 0.000000 
#    z 0.000000 0.000000 1.781010 
# 
# From -- ./inp_files/16582.got.cif
#   From: 2010.05.17/outbox.cif.g08.bks.cpg/sg49_9_cif.got.tgz:16582.got - 2010.06.03 21:02:19.
