data_PCOD9393020
_publ_section_title
;
Structure prediction by ZEFSAII (Michael W. Deem and Ramdas Pophale) SiO2 
 PCOD9393020
Probable space group: P C C M
;
_chemical_formula_sum "Si O2"
_cell_formula_units_Z 64
_cell_length_a 15.912146
_cell_length_b 25.510467
_cell_length_c 8.490053
_cell_angle_alpha 90.000000
_cell_angle_beta 90.000000
_cell_angle_gamma 90.000000
_cell_volume 3446.335593
_symmetry_space_group_name_H-M "P C C M"
_symmetry_group_IT_number 49
_symmetry_cell_setting 'orthorhombic'
loop_
_space_group_symop_operation_xyz
x,y,z
-x,-y,z
x,-y,1/2-z
-x,y,1/2-z
-x,-y,-z
x,y,-z
-x,y,1/2+z
x,-y,1/2+z
loop_
_atom_site_type_symbol
_atom_site_label
_atom_site_fract_x
_atom_site_fract_y
_atom_site_fract_z
Si Si1 0.371318 0.712966 0.186233
Si Si2 0.766707 0.442576 0.309393
Si Si3 0.810376 0.737357 0.190632
Si Si4 0.909220 0.639008 0.189077
Si Si5 0.588302 0.827616 0.811659
Si Si6 0.907727 0.058986 0.310323
Si Si7 0.587266 0.599647 0.187564
Si Si8 0.225689 0.145088 0.808773
O O1 0.272888 0.714631 0.229048
O O2 0.406002 0.767079 0.257359
O O3 0.407346 0.660346 0.261045
O O4 0.385289 0.712607 0.000000
O O5 0.789394 0.500000 0.250000
O O6 0.765764 0.442006 0.500000
O O7 0.834908 0.399616 0.256713
O O8 0.672771 0.427627 0.253909
O O9 0.885755 0.698741 0.234307
O O10 0.814406 0.798485 0.234034
O O11 0.798739 0.734782 0.000000
O O12 0.000000 0.623493 0.250000
O O13 0.910166 0.636978 0.000000
O O14 0.500000 0.849931 0.750000
O O15 0.676384 0.853973 0.756742
O O16 0.587489 0.828932 0.000000
O O17 0.909440 0.058584 0.500000
O O18 0.833966 0.098026 0.255328
O O19 0.000000 0.075682 0.250000
O O20 0.893429 0.000000 0.250000
O O21 0.500000 0.576764 0.250000
O O22 0.586709 0.597244 0.000000
O O23 0.227561 0.143027 0.000000
#
# Coordination Sequence:
#
# PCOD9393020 Si02
#       8
#     8   8   8   8   8   8   8   8
#     4  11  20  31  51  80 109 142 181 219 261 315
#     4  10  23  42  61  79 105 139 175 221 271 322
#     4   9  17  35  56  76 110 147 177 217 270 321
#     4  10  21  38  59  83 109 140 175 215 269 323
#     4  10  19  33  51  75 109 148 184 224 268 317
#     4  10  19  34  54  80 108 143 186 228 277 323
#     4  11  22  38  57  80 108 140 177 217 267 323
#     4   8  17  32  54  78 106 146 183 218 268 324
#
# _framework density 18.570449
#
# number of rings (size 3 to 8) (size 9 to 14) (size 15 to 20)
#    0.000    2.125    1.250    3.750    0.000    3.000 
#    0.000    8.750    0.000    0.375    0.000    2.625 
#    0.000    0.000    0.000    0.000    0.000    0.000 
#
# Total GULP energy -357103.861934 kJ/mol
# GULP energy per Si atom -5579.747843 kJ/mol
# Density = 1.852818 g / cm^3
# Si number density = 18.570449 Si / 1000 Ang^3
#
#
#
# Elastic Constant Matrix: (Units=GPa)
#
#
# Indices 1 2 3 4 5 6 
#
# 1 147.5914 69.0195 20.7643 0.0000 0.0000 0.0000
# 2 69.0195 82.1777 11.2038 0.0000 0.0000 0.0000
# 3 20.7643 11.2038 32.6596 0.0000 0.0000 0.0000
# 4 0.0000 0.0000 0.0000 14.7741 0.0000 0.0000
# 5 0.0000 0.0000 0.0000 0.0000 28.0504 0.0000
# 6 0.0000 0.0000 0.0000 0.0000 0.0000 13.1415
#
#
#
# Elastic Compliance Matrix: (Units=1/GPa)
#
#
# Indices 1 2 3 4 5 6 
#
# 1 0.011698 -0.009244 -0.004267 0.000000 0.000000 0.000000
# 2 -0.009244 0.020070 -0.001008 0.000000 0.000000 0.000000
# 3 -0.004267 -0.001008 0.033677 0.000000 0.000000 0.000000
# 4 0.000000 0.000000 0.000000 0.067686 0.000000 0.000000
# 5 0.000000 0.000000 0.000000 0.000000 0.035650 0.000000
# 6 0.000000 0.000000 0.000000 0.000000 0.000000 0.076095
#
#
# Mechanical properties :
#
#
# Convention : Reuss Voigt Hill
#
# Bulk Modulus (GPa) = 27.46572 51.60043 39.53307
# Shear Modulus (GPa) = 17.47952 21.95594 19.71773
#
# Velocity S-wave (km/s) = 3.07132 3.44220 3.26203
# Velocity P-wave (km/s) = 5.23445 6.60643 5.96005
#
# Compressibility (1/GPa) = 0.03640902
#
# Stress axis : x y z
#
# Youngs Moduli (GPa) = 85.48203 49.82647 29.69363
#
# Poissons Ratio (x) = 0.46057 0.12669
# Poissons Ratio (y) = 0.79016 0.02993
# Poissons Ratio (z) = 0.36472 0.05022
#
# Static dielectric constant tensor:
#      x y z
#    x 1.673900 0.000000 0.000000 
#    y 0.000000 1.622830 0.000000 
#    z 0.000000 0.000000 1.634410 
# 
# From -- ./inp_files/4395.got.cif
#   From: 2010.05.17/outbox.cif.g08.bks.cpg/sg49_3_cif.got.tgz:4395.got - 2010.06.03 21:02:19.
