data_PCOD9393183
_publ_section_title
;
Structure prediction by ZEFSAII (Michael W. Deem and Ramdas Pophale) SiO2 
 PCOD9393183
Probable space group: P C C M
;
_chemical_formula_sum "Si O2"
_cell_formula_units_Z 64
_cell_length_a 20.960422
_cell_length_b 20.094149
_cell_length_c 8.755985
_cell_angle_alpha 90.000000
_cell_angle_beta 90.000000
_cell_angle_gamma 90.000000
_cell_volume 3687.861898
_symmetry_space_group_name_H-M "P C C M"
_symmetry_group_IT_number 49
_symmetry_cell_setting 'orthorhombic'
loop_
_space_group_symop_operation_xyz
x,y,z
-x,-y,z
x,-y,1/2-z
-x,y,1/2-z
-x,-y,-z
x,y,-z
-x,y,1/2+z
x,-y,1/2+z
loop_
_atom_site_type_symbol
_atom_site_label
_atom_site_fract_x
_atom_site_fract_y
_atom_site_fract_z
Si Si1 0.066740 0.709491 0.182266
Si Si2 0.379060 0.929826 0.183092
Si Si3 0.738838 0.430056 0.317186
Si Si4 0.110177 0.429001 0.816811
Si Si5 0.771168 0.928812 0.683322
Si Si6 0.184140 0.207467 0.816813
Si Si7 0.432254 0.211273 0.683116
Si Si8 0.687140 0.289047 0.684246
O O1 0.076600 0.634282 0.242845
O O2 0.125340 0.753342 0.243535
O O3 0.000000 0.734688 0.250000
O O4 0.065375 0.709814 0.000000
O O5 0.304169 0.921052 0.224411
O O6 0.416726 0.864535 0.234859
O O7 0.401533 0.000000 0.250000
O O8 0.382457 0.933482 0.000000
O O9 0.716438 0.500000 0.250000
O O10 0.734943 0.433091 0.500000
O O11 0.814080 0.422292 0.279915
O O12 0.701089 0.364725 0.265877
O O13 0.088769 0.500000 0.750000
O O14 0.102766 0.427898 0.000000
O O15 0.776120 0.928429 0.500000
O O16 0.808717 0.867092 0.754339
O O17 0.791676 0.000000 0.750000
O O18 0.249892 0.246034 0.778166
O O19 0.177594 0.207900 0.000000
O O20 0.500000 0.232253 0.750000
O O21 0.433999 0.211908 0.500000
O O22 0.374650 0.257025 0.740573
O O23 0.680268 0.288033 0.500000
#
# Coordination Sequence:
#
# PCOD9393183 Si02
#       8
#     8   8   8   8   8   8   8   8
#     4  12  25  40  58  82 114 154 194 238 286 339
#     4   9  19  33  51  76 109 146 186 227 270 327
#     4   9  18  33  54  83 114 144 180 225 277 331
#     4  10  19  35  55  82 116 152 192 232 278 336
#     4  10  19  34  55  85 116 147 188 233 283 335
#     4  11  21  37  60  86 115 149 188 236 286 335
#     4  11  23  38  54  79 111 148 190 233 280 335
#     4  10  20  36  58  83 112 147 185 230 280 331
#
# _framework density 17.354229
#
# number of rings (size 3 to 8) (size 9 to 14) (size 15 to 20)
#    0.000    1.750    2.500    2.625    0.000    3.500 
#    0.000    2.500    0.000    0.750    0.000    5.250 
#    0.000    0.000    0.000    0.000    0.000    0.000 
#
# Total GULP energy -357495.711470 kJ/mol
# GULP energy per Si atom -5585.870492 kJ/mol
# Density = 1.731473 g / cm^3
# Si number density = 17.354229 Si / 1000 Ang^3
#
#
#
# Elastic Constant Matrix: (Units=GPa)
#
#
# Indices 1 2 3 4 5 6 
#
# 1 113.0933 66.3449 51.1484 0.0000 0.0000 0.0000
# 2 66.3449 132.9124 46.3507 0.0000 0.0000 0.0000
# 3 51.1484 46.3507 64.7692 0.0000 0.0000 0.0000
# 4 0.0000 0.0000 0.0000 33.3602 0.0000 0.0000
# 5 0.0000 0.0000 0.0000 0.0000 12.0749 0.0000
# 6 0.0000 0.0000 0.0000 0.0000 0.0000 16.5882
#
#
#
# Elastic Compliance Matrix: (Units=1/GPa)
#
#
# Indices 1 2 3 4 5 6 
#
# 1 0.015666 -0.004671 -0.009028 0.000000 0.000000 0.000000
# 2 -0.004671 0.011419 -0.004483 0.000000 0.000000 0.000000
# 3 -0.009028 -0.004483 0.025777 0.000000 0.000000 0.000000
# 4 0.000000 0.000000 0.000000 0.029976 0.000000 0.000000
# 5 0.000000 0.000000 0.000000 0.000000 0.082817 0.000000
# 6 0.000000 0.000000 0.000000 0.000000 0.000000 0.060284
#
#
# Mechanical properties :
#
#
# Convention : Reuss Voigt Hill
#
# Bulk Modulus (GPa) = 60.61728 70.94031 65.77879
# Shear Modulus (GPa) = 18.67051 22.20005 20.43528
#
# Velocity S-wave (km/s) = 3.28357 3.58051 3.43525
# Velocity P-wave (km/s) = 7.02716 7.61971 7.32943
#
# Compressibility (1/GPa) = 0.01649695
#
# Stress axis : x y z
#
# Youngs Moduli (GPa) = 63.83285 87.57546 38.79410
#
# Poissons Ratio (x) = 0.40909 0.35025
# Poissons Ratio (y) = 0.29818 0.17390
# Poissons Ratio (z) = 0.57631 0.39257
#
# Static dielectric constant tensor:
#      x y z
#    x 1.579720 0.000000 0.000000 
#    y 0.000000 1.583370 0.000000 
#    z 0.000000 0.000000 1.577220 
# 
# From -- ./inp_files/5284.got.cif
#   From: 2010.05.17/outbox.cif.g08.bks.cpg/sg49_3_cif.got.tgz:5284.got - 2010.06.03 21:02:19.
