data_PCOD9393087
_publ_section_title
;
Structure prediction by ZEFSAII (Michael W. Deem and Ramdas Pophale) SiO2 
 PCOD9393087
Probable space group: P C C M
;
_chemical_formula_sum "Si O2"
_cell_formula_units_Z 64
_cell_length_a 15.647179
_cell_length_b 25.165568
_cell_length_c 8.657202
_cell_angle_alpha 90.000000
_cell_angle_beta 90.000000
_cell_angle_gamma 90.000000
_cell_volume 3408.947705
_symmetry_space_group_name_H-M "P C C M"
_symmetry_group_IT_number 49
_symmetry_cell_setting 'orthorhombic'
loop_
_space_group_symop_operation_xyz
x,y,z
-x,-y,z
x,-y,1/2-z
-x,y,1/2-z
-x,-y,-z
x,y,-z
-x,y,1/2+z
x,-y,1/2+z
loop_
_atom_site_type_symbol
_atom_site_label
_atom_site_fract_x
_atom_site_fract_y
_atom_site_fract_z
Si Si1 0.675834 0.260518 0.816392
Si Si2 0.590022 0.640189 0.184005
Si Si3 0.592636 0.059248 0.184949
Si Si4 0.280038 0.146441 0.186126
Si Si5 0.089124 0.827568 0.684336
Si Si6 0.086935 0.598026 0.815301
Si Si7 0.725973 0.557316 0.685208
Si Si8 0.143014 0.290985 0.814780
O O1 0.606431 0.300513 0.747879
O O2 0.679399 0.202211 0.741610
O O3 0.766291 0.287083 0.770456
O O4 0.667608 0.256471 0.000000
O O5 0.500000 0.620460 0.250000
O O6 0.665690 0.602392 0.243766
O O7 0.589377 0.640898 0.000000
O O8 0.500000 0.076722 0.250000
O O9 0.665974 0.098710 0.242849
O O10 0.607355 0.000000 0.250000
O O11 0.589339 0.057818 0.000000
O O12 0.179752 0.147251 0.235416
O O13 0.282459 0.144431 0.000000
O O14 0.086167 0.832209 0.500000
O O15 0.097015 0.764722 0.721854
O O16 0.000000 0.848698 0.750000
O O17 0.174889 0.568505 0.773711
O O18 0.095823 0.656886 0.743327
O O19 0.000000 0.573285 0.750000
O O20 0.081781 0.601801 0.000000
O O21 0.700996 0.500000 0.750000
O O22 0.718611 0.558811 0.500000
O O23 0.155963 0.293221 0.000000
#
# Coordination Sequence:
#
# PCOD9393087 Si02
#       8
#     8   8   8   8   8   8   8   8
#     4  11  21  36  58  88 123 158 197 240 293 355
#     4  12  25  43  67  92 120 154 192 241 296 358
#     4  11  22  39  63  91 121 159 202 252 305 359
#     4  10  21  38  58  87 124 164 206 251 299 354
#     4   9  19  32  50  79 117 158 200 244 290 344
#     4  11  23  37  58  86 118 152 194 241 292 353
#     4  11  25  45  66  89 116 151 194 244 297 354
#     4  10  19  33  54  81 115 156 197 238 291 347
#
# _framework density 18.774121999999998
#
# number of rings (size 3 to 8) (size 9 to 14) (size 15 to 20)
#    0.000    1.375    1.250    6.375    0.000    6.500 
#    0.000    5.000    0.000    0.375    0.000    2.625 
#    0.000    0.000    0.000    0.000    0.000    0.000 
#
# Total GULP energy -357670.606252 kJ/mol
# GULP energy per Si atom -5588.603223 kJ/mol
# Density = 1.873139 g / cm^3
# Si number density = 18.774122 Si / 1000 Ang^3
#
#
#
# Elastic Constant Matrix: (Units=GPa)
#
#
# Indices 1 2 3 4 5 6 
#
# 1 122.4793 57.6442 54.6341 0.0000 0.0000 0.0000
# 2 57.6442 81.5042 35.1118 0.0000 0.0000 0.0000
# 3 54.6341 35.1118 106.5899 0.0000 0.0000 0.0000
# 4 0.0000 0.0000 0.0000 63.7081 0.0000 0.0000
# 5 0.0000 0.0000 0.0000 0.0000 25.2451 0.0000
# 6 0.0000 0.0000 0.0000 0.0000 0.0000 2.3770
#
#
#
# Elastic Compliance Matrix: (Units=1/GPa)
#
#
# Indices 1 2 3 4 5 6 
#
# 1 0.013889 -0.007873 -0.004525 0.000000 0.000000 0.000000
# 2 -0.007873 0.018762 -0.002145 0.000000 0.000000 0.000000
# 3 -0.004525 -0.002145 0.012408 0.000000 0.000000 0.000000
# 4 0.000000 0.000000 0.000000 0.015697 0.000000 0.000000
# 5 0.000000 0.000000 0.000000 0.000000 0.039612 0.000000
# 6 0.000000 0.000000 0.000000 0.000000 0.000000 0.420696
#
#
# Mechanical properties :
#
#
# Convention : Reuss Voigt Hill
#
# Bulk Modulus (GPa) = 62.61168 67.26150 64.93659
# Shear Modulus (GPa) = 9.00134 29.14493 19.07314
#
# Velocity S-wave (km/s) = 2.19202 3.94432 3.19082
# Velocity P-wave (km/s) = 6.31102 7.52649 6.94540
#
# Compressibility (1/GPa) = 0.01597146
#
# Stress axis : x y z
#
# Youngs Moduli (GPa) = 72.00028 53.29990 80.59483
#
# Poissons Ratio (x) = 0.41965 0.36472
# Poissons Ratio (y) = 0.56689 0.17285
# Poissons Ratio (z) = 0.32582 0.11431
#
# Static dielectric constant tensor:
#      x y z
#    x 1.750460 0.000000 0.000000 
#    y 0.000000 1.628590 0.000000 
#    z 0.000000 0.000000 1.638820 
# 
# From -- ./inp_files/4413.got.cif
#   From: 2010.05.17/outbox.cif.g08.bks.cpg/sg49_3_cif.got.tgz:4413.got - 2010.06.03 21:02:19.
