data_PCOD9393039
_publ_section_title
;
Structure prediction by ZEFSAII (Michael W. Deem and Ramdas Pophale) SiO2 
 PCOD9393039
Probable space group: P C C M
;
_chemical_formula_sum "Si O2"
_cell_formula_units_Z 64
_cell_length_a 10.259778
_cell_length_b 17.513170
_cell_length_c 14.408175
_cell_angle_alpha 90.000000
_cell_angle_beta 90.000000
_cell_angle_gamma 90.000000
_cell_volume 2588.878696
_symmetry_space_group_name_H-M "P C C M"
_symmetry_group_IT_number 49
_symmetry_cell_setting 'orthorhombic'
loop_
_space_group_symop_operation_xyz
x,y,z
-x,-y,z
x,-y,1/2-z
-x,y,1/2-z
-x,-y,-z
x,y,-z
-x,y,1/2+z
x,-y,1/2+z
loop_
_atom_site_type_symbol
_atom_site_label
_atom_site_fract_x
_atom_site_fract_y
_atom_site_fract_z
Si Si1 0.774723 0.882080 0.886207
Si Si2 0.057750 0.838997 0.106105
Si Si3 0.791843 0.444730 0.111183
Si Si4 0.437640 0.666567 0.113839
Si Si5 0.710262 0.945357 0.613530
Si Si6 0.721028 0.388363 0.609520
Si Si7 0.501182 0.831588 0.113175
Si Si8 0.994769 0.675409 0.857239
O O1 0.651062 0.832063 0.856804
O O2 0.915840 0.855930 0.852037
O O3 0.743669 0.969004 0.858554
O O4 0.776894 0.878707 0.000000
O O5 0.177541 0.886591 0.145353
O O6 0.070009 0.747677 0.100922
O O7 0.050336 0.867406 0.000000
O O8 0.679077 0.387627 0.146045
O O9 0.769580 0.530058 0.148024
O O10 0.929908 0.403676 0.125638
O O11 0.778129 0.449511 0.000000
O O12 0.580500 0.637926 0.145310
O O13 0.427586 0.754793 0.141869
O O14 0.434781 0.665081 0.000000
O O15 0.706037 0.946841 0.500000
O O16 0.574299 0.907610 0.642713
O O17 0.698119 0.398479 0.500000
O O18 0.843685 0.331506 0.615765
O O19 0.501704 0.831417 0.000000
O O20 0.000000 0.690462 0.750000
#
# Coordination Sequence:
#
# PCOD9393039 Si02
#       8
#     8   8   8   8   8   8   8   8
#     4   9  16  26  44  73 105 134 166 208 259 311
#     4  10  19  33  53  74  99 133 175 222 266 310
#     4  10  20  36  59  84 109 139 177 221 268 319
#     4   9  17  31  54  85 114 139 172 216 266 317
#     4   9  16  26  44  73 105 134 166 208 259 311
#     4  10  20  36  59  84 109 139 177 221 268 319
#     4   9  15  23  39  68 108 141 160 194 254 317
#     4  12  25  38  53  76 109 146 183 224 268 318
#
# _framework density 24.721126999999999
#
# number of rings (size 3 to 8) (size 9 to 14) (size 15 to 20)
#    0.000    2.250    0.000    4.125    0.000   10.500 
#    0.000    0.625    0.000    3.000    0.000    0.000 
#    0.000    4.000    0.000    0.000    0.000    0.000 
#
# Total GULP energy -357984.594172 kJ/mol
# GULP energy per Si atom -5593.509284 kJ/mol
# Density = 2.466486 g / cm^3
# Si number density = 24.721127 Si / 1000 Ang^3
#
#
#
# Elastic Constant Matrix: (Units=GPa)
#
#
# Indices 1 2 3 4 5 6 
#
# 1 89.1060 21.7997 -15.3855 0.0000 0.0000 0.0000
# 2 21.7997 93.0942 -13.2831 0.0000 0.0000 0.0000
# 3 -15.3855 -13.2831 61.1344 0.0000 0.0000 0.0000
# 4 0.0000 0.0000 0.0000 0.5194 0.0000 0.0000
# 5 0.0000 0.0000 0.0000 0.0000 -3.8479 0.0000
# 6 0.0000 0.0000 0.0000 0.0000 0.0000 54.4838
#
#
#
# Elastic Compliance Matrix: (Units=1/GPa)
#
#
# Indices 1 2 3 4 5 6 
#
# 1 0.012276 -0.002512 0.002544 0.000000 0.000000 0.000000
# 2 -0.002512 0.011599 0.001888 0.000000 0.000000 0.000000
# 3 0.002544 0.001888 0.017408 0.000000 0.000000 0.000000
# 4 0.000000 0.000000 0.000000 1.925452 0.000000 0.000000
# 5 0.000000 0.000000 0.000000 0.000000 -0.259884 0.000000
# 6 0.000000 0.000000 0.000000 0.000000 0.000000 0.018354
#
#
# Mechanical properties :
#
#
# Convention : Reuss Voigt Hill
#
# Bulk Modulus (GPa) = 22.16119 25.51075 23.83597
# Shear Modulus (GPa) = 2.87951 26.91129 14.89540
#
# Velocity S-wave (km/s) = 1.08043 3.30297 2.45733
# Velocity P-wave (km/s) = 3.24659 4.98878 4.20882
#
# Compressibility (1/GPa) = 0.04512393
#
# Stress axis : x y z
#
# Youngs Moduli (GPa) = 81.45767 86.21141 57.44535
#
# Poissons Ratio (x) = 0.21654 -0.14613
# Poissons Ratio (y) = 0.20460 -0.10847
# Poissons Ratio (z) = -0.20721 -0.16278
#
# Static dielectric constant tensor:
#      x y z
#    x 1.944520 0.000000 0.000000 
#    y 0.000000 1.955030 0.000000 
#    z 0.000000 0.000000 2.005260 
# 
# From -- ./inp_files/19988.got.cif
#   From: 2010.05.17/outbox.cif.g08.bks.cpg/sg49_10_cif.got.tgz:19988.got - 2010.06.03 21:02:19.
