data_PCOD9393334
_publ_section_title
;
Structure prediction by ZEFSAII (Michael W. Deem and Ramdas Pophale) SiO2 
 PCOD9393334
Probable space group: P C C M
;
_chemical_formula_sum "Si O2"
_cell_formula_units_Z 48
_cell_length_a 5.281320
_cell_length_b 16.757036
_cell_length_c 32.870514
_cell_angle_alpha 90.000000
_cell_angle_beta 90.000000
_cell_angle_gamma 90.000000
_cell_volume 2909.016473
_symmetry_space_group_name_H-M "P C C M"
_symmetry_group_IT_number 49
_symmetry_cell_setting 'orthorhombic'
loop_
_space_group_symop_operation_xyz
x,y,z
-x,-y,z
x,-y,1/2-z
-x,y,1/2-z
-x,-y,-z
x,y,-z
-x,y,1/2+z
x,-y,1/2+z
loop_
_atom_site_type_symbol
_atom_site_label
_atom_site_fract_x
_atom_site_fract_y
_atom_site_fract_z
Si Si1 0.124994 0.697425 0.323666
Si Si2 0.253728 0.035328 0.296401
Si Si3 0.253669 0.465878 0.204504
Si Si4 0.605660 0.779540 0.704499
Si Si5 0.500104 0.596429 0.953916
Si Si6 0.000439 0.597349 0.405105
O O1 0.237861 0.628133 0.294704
O O2 0.357534 0.760927 0.323603
O O3 0.855195 0.728435 0.306981
O O4 0.067459 0.649237 0.365203
O O5 0.289925 0.129752 0.296067
O O6 0.500000 0.000000 0.317345
O O7 0.252725 0.000000 0.250000
O O8 0.000000 0.000000 0.315172
O O9 0.500000 0.500000 0.182467
O O10 0.258312 0.500000 0.250000
O O11 0.000000 0.500000 0.185727
O O12 0.500000 0.766545 0.750000
O O13 0.500000 0.500000 0.955381
O O14 0.272547 0.619671 0.923714
O O15 0.775080 0.617521 0.936670
O O16 0.458952 0.625395 0.000000
O O17 0.000000 0.500000 0.400211
#
# Coordination Sequence:
#
# PCOD9393334 Si02
#       6
#     8   8   8   8   8   8
#     4  12  25  36  51  71 103 136 176 217 274 308
#     4  10  19  36  56  74  93 116 156 220 268 318
#     4  10  22  36  47  60  82 125 180 228 258 280
#     4  12  25  37  53  76  97 129 175 229 264 304
#     4   9  17  31  55  79  96 121 170 223 263 307
#     4  10  20  35  51  71 104 140 172 215 265 316
#
# _framework density 16.500423000000001
#
# number of rings (size 3 to 8) (size 9 to 14) (size 15 to 20)
#    0.000    1.500    1.667    4.500    9.333    4.000 
#    0.000    0.000    0.000    0.000    0.000    0.000 
#    0.000    0.000    0.000    0.000    0.000  210.000 
#
# Total GULP energy -267464.284568 kJ/mol
# GULP energy per Si atom -5572.172595 kJ/mol
# Density = 1.646287 g / cm^3
# Si number density = 16.500423 Si / 1000 Ang^3
#
#
#
# Elastic Constant Matrix: (Units=GPa)
#
#
# Indices 1 2 3 4 5 6 
#
# 1 162.8953 40.8632 22.4181 0.0000 0.0000 0.0000
# 2 40.8632 82.6967 28.0880 0.0000 0.0000 0.0000
# 3 22.4181 28.0880 64.7323 0.0000 0.0000 0.0000
# 4 0.0000 0.0000 0.0000 8.0462 0.0000 0.0000
# 5 0.0000 0.0000 0.0000 0.0000 14.2750 0.0000
# 6 0.0000 0.0000 0.0000 0.0000 0.0000 32.2470
#
#
#
# Elastic Compliance Matrix: (Units=1/GPa)
#
#
# Indices 1 2 3 4 5 6 
#
# 1 0.007073 -0.003123 -0.001094 0.000000 0.000000 0.000000
# 2 -0.003123 0.015562 -0.005671 0.000000 0.000000 0.000000
# 3 -0.001094 -0.005671 0.018288 0.000000 0.000000 0.000000
# 4 0.000000 0.000000 0.000000 0.124282 0.000000 0.000000
# 5 0.000000 0.000000 0.000000 0.000000 0.070053 0.000000
# 6 0.000000 0.000000 0.000000 0.000000 0.000000 0.031011
#
#
# Mechanical properties :
#
#
# Convention : Reuss Voigt Hill
#
# Bulk Modulus (GPa) = 47.29052 54.78476 51.03764
# Shear Modulus (GPa) = 17.05941 25.51064 21.28502
#
# Velocity S-wave (km/s) = 3.21888 3.93626 3.59551
# Velocity P-wave (km/s) = 6.52207 7.34391 6.94515
#
# Compressibility (1/GPa) = 0.02114589
#
# Stress axis : x y z
#
# Youngs Moduli (GPa) = 141.38229 64.25989 54.68131
#
# Poissons Ratio (x) = 0.20071 0.05984
# Poissons Ratio (y) = 0.44159 0.31008
# Poissons Ratio (z) = 0.15471 0.36440
#
# Static dielectric constant tensor:
#      x y z
#    x 1.625980 0.000000 0.000000 
#    y 0.000000 1.583520 0.000000 
#    z 0.000000 0.000000 1.517920 
# 
# From -- ./inp_files/25773.got.cif
#   From: 2010.05.17/outbox.cif.g08.bks.cpg/sg49_13_cif.got.tgz:25773.got - 2010.06.03 21:02:19.
