data_PCOD9393081
_publ_section_title
;
Structure prediction by ZEFSAII (Michael W. Deem and Ramdas Pophale) SiO2 
 PCOD9393081
Probable space group: P C C M
;
_chemical_formula_sum "Si O2"
_cell_formula_units_Z 64
_cell_length_a 24.629094
_cell_length_b 15.626777
_cell_length_c 8.915314
_cell_angle_alpha 90.000000
_cell_angle_beta 90.000000
_cell_angle_gamma 90.000000
_cell_volume 3431.266852
_symmetry_space_group_name_H-M "P C C M"
_symmetry_group_IT_number 49
_symmetry_cell_setting 'orthorhombic'
loop_
_space_group_symop_operation_xyz
x,y,z
-x,-y,z
x,-y,1/2-z
-x,y,1/2-z
-x,-y,-z
x,y,-z
-x,y,1/2+z
x,-y,1/2+z
loop_
_atom_site_type_symbol
_atom_site_label
_atom_site_fract_x
_atom_site_fract_y
_atom_site_fract_z
Si Si1 0.364513 0.587703 0.827325
Si Si2 0.767847 0.412551 0.829334
Si Si3 0.634368 0.766060 0.821317
Si Si4 0.060730 0.585165 0.679842
Si Si5 0.059566 0.225403 0.180238
Si Si6 0.440645 0.909179 0.820164
Si Si7 0.762450 0.234837 0.679025
Si Si8 0.848000 0.906111 0.181278
O O1 0.382815 0.500000 0.750000
O O2 0.298415 0.585978 0.828109
O O3 0.380913 0.671163 0.734303
O O4 0.382184 0.593337 0.000000
O O5 0.785303 0.500000 0.750000
O O6 0.782259 0.323784 0.749899
O O7 0.786597 0.412385 0.000000
O O8 0.600012 0.835764 0.732579
O O9 0.698625 0.776688 0.788899
O O10 0.626323 0.774392 0.000000
O O11 0.086810 0.500000 0.750000
O O12 0.058064 0.575911 0.500000
O O13 0.083135 0.679716 0.716207
O O14 0.000000 0.588212 0.750000
O O15 0.099284 0.149263 0.226665
O O16 0.000000 0.216948 0.250000
O O17 0.054491 0.223014 0.000000
O O18 0.500000 0.891818 0.750000
O O19 0.422920 0.000000 0.750000
O O20 0.444083 0.914918 0.000000
O O21 0.768514 0.243452 0.500000
O O22 0.796959 0.152787 0.727304
O O23 0.847132 0.000000 0.250000
O O24 0.847804 0.912740 0.000000
#
# Coordination Sequence:
#
# PCOD9393081 Si02
#       8
#     8   8   8   8   8   8   8   8
#     4   9  16  27  45  73 106 142 181 222 264 309
#     4   9  16  27  47  74 105 139 176 215 258 307
#     4  10  19  33  54  81 109 142 181 220 263 316
#     4   9  15  25  44  71 100 130 159 194 240 295
#     4   9  19  35  55  77 103 133 169 211 257 308
#     4  11  22  38  58  81 109 141 177 222 271 320
#     4   9  19  35  54  76 107 142 177 217 263 313
#     4  10  22  40  57  75 101 135 172 218 271 319
#
# _framework density 18.652003000000001
#
# number of rings (size 3 to 8) (size 9 to 14) (size 15 to 20)
#    0.000    2.500    0.000    3.375    0.000    5.750 
#    0.000    3.125    0.000    1.875    0.000    2.625 
#    0.000    0.000    0.000    0.000    0.000    0.000 
#
# Total GULP energy -357085.521983 kJ/mol
# GULP energy per Si atom -5579.461281 kJ/mol
# Density = 1.860955 g / cm^3
# Si number density = 18.652003 Si / 1000 Ang^3
#
#
#
# Elastic Constant Matrix: (Units=GPa)
#
#
# Indices 1 2 3 4 5 6 
#
# 1 47.4778 70.7405 47.0512 0.0000 0.0000 0.0000
# 2 70.7405 213.6093 76.8360 0.0000 0.0000 0.0000
# 3 47.0512 76.8360 85.3955 0.0000 0.0000 0.0000
# 4 0.0000 0.0000 0.0000 40.3814 0.0000 0.0000
# 5 0.0000 0.0000 0.0000 0.0000 7.3790 0.0000
# 6 0.0000 0.0000 0.0000 0.0000 0.0000 62.2065
#
#
#
# Elastic Compliance Matrix: (Units=1/GPa)
#
#
# Indices 1 2 3 4 5 6 
#
# 1 0.062622 -0.012312 -0.023425 0.000000 0.000000 0.000000
# 2 -0.012312 0.009342 -0.001622 0.000000 0.000000 0.000000
# 3 -0.023425 -0.001622 0.026077 0.000000 0.000000 0.000000
# 4 0.000000 0.000000 0.000000 0.024764 0.000000 0.000000
# 5 0.000000 0.000000 0.000000 0.000000 0.135520 0.000000
# 6 0.000000 0.000000 0.000000 0.000000 0.000000 0.016076
#
#
# Mechanical properties :
#
#
# Convention : Reuss Voigt Hill
#
# Bulk Modulus (GPa) = 42.87856 81.74865 62.31360
# Shear Modulus (GPa) = 14.00974 32.11703 23.06338
#
# Velocity S-wave (km/s) = 2.74362 4.15409 3.52022
# Velocity P-wave (km/s) = 5.75110 8.18120 7.07133
#
# Compressibility (1/GPa) = 0.02332168
#
# Stress axis : x y z
#
# Youngs Moduli (GPa) = 15.96874 107.03948 38.34835
#
# Poissons Ratio (x) = 1.31790 0.89833
# Poissons Ratio (y) = 0.19661 0.06221
# Poissons Ratio (z) = 0.37408 0.17363
#
# Static dielectric constant tensor:
#      x y z
#    x 1.657710 0.000000 0.000000 
#    y 0.000000 1.639890 0.000000 
#    z 0.000000 0.000000 1.629850 
# 
# From -- ./inp_files/6504.got.cif
#   From: 2010.05.17/outbox.cif.g08.bks.cpg/sg49_4_cif.got.tgz:6504.got - 2010.06.03 21:02:19.
