data_PCOD9393191
_publ_section_title
;
Structure prediction by ZEFSAII (Michael W. Deem and Ramdas Pophale) SiO2 
 PCOD9393191
Probable space group: P C C M
;
_chemical_formula_sum "Si O2"
_cell_formula_units_Z 64
_cell_length_a 11.650599
_cell_length_b 16.445063
_cell_length_c 18.117562
_cell_angle_alpha 90.000000
_cell_angle_beta 90.000000
_cell_angle_gamma 90.000000
_cell_volume 3471.231294
_symmetry_space_group_name_H-M "P C C M"
_symmetry_group_IT_number 49
_symmetry_cell_setting 'orthorhombic'
loop_
_space_group_symop_operation_xyz
x,y,z
-x,-y,z
x,-y,1/2-z
-x,y,1/2-z
-x,-y,-z
x,y,-z
-x,y,1/2+z
x,-y,1/2+z
loop_
_atom_site_type_symbol
_atom_site_label
_atom_site_fract_x
_atom_site_fract_y
_atom_site_fract_z
Si Si1 0.111228 0.303759 0.915438
Si Si2 0.845787 0.260299 0.082716
Si Si3 0.677668 0.188673 0.807621
Si Si4 0.509988 0.344053 0.169503
Si Si5 0.122154 0.532042 0.333946
Si Si6 0.325357 0.213302 0.136817
Si Si7 0.698666 0.572463 0.416402
Si Si8 0.522125 0.095742 0.917196
O O1 0.125116 0.372886 0.852817
O O2 0.205467 0.234536 0.901016
O O3 0.981090 0.272715 0.910022
O O4 0.125987 0.335839 0.000000
O O5 0.793312 0.206591 0.147757
O O6 0.780351 0.347201 0.086945
O O7 0.821356 0.228043 0.000000
O O8 0.596605 0.268043 0.817405
O O9 0.691721 0.180400 0.720284
O O10 0.608800 0.119907 0.851839
O O11 0.500000 0.383666 0.250000
O O12 0.395241 0.299322 0.142240
O O13 0.574629 0.402664 0.113847
O O14 0.122600 0.500000 0.250000
O O15 0.234309 0.493708 0.369890
O O16 0.000000 0.500000 0.366368
O O17 0.407385 0.149222 0.095807
O O18 0.690382 0.545541 0.500000
O O19 0.500000 0.000000 0.914636
O O20 0.565646 0.116504 0.000000
#
# Coordination Sequence:
#
# PCOD9393191 Si02
#       8
#     8   8   8   8   8   8   8   8
#     4  11  23  37  56  80 112 152 191 240 296 343
#     4   9  18  32  54  81 110 144 187 235 281 337
#     4   9  18  32  55  84 112 144 185 232 276 328
#     4   8  17  32  53  75 104 140 179 225 276 330
#     4  11  24  36  55  80 109 145 190 246 294 346
#     4  10  21  35  56  83 116 148 187 235 282 342
#     4  10  19  34  56  78 101 137 187 236 285 337
#     4  10  20  36  60  89 120 153 187 226 277 339
#
# _framework density 18.437262
#
# number of rings (size 3 to 8) (size 9 to 14) (size 15 to 20)
#    0.000    2.250    1.250    2.250    5.250    5.500 
#    0.000    0.625    0.000    2.250    0.000    5.250 
#    0.000    0.000    0.000    0.000    0.000    0.000 
#
# Total GULP energy -356940.319321 kJ/mol
# GULP energy per Si atom -5577.192489 kJ/mol
# Density = 1.839530 g / cm^3
# Si number density = 18.437262 Si / 1000 Ang^3
#
#
#
# Elastic Constant Matrix: (Units=GPa)
#
#
# Indices 1 2 3 4 5 6 
#
# 1 84.3483 21.1589 40.6920 0.0000 0.0000 0.0000
# 2 21.1589 42.6801 22.9258 0.0000 0.0000 0.0000
# 3 40.6920 22.9258 95.4124 0.0000 0.0000 0.0000
# 4 0.0000 0.0000 0.0000 22.7397 0.0000 0.0000
# 5 0.0000 0.0000 0.0000 0.0000 35.1019 0.0000
# 6 0.0000 0.0000 0.0000 0.0000 0.0000 41.0446
#
#
#
# Elastic Compliance Matrix: (Units=1/GPa)
#
#
# Indices 1 2 3 4 5 6 
#
# 1 0.015746 -0.004821 -0.005557 0.000000 0.000000 0.000000
# 2 -0.004821 0.028379 -0.004763 0.000000 0.000000 0.000000
# 3 -0.005557 -0.004763 0.013995 0.000000 0.000000 0.000000
# 4 0.000000 0.000000 0.000000 0.043976 0.000000 0.000000
# 5 0.000000 0.000000 0.000000 0.000000 0.028489 0.000000
# 6 0.000000 0.000000 0.000000 0.000000 0.000000 0.024364
#
#
# Mechanical properties :
#
#
# Convention : Reuss Voigt Hill
#
# Bulk Modulus (GPa) = 35.92215 43.55491 39.73853
# Shear Modulus (GPa) = 25.70581 28.95484 27.33032
#
# Velocity S-wave (km/s) = 3.73799 3.96719 3.85430
# Velocity P-wave (km/s) = 6.17704 6.68277 6.43488
#
# Compressibility (1/GPa) = 0.02783797
#
# Stress axis : x y z
#
# Youngs Moduli (GPa) = 63.50895 35.23792 71.45333
#
# Poissons Ratio (x) = 0.16989 0.39706
# Poissons Ratio (y) = 0.30619 0.34031
# Poissons Ratio (z) = 0.35291 0.16783
#
# Static dielectric constant tensor:
#      x y z
#    x 1.641610 0.000000 0.000000 
#    y 0.000000 1.617350 0.000000 
#    z 0.000000 0.000000 1.665560 
# 
# From -- ./inp_files/17287.got.cif
#   From: 2010.05.17/outbox.cif.g08.bks.cpg/sg49_9_cif.got.tgz:17287.got - 2010.06.03 21:02:19.
