data_PCOD9393796
_publ_section_title
;
Structure prediction by ZEFSAII (Michael W. Deem and Ramdas Pophale) SiO2 
 PCOD9393796
Probable space group: P C C M
;
_chemical_formula_sum "Si O2"
_cell_formula_units_Z 32
_cell_length_a 14.492835
_cell_length_b 14.408060
_cell_length_c 7.952168
_cell_angle_alpha 90.000000
_cell_angle_beta 90.000000
_cell_angle_gamma 90.000000
_cell_volume 1660.521116
_symmetry_space_group_name_H-M "P C C M"
_symmetry_group_IT_number 49
_symmetry_cell_setting 'orthorhombic'
loop_
_space_group_symop_operation_xyz
x,y,z
-x,-y,z
x,-y,1/2-z
-x,y,1/2-z
-x,-y,-z
x,y,-z
-x,y,1/2+z
x,-y,1/2+z
loop_
_atom_site_type_symbol
_atom_site_label
_atom_site_fract_x
_atom_site_fract_y
_atom_site_fract_z
Si Si1 0.392889 0.103703 0.200596
Si Si2 0.249543 0.751740 0.308013
Si Si3 0.103750 0.392362 0.799426
Si Si4 0.896517 0.893442 0.300290
O O1 0.500000 0.109008 0.250000
O O2 0.336236 0.192489 0.270186
O O3 0.358794 0.000000 0.250000
O O4 0.385296 0.107695 0.000000
O O5 0.274541 0.725434 0.500000
O O6 0.190807 0.666607 0.229960
O O7 0.173150 0.832072 0.304563
O O8 0.111282 0.500000 0.750000
O O9 0.000000 0.360689 0.750000
O O10 0.107605 0.384366 0.000000
O O11 0.882547 0.881311 0.500000
O O12 0.000000 0.867437 0.250000
O O13 0.884396 0.000000 0.250000
#
# Coordination Sequence:
#
# PCOD9393796 Si02
#       4
#     8   8   8   8
#     4  10  20  35  54  77 105 136 171 212 257 306
#     4  10  21  35  52  75 102 132 170 214 257 304
#     4  10  20  35  54  77 105 136 171 212 257 306
#     4  11  21  32  47  68  99 135 169 204 246 299
#
# _framework density 19.271059999999999
#
# number of rings (size 3 to 8) (size 9 to 14) (size 15 to 20)
#    0.000    1.750    0.000    7.500    0.000    8.000 
#    0.000    0.000    0.000    0.750    0.000    5.250 
#    0.000    0.000    0.000    0.000    0.000    0.000 
#
# Total GULP energy -178419.944725 kJ/mol
# GULP energy per Si atom -5575.623273 kJ/mol
# Density = 1.922720 g / cm^3
# Si number density = 19.271060 Si / 1000 Ang^3
#
#
#
# Elastic Constant Matrix: (Units=GPa)
#
#
# Indices 1 2 3 4 5 6 
#
# 1 81.2865 56.6644 -5.7292 0.0000 0.0000 0.0000
# 2 56.6644 102.8071 1.7977 0.0000 0.0000 0.0000
# 3 -5.7292 1.7977 62.6056 0.0000 0.0000 0.0000
# 4 0.0000 0.0000 0.0000 45.6181 0.0000 0.0000
# 5 0.0000 0.0000 0.0000 0.0000 88.3429 0.0000
# 6 0.0000 0.0000 0.0000 0.0000 0.0000 42.1834
#
#
#
# Elastic Compliance Matrix: (Units=1/GPa)
#
#
# Indices 1 2 3 4 5 6 
#
# 1 0.020270 -0.011211 0.002177 0.000000 0.000000 0.000000
# 2 -0.011211 0.015932 -0.001483 0.000000 0.000000 0.000000
# 3 0.002177 -0.001483 0.016215 0.000000 0.000000 0.000000
# 4 0.000000 0.000000 0.000000 0.021921 0.000000 0.000000
# 5 0.000000 0.000000 0.000000 0.000000 0.011320 0.000000
# 6 0.000000 0.000000 0.000000 0.000000 0.000000 0.023706
#
#
# Mechanical properties :
#
#
# Convention : Reuss Voigt Hill
#
# Bulk Modulus (GPa) = 31.86439 39.12945 35.49692
# Shear Modulus (GPa) = 35.49655 48.15996 41.82825
#
# Velocity S-wave (km/s) = 4.29646 5.00451 4.66394
# Velocity P-wave (km/s) = 6.41744 7.33091 6.88933
#
# Compressibility (1/GPa) = 0.03138300
#
# Stress axis : x y z
#
# Youngs Moduli (GPa) = 49.33303 62.76742 61.67197
#
# Poissons Ratio (x) = 0.70366 -0.13425
# Poissons Ratio (y) = 0.55305 0.09148
# Poissons Ratio (z) = -0.10739 0.09311
#
# Static dielectric constant tensor:
#      x y z
#    x 1.705060 0.000000 0.000000 
#    y 0.000000 1.706240 0.000000 
#    z 0.000000 0.000000 1.700890 
# 
# From -- ./inp_files/3332.got.cif
#   From: 2010.05.17/outbox.cif.g08.bks.cpg/sg49_2_cif.got.tgz:3332.got - 2010.06.03 21:02:19.
