data_PCOD9393607
_publ_section_title
;
Structure prediction by ZEFSAII (Michael W. Deem and Ramdas Pophale) SiO2 
 PCOD9393607
Probable space group: P C C M
;
_chemical_formula_sum "Si O2"
_cell_formula_units_Z 64
_cell_length_a 20.307864
_cell_length_b 20.371403
_cell_length_c 8.688168
_cell_angle_alpha 90.000000
_cell_angle_beta 90.000000
_cell_angle_gamma 90.000000
_cell_volume 3594.292335
_symmetry_space_group_name_H-M "P C C M"
_symmetry_group_IT_number 49
_symmetry_cell_setting 'orthorhombic'
loop_
_space_group_symop_operation_xyz
x,y,z
-x,-y,z
x,-y,1/2-z
-x,y,1/2-z
-x,-y,-z
x,y,-z
-x,y,1/2+z
x,-y,1/2+z
loop_
_atom_site_type_symbol
_atom_site_label
_atom_site_fract_x
_atom_site_fract_y
_atom_site_fract_z
Si Si1 0.284365 0.931360 0.685399
Si Si2 0.289609 0.432467 0.184588
Si Si3 0.383684 0.754351 0.682974
Si Si4 0.821246 0.328677 0.684827
Si Si5 0.073760 0.570677 0.184723
Si Si6 0.568496 0.101351 0.318719
Si Si7 0.244406 0.794159 0.182471
Si Si8 0.431407 0.611397 0.684621
O O1 0.284339 0.930579 0.500000
O O2 0.361124 0.925019 0.740105
O O3 0.246601 0.867062 0.745486
O O4 0.258334 0.000000 0.750000
O O5 0.262419 0.500000 0.250000
O O6 0.243806 0.371360 0.225866
O O7 0.364470 0.422726 0.240555
O O8 0.290954 0.435751 0.000000
O O9 0.367119 0.750055 0.500000
O O10 0.425562 0.820126 0.705410
O O11 0.315767 0.764006 0.772833
O O12 0.421103 0.688153 0.725892
O O13 0.827211 0.327229 0.500000
O O14 0.880958 0.369907 0.756681
O O15 0.809230 0.255715 0.748097
O O16 0.097509 0.500000 0.250000
O O17 0.000000 0.579090 0.250000
O O18 0.072914 0.567958 0.000000
O O19 0.500000 0.077339 0.250000
O O20 0.566767 0.088486 0.500000
O O21 0.237657 0.798142 0.000000
O O22 0.500000 0.586458 0.750000
O O23 0.433581 0.606638 0.500000
#
# Coordination Sequence:
#
# PCOD9393607 Si02
#       8
#     8   8   8   8   8   8   8   8
#     4  10  21  37  53  72 101 137 173 218 274 333
#     4  10  22  37  53  71  98 132 172 220 275 329
#     4   9  17  33  49  65  94 126 162 211 272 331
#     4  11  21  38  60  82 112 149 185 232 279 321
#     4  11  22  38  59  89 125 164 202 234 274 326
#     4   9  18  29  45  66  91 123 160 207 263 328
#     4  11  21  33  54  82 106 134 176 223 270 327
#     4  10  20  34  49  67  90 124 165 217 278 337
#
# _framework density 17.806007999999999
#
# number of rings (size 3 to 8) (size 9 to 14) (size 15 to 20)
#    0.000    1.875    1.250    4.875    0.000    6.000 
#    0.000    2.500    0.000    0.000    0.000    0.000 
#    0.000    0.500    0.000    5.000    0.000    3.000 
#
# Total GULP energy -357354.167882 kJ/mol
# GULP energy per Si atom -5583.658873 kJ/mol
# Density = 1.776548 g / cm^3
# Si number density = 17.806008 Si / 1000 Ang^3
#
#
#
# Elastic Constant Matrix: (Units=GPa)
#
#
# Indices 1 2 3 4 5 6 
#
# 1 75.5624 43.8317 38.7858 0.0000 0.0000 0.0000
# 2 43.8317 131.4849 52.2245 0.0000 0.0000 0.0000
# 3 38.7858 52.2245 66.4168 0.0000 0.0000 0.0000
# 4 0.0000 0.0000 0.0000 68.0028 0.0000 0.0000
# 5 0.0000 0.0000 0.0000 0.0000 23.3586 0.0000
# 6 0.0000 0.0000 0.0000 0.0000 0.0000 34.1555
#
#
#
# Elastic Compliance Matrix: (Units=1/GPa)
#
#
# Indices 1 2 3 4 5 6 
#
# 1 0.019629 -0.002895 -0.009187 0.000000 0.000000 0.000000
# 2 -0.002895 0.011486 -0.007342 0.000000 0.000000 0.000000
# 3 -0.009187 -0.007342 0.026194 0.000000 0.000000 0.000000
# 4 0.000000 0.000000 0.000000 0.014705 0.000000 0.000000
# 5 0.000000 0.000000 0.000000 0.000000 0.042811 0.000000
# 6 0.000000 0.000000 0.000000 0.000000 0.000000 0.029278
#
#
# Mechanical properties :
#
#
# Convention : Reuss Voigt Hill
#
# Bulk Modulus (GPa) = 54.16089 60.34979 57.25534
# Shear Modulus (GPa) = 26.44066 34.34485 30.39275
#
# Velocity S-wave (km/s) = 3.85766 4.39661 4.13592
# Velocity P-wave (km/s) = 7.09403 7.72917 7.41840
#
# Compressibility (1/GPa) = 0.01846351
#
# Stress axis : x y z
#
# Youngs Moduli (GPa) = 50.94611 87.05996 38.17677
#
# Poissons Ratio (x) = 0.25200 0.35072
# Poissons Ratio (y) = 0.14747 0.28028
# Poissons Ratio (z) = 0.46802 0.63915
#
# Static dielectric constant tensor:
#      x y z
#    x 1.603510 0.000000 0.000000 
#    y 0.000000 1.622760 0.000000 
#    z 0.000000 0.000000 1.624520 
# 
# From -- ./inp_files/6076.got.cif
#   From: 2010.05.17/outbox.cif.g08.bks.cpg/sg49_4_cif.got.tgz:6076.got - 2010.06.03 21:02:19.
