data_PCOD9393452
_publ_section_title
;
Structure prediction by ZEFSAII (Michael W. Deem and Ramdas Pophale) SiO2 
 PCOD9393452
Probable space group: P C C M
;
_chemical_formula_sum "Si O2"
_cell_formula_units_Z 64
_cell_length_a 11.878729
_cell_length_b 18.751496
_cell_length_c 14.310725
_cell_angle_alpha 90.000000
_cell_angle_beta 90.000000
_cell_angle_gamma 90.000000
_cell_volume 3187.627261
_symmetry_space_group_name_H-M "P C C M"
_symmetry_group_IT_number 49
_symmetry_cell_setting 'orthorhombic'
loop_
_space_group_symop_operation_xyz
x,y,z
-x,-y,z
x,-y,1/2-z
-x,y,1/2-z
-x,-y,-z
x,y,-z
-x,y,1/2+z
x,-y,1/2+z
loop_
_atom_site_type_symbol
_atom_site_label
_atom_site_fract_x
_atom_site_fract_y
_atom_site_fract_z
Si Si1 0.700138 0.634005 0.603495
Si Si2 0.470575 0.077000 0.892776
Si Si3 0.720621 0.865847 0.392674
Si Si4 0.270740 0.738785 0.253631
Si Si5 0.626567 0.514719 0.139400
Si Si6 0.128449 0.000832 0.887176
Si Si7 0.566748 0.328880 0.394239
Si Si8 0.244389 0.850459 0.611669
O O1 0.733133 0.660376 0.500000
O O2 0.759976 0.668772 0.693163
O O3 0.704985 0.548191 0.602628
O O4 0.566273 0.653972 0.616440
O O5 0.588841 0.115857 0.894905
O O6 0.370607 0.125910 0.855009
O O7 0.500000 0.000000 0.850848
O O8 0.431828 0.061518 0.000000
O O9 0.755634 0.850978 0.500000
O O10 0.728113 0.798181 0.326763
O O11 0.792434 0.934561 0.358028
O O12 0.383771 0.719258 0.312013
O O13 0.202756 0.779937 0.335122
O O14 0.500000 0.500000 0.104365
O O15 0.625363 0.500000 0.250000
O O16 0.638606 0.597512 0.115176
O O17 0.176111 0.078448 0.864749
O O18 0.129202 0.996383 0.000000
O O19 0.000000 0.000000 0.855526
O O20 0.581114 0.299869 0.500000
O O21 0.242781 0.839178 0.500000
#
# Coordination Sequence:
#
# PCOD9393452 Si02
#       8
#     8   8   8   8   8   8   8   8
#     4  10  20  32  46  66  95 135 181 224 263 301
#     4   9  16  31  51  67  96 131 163 207 257 312
#     4  10  21  35  51  74 101 134 172 216 269 316
#     4  12  23  32  44  68 100 136 169 218 258 315
#     4   9  15  29  49  66  89 127 180 233 260 288
#     4   9  18  38  64  81  97 128 176 230 276 319
#     4  10  20  32  46  66  95 135 181 224 263 301
#     4  10  21  35  51  74 101 134 172 216 269 316
#
# _framework density 20.077629999999999
#
# number of rings (size 3 to 8) (size 9 to 14) (size 15 to 20)
#    0.000    2.125    2.500    1.500    3.500    2.000 
#    0.000    1.875    0.000    0.000    0.000    0.000 
#    0.000    0.000    0.000    9.000    0.000   70.500 
#
# Total GULP energy -356561.610771 kJ/mol
# GULP energy per Si atom -5571.275168 kJ/mol
# Density = 2.003193 g / cm^3
# Si number density = 20.077630 Si / 1000 Ang^3
#
#
#
# Elastic Constant Matrix: (Units=GPa)
#
#
# Indices 1 2 3 4 5 6 
#
# 1 51.8897 20.6158 6.0217 0.0000 0.0000 0.0000
# 2 20.6158 95.7242 28.1591 0.0000 0.0000 0.0000
# 3 6.0217 28.1591 120.0161 0.0000 0.0000 0.0000
# 4 0.0000 0.0000 0.0000 36.2538 0.0000 0.0000
# 5 0.0000 0.0000 0.0000 0.0000 13.2849 0.0000
# 6 0.0000 0.0000 0.0000 0.0000 0.0000 1.2260
#
#
#
# Elastic Compliance Matrix: (Units=1/GPa)
#
#
# Indices 1 2 3 4 5 6 
#
# 1 0.021075 -0.004541 0.000008 0.000000 0.000000 0.000000
# 2 -0.004541 0.012200 -0.002635 0.000000 0.000000 0.000000
# 3 0.000008 -0.002635 0.008950 0.000000 0.000000 0.000000
# 4 0.000000 0.000000 0.000000 0.027583 0.000000 0.000000
# 5 0.000000 0.000000 0.000000 0.000000 0.075274 0.000000
# 6 0.000000 0.000000 0.000000 0.000000 0.000000 0.815677
#
#
# Mechanical properties :
#
#
# Convention : Reuss Voigt Hill
#
# Bulk Modulus (GPa) = 35.85612 41.91368 38.88490
# Shear Modulus (GPa) = 5.07928 24.34182 14.71055
#
# Velocity S-wave (km/s) = 1.59227 3.48571 2.70975
# Velocity P-wave (km/s) = 4.61280 6.09273 5.40367
#
# Compressibility (1/GPa) = 0.02788924
#
# Stress axis : x y z
#
# Youngs Moduli (GPa) = 47.44976 81.96921 111.73253
#
# Poissons Ratio (x) = 0.37224 -0.00090
# Poissons Ratio (y) = 0.21548 0.29436
# Poissons Ratio (z) = -0.00038 0.21595
#
# Static dielectric constant tensor:
#      x y z
#    x 1.680560 0.000000 0.000000 
#    y 0.000000 1.897250 0.000000 
#    z 0.000000 0.000000 1.805700 
# 
# From -- ./inp_files/13116.got.cif
#   From: 2010.05.17/outbox.cif.g08.bks.cpg/sg49_7_cif.got.tgz:13116.got - 2010.06.03 21:02:19.
