data_PCOD9393462
_publ_section_title
;
Structure prediction by ZEFSAII (Michael W. Deem and Ramdas Pophale) SiO2 
 PCOD9393462
Probable space group: P C C M
;
_chemical_formula_sum "Si O2"
_cell_formula_units_Z 40
_cell_length_a 16.072445
_cell_length_b 15.445017
_cell_length_c 8.776242
_cell_angle_alpha 90.000000
_cell_angle_beta 90.000000
_cell_angle_gamma 90.000000
_cell_volume 2178.607172
_symmetry_space_group_name_H-M "P C C M"
_symmetry_group_IT_number 49
_symmetry_cell_setting 'orthorhombic'
loop_
_space_group_symop_operation_xyz
x,y,z
-x,-y,z
x,-y,1/2-z
-x,y,1/2-z
-x,-y,-z
x,y,-z
-x,y,1/2+z
x,-y,1/2+z
loop_
_atom_site_type_symbol
_atom_site_label
_atom_site_fract_x
_atom_site_fract_y
_atom_site_fract_z
Si Si1 0.088000 0.403544 0.317054
Si Si2 0.235324 0.288663 0.816237
Si Si3 0.415322 0.110175 0.328557
Si Si4 0.586901 0.318213 0.827668
Si Si5 0.241209 0.089075 0.820661
O O1 0.098781 0.500000 0.250000
O O2 0.084708 0.406503 0.500000
O O3 0.163520 0.345491 0.258508
O O4 0.000000 0.370928 0.250000
O O5 0.325709 0.325305 0.762743
O O6 0.219377 0.187504 0.768836
O O7 0.232814 0.291533 0.000000
O O8 0.500000 0.084658 0.250000
O O9 0.403889 0.076127 0.500000
O O10 0.420148 0.214182 0.340010
O O11 0.338561 0.088234 0.221553
O O12 0.500000 0.348431 0.750000
O O13 0.594051 0.353413 0.000000
O O14 0.204860 0.000000 0.750000
O O15 0.227820 0.085135 0.000000
#
# Coordination Sequence:
#
# PCOD9393462 Si02
#       5
#     8   8   8   8   8
#     4  11  22  39  64  93 121 145 172 214 269 330
#     4  10  20  35  55  81 112 148 187 229 277 329
#     4   9  16  26  40  59  88 126 174 227 278 324
#     4   9  16  27  45  71 103 143 187 231 275 322
#     4  10  20  32  47  68  99 138 182 227 270 317
#
# _framework density 18.360354000000001
#
# number of rings (size 3 to 8) (size 9 to 14) (size 15 to 20)
#    0.000    2.200    0.000    4.800    0.000    7.600 
#    0.000    2.000    0.000    1.200    0.000    8.400 
#    0.000    0.000    0.000    0.000    0.000    0.000 
#
# Total GULP energy -222871.227393 kJ/mol
# GULP energy per Si atom -5571.780685 kJ/mol
# Density = 1.831857 g / cm^3
# Si number density = 18.360354 Si / 1000 Ang^3
#
#
#
# Elastic Constant Matrix: (Units=GPa)
#
#
# Indices 1 2 3 4 5 6 
#
# 1 123.5207 59.7895 57.8721 0.0000 0.0000 0.0000
# 2 59.7895 50.0154 31.4803 0.0000 0.0000 0.0000
# 3 57.8721 31.4803 100.5275 0.0000 0.0000 0.0000
# 4 0.0000 0.0000 0.0000 24.0854 0.0000 0.0000
# 5 0.0000 0.0000 0.0000 0.0000 25.8327 0.0000
# 6 0.0000 0.0000 0.0000 0.0000 0.0000 -455.4244
#
#
#
# Elastic Compliance Matrix: (Units=1/GPa)
#
#
# Indices 1 2 3 4 5 6 
#
# 1 0.021289 -0.022090 -0.005339 0.000000 0.000000 0.000000
# 2 -0.022090 0.047822 -0.002259 0.000000 0.000000 0.000000
# 3 -0.005339 -0.002259 0.013728 0.000000 0.000000 0.000000
# 4 0.000000 0.000000 0.000000 0.041519 0.000000 0.000000
# 5 0.000000 0.000000 0.000000 0.000000 0.038711 0.000000
# 6 0.000000 0.000000 0.000000 0.000000 0.000000 -0.002196
#
#
# Mechanical properties :
#
#
# Convention : Reuss Voigt Hill
#
# Bulk Modulus (GPa) = 42.61577 63.59417 53.10497
# Shear Modulus (GPa) = 21.92312 -72.77316 -25.42502
#
# Velocity S-wave (km/s) = 3.45925 -6.30255 -3.72530
# Velocity P-wave (km/s) = 6.26229 4.27211 3.23770
#
# Compressibility (1/GPa) = 0.02346549
#
# Stress axis : x y z
#
# Youngs Moduli (GPa) = 46.97163 20.91086 72.84258
#
# Poissons Ratio (x) = 0.46191 0.38888
# Poissons Ratio (y) = 1.03759 0.16454
# Poissons Ratio (z) = 0.25076 0.04723
#
# Static dielectric constant tensor:
#      x y z
#    x 1.604190 0.000000 0.000000 
#    y 0.000000 1.692300 0.000000 
#    z 0.000000 0.000000 1.642080 
# 
# From -- ./inp_files/3434.got.cif
#   From: 2010.05.17/outbox.cif.g08.bks.cpg/sg49_2_cif.got.tgz:3434.got - 2010.06.03 21:02:19.
