data_PCOD9393210
_publ_section_title
;
Structure prediction by ZEFSAII (Michael W. Deem and Ramdas Pophale) SiO2 
 PCOD9393210
Probable space group: P C C M
;
_chemical_formula_sum "Si O2"
_cell_formula_units_Z 40
_cell_length_a 15.881030
_cell_length_b 14.840364
_cell_length_c 8.693501
_cell_angle_alpha 90.000000
_cell_angle_beta 90.000000
_cell_angle_gamma 90.000000
_cell_volume 2048.886627
_symmetry_space_group_name_H-M "P C C M"
_symmetry_group_IT_number 49
_symmetry_cell_setting 'orthorhombic'
loop_
_space_group_symop_operation_xyz
x,y,z
-x,-y,z
x,-y,1/2-z
-x,y,1/2-z
-x,-y,-z
x,y,-z
-x,y,1/2+z
x,-y,1/2+z
loop_
_atom_site_type_symbol
_atom_site_label
_atom_site_fract_x
_atom_site_fract_y
_atom_site_fract_z
Si Si1 0.411410 0.712680 0.815006
Si Si2 0.156294 0.906678 0.684232
Si Si3 0.089721 0.711646 0.684132
Si Si4 0.753404 0.399493 0.814958
Si Si5 0.654116 0.094012 0.815272
O O1 0.500000 0.680204 0.750000
O O2 0.331461 0.653195 0.766664
O O3 0.394901 0.816255 0.766487
O O4 0.414544 0.711258 0.000000
O O5 0.162625 0.913163 0.500000
O O6 0.105814 0.816659 0.724874
O O7 0.250248 0.897389 0.753665
O O8 0.120294 0.000000 0.750000
O O9 0.090351 0.703859 0.500000
O O10 0.165938 0.654131 0.752912
O O11 0.000000 0.682472 0.750000
O O12 0.752821 0.500000 0.750000
O O13 0.756173 0.401045 0.000000
O O14 0.619619 0.000000 0.750000
O O15 0.656242 0.089898 0.000000
#
# Coordination Sequence:
#
# PCOD9393210 Si02
#       5
#     8   8   8   8   8
#     4  10  23  40  62  90 124 162 202 250 303 360
#     4  10  20  34  57  88 122 163 206 247 297 354
#     4  11  24  41  64  94 125 163 205 251 304 362
#     4  11  24  45  68  92 122 157 200 254 311 368
#     4  10  19  34  56  86 121 162 205 247 298 353
#
# _framework density 19.522798999999999
#
# number of rings (size 3 to 8) (size 9 to 14) (size 15 to 20)
#    0.000    1.600    2.000    3.600    0.000    7.200 
#    0.000    8.000    0.000    0.000    0.000    0.000 
#    0.000    0.000    0.000    0.000    0.000    0.000 
#
# Total GULP energy -223589.312600 kJ/mol
# GULP energy per Si atom -5589.732815 kJ/mol
# Density = 1.947836 g / cm^3
# Si number density = 19.522799 Si / 1000 Ang^3
#
#
#
# Elastic Constant Matrix: (Units=GPa)
#
#
# Indices 1 2 3 4 5 6 
#
# 1 160.0177 85.6476 41.7270 0.0000 0.0000 0.0000
# 2 85.6476 150.6486 48.6626 0.0000 0.0000 0.0000
# 3 41.7270 48.6626 52.3093 0.0000 0.0000 0.0000
# 4 0.0000 0.0000 0.0000 33.0229 0.0000 0.0000
# 5 0.0000 0.0000 0.0000 0.0000 22.3220 0.0000
# 6 0.0000 0.0000 0.0000 0.0000 0.0000 -6.6972
#
#
#
# Elastic Compliance Matrix: (Units=1/GPa)
#
#
# Indices 1 2 3 4 5 6 
#
# 1 0.009441 -0.004196 -0.003628 0.000000 0.000000 0.000000
# 2 -0.004196 0.011354 -0.007216 0.000000 0.000000 0.000000
# 3 -0.003628 -0.007216 0.028724 0.000000 0.000000 0.000000
# 4 0.000000 0.000000 0.000000 0.030282 0.000000 0.000000
# 5 0.000000 0.000000 0.000000 0.000000 0.044799 0.000000
# 6 0.000000 0.000000 0.000000 0.000000 0.000000 -0.149316
#
#
# Mechanical properties :
#
#
# Convention : Reuss Voigt Hill
#
# Bulk Modulus (GPa) = 51.43958 79.45001 65.44479
# Shear Modulus (GPa) = 422.21508 22.19210 222.20359
#
# Velocity S-wave (km/s) = 14.72200 3.37520 10.68010
# Velocity P-wave (km/s) = 17.75918 7.48155 13.62649
#
# Compressibility (1/GPa) = 0.01944028
#
# Stress axis : x y z
#
# Youngs Moduli (GPa) = 105.92150 88.07417 34.81427
#
# Poissons Ratio (x) = 0.36952 0.12631
# Poissons Ratio (y) = 0.44439 0.25121
# Poissons Ratio (z) = 0.38428 0.63553
#
# Static dielectric constant tensor:
#      x y z
#    x 1.666450 0.000000 0.000000 
#    y 0.000000 1.685460 0.000000 
#    z 0.000000 0.000000 1.655860 
# 
# From -- ./inp_files/3432.got.cif
#   From: 2010.05.17/outbox.cif.g08.bks.cpg/sg49_2_cif.got.tgz:3432.got - 2010.06.03 21:02:19.
