data_PCOD9393180
_publ_section_title
;
Structure prediction by ZEFSAII (Michael W. Deem and Ramdas Pophale) SiO2 
 PCOD9393180
Probable space group: P C C M
;
_chemical_formula_sum "Si O2"
_cell_formula_units_Z 60
_cell_length_a 23.805080
_cell_length_b 14.871953
_cell_length_c 8.632370
_cell_angle_alpha 90.000000
_cell_angle_beta 90.000000
_cell_angle_gamma 90.000000
_cell_volume 3056.100953
_symmetry_space_group_name_H-M "P C C M"
_symmetry_group_IT_number 49
_symmetry_cell_setting 'orthorhombic'
loop_
_space_group_symop_operation_xyz
x,y,z
-x,-y,z
x,-y,1/2-z
-x,y,1/2-z
-x,-y,-z
x,y,-z
-x,y,1/2+z
x,-y,1/2+z
loop_
_atom_site_type_symbol
_atom_site_label
_atom_site_fract_x
_atom_site_fract_y
_atom_site_fract_z
Si Si1 0.414926 0.902318 0.686188
Si Si2 0.059201 0.101185 0.186796
Si Si3 0.306940 0.363755 0.323483
Si Si4 0.706440 0.827125 0.183865
Si Si5 0.830135 0.794863 0.187319
Si Si6 0.500000 0.752334 0.250000
Si Si7 0.193059 0.593023 0.681094
Si Si8 0.422668 0.589373 0.672972
O O1 0.427243 0.892675 0.500000
O O2 0.347412 0.890703 0.705108
O O3 0.449751 0.825262 0.778515
O O4 0.430842 0.000000 0.750000
O O5 0.113597 0.156541 0.240675
O O6 0.000000 0.137979 0.250000
O O7 0.064239 0.000000 0.250000
O O8 0.057560 0.099350 0.000000
O O9 0.293217 0.385973 0.500000
O O10 0.304770 0.257862 0.291471
O O11 0.259847 0.404951 0.212560
O O12 0.369174 0.390149 0.277989
O O13 0.771819 0.848814 0.219460
O O14 0.705113 0.801037 0.000000
O O15 0.826138 0.691145 0.244033
O O16 0.833165 0.790288 0.000000
O O17 0.462872 0.676251 0.337759
O O18 0.170184 0.500000 0.750000
O O19 0.181782 0.592194 0.500000
O O20 0.446563 0.500000 0.750000
O O21 0.403550 0.568762 0.500000
#
# Coordination Sequence:
#
# PCOD9393180 Si02
#       8
#     8   8   8   8   8   4   8   8
#     4  11  25  44  66  90 114 147 189 236 292 351
#     4  10  19  34  55  85 118 158 198 240 288 341
#     4  11  21  35  58  87 116 150 188 232 283 345
#     4   9  18  39  62  84 115 153 189 236 292 343
#     4   8  17  33  58  84 115 155 195 233 286 341
#     4  12  26  44  66  84 106 150 190 240 286 352
#     4  10  19  34  55  82 117 156 195 240 284 339
#     4  12  26  44  64  88 115 148 186 233 291 354
#
# _framework density 19.632859
#
# number of rings (size 3 to 8) (size 9 to 14) (size 15 to 20)
#    0.000    1.733    1.333    4.800    0.000    5.333 
#    0.000    6.667    0.000    0.400    0.000    2.800 
#    0.000    0.000    0.000    0.000    0.000    0.000 
#
# Total GULP energy -334018.166055 kJ/mol
# GULP energy per Si atom -5566.969434 kJ/mol
# Density = 1.958817 g / cm^3
# Si number density = 19.632859 Si / 1000 Ang^3
#
#
#
# Elastic Constant Matrix: (Units=GPa)
#
#
# Indices 1 2 3 4 5 6 
#
# 1 146.1231 55.1601 13.5086 0.0000 0.0000 0.0000
# 2 55.1601 107.7800 18.4651 0.0000 0.0000 0.0000
# 3 13.5086 18.4651 27.9904 0.0000 0.0000 0.0000
# 4 0.0000 0.0000 0.0000 17.2638 0.0000 0.0000
# 5 0.0000 0.0000 0.0000 0.0000 41.5073 0.0000
# 6 0.0000 0.0000 0.0000 0.0000 0.0000 5.9801
#
#
#
# Elastic Compliance Matrix: (Units=1/GPa)
#
#
# Indices 1 2 3 4 5 6 
#
# 1 0.008530 -0.004127 -0.001394 0.000000 0.000000 0.000000
# 2 -0.004127 0.012457 -0.006226 0.000000 0.000000 0.000000
# 3 -0.001394 -0.006226 0.040507 0.000000 0.000000 0.000000
# 4 0.000000 0.000000 0.000000 0.057925 0.000000 0.000000
# 5 0.000000 0.000000 0.000000 0.000000 0.024092 0.000000
# 6 0.000000 0.000000 0.000000 0.000000 0.000000 0.167220
#
#
# Mechanical properties :
#
#
# Convention : Reuss Voigt Hill
#
# Bulk Modulus (GPa) = 26.31622 50.68457 38.50039
# Shear Modulus (GPa) = 14.41373 25.93424 20.17398
#
# Velocity S-wave (km/s) = 2.71248 3.63845 3.20904
# Velocity P-wave (km/s) = 4.82114 6.59722 5.77783
#
# Compressibility (1/GPa) = 0.03799938
#
# Stress axis : x y z
#
# Youngs Moduli (GPa) = 117.22960 80.27724 24.68723
#
# Poissons Ratio (x) = 0.33129 0.03442
# Poissons Ratio (y) = 0.48378 0.15370
# Poissons Ratio (z) = 0.16347 0.49981
#
# Static dielectric constant tensor:
#      x y z
#    x 1.715190 0.000000 0.000000 
#    y 0.000000 1.715590 0.000000 
#    z 0.000000 0.000000 1.688380 
# 
# From -- ./inp_files/6424.got.cif
#   From: 2010.05.17/outbox.cif.g08.bks.cpg/sg49_4_cif.got.tgz:6424.got - 2010.06.03 21:02:19.
