data_PCOD9393800
_publ_section_title
;
Structure prediction by ZEFSAII (Michael W. Deem and Ramdas Pophale) SiO2 
 PCOD9393800
Probable space group: P C C M
;
_chemical_formula_sum "Si O2"
_cell_formula_units_Z 64
_cell_length_a 24.309057
_cell_length_b 15.266040
_cell_length_c 8.943871
_cell_angle_alpha 90.000000
_cell_angle_beta 90.000000
_cell_angle_gamma 90.000000
_cell_volume 3319.097686
_symmetry_space_group_name_H-M "P C C M"
_symmetry_group_IT_number 49
_symmetry_cell_setting 'orthorhombic'
loop_
_space_group_symop_operation_xyz
x,y,z
-x,-y,z
x,-y,1/2-z
-x,y,1/2-z
-x,-y,-z
x,y,-z
-x,y,1/2+z
x,-y,1/2+z
loop_
_atom_site_type_symbol
_atom_site_label
_atom_site_fract_x
_atom_site_fract_y
_atom_site_fract_z
Si Si1 0.769115 0.592907 0.678943
Si Si2 0.102271 0.406011 0.679663
Si Si3 0.722388 0.904404 0.179345
Si Si4 0.559156 0.286178 0.173108
Si Si5 0.056801 0.767956 0.679984
Si Si6 0.324033 0.729926 0.182132
Si Si7 0.440712 0.919534 0.172448
Si Si8 0.850000 0.093785 0.678768
O O1 0.753896 0.500000 0.750000
O O2 0.765870 0.585375 0.500000
O O3 0.833024 0.610464 0.716262
O O4 0.727531 0.669154 0.725317
O O5 0.087691 0.500000 0.750000
O O6 0.095916 0.407630 0.500000
O O7 0.068429 0.327647 0.752569
O O8 0.686838 0.825449 0.247278
O O9 0.786622 0.884081 0.215525
O O10 0.712055 0.000000 0.250000
O O11 0.715317 0.908417 0.000000
O O12 0.500000 0.302291 0.250000
O O13 0.618718 0.318677 0.229374
O O14 0.573388 0.182181 0.180673
O O15 0.552056 0.310735 0.000000
O O16 0.053525 0.764061 0.500000
O O17 0.107130 0.831594 0.723823
O O18 0.000000 0.801442 0.750000
O O19 0.325581 0.738166 0.000000
O O20 0.500000 0.917576 0.250000
O O21 0.409302 0.000000 0.250000
O O22 0.444283 0.942744 0.000000
O O23 0.852865 0.084943 0.500000
O O24 0.863179 0.000000 0.750000
#
# Coordination Sequence:
#
# PCOD9393800 Si02
#       8
#     8   8   8   8   8   8   8   8
#     4   9  19  35  58  85 112 138 171 217 271 326
#     4  10  20  36  58  84 111 143 177 216 268 326
#     4  10  20  35  55  81 110 143 181 223 269 322
#     4   9  19  33  48  67  96 132 172 212 256 310
#     4  11  23  38  55  80 112 147 187 230 269 315
#     4  10  20  35  54  79 109 141 174 218 271 321
#     4   9  15  24  38  56  78 110 150 194 235 277
#     4   9  20  37  57  79 107 143 184 229 276 319
#
# _framework density 19.282350000000001
#
# number of rings (size 3 to 8) (size 9 to 14) (size 15 to 20)
#    0.000    2.375    0.000    2.625    0.000    4.500 
#    0.000    3.750    0.000    0.375    0.000    2.625 
#    0.000    0.000    0.000    0.000    0.000    0.000 
#
# Total GULP energy -356768.431394 kJ/mol
# GULP energy per Si atom -5574.506741 kJ/mol
# Density = 1.923846 g / cm^3
# Si number density = 19.282350 Si / 1000 Ang^3
#
#
#
# Elastic Constant Matrix: (Units=GPa)
#
#
# Indices 1 2 3 4 5 6 
#
# 1 112.6404 38.2094 39.2898 0.0000 0.0000 0.0000
# 2 38.2094 49.9506 18.7740 0.0000 0.0000 0.0000
# 3 39.2898 18.7740 48.9806 0.0000 0.0000 0.0000
# 4 0.0000 0.0000 0.0000 26.1630 0.0000 0.0000
# 5 0.0000 0.0000 0.0000 0.0000 18.1734 0.0000
# 6 0.0000 0.0000 0.0000 0.0000 0.0000 -2.6657
#
#
#
# Elastic Compliance Matrix: (Units=1/GPa)
#
#
# Indices 1 2 3 4 5 6 
#
# 1 0.014579 -0.007894 -0.008669 0.000000 0.000000 0.000000
# 2 -0.007894 0.027664 -0.004271 0.000000 0.000000 0.000000
# 3 -0.008669 -0.004271 0.029007 0.000000 0.000000 0.000000
# 4 0.000000 0.000000 0.000000 0.038222 0.000000 0.000000
# 5 0.000000 0.000000 0.000000 0.000000 0.055026 0.000000
# 6 0.000000 0.000000 0.000000 0.000000 0.000000 -0.375137
#
#
# Mechanical properties :
#
#
# Convention : Reuss Voigt Hill
#
# Bulk Modulus (GPa) = 33.80464 44.90199 39.35331
# Shear Modulus (GPa) = -31.42478 16.02071 -7.70203
#
# Velocity S-wave (km/s) = -4.04136 2.88557 -2.00075
# Velocity P-wave (km/s) = 2.05117 5.86849 3.88792
#
# Compressibility (1/GPa) = 0.02958174
#
# Stress axis : x y z
#
# Youngs Moduli (GPa) = 68.58948 36.14859 34.47408
#
# Poissons Ratio (x) = 0.28536 0.29886
# Poissons Ratio (y) = 0.54146 0.14724
# Poissons Ratio (z) = 0.59461 0.15439
#
# Static dielectric constant tensor:
#      x y z
#    x 1.741810 0.000000 0.000000 
#    y 0.000000 1.738730 0.000000 
#    z 0.000000 0.000000 1.653390 
# 
# From -- ./inp_files/6554.got.cif
#   From: 2010.05.17/outbox.cif.g08.bks.cpg/sg49_4_cif.got.tgz:6554.got - 2010.06.03 21:02:19.
