data_PCOD9393908
_publ_section_title
;
Structure prediction by ZEFSAII (Michael W. Deem and Ramdas Pophale) SiO2 
 PCOD9393908
Probable space group: P C C M
;
_chemical_formula_sum "Si O2"
_cell_formula_units_Z 48
_cell_length_a 8.930036
_cell_length_b 29.986196
_cell_length_c 9.589973
_cell_angle_alpha 90.000000
_cell_angle_beta 90.000000
_cell_angle_gamma 90.000000
_cell_volume 2567.981966
_symmetry_space_group_name_H-M "P C C M"
_symmetry_group_IT_number 49
_symmetry_cell_setting 'orthorhombic'
loop_
_space_group_symop_operation_xyz
x,y,z
-x,-y,z
x,-y,1/2-z
-x,y,1/2-z
-x,-y,-z
x,y,-z
-x,y,1/2+z
x,-y,1/2+z
loop_
_atom_site_type_symbol
_atom_site_label
_atom_site_fract_x
_atom_site_fract_y
_atom_site_fract_z
Si Si1 0.679525 0.612224 0.765907
Si Si2 0.691800 0.442435 0.000000
Si Si3 0.844016 0.296026 0.667135
Si Si4 0.657669 0.043739 0.830412
Si Si5 0.671224 0.457245 0.500000
Si Si6 0.149246 0.132036 0.661700
Si Si7 0.656145 0.778857 0.332165
O O1 0.500000 0.619755 0.750000
O O2 0.732993 0.589613 0.625273
O O3 0.756160 0.657491 0.813415
O O4 0.713641 0.572255 0.870077
O O5 0.742520 0.493760 0.000000
O O6 0.511670 0.453063 0.000000
O O7 0.860873 0.286849 0.500000
O O8 0.751333 0.258313 0.749978
O O9 0.000000 0.299430 0.750000
O O10 0.500000 0.051736 0.750000
O O11 0.762316 0.086393 0.808454
O O12 0.719280 0.000000 0.750000
O O13 0.639386 0.037337 0.000000
O O14 0.105704 0.131136 0.500000
O O15 0.258014 0.174170 0.681373
O O16 0.000000 0.136597 0.750000
O O17 0.500000 0.781584 0.250000
O O18 0.639587 0.769343 0.500000
#
# Coordination Sequence:
#
# PCOD9393908 Si02
#       7
#     8   4   8   8   4   8   8
#     4  10  20  35  59  87 118 151 194 242 297 352
#     4   9  18  28  59  87 119 147 195 239 294 345
#     4  12  26  43  62  86 121 159 200 247 302 362
#     4  10  20  36  58  87 121 161 211 259 309 359
#     4   9  16  34  51  89 119 153 187 245 290 347
#     4  10  23  40  60  89 125 164 204 250 304 364
#     4  11  24  43  68  95 122 155 199 248 303 361
#
# _framework density 18.69172
#
# number of rings (size 3 to 8) (size 9 to 14) (size 15 to 20)
#    0.000    1.667    0.833    4.000    2.333    6.333 
#    0.000    1.667    0.000    3.000    0.000    0.000 
#    0.000    0.000    0.000    0.000    0.000    0.000 
#
# Total GULP energy -267572.832269 kJ/mol
# GULP energy per Si atom -5574.434006 kJ/mol
# Density = 1.864918 g / cm^3
# Si number density = 18.691720 Si / 1000 Ang^3
#
#
#
# Elastic Constant Matrix: (Units=GPa)
#
#
# Indices 1 2 3 4 5 6 
#
# 1 85.1984 48.0690 59.4822 0.0000 0.0000 0.0000
# 2 48.0690 120.5289 67.2643 0.0000 0.0000 0.0000
# 3 59.4822 67.2643 175.2328 0.0000 0.0000 0.0000
# 4 0.0000 0.0000 0.0000 41.7065 0.0000 0.0000
# 5 0.0000 0.0000 0.0000 0.0000 26.5074 0.0000
# 6 0.0000 0.0000 0.0000 0.0000 0.0000 -61.0915
#
#
#
# Elastic Compliance Matrix: (Units=1/GPa)
#
#
# Indices 1 2 3 4 5 6 
#
# 1 0.017158 -0.004572 -0.004069 0.000000 0.000000 0.000000
# 2 -0.004572 0.011777 -0.002969 0.000000 0.000000 0.000000
# 3 -0.004069 -0.002969 0.008228 0.000000 0.000000 0.000000
# 4 0.000000 0.000000 0.000000 0.023977 0.000000 0.000000
# 5 0.000000 0.000000 0.000000 0.000000 0.037725 0.000000
# 6 0.000000 0.000000 0.000000 0.000000 0.000000 -0.016369
#
#
# Mechanical properties :
#
#
# Convention : Reuss Voigt Hill
#
# Bulk Modulus (GPa) = 71.72290 81.17679 76.44985
# Shear Modulus (GPa) = 45.30512 15.16743 30.23628
#
# Velocity S-wave (km/s) = 4.92856 2.85169 4.02634
# Velocity P-wave (km/s) = 8.41679 7.37336 7.91229
#
# Compressibility (1/GPa) = 0.01394255
#
# Stress axis : x y z
#
# Youngs Moduli (GPa) = 58.28285 84.91214 121.54320
#
# Poissons Ratio (x) = 0.38821 0.49458
# Poissons Ratio (y) = 0.26646 0.36083
# Poissons Ratio (z) = 0.23716 0.25208
#
# Static dielectric constant tensor:
#      x y z
#    x 1.650000 0.000000 0.000000 
#    y 0.000000 1.635860 0.000000 
#    z 0.000000 0.000000 1.614280 
# 
# From -- ./inp_files/2139.got.cif
#   From: 2010.05.17/outbox.cif.g08.bks.cpg/sg49_2_cif.got.tgz:2139.got - 2010.06.03 21:02:19.
