data_PCOD9393396
_publ_section_title
;
Structure prediction by ZEFSAII (Michael W. Deem and Ramdas Pophale) SiO2 
 PCOD9393396
Probable space group: P C C M
;
_chemical_formula_sum "Si O2"
_cell_formula_units_Z 48
_cell_length_a 9.941252
_cell_length_b 14.431661
_cell_length_c 14.734231
_cell_angle_alpha 90.000000
_cell_angle_beta 90.000000
_cell_angle_gamma 90.000000
_cell_volume 2113.902128
_symmetry_space_group_name_H-M "P C C M"
_symmetry_group_IT_number 49
_symmetry_cell_setting 'orthorhombic'
loop_
_space_group_symop_operation_xyz
x,y,z
-x,-y,z
x,-y,1/2-z
-x,y,1/2-z
-x,-y,-z
x,y,-z
-x,y,1/2+z
x,-y,1/2+z
loop_
_atom_site_type_symbol
_atom_site_label
_atom_site_fract_x
_atom_site_fract_y
_atom_site_fract_z
Si Si1 0.384508 0.924600 0.110618
Si Si2 0.269388 0.617524 0.345453
Si Si3 0.075155 0.086215 0.651555
Si Si4 0.991985 0.286930 0.639585
Si Si5 0.526736 0.721847 0.602357
Si Si6 0.771441 0.588330 0.632005
O O1 0.234817 0.934617 0.152646
O O2 0.437501 0.823076 0.138620
O O3 0.500000 0.000000 0.133213
O O4 0.367736 0.925831 0.000000
O O5 0.414096 0.663958 0.346676
O O6 0.260164 0.517332 0.392546
O O7 0.233860 0.597248 0.241119
O O8 0.160868 0.689751 0.383587
O O9 0.048510 0.187504 0.609627
O O10 0.000000 0.092240 0.750000
O O11 0.000000 0.000000 0.605473
O O12 0.084347 0.371117 0.605860
O O13 0.000000 0.286592 0.750000
O O14 0.475211 0.735252 0.500000
O O15 0.659227 0.659406 0.599152
#
# Coordination Sequence:
#
# PCOD9393396 Si02
#       6
#     8   8   8   8   8   8
#     4  10  23  44  66  89 124 169 209 248 306 382
#     4  10  21  34  60  89 116 158 204 244 300 365
#     4  10  21  39  63  94 124 150 201 262 316 366
#     4   9  18  35  59  85 120 152 190 248 296 359
#     4  11  23  39  58  84 119 157 202 251 299 354
#     4  10  19  38  58  85 118 158 204 245 300 365
#
# _framework density 22.706823
#
# number of rings (size 3 to 8) (size 9 to 14) (size 15 to 20)
#    0.000    2.000    1.667    1.500    2.333    5.000 
#    0.000    3.333    0.000    2.000    0.000    0.000 
#    0.000    0.000    0.000    0.000    0.000    0.000 
#
# Total GULP energy -268083.354928 kJ/mol
# GULP energy per Si atom -5585.069894 kJ/mol
# Density = 2.265514 g / cm^3
# Si number density = 22.706823 Si / 1000 Ang^3
#
#
#
# Elastic Constant Matrix: (Units=GPa)
#
#
# Indices 1 2 3 4 5 6 
#
# 1 134.0916 68.2700 11.3902 0.0000 0.0000 0.0000
# 2 68.2700 174.8215 10.2882 0.0000 0.0000 0.0000
# 3 11.3902 10.2882 73.5748 0.0000 0.0000 0.0000
# 4 0.0000 0.0000 0.0000 30.8015 0.0000 0.0000
# 5 0.0000 0.0000 0.0000 0.0000 -69.5912 0.0000
# 6 0.0000 0.0000 0.0000 0.0000 0.0000 43.2800
#
#
#
# Elastic Compliance Matrix: (Units=1/GPa)
#
#
# Indices 1 2 3 4 5 6 
#
# 1 0.009373 -0.003605 -0.000947 0.000000 0.000000 0.000000
# 2 -0.003605 0.007154 -0.000442 0.000000 0.000000 0.000000
# 3 -0.000947 -0.000442 0.013800 0.000000 0.000000 0.000000
# 4 0.000000 0.000000 0.000000 0.032466 0.000000 0.000000
# 5 0.000000 0.000000 0.000000 0.000000 -0.014370 0.000000
# 6 0.000000 0.000000 0.000000 0.000000 0.000000 0.023105
#
#
# Mechanical properties :
#
#
# Convention : Reuss Voigt Hill
#
# Bulk Modulus (GPa) = 49.16617 62.48717 55.82667
# Shear Modulus (GPa) = 56.62737 20.40069 38.51403
#
# Velocity S-wave (km/s) = 4.99926 3.00065 4.12289
# Velocity P-wave (km/s) = 7.41776 6.29159 6.87776
#
# Compressibility (1/GPa) = 0.02033919
#
# Stress axis : x y z
#
# Youngs Moduli (GPa) = 106.68638 139.78559 72.46338
#
# Poissons Ratio (x) = 0.50388 0.06863
# Poissons Ratio (y) = 0.38457 0.03205
# Poissons Ratio (z) = 0.10104 0.06183
#
# Static dielectric constant tensor:
#      x y z
#    x 1.784030 0.000000 0.000000 
#    y 0.000000 1.838830 0.000000 
#    z 0.000000 0.000000 1.966260 
# 
# From -- ./inp_files/16321.got.cif
#   From: 2010.05.17/outbox.cif.g08.bks.cpg/sg49_9_cif.got.tgz:16321.got - 2010.06.03 21:02:19.
