data_PCOD9393110
_publ_section_title
;
Structure prediction by ZEFSAII (Michael W. Deem and Ramdas Pophale) SiO2 
 PCOD9393110
Probable space group: P C C M
;
_chemical_formula_sum "Si O2"
_cell_formula_units_Z 48
_cell_length_a 9.566054
_cell_length_b 32.404377
_cell_length_c 8.521118
_cell_angle_alpha 90.000000
_cell_angle_beta 90.000000
_cell_angle_gamma 90.000000
_cell_volume 2641.393372
_symmetry_space_group_name_H-M "P C C M"
_symmetry_group_IT_number 49
_symmetry_cell_setting 'orthorhombic'
loop_
_space_group_symop_operation_xyz
x,y,z
-x,-y,z
x,-y,1/2-z
-x,y,1/2-z
-x,-y,-z
x,y,-z
-x,y,1/2+z
x,-y,1/2+z
loop_
_atom_site_type_symbol
_atom_site_label
_atom_site_fract_x
_atom_site_fract_y
_atom_site_fract_z
Si Si1 0.341417 0.878411 0.310146
Si Si2 0.656244 0.545240 0.311653
Si Si3 0.842722 0.377398 0.188112
Si Si4 0.659341 0.698085 0.188808
Si Si5 0.658952 0.211381 0.310916
Si Si6 0.157890 0.044081 0.811405
O O1 0.500000 0.881914 0.250000
O O2 0.344484 0.879054 0.500000
O O3 0.282292 0.833231 0.260485
O O4 0.249854 0.917141 0.257337
O O5 0.696663 0.500000 0.250000
O O6 0.500000 0.554143 0.250000
O O7 0.651578 0.544101 0.500000
O O8 0.761749 0.581062 0.260511
O O9 0.755439 0.338159 0.247115
O O10 0.000000 0.376592 0.250000
O O11 0.844554 0.376940 0.000000
O O12 0.500000 0.693739 0.250000
O O13 0.715076 0.743751 0.238334
O O14 0.656190 0.696291 0.000000
O O15 0.500000 0.211092 0.250000
O O16 0.658499 0.211469 0.500000
O O17 0.000000 0.048536 0.750000
O O18 0.212160 0.000000 0.750000
O O19 0.155739 0.043103 0.000000
#
# Coordination Sequence:
#
# PCOD9393110 Si02
#       6
#     8   8   8   8   8   8
#     4   9  18  32  51  75 102 130 163 205 252 301
#     4  10  21  37  59  84 108 137 174 216 259 306
#     4  11  24  39  55  78 109 144 179 217 264 313
#     4  10  19  33  56  81 106 138 176 217 257 304
#     4   8  15  29  49  74 102 131 165 206 251 298
#     4  10  20  34  51  70  95 129 167 206 248 298
#
# _framework density 18.172226999999999
#
# number of rings (size 3 to 8) (size 9 to 14) (size 15 to 20)
#    0.000    2.333    0.000    3.500    0.000    6.667 
#    0.000    4.167    0.000    2.000    0.000    0.000 
#    0.000    0.000    0.000    0.000    0.000    0.000 
#
# Total GULP energy -267635.011920 kJ/mol
# GULP energy per Si atom -5575.729415 kJ/mol
# Density = 1.813087 g / cm^3
# Si number density = 18.172227 Si / 1000 Ang^3
#
#
#
# Elastic Constant Matrix: (Units=GPa)
#
#
# Indices 1 2 3 4 5 6 
#
# 1 81.1972 105.5177 21.2344 0.0000 0.0000 0.0000
# 2 105.5177 222.9211 40.4541 0.0000 0.0000 0.0000
# 3 21.2344 40.4541 34.9034 0.0000 0.0000 0.0000
# 4 0.0000 0.0000 0.0000 15.1184 0.0000 0.0000
# 5 0.0000 0.0000 0.0000 0.0000 24.5333 0.0000
# 6 0.0000 0.0000 0.0000 0.0000 0.0000 3.0556
#
#
#
# Elastic Compliance Matrix: (Units=1/GPa)
#
#
# Indices 1 2 3 4 5 6 
#
# 1 0.032161 -0.014781 -0.002434 0.000000 0.000000 0.000000
# 2 -0.014781 0.012474 -0.005466 0.000000 0.000000 0.000000
# 3 -0.002434 -0.005466 0.036466 0.000000 0.000000 0.000000
# 4 0.000000 0.000000 0.000000 0.066145 0.000000 0.000000
# 5 0.000000 0.000000 0.000000 0.000000 0.040761 0.000000
# 6 0.000000 0.000000 0.000000 0.000000 0.000000 0.327268
#
#
# Mechanical properties :
#
#
# Convention : Reuss Voigt Hill
#
# Bulk Modulus (GPa) = 27.98008 74.82600 51.40304
# Shear Modulus (GPa) = 8.73287 19.99583 14.36435
#
# Velocity S-wave (km/s) = 2.19455 3.32075 2.81456
# Velocity P-wave (km/s) = 4.67461 7.48122 6.23781
#
# Compressibility (1/GPa) = 0.03573971
#
# Stress axis : x y z
#
# Youngs Moduli (GPa) = 31.09355 80.16416 27.42287
#
# Poissons Ratio (x) = 1.18494 0.06674
# Poissons Ratio (y) = 0.45961 0.14988
# Poissons Ratio (z) = 0.07568 0.43814
#
# Static dielectric constant tensor:
#      x y z
#    x 1.571910 0.000000 0.000000 
#    y 0.000000 1.672610 0.000000 
#    z 0.000000 0.000000 1.621160 
# 
# From -- ./inp_files/2064.got.cif
#   From: 2010.05.17/outbox.cif.g08.bks.cpg/sg49_2_cif.got.tgz:2064.got - 2010.06.03 21:02:19.
