data_PCOD9393751
_publ_section_title
;
Structure prediction by ZEFSAII (Michael W. Deem and Ramdas Pophale) SiO2 
 PCOD9393751
Probable space group: P C C M
;
_chemical_formula_sum "Si O2"
_cell_formula_units_Z 48
_cell_length_a 16.418815
_cell_length_b 5.435675
_cell_length_c 26.230813
_cell_angle_alpha 90.000000
_cell_angle_beta 90.000000
_cell_angle_gamma 90.000000
_cell_volume 2341.030345
_symmetry_space_group_name_H-M "P C C M"
_symmetry_group_IT_number 49
_symmetry_cell_setting 'orthorhombic'
loop_
_space_group_symop_operation_xyz
x,y,z
-x,-y,z
x,-y,1/2-z
-x,y,1/2-z
-x,-y,-z
x,y,-z
-x,y,1/2+z
x,-y,1/2+z
loop_
_atom_site_type_symbol
_atom_site_label
_atom_site_fract_x
_atom_site_fract_y
_atom_site_fract_z
Si Si1 0.533723 0.250699 0.691511
Si Si2 0.705066 0.909570 0.841094
Si Si3 0.922483 0.828196 0.944098
Si Si4 0.753571 0.862111 0.558373
Si Si5 0.813768 0.240465 0.220056
Si Si6 0.836553 0.515976 0.872879
O O1 0.500000 0.500000 0.667826
O O2 0.500000 0.250656 0.750000
O O3 0.629935 0.231083 0.683915
O O4 0.500000 0.000000 0.667718
O O5 0.781461 0.724256 0.845797
O O6 0.696009 0.012598 0.898738
O O7 0.728934 0.135896 0.803792
O O8 0.912997 0.634326 0.899729
O O9 0.838638 0.985410 0.942470
O O10 0.925981 0.708242 0.000000
O O11 0.000000 0.000000 0.938685
O O12 0.724207 0.846942 0.500000
O O13 0.780143 0.602855 0.583029
O O14 0.808206 0.500000 0.250000
O O15 0.860332 0.311031 0.168214
O O16 0.846282 0.000000 0.250000
#
# Coordination Sequence:
#
# PCOD9393751 Si02
#       6
#     8   8   8   8   8   8
#     4  10  24  37  56  85 122 160 194 249 323 380
#     4  10  22  38  60  89 125 163 209 258 315 387
#     4   9  18  34  57  91 134 168 203 261 331 390
#     4   9  19  35  59  91 125 165 212 260 311 379
#     4  11  22  34  58  88 123 159 207 270 318 370
#     4  10  20  34  57  89 125 167 216 257 315 383
#
# _framework density 20.503791
#
# number of rings (size 3 to 8) (size 9 to 14) (size 15 to 20)
#    0.000    2.167    1.667    0.500    7.000    2.667 
#    0.000    2.500    0.000    1.000    0.000   33.833 
#    0.000    0.000    0.000    0.000    0.000    0.000 
#
# Total GULP energy -267491.982549 kJ/mol
# GULP energy per Si atom -5572.749636 kJ/mol
# Density = 2.045712 g / cm^3
# Si number density = 20.503791 Si / 1000 Ang^3
#
#
#
# Elastic Constant Matrix: (Units=GPa)
#
#
# Indices 1 2 3 4 5 6 
#
# 1 68.4335 22.8786 33.3294 0.0000 0.0000 0.0000
# 2 22.8786 126.3677 46.2530 0.0000 0.0000 0.0000
# 3 33.3294 46.2530 129.8790 0.0000 0.0000 0.0000
# 4 0.0000 0.0000 0.0000 17.0742 0.0000 0.0000
# 5 0.0000 0.0000 0.0000 0.0000 10.9663 0.0000
# 6 0.0000 0.0000 0.0000 0.0000 0.0000 21.8798
#
#
#
# Elastic Compliance Matrix: (Units=1/GPa)
#
#
# Indices 1 2 3 4 5 6 
#
# 1 0.017013 -0.001704 -0.003759 0.000000 0.000000 0.000000
# 2 -0.001704 0.009270 -0.002864 0.000000 0.000000 0.000000
# 3 -0.003759 -0.002864 0.009684 0.000000 0.000000 0.000000
# 4 0.000000 0.000000 0.000000 0.058568 0.000000 0.000000
# 5 0.000000 0.000000 0.000000 0.000000 0.091188 0.000000
# 6 0.000000 0.000000 0.000000 0.000000 0.000000 0.045704
#
#
# Mechanical properties :
#
#
# Convention : Reuss Voigt Hill
#
# Bulk Modulus (GPa) = 51.77875 58.84466 55.31170
# Shear Modulus (GPa) = 19.64481 24.79869 22.22175
#
# Velocity S-wave (km/s) = 3.09869 3.48151 3.29566
# Velocity P-wave (km/s) = 6.17338 6.70246 6.44335
#
# Compressibility (1/GPa) = 0.01931294
#
# Stress axis : x y z
#
# Youngs Moduli (GPa) = 58.77765 107.87182 103.26286
#
# Poissons Ratio (x) = 0.18385 0.38816
# Poissons Ratio (y) = 0.10018 0.29574
# Poissons Ratio (z) = 0.22094 0.30894
#
# Static dielectric constant tensor:
#      x y z
#    x 1.743320 0.000000 0.000000 
#    y 0.000000 1.823770 0.000000 
#    z 0.000000 0.000000 1.792440 
# 
# From -- ./inp_files/25041.got.cif
#   From: 2010.05.17/outbox.cif.g08.bks.cpg/sg49_13_cif.got.tgz:25041.got - 2010.06.03 21:02:19.
