data_PCOD9393575
_publ_section_title
;
Structure prediction by ZEFSAII (Michael W. Deem and Ramdas Pophale) SiO2 
 PCOD9393575
Probable space group: P C C M
;
_chemical_formula_sum "Si O2"
_cell_formula_units_Z 48
_cell_length_a 9.224098
_cell_length_b 32.351996
_cell_length_c 8.644154
_cell_angle_alpha 90.000000
_cell_angle_beta 90.000000
_cell_angle_gamma 90.000000
_cell_volume 2579.570989
_symmetry_space_group_name_H-M "P C C M"
_symmetry_group_IT_number 49
_symmetry_cell_setting 'orthorhombic'
loop_
_space_group_symop_operation_xyz
x,y,z
-x,-y,z
x,-y,1/2-z
-x,y,1/2-z
-x,-y,-z
x,y,-z
-x,y,1/2+z
x,-y,1/2+z
loop_
_atom_site_type_symbol
_atom_site_label
_atom_site_fract_x
_atom_site_fract_y
_atom_site_fract_z
Si Si1 0.337864 0.199987 0.686131
Si Si2 0.161765 0.122059 0.185213
Si Si3 0.164580 0.367906 0.814648
Si Si4 0.662327 0.044783 0.185621
Si Si5 0.835103 0.542104 0.185183
Si Si6 0.836916 0.282625 0.815230
O O1 0.500000 0.200609 0.750000
O O2 0.338610 0.195970 0.500000
O O3 0.253085 0.161463 0.758460
O O4 0.256507 0.242640 0.727033
O O5 0.839487 0.120176 0.500000
O O6 0.235413 0.080956 0.253442
O O7 0.000000 0.125880 0.250000
O O8 0.229569 0.412895 0.772560
O O9 0.228750 0.325648 0.747991
O O10 0.000000 0.368360 0.750000
O O11 0.159556 0.365214 0.000000
O O12 0.500000 0.052141 0.250000
O O13 0.708528 0.000000 0.250000
O O14 0.658782 0.044034 0.000000
O O15 0.766201 0.500000 0.250000
O O16 0.000000 0.542858 0.250000
O O17 0.841630 0.539356 0.000000
O O18 0.000000 0.278035 0.750000
O O19 0.846234 0.285372 0.000000
#
# Coordination Sequence:
#
# PCOD9393575 Si02
#       6
#     8   8   8   8   8   8
#     4  11  24  41  60  84 111 144 183 226 275 329
#     4  12  25  42  63  89 119 153 191 234 281 331
#     4   9  16  25  39  60  88 123 164 206 254 307
#     4  11  22  40  64  92 124 160 199 239 282 330
#     4   9  15  21  31  50  78 116 158 200 245 299
#     4  10  20  33  52  76 103 135 174 216 265 319
#
# _framework density 18.607745000000001
#
# number of rings (size 3 to 8) (size 9 to 14) (size 15 to 20)
#    0.000    1.667    0.000    8.000    0.000    6.333 
#    0.000    1.667    0.000    0.000    0.000    0.000 
#    0.000    0.667    0.000    7.333    0.000    8.167 
#
# Total GULP energy -267976.820375 kJ/mol
# GULP energy per Si atom -5582.850424 kJ/mol
# Density = 1.856539 g / cm^3
# Si number density = 18.607745 Si / 1000 Ang^3
#
#
#
# Elastic Constant Matrix: (Units=GPa)
#
#
# Indices 1 2 3 4 5 6 
#
# 1 76.8389 90.1226 42.8633 0.0000 0.0000 0.0000
# 2 90.1226 211.0947 84.8666 0.0000 0.0000 0.0000
# 3 42.8633 84.8666 125.8763 0.0000 0.0000 0.0000
# 4 0.0000 0.0000 0.0000 63.4561 0.0000 0.0000
# 5 0.0000 0.0000 0.0000 0.0000 20.9686 0.0000
# 6 0.0000 0.0000 0.0000 0.0000 0.0000 -40.5202
#
#
#
# Elastic Compliance Matrix: (Units=1/GPa)
#
#
# Indices 1 2 3 4 5 6 
#
# 1 0.026397 -0.010503 -0.001908 0.000000 0.000000 0.000000
# 2 -0.010503 0.010677 -0.003622 0.000000 0.000000 0.000000
# 3 -0.001908 -0.003622 0.011036 0.000000 0.000000 0.000000
# 4 0.000000 0.000000 0.000000 0.015759 0.000000 0.000000
# 5 0.000000 0.000000 0.000000 0.000000 0.047690 0.000000
# 6 0.000000 0.000000 0.000000 0.000000 0.000000 -0.024679
#
#
# Mechanical properties :
#
#
# Convention : Reuss Voigt Hill
#
# Bulk Modulus (GPa) = 62.32522 94.39053 78.35788
# Shear Modulus (GPa) = 40.22715 21.84472 31.03593
#
# Velocity S-wave (km/s) = 4.65461 3.43002 4.08843
# Velocity P-wave (km/s) = 7.90280 8.15619 8.03049
#
# Compressibility (1/GPa) = 0.01604487
#
# Stress axis : x y z
#
# Youngs Moduli (GPa) = 37.88363 93.65569 90.61103
#
# Poissons Ratio (x) = 0.98363 0.17285
# Poissons Ratio (y) = 0.39788 0.32823
# Poissons Ratio (z) = 0.07227 0.33926
#
# Static dielectric constant tensor:
#      x y z
#    x 1.625400 0.000000 0.000000 
#    y 0.000000 1.689230 0.000000 
#    z 0.000000 0.000000 1.621480 
# 
# From -- ./inp_files/2118.got.cif
#   From: 2010.05.17/outbox.cif.g08.bks.cpg/sg49_2_cif.got.tgz:2118.got - 2010.06.03 21:02:19.
