data_PCOD9393239
_publ_section_title
;
Structure prediction by ZEFSAII (Michael W. Deem and Ramdas Pophale) SiO2 
 PCOD9393239
Probable space group: P C C M
;
_chemical_formula_sum "Si O2"
_cell_formula_units_Z 48
_cell_length_a 14.401541
_cell_length_b 5.781177
_cell_length_c 27.309164
_cell_angle_alpha 90.000000
_cell_angle_beta 90.000000
_cell_angle_gamma 90.000000
_cell_volume 2273.702487
_symmetry_space_group_name_H-M "P C C M"
_symmetry_group_IT_number 49
_symmetry_cell_setting 'orthorhombic'
loop_
_space_group_symop_operation_xyz
x,y,z
-x,-y,z
x,-y,1/2-z
-x,y,1/2-z
-x,-y,-z
x,y,-z
-x,y,1/2+z
x,-y,1/2+z
loop_
_atom_site_type_symbol
_atom_site_label
_atom_site_fract_x
_atom_site_fract_y
_atom_site_fract_z
Si Si1 0.601464 0.594662 0.620079
Si Si2 0.843014 0.753290 0.758493
Si Si3 0.766688 0.753538 0.867346
Si Si4 0.635464 0.248325 0.224557
Si Si5 0.110248 0.487955 0.053600
Si Si6 0.266427 0.861069 0.054593
O O1 0.500000 0.500000 0.610078
O O2 0.674113 0.397510 0.635964
O O3 0.598434 0.752430 0.669033
O O4 0.649002 0.697048 0.571302
O O5 0.887719 0.500000 0.750000
O O6 0.807074 0.774406 0.813777
O O7 0.748560 0.748534 0.725582
O O8 0.892358 0.000000 0.750000
O O9 0.845479 0.639827 0.900969
O O10 0.740326 0.973588 0.899121
O O11 0.609041 0.500000 0.250000
O O12 0.610447 0.000000 0.250000
O O13 0.168264 0.725872 0.052737
O O14 0.000000 0.500000 0.058367
O O15 0.129225 0.376639 0.000000
O O16 0.283252 0.957299 0.000000
#
# Coordination Sequence:
#
# PCOD9393239 Si02
#       6
#     8   8   8   8   8   8
#     4  11  24  40  58  88 127 173 220 275 319 387
#     4  10  19  34  59  89 120 168 213 264 319 386
#     4  11  21  38  62  90 124 166 214 263 329 390
#     4  10  19  37  58  86 119 164 212 274 329 380
#     4   9  20  39  65  98 127 153 199 265 334 398
#     4  10  22  40  64  91 125 169 213 266 328 395
#
# _framework density 21.110938999999998
#
# number of rings (size 3 to 8) (size 9 to 14) (size 15 to 20)
#    0.000    1.833    3.333    2.500    2.333    2.667 
#    0.000    5.000    0.000    0.500    0.000    0.000 
#    0.000    0.000    0.000    0.000    0.000    0.000 
#
# Total GULP energy -267525.996891 kJ/mol
# GULP energy per Si atom -5573.458269 kJ/mol
# Density = 2.106289 g / cm^3
# Si number density = 21.110939 Si / 1000 Ang^3
#
#
#
# Elastic Constant Matrix: (Units=GPa)
#
#
# Indices 1 2 3 4 5 6 
#
# 1 108.7805 34.0268 42.5903 0.0000 0.0000 0.0000
# 2 34.0268 122.7234 43.5639 0.0000 0.0000 0.0000
# 3 42.5903 43.5639 98.2189 0.0000 0.0000 0.0000
# 4 0.0000 0.0000 0.0000 64.0826 0.0000 0.0000
# 5 0.0000 0.0000 0.0000 0.0000 -19.2867 0.0000
# 6 0.0000 0.0000 0.0000 0.0000 0.0000 -30.9156
#
#
#
# Elastic Compliance Matrix: (Units=1/GPa)
#
#
# Indices 1 2 3 4 5 6 
#
# 1 0.011351 -0.001662 -0.004185 0.000000 0.000000 0.000000
# 2 -0.001662 0.009914 -0.003677 0.000000 0.000000 0.000000
# 3 -0.004185 -0.003677 0.013627 0.000000 0.000000 0.000000
# 4 0.000000 0.000000 0.000000 0.015605 0.000000 0.000000
# 5 0.000000 0.000000 0.000000 0.000000 -0.051849 0.000000
# 6 0.000000 0.000000 0.000000 0.000000 0.000000 -0.032346
#
#
# Mechanical properties :
#
#
# Convention : Reuss Voigt Hill
#
# Bulk Modulus (GPa) = 63.11083 63.34275 63.22679
# Shear Modulus (GPa) = -533.68333 16.74551 -258.46891
#
# Velocity S-wave (km/s) = -15.91692 2.81946 -11.07698
# Velocity P-wave (km/s) = 17.54531 6.37723 11.55787
#
# Compressibility (1/GPa) = 0.01584514
#
# Stress axis : x y z
#
# Youngs Moduli (GPa) = 88.09654 100.86426 73.38388
#
# Poissons Ratio (x) = 0.16760 0.30712
# Poissons Ratio (y) = 0.14638 0.26982
# Poissons Ratio (z) = 0.36870 0.37086
#
# Static dielectric constant tensor:
#      x y z
#    x 1.772030 0.000000 0.000000 
#    y 0.000000 1.923910 0.000000 
#    z 0.000000 0.000000 2.198530 
# 
# From -- ./inp_files/23937.got.cif
#   From: 2010.05.17/outbox.cif.g08.bks.cpg/sg49_12_cif.got.tgz:23937.got - 2010.06.03 21:02:19.
