data_PCOD9393588
_publ_section_title
;
Structure prediction by ZEFSAII (Michael W. Deem and Ramdas Pophale) SiO2 
 PCOD9393588
Probable space group: P C C M
;
_chemical_formula_sum "Si O2"
_cell_formula_units_Z 48
_cell_length_a 5.189314
_cell_length_b 17.042011
_cell_length_c 24.351604
_cell_angle_alpha 90.000000
_cell_angle_beta 90.000000
_cell_angle_gamma 90.000000
_cell_volume 2153.566884
_symmetry_space_group_name_H-M "P C C M"
_symmetry_group_IT_number 49
_symmetry_cell_setting 'orthorhombic'
loop_
_space_group_symop_operation_xyz
x,y,z
-x,-y,z
x,-y,1/2-z
-x,y,1/2-z
-x,-y,-z
x,y,-z
-x,y,1/2+z
x,-y,1/2+z
loop_
_atom_site_type_symbol
_atom_site_label
_atom_site_fract_x
_atom_site_fract_y
_atom_site_fract_z
Si Si1 0.167481 0.421521 0.942680
Si Si2 0.535188 0.587563 0.828103
Si Si3 0.813755 0.744562 0.199227
Si Si4 0.528223 0.828284 0.885370
Si Si5 0.185640 0.690724 0.109701
Si Si6 0.036135 0.906579 0.063992
O O1 0.968697 0.349834 0.938182
O O2 0.000000 0.500000 0.942563
O O3 0.328452 0.421301 0.887316
O O4 0.318197 0.417580 0.000000
O O5 0.500000 0.500000 0.805997
O O6 0.686157 0.657117 0.796139
O O7 0.264674 0.624394 0.846066
O O8 0.598358 0.807066 0.178592
O O9 0.000000 0.761926 0.250000
O O10 0.993109 0.742480 0.145447
O O11 0.431194 0.742393 0.906530
O O12 0.280944 0.881886 0.898986
O O13 0.771657 0.866111 0.915820
O O14 0.086288 0.884774 0.000000
O O15 0.000000 0.000000 0.066644
#
# Coordination Sequence:
#
# PCOD9393588 Si02
#       6
#     8   8   8   8   8   8
#     4  10  20  33  53  80 119 173 220 269 340 408
#     4  10  20  36  59  82 128 169 229 298 346 404
#     4  10  23  43  68  94 130 182 236 292 361 413
#     4  11  22  43  68 103 140 184 228 279 341 412
#     4  10  21  40  58  90 126 171 226 291 338 412
#     4  11  24  44  72 109 149 186 221 268 340 423
#
# _framework density 22.288606000000001
#
# number of rings (size 3 to 8) (size 9 to 14) (size 15 to 20)
#    0.000    1.667    3.333    1.000    0.000    6.333 
#    0.000    5.000    0.000    0.500    4.333    0.000 
#    0.000    0.000    0.000    0.000    0.000    0.000 
#
# Total GULP energy -267850.204552 kJ/mol
# GULP energy per Si atom -5580.212595 kJ/mol
# Density = 2.223788 g / cm^3
# Si number density = 22.288606 Si / 1000 Ang^3
#
#
#
# Elastic Constant Matrix: (Units=GPa)
#
#
# Indices 1 2 3 4 5 6 
#
# 1 122.4925 45.7236 47.5816 0.0000 0.0000 0.0000
# 2 45.7236 110.1657 43.4609 0.0000 0.0000 0.0000
# 3 47.5816 43.4609 116.9511 0.0000 0.0000 0.0000
# 4 0.0000 0.0000 0.0000 -5.6264 0.0000 0.0000
# 5 0.0000 0.0000 0.0000 0.0000 29.2692 0.0000
# 6 0.0000 0.0000 0.0000 0.0000 0.0000 41.1380
#
#
#
# Elastic Compliance Matrix: (Units=1/GPa)
#
#
# Indices 1 2 3 4 5 6 
#
# 1 0.010552 -0.003147 -0.003123 0.000000 0.000000 0.000000
# 2 -0.003147 0.011575 -0.003021 0.000000 0.000000 0.000000
# 3 -0.003123 -0.003021 0.010944 0.000000 0.000000 0.000000
# 4 0.000000 0.000000 0.000000 -0.177733 0.000000 0.000000
# 5 0.000000 0.000000 0.000000 0.000000 0.034166 0.000000
# 6 0.000000 0.000000 0.000000 0.000000 0.000000 0.024308
#
#
# Mechanical properties :
#
#
# Convention : Reuss Voigt Hill
#
# Bulk Modulus (GPa) = 69.02462 69.23792 69.13127
# Shear Modulus (GPa) = -79.64960 27.14571 -26.25194
#
# Velocity S-wave (km/s) = -5.98441 3.49366 -3.43566
# Velocity P-wave (km/s) = 4.08841 6.88519 3.91732
#
# Compressibility (1/GPa) = 0.01448758
#
# Stress axis : x y z
#
# Youngs Moduli (GPa) = 94.77002 86.39060 91.37383
#
# Poissons Ratio (x) = 0.27189 0.28540
# Poissons Ratio (y) = 0.29827 0.27605
# Poissons Ratio (z) = 0.29601 0.26100
#
# Static dielectric constant tensor:
#      x y z
#    x 1.982140 0.000000 0.000000 
#    y 0.000000 1.854670 0.000000 
#    z 0.000000 0.000000 1.836560 
# 
# From -- ./inp_files/21835.got.cif
#   From: 2010.05.17/outbox.cif.g08.bks.cpg/sg49_11_cif.got.tgz:21835.got - 2010.06.03 21:02:19.
