data_PCOD9393584
_publ_section_title
;
Structure prediction by ZEFSAII (Michael W. Deem and Ramdas Pophale) SiO2 
 PCOD9393584
Probable space group: P C C M
;
_chemical_formula_sum "Si O2"
_cell_formula_units_Z 64
_cell_length_a 15.628050
_cell_length_b 24.929097
_cell_length_c 9.004699
_cell_angle_alpha 90.000000
_cell_angle_beta 90.000000
_cell_angle_gamma 90.000000
_cell_volume 3508.169268
_symmetry_space_group_name_H-M "P C C M"
_symmetry_group_IT_number 49
_symmetry_cell_setting 'orthorhombic'
loop_
_space_group_symop_operation_xyz
x,y,z
-x,-y,z
x,-y,1/2-z
-x,y,1/2-z
-x,-y,-z
x,y,-z
-x,y,1/2+z
x,-y,1/2+z
loop_
_atom_site_type_symbol
_atom_site_label
_atom_site_fract_x
_atom_site_fract_y
_atom_site_fract_z
Si Si1 0.236933 0.144022 0.176796
Si Si2 0.906865 0.648765 0.679039
Si Si3 0.413398 0.859079 0.169867
Si Si4 0.586131 0.728266 0.668462
Si Si5 0.773612 0.441487 0.178309
Si Si6 0.090418 0.942620 0.677826
Si Si7 0.773310 0.740146 0.319871
Si Si8 0.415989 0.440473 0.322331
O O1 0.327867 0.125722 0.243003
O O2 0.163233 0.101017 0.207967
O O3 0.216066 0.201233 0.250818
O O4 0.244685 0.150879 0.000000
O O5 0.914369 0.647349 0.500000
O O6 0.849126 0.597972 0.725720
O O7 0.851040 0.701141 0.717959
O O8 0.000000 0.648740 0.750000
O O9 0.500000 0.876928 0.250000
O O10 0.415294 0.793662 0.166807
O O11 0.410162 0.877296 0.000000
O O12 0.500000 0.711194 0.750000
O O13 0.582410 0.707885 0.500000
O O14 0.680847 0.716588 0.730140
O O15 0.781362 0.500000 0.250000
O O16 0.678548 0.417841 0.209974
O O17 0.777516 0.447275 0.000000
O O18 0.080901 0.948352 0.500000
O O19 0.000000 0.926164 0.750000
O O20 0.112449 0.000000 0.750000
O O21 0.768047 0.744692 0.500000
O O22 0.412161 0.500000 0.250000
O O23 0.500000 0.414344 0.250000
O O24 0.426740 0.444012 0.500000
#
# Coordination Sequence:
#
# PCOD9393584 Si02
#       8
#     8   8   8   8   8   8   8   8
#     4  10  20  33  52  80 109 138 176 217 258 309
#     4  10  22  40  57  74  99 132 170 214 264 312
#     4   9  16  27  46  73 105 141 178 216 258 304
#     4   8  14  25  43  68  96 128 163 198 239 288
#     4   9  19  35  55  77 102 132 167 209 255 306
#     4  10  21  36  55  78 105 137 173 218 267 315
#     4   9  19  35  53  73 102 139 173 206 253 310
#     4   9  15  25  44  71 101 131 160 193 237 289
#
# _framework density 18.243131999999999
#
# number of rings (size 3 to 8) (size 9 to 14) (size 15 to 20)
#    0.000    2.750    0.000    3.000    0.000    7.250 
#    0.000    4.375    0.000    0.375    0.000    2.625 
#    0.000    0.000    0.000    0.000    0.000    0.000 
#
# Total GULP energy -356860.731528 kJ/mol
# GULP energy per Si atom -5575.948930 kJ/mol
# Density = 1.820161 g / cm^3
# Si number density = 18.243132 Si / 1000 Ang^3
#
#
#
# Elastic Constant Matrix: (Units=GPa)
#
#
# Indices 1 2 3 4 5 6 
#
# 1 212.3618 84.9885 75.8257 0.0000 0.0000 0.0000
# 2 84.9885 74.6209 44.2523 0.0000 0.0000 0.0000
# 3 75.8257 44.2523 64.1094 0.0000 0.0000 0.0000
# 4 0.0000 0.0000 0.0000 4.2381 0.0000 0.0000
# 5 0.0000 0.0000 0.0000 0.0000 35.8012 0.0000
# 6 0.0000 0.0000 0.0000 0.0000 0.0000 93.1804
#
#
#
# Elastic Compliance Matrix: (Units=1/GPa)
#
#
# Indices 1 2 3 4 5 6 
#
# 1 0.010153 -0.007521 -0.006817 0.000000 0.000000 0.000000
# 2 -0.007521 0.028260 -0.010611 0.000000 0.000000 0.000000
# 3 -0.006817 -0.010611 0.030986 0.000000 0.000000 0.000000
# 4 0.000000 0.000000 0.000000 0.235954 0.000000 0.000000
# 5 0.000000 0.000000 0.000000 0.000000 0.027932 0.000000
# 6 0.000000 0.000000 0.000000 0.000000 0.000000 0.010732
#
#
# Mechanical properties :
#
#
# Convention : Reuss Voigt Hill
#
# Bulk Modulus (GPa) = 51.28199 84.58058 67.93128
# Shear Modulus (GPa) = 12.48706 36.37897 24.43302
#
# Velocity S-wave (km/s) = 2.61910 4.47040 3.66361
# Velocity P-wave (km/s) = 6.10881 8.55041 7.43058
#
# Compressibility (1/GPa) = 0.01950002
#
# Stress axis : x y z
#
# Youngs Moduli (GPa) = 98.49378 35.38627 32.27279
#
# Poissons Ratio (x) = 0.26613 0.22001
# Poissons Ratio (y) = 0.74075 0.34245
# Poissons Ratio (z) = 0.67144 0.37549
#
# Static dielectric constant tensor:
#      x y z
#    x 1.637890 0.000000 0.000000 
#    y 0.000000 1.626190 0.000000 
#    z 0.000000 0.000000 1.615940 
# 
# From -- ./inp_files/4373.got.cif
#   From: 2010.05.17/outbox.cif.g08.bks.cpg/sg49_3_cif.got.tgz:4373.got - 2010.06.03 21:02:19.
