data_PCOD9393579
_publ_section_title
;
Structure prediction by ZEFSAII (Michael W. Deem and Ramdas Pophale) SiO2 
 PCOD9393579
Probable space group: P C C M
;
_chemical_formula_sum "Si O2"
_cell_formula_units_Z 56
_cell_length_a 19.389200
_cell_length_b 19.166890
_cell_length_c 8.792983
_cell_angle_alpha 90.000000
_cell_angle_beta 90.000000
_cell_angle_gamma 90.000000
_cell_volume 3267.742107
_symmetry_space_group_name_H-M "P C C M"
_symmetry_group_IT_number 49
_symmetry_cell_setting 'orthorhombic'
loop_
_space_group_symop_operation_xyz
x,y,z
-x,-y,z
x,-y,1/2-z
-x,y,1/2-z
-x,-y,-z
x,y,-z
-x,y,1/2+z
x,-y,1/2+z
loop_
_atom_site_type_symbol
_atom_site_label
_atom_site_fract_x
_atom_site_fract_y
_atom_site_fract_z
Si Si1 0.657375 0.924571 0.817368
Si Si2 0.710473 0.291941 0.316926
Si Si3 0.203298 0.843433 0.683520
Si Si4 0.075291 0.076972 0.682594
Si Si5 0.221068 0.422672 0.318642
Si Si6 0.932108 0.421895 0.818763
Si Si7 0.574284 0.790424 0.183302
O O1 0.733433 0.895539 0.777178
O O2 0.601642 0.866837 0.768039
O O3 0.645060 0.000000 0.750000
O O4 0.655165 0.927756 0.000000
O O5 0.711955 0.296991 0.500000
O O6 0.767581 0.233210 0.274855
O O7 0.726682 0.366124 0.245219
O O8 0.635634 0.262214 0.272368
O O9 0.194101 0.845307 0.500000
O O10 0.134179 0.869449 0.763930
O O11 0.071965 0.073086 0.500000
O O12 0.000000 0.095474 0.750000
O O13 0.092162 0.000000 0.750000
O O14 0.229217 0.500000 0.250000
O O15 0.225492 0.428250 0.500000
O O16 0.143757 0.394445 0.280565
O O17 0.930802 0.500000 0.750000
O O18 0.000000 0.386191 0.750000
O O19 0.939360 0.425773 0.000000
O O20 0.500000 0.774256 0.250000
O O21 0.570716 0.790111 0.000000
#
# Coordination Sequence:
#
# PCOD9393579 Si02
#       7
#     8   8   8   8   8   8   8
#     4   9  18  31  48  72 102 133 167 204 245 292
#     4   9  19  36  56  76 102 133 165 204 252 303
#     4   9  18  34  52  71  98 132 169 211 257 304
#     4  11  21  33  50  72  99 133 175 221 265 308
#     4  10  20  33  52  78 105 133 170 211 253 301
#     4   9  16  26  42  66  95 126 158 193 232 279
#     4   9  19  35  53  75 102 134 167 200 242 294
#
# _framework density 17.137215000000001
#
# number of rings (size 3 to 8) (size 9 to 14) (size 15 to 20)
#    0.000    2.571    0.000    5.143    0.000    5.429 
#    0.000    5.000    0.000    2.143    0.000    3.000 
#    0.000    0.000    0.000    0.000    0.000    0.000 
#
# Total GULP energy -312183.380291 kJ/mol
# GULP energy per Si atom -5574.703219 kJ/mol
# Density = 1.709821 g / cm^3
# Si number density = 17.137215 Si / 1000 Ang^3
#
#
#
# Elastic Constant Matrix: (Units=GPa)
#
#
# Indices 1 2 3 4 5 6 
#
# 1 127.1339 73.8600 47.3274 0.0000 0.0000 0.0000
# 2 73.8600 105.2611 37.5816 0.0000 0.0000 0.0000
# 3 47.3274 37.5816 53.7472 0.0000 0.0000 0.0000
# 4 0.0000 0.0000 0.0000 23.3841 0.0000 0.0000
# 5 0.0000 0.0000 0.0000 0.0000 29.1704 0.0000
# 6 0.0000 0.0000 0.0000 0.0000 0.0000 13.1883
#
#
#
# Elastic Compliance Matrix: (Units=1/GPa)
#
#
# Indices 1 2 3 4 5 6 
#
# 1 0.015524 -0.008013 -0.008067 0.000000 0.000000 0.000000
# 2 -0.008013 0.016797 -0.004689 0.000000 0.000000 0.000000
# 3 -0.008067 -0.004689 0.028988 0.000000 0.000000 0.000000
# 4 0.000000 0.000000 0.000000 0.042764 0.000000 0.000000
# 5 0.000000 0.000000 0.000000 0.000000 0.034281 0.000000
# 6 0.000000 0.000000 0.000000 0.000000 0.000000 0.075825
#
#
# Mechanical properties :
#
#
# Convention : Reuss Voigt Hill
#
# Bulk Modulus (GPa) = 50.57948 67.07559 58.82753
# Shear Modulus (GPa) = 19.06170 21.64010 20.35090
#
# Velocity S-wave (km/s) = 3.33873 3.55738 3.44979
# Velocity P-wave (km/s) = 6.66643 7.48990 7.09013
#
# Compressibility (1/GPa) = 0.01977086
#
# Stress axis : x y z
#
# Youngs Moduli (GPa) = 64.41724 59.53542 34.49732
#
# Poissons Ratio (x) = 0.47704 0.27829
# Poissons Ratio (y) = 0.51615 0.16176
# Poissons Ratio (z) = 0.51965 0.27917
#
# Static dielectric constant tensor:
#      x y z
#    x 1.598260 0.000000 0.000000 
#    y 0.000000 1.564600 0.000000 
#    z 0.000000 0.000000 1.574720 
# 
# From -- ./inp_files/5895.got.cif
#   From: 2010.05.17/outbox.cif.g08.bks.cpg/sg49_3_cif.got.tgz:5895.got - 2010.06.03 21:02:19.
