data_PCOD9393593
_publ_section_title
;
Structure prediction by ZEFSAII (Michael W. Deem and Ramdas Pophale) SiO2 
 PCOD9393593
Probable space group: P C C M
;
_chemical_formula_sum "Si O2"
_cell_formula_units_Z 56
_cell_length_a 8.769787
_cell_length_b 14.186751
_cell_length_c 21.588814
_cell_angle_alpha 90.000000
_cell_angle_beta 90.000000
_cell_angle_gamma 90.000000
_cell_volume 2685.967641
_symmetry_space_group_name_H-M "P C C M"
_symmetry_group_IT_number 49
_symmetry_cell_setting 'orthorhombic'
loop_
_space_group_symop_operation_xyz
x,y,z
-x,-y,z
x,-y,1/2-z
-x,y,1/2-z
-x,-y,-z
x,y,-z
-x,y,1/2+z
x,-y,1/2+z
loop_
_atom_site_type_symbol
_atom_site_label
_atom_site_fract_x
_atom_site_fract_y
_atom_site_fract_z
Si Si1 0.683133 0.611939 0.739225
Si Si2 0.907641 0.810136 0.572442
Si Si3 0.150308 0.548424 0.569894
Si Si4 0.823065 0.269445 0.347479
Si Si5 0.364667 0.938159 0.930755
Si Si6 0.687785 0.636038 0.594236
Si Si7 0.579380 0.761002 0.066994
O O1 0.718571 0.500000 0.750000
O O2 0.500000 0.623749 0.750000
O O3 0.784123 0.684518 0.780824
O O4 0.708865 0.633948 0.667795
O O5 0.960587 0.824936 0.500000
O O6 0.801448 0.900748 0.590664
O O7 0.806189 0.714262 0.569974
O O8 0.030559 0.787289 0.626648
O O9 0.113584 0.576773 0.500000
O O10 0.186581 0.638493 0.609116
O O11 0.275301 0.467467 0.570473
O O12 0.000000 0.500000 0.597744
O O13 0.680090 0.212254 0.374213
O O14 0.451025 0.839656 0.937331
O O15 0.500000 0.000000 0.899523
O O16 0.339803 0.980830 0.000000
O O17 0.517133 0.666524 0.577741
O O18 0.659993 0.757501 0.000000
#
# Coordination Sequence:
#
# PCOD9393593 Si02
#       7
#     8   8   8   8   8   8   8
#     4  11  23  39  50  69 109 157 210 260 295 353
#     4  10  20  35  56  85 117 144 187 244 300 368
#     4  11  21  33  50  75 110 149 194 243 305 366
#     4  12  22  35  52  78 113 154 194 254 306 341
#     4   8  16  34  59  84 114 150 179 216 288 382
#     4  11  20  36  53  73 103 154 203 246 296 352
#     4  10  20  33  54  83 111 143 192 245 299 363
#
# _framework density 20.849097
#
# number of rings (size 3 to 8) (size 9 to 14) (size 15 to 20)
#    0.000    1.571    4.286    3.429    0.000    1.143 
#    0.000    3.571    0.000    3.429    0.000    8.000 
#    0.000    4.571    0.000    0.000    0.000    0.000 
#
# Total GULP energy -311759.779586 kJ/mol
# GULP energy per Si atom -5567.138921 kJ/mol
# Density = 2.080164 g / cm^3
# Si number density = 20.849097 Si / 1000 Ang^3
#
#
#
# Elastic Constant Matrix: (Units=GPa)
#
#
# Indices 1 2 3 4 5 6 
#
# 1 89.7515 28.8272 15.5350 0.0000 0.0000 0.0000
# 2 28.8272 47.6332 8.2540 0.0000 0.0000 0.0000
# 3 15.5350 8.2540 112.4195 0.0000 0.0000 0.0000
# 4 0.0000 0.0000 0.0000 -20.8710 0.0000 0.0000
# 5 0.0000 0.0000 0.0000 0.0000 9.3628 0.0000
# 6 0.0000 0.0000 0.0000 0.0000 0.0000 47.6469
#
#
#
# Elastic Compliance Matrix: (Units=1/GPa)
#
#
# Indices 1 2 3 4 5 6 
#
# 1 0.014024 -0.008257 -0.001332 0.000000 0.000000 0.000000
# 2 -0.008257 0.026125 -0.000777 0.000000 0.000000 0.000000
# 3 -0.001332 -0.000777 0.009136 0.000000 0.000000 0.000000
# 4 0.000000 0.000000 0.000000 -0.047913 0.000000 0.000000
# 5 0.000000 0.000000 0.000000 0.000000 0.106805 0.000000
# 6 0.000000 0.000000 0.000000 0.000000 0.000000 0.020988
#
#
# Mechanical properties :
#
#
# Convention : Reuss Voigt Hill
#
# Bulk Modulus (GPa) = 35.02040 39.44850 37.23445
# Shear Modulus (GPa) = 31.36463 20.37360 25.86911
#
# Velocity S-wave (km/s) = 3.88282 3.12940 3.52629
# Velocity P-wave (km/s) = 6.07744 5.65858 5.87175
#
# Compressibility (1/GPa) = 0.02855478
#
# Stress axis : x y z
#
# Youngs Moduli (GPa) = 71.30469 38.27708 109.45284
#
# Poissons Ratio (x) = 0.31604 0.14577
# Poissons Ratio (y) = 0.58874 0.08507
# Poissons Ratio (z) = 0.09496 0.02975
#
# Static dielectric constant tensor:
#      x y z
#    x 1.880010 0.000000 0.000000 
#    y 0.000000 1.824160 0.000000 
#    z 0.000000 0.000000 1.753950 
# 
# From -- ./inp_files/19917.got.cif
#   From: 2010.05.17/outbox.cif.g08.bks.cpg/sg49_10_cif.got.tgz:19917.got - 2010.06.03 21:02:19.
