data_PCOD9393356
_publ_section_title
;
Structure prediction by ZEFSAII (Michael W. Deem and Ramdas Pophale) SiO2 
 PCOD9393356
Probable space group: P C C M
;
_chemical_formula_sum "Si O2"
_cell_formula_units_Z 64
_cell_length_a 25.802789
_cell_length_b 14.820780
_cell_length_c 8.764719
_cell_angle_alpha 90.000000
_cell_angle_beta 90.000000
_cell_angle_gamma 90.000000
_cell_volume 3351.781570
_symmetry_space_group_name_H-M "P C C M"
_symmetry_group_IT_number 49
_symmetry_cell_setting 'orthorhombic'
loop_
_space_group_symop_operation_xyz
x,y,z
-x,-y,z
x,-y,1/2-z
-x,y,1/2-z
-x,-y,-z
x,y,-z
-x,y,1/2+z
x,-y,1/2+z
loop_
_atom_site_type_symbol
_atom_site_label
_atom_site_fract_x
_atom_site_fract_y
_atom_site_fract_z
Si Si1 0.054461 0.284086 0.182283
Si Si2 0.253160 0.286689 0.316353
Si Si3 0.148827 0.600377 0.817010
Si Si4 0.441673 0.909897 0.317652
Si Si5 0.654556 0.401869 0.317327
Si Si6 0.786723 0.094674 0.817547
Si Si7 0.090212 0.096245 0.682905
Si Si8 0.442588 0.710057 0.683459
O O1 0.101191 0.344891 0.245125
O O2 0.063236 0.182037 0.241713
O O3 0.000000 0.317002 0.250000
O O4 0.053553 0.285459 0.000000
O O5 0.260042 0.286655 0.500000
O O6 0.201694 0.345239 0.283687
O O7 0.301841 0.332941 0.238416
O O8 0.242792 0.184125 0.264654
O O9 0.151569 0.500000 0.750000
O O10 0.142690 0.597149 0.000000
O O11 0.500000 0.907987 0.250000
O O12 0.444023 0.918399 0.500000
O O13 0.421046 0.810508 0.277498
O O14 0.415963 0.000000 0.250000
O O15 0.664930 0.500000 0.250000
O O16 0.654954 0.406268 0.500000
O O17 0.598494 0.364433 0.266307
O O18 0.848088 0.104608 0.782474
O O19 0.768389 0.000000 0.750000
O O20 0.782716 0.090612 0.000000
O O21 0.083557 0.098183 0.500000
O O22 0.072819 0.000000 0.750000
O O23 0.500000 0.698802 0.750000
O O24 0.446891 0.707312 0.500000
#
# Coordination Sequence:
#
# PCOD9393356 Si02
#       8
#     8   8   8   8   8   8   8   8
#     4  12  25  41  61  87 119 159 201 247 302 356
#     4  10  21  40  64  90 121 155 193 240 291 346
#     4  11  23  42  64  89 118 150 195 248 299 358
#     4   9  15  26  46  74 106 141 181 225 272 325
#     4  11  24  41  60  86 117 151 194 246 298 351
#     4   9  18  34  58  89 122 156 192 235 284 342
#     4  10  19  36  59  88 122 158 198 245 293 351
#     4   9  20  37  57  82 115 153 194 238 288 346
#
# _framework density 19.094322999999999
#
# number of rings (size 3 to 8) (size 9 to 14) (size 15 to 20)
#    0.000    1.875    1.250    3.375    0.000    5.250 
#    0.000    4.375    0.000    3.000    0.000    0.000 
#    0.000    0.000    0.000    0.000    0.000    0.000 
#
# Total GULP energy -357431.859386 kJ/mol
# GULP energy per Si atom -5584.872803 kJ/mol
# Density = 1.905086 g / cm^3
# Si number density = 19.094323 Si / 1000 Ang^3
#
#
#
# Elastic Constant Matrix: (Units=GPa)
#
#
# Indices 1 2 3 4 5 6 
#
# 1 90.0254 53.0799 39.0167 0.0000 0.0000 0.0000
# 2 53.0799 127.5084 40.8757 0.0000 0.0000 0.0000
# 3 39.0167 40.8757 62.2815 0.0000 0.0000 0.0000
# 4 0.0000 0.0000 0.0000 40.5436 0.0000 0.0000
# 5 0.0000 0.0000 0.0000 0.0000 19.4615 0.0000
# 6 0.0000 0.0000 0.0000 0.0000 0.0000 -13.8414
#
#
#
# Elastic Compliance Matrix: (Units=1/GPa)
#
#
# Indices 1 2 3 4 5 6 
#
# 1 0.017216 -0.004698 -0.007702 0.000000 0.000000 0.000000
# 2 -0.004698 0.011214 -0.004417 0.000000 0.000000 0.000000
# 3 -0.007702 -0.004417 0.023780 0.000000 0.000000 0.000000
# 4 0.000000 0.000000 0.000000 0.024665 0.000000 0.000000
# 5 0.000000 0.000000 0.000000 0.000000 0.051384 0.000000
# 6 0.000000 0.000000 0.000000 0.000000 0.000000 -0.072247
#
#
# Mechanical properties :
#
#
# Convention : Reuss Voigt Hill
#
# Bulk Modulus (GPa) = 53.83064 60.63998 57.23531
# Shear Modulus (GPa) = 52.17223 19.02227 35.59725
#
# Velocity S-wave (km/s) = 5.23285 3.15973 4.32242
# Velocity P-wave (km/s) = 8.04758 6.71855 7.41291
#
# Compressibility (1/GPa) = 0.01857678
#
# Stress axis : x y z
#
# Youngs Moduli (GPa) = 58.08656 89.17295 42.05237
#
# Poissons Ratio (x) = 0.41890 0.32388
# Poissons Ratio (y) = 0.27287 0.18575
# Poissons Ratio (z) = 0.44737 0.39388
#
# Static dielectric constant tensor:
#      x y z
#    x 1.650730 0.000000 0.000000 
#    y 0.000000 1.678070 0.000000 
#    z 0.000000 0.000000 1.637380 
# 
# From -- ./inp_files/6479.got.cif
#   From: 2010.05.17/outbox.cif.g08.bks.cpg/sg49_4_cif.got.tgz:6479.got - 2010.06.03 21:02:19.
