data_PCOD9393312
_publ_section_title
;
Structure prediction by ZEFSAII (Michael W. Deem and Ramdas Pophale) SiO2 
 PCOD9393312
Probable space group: P C C M
;
_chemical_formula_sum "Si O2"
_cell_formula_units_Z 64
_cell_length_a 25.811022
_cell_length_b 14.886516
_cell_length_c 8.671435
_cell_angle_alpha 90.000000
_cell_angle_beta 90.000000
_cell_angle_gamma 90.000000
_cell_volume 3331.879163
_symmetry_space_group_name_H-M "P C C M"
_symmetry_group_IT_number 49
_symmetry_cell_setting 'orthorhombic'
loop_
_space_group_symop_operation_xyz
x,y,z
-x,-y,z
x,-y,1/2-z
-x,y,1/2-z
-x,-y,-z
x,y,-z
-x,y,1/2+z
x,-y,1/2+z
loop_
_atom_site_type_symbol
_atom_site_label
_atom_site_fract_x
_atom_site_fract_y
_atom_site_fract_z
Si Si1 0.055130 0.283543 0.183956
Si Si2 0.251830 0.286150 0.312256
Si Si3 0.150031 0.600703 0.814272
Si Si4 0.441410 0.909590 0.315979
Si Si5 0.650012 0.401300 0.185061
Si Si6 0.784781 0.094952 0.815379
Si Si7 0.092228 0.096334 0.684676
Si Si8 0.441877 0.710686 0.684877
O O1 0.101066 0.344660 0.250600
O O2 0.064680 0.181397 0.239967
O O3 0.000000 0.314132 0.250000
O O4 0.055125 0.287014 0.000000
O O5 0.252183 0.283579 0.500000
O O6 0.202064 0.345612 0.268093
O O7 0.304236 0.334531 0.262237
O O8 0.244177 0.183972 0.257950
O O9 0.151055 0.500000 0.750000
O O10 0.147729 0.598920 0.000000
O O11 0.500000 0.908182 0.250000
O O12 0.443699 0.916945 0.500000
O O13 0.420516 0.810962 0.274728
O O14 0.415843 0.000000 0.250000
O O15 0.659780 0.500000 0.250000
O O16 0.595811 0.363027 0.245390
O O17 0.649737 0.404163 0.000000
O O18 0.846146 0.104637 0.779589
O O19 0.766436 0.000000 0.750000
O O20 0.780628 0.091702 0.000000
O O21 0.085938 0.098910 0.500000
O O22 0.074806 0.000000 0.750000
O O23 0.500000 0.702902 0.750000
O O24 0.443741 0.704041 0.500000
#
# Coordination Sequence:
#
# PCOD9393312 Si02
#       8
#     8   8   8   8   8   8   8   8
#     4  12  25  41  60  86 118 157 201 247 301 357
#     4   9  19  38  63  88 120 156 191 236 292 348
#     4  11  22  41  64  89 117 151 194 246 300 357
#     4   9  16  27  48  77 110 146 186 231 277 329
#     4  11  23  40  62  87 117 154 195 244 299 351
#     4   9  17  33  57  87 120 156 192 233 284 342
#     4  10  19  35  59  87 121 158 197 244 293 351
#     4  10  21  38  59  86 119 156 199 244 292 349
#
# _framework density 19.208380999999999
#
# number of rings (size 3 to 8) (size 9 to 14) (size 15 to 20)
#    0.000    1.875    1.250    3.750    0.000    2.750 
#    0.000    7.500    0.000    3.000    0.000    0.000 
#    0.000    0.000    0.000    0.000    0.000    0.000 
#
# Total GULP energy -357438.076080 kJ/mol
# GULP energy per Si atom -5584.969939 kJ/mol
# Density = 1.916466 g / cm^3
# Si number density = 19.208381 Si / 1000 Ang^3
#
#
#
# Elastic Constant Matrix: (Units=GPa)
#
#
# Indices 1 2 3 4 5 6 
#
# 1 95.5189 60.0064 28.5341 0.0000 0.0000 0.0000
# 2 60.0064 134.4061 33.5245 0.0000 0.0000 0.0000
# 3 28.5341 33.5245 63.7576 0.0000 0.0000 0.0000
# 4 0.0000 0.0000 0.0000 36.7618 0.0000 0.0000
# 5 0.0000 0.0000 0.0000 0.0000 10.6075 0.0000
# 6 0.0000 0.0000 0.0000 0.0000 0.0000 -7.5113
#
#
#
# Elastic Compliance Matrix: (Units=1/GPa)
#
#
# Indices 1 2 3 4 5 6 
#
# 1 0.015289 -0.005892 -0.003744 0.000000 0.000000 0.000000
# 2 -0.005892 0.010834 -0.003060 0.000000 0.000000 0.000000
# 3 -0.003744 -0.003060 0.018969 0.000000 0.000000 0.000000
# 4 0.000000 0.000000 0.000000 0.027202 0.000000 0.000000
# 5 0.000000 0.000000 0.000000 0.000000 0.094273 0.000000
# 6 0.000000 0.000000 0.000000 0.000000 0.000000 -0.133133
#
#
# Mechanical properties :
#
#
# Convention : Reuss Voigt Hill
#
# Bulk Modulus (GPa) = 50.76191 59.75696 55.25944
# Shear Modulus (GPa) = 76.46094 19.41277 47.93686
#
# Velocity S-wave (km/s) = 6.31605 3.18251 5.00104
# Velocity P-wave (km/s) = 8.92604 6.68445 7.88531
#
# Compressibility (1/GPa) = 0.01969981
#
# Stress axis : x y z
#
# Youngs Moduli (GPa) = 65.40606 92.30380 52.71766
#
# Poissons Ratio (x) = 0.54385 0.19740
# Poissons Ratio (y) = 0.38537 0.16130
# Poissons Ratio (z) = 0.24491 0.28242
#
# Static dielectric constant tensor:
#      x y z
#    x 1.656490 0.000000 0.000000 
#    y 0.000000 1.679860 0.000000 
#    z 0.000000 0.000000 1.645920 
# 
# From -- ./inp_files/6480.got.cif
#   From: 2010.05.17/outbox.cif.g08.bks.cpg/sg49_4_cif.got.tgz:6480.got - 2010.06.03 21:02:19.
