data_PCOD9393805
_publ_section_title
;
Structure prediction by ZEFSAII (Michael W. Deem and Ramdas Pophale) SiO2 
 PCOD9393805
Probable space group: P C C M
;
_chemical_formula_sum "Si O2"
_cell_formula_units_Z 64
_cell_length_a 8.332836
_cell_length_b 21.620417
_cell_length_c 18.399281
_cell_angle_alpha 90.000000
_cell_angle_beta 90.000000
_cell_angle_gamma 90.000000
_cell_volume 3314.803225
_symmetry_space_group_name_H-M "P C C M"
_symmetry_group_IT_number 49
_symmetry_cell_setting 'orthorhombic'
loop_
_space_group_symop_operation_xyz
x,y,z
-x,-y,z
x,-y,1/2-z
-x,y,1/2-z
-x,-y,-z
x,y,-z
-x,y,1/2+z
x,-y,1/2+z
loop_
_atom_site_type_symbol
_atom_site_label
_atom_site_fract_x
_atom_site_fract_y
_atom_site_fract_z
Si Si1 0.060457 0.433597 0.665978
Si Si2 0.560238 0.814280 0.668702
Si Si3 0.055919 0.187283 0.667450
Si Si4 0.556776 0.934073 0.083467
Si Si5 0.605632 0.438725 0.086393
Si Si6 0.059739 0.933314 0.583675
Si Si7 0.442282 0.304545 0.582235
Si Si8 0.949893 0.690245 0.416280
O O1 0.249527 0.436805 0.644633
O O2 0.000059 0.372463 0.624402
O O3 0.000000 0.500000 0.638273
O O4 0.000000 0.429008 0.750000
O O5 0.500000 0.819683 0.750000
O O6 0.752011 0.812180 0.666143
O O7 0.504262 0.874094 0.624697
O O8 0.500521 0.749669 0.634367
O O9 0.995294 0.247606 0.623965
O O10 0.000000 0.190395 0.750000
O O11 0.998921 0.124305 0.630098
O O12 0.748498 0.933763 0.083337
O O13 0.500000 0.000000 0.114668
O O14 0.497607 0.931150 0.000000
O O15 0.500000 0.500000 0.094858
O O16 0.507175 0.374992 0.097761
O O17 0.660752 0.436591 0.000000
O O18 0.002003 0.926599 0.500000
O O19 0.000000 0.000000 0.610839
O O20 0.487853 0.288262 0.500000
O O21 0.246381 0.307715 0.584791
O O22 0.000445 0.689601 0.500000
#
# Coordination Sequence:
#
# PCOD9393805 Si02
#       8
#     8   8   8   8   8   8   8   8
#     4  10  20  35  54  83 120 154 189 230 286 348
#     4  11  22  36  55  81 112 147 185 224 273 332
#     4  11  22  37  57  81 114 150 186 229 281 337
#     4  10  21  38  60  85 112 142 179 226 276 326
#     4   9  18  36  61  86 112 147 195 245 289 337
#     4  10  21  38  60  86 114 145 185 229 274 330
#     4   8  16  33  57  82 108 141 183 232 282 331
#     4   9  18  34  58  83 108 145 190 234 280 333
#
# _framework density 19.30733
#
# number of rings (size 3 to 8) (size 9 to 14) (size 15 to 20)
#    0.000    2.250    0.000    3.750    0.000    4.000 
#    0.000   13.750    0.000    4.500    0.000    0.000 
#    0.000    0.000    0.000    0.000    0.000    0.000 
#
# Total GULP energy -357033.922472 kJ/mol
# GULP energy per Si atom -5578.655039 kJ/mol
# Density = 1.926339 g / cm^3
# Si number density = 19.307330 Si / 1000 Ang^3
#
#
#
# Elastic Constant Matrix: (Units=GPa)
#
#
# Indices 1 2 3 4 5 6 
#
# 1 34.4458 31.9573 27.3581 0.0000 0.0000 0.0000
# 2 31.9573 218.0968 102.6133 0.0000 0.0000 0.0000
# 3 27.3581 102.6133 116.0798 0.0000 0.0000 0.0000
# 4 0.0000 0.0000 0.0000 18.3071 0.0000 0.0000
# 5 0.0000 0.0000 0.0000 0.0000 36.6654 0.0000
# 6 0.0000 0.0000 0.0000 0.0000 0.0000 22.0855
#
#
#
# Elastic Compliance Matrix: (Units=1/GPa)
#
#
# Indices 1 2 3 4 5 6 
#
# 1 0.036332 -0.002217 -0.006603 0.000000 0.000000 0.000000
# 2 -0.002217 0.007985 -0.006536 0.000000 0.000000 0.000000
# 3 -0.006603 -0.006536 0.015949 0.000000 0.000000 0.000000
# 4 0.000000 0.000000 0.000000 0.054624 0.000000 0.000000
# 5 0.000000 0.000000 0.000000 0.000000 0.027274 0.000000
# 6 0.000000 0.000000 0.000000 0.000000 0.000000 0.045279
#
#
# Mechanical properties :
#
#
# Convention : Reuss Voigt Hill
#
# Bulk Modulus (GPa) = 33.83666 76.94220 55.38943
# Shear Modulus (GPa) = 21.92912 29.19117 25.56015
#
# Velocity S-wave (km/s) = 3.37381 3.89256 3.64243
# Velocity P-wave (km/s) = 5.72190 7.75503 6.81471
#
# Compressibility (1/GPa) = 0.02955375
#
# Stress axis : x y z
#
# Youngs Moduli (GPa) = 27.52363 125.22969 62.69921
#
# Poissons Ratio (x) = 0.27763 0.41401
# Poissons Ratio (y) = 0.06102 0.40983
# Poissons Ratio (z) = 0.18174 0.81856
#
# Static dielectric constant tensor:
#      x y z
#    x 1.682350 0.000000 0.000000 
#    y 0.000000 1.673780 0.000000 
#    z 0.000000 0.000000 1.674690 
# 
# From -- ./inp_files/16560.got.cif
#   From: 2010.05.17/outbox.cif.g08.bks.cpg/sg49_9_cif.got.tgz:16560.got - 2010.06.03 21:02:19.
