data_PCOD9393888
_publ_section_title
;
Structure prediction by ZEFSAII (Michael W. Deem and Ramdas Pophale) SiO2 
 PCOD9393888
Probable space group: P C C M
;
_chemical_formula_sum "Si O2"
_cell_formula_units_Z 60
_cell_length_a 22.160058
_cell_length_b 5.475504
_cell_length_c 25.444411
_cell_angle_alpha 90.000000
_cell_angle_beta 90.000000
_cell_angle_gamma 90.000000
_cell_volume 3087.360869
_symmetry_space_group_name_H-M "P C C M"
_symmetry_group_IT_number 49
_symmetry_cell_setting 'orthorhombic'
loop_
_space_group_symop_operation_xyz
x,y,z
-x,-y,z
x,-y,1/2-z
-x,y,1/2-z
-x,-y,-z
x,y,-z
-x,y,1/2+z
x,-y,1/2+z
loop_
_atom_site_type_symbol
_atom_site_label
_atom_site_fract_x
_atom_site_fract_y
_atom_site_fract_z
Si Si1 0.961236 0.244376 0.500000
Si Si2 0.745821 0.612933 0.198571
Si Si3 0.337063 0.799895 0.610816
Si Si4 0.932156 0.400882 0.389730
Si Si5 0.538229 0.749822 0.939152
Si Si6 0.294589 0.295655 0.440320
Si Si7 0.181555 0.266305 0.381708
Si Si8 0.866901 0.125250 0.698470
O O1 0.927651 0.245577 0.443696
O O2 0.000000 0.500000 0.500000
O O3 0.000000 0.000000 0.500000
O O4 0.715960 0.500000 0.250000
O O5 0.697548 0.770852 0.166270
O O6 0.775344 0.422871 0.157344
O O7 0.806747 0.742079 0.219406
O O8 0.407858 0.753087 0.602885
O O9 0.308245 0.574356 0.577086
O O10 0.326110 0.076600 0.591582
O O11 0.880318 0.601732 0.395697
O O12 0.915476 0.278572 0.334078
O O13 0.000000 0.500000 0.386803
O O14 0.500000 0.500000 0.933526
O O15 0.500000 0.000000 0.933790
O O16 0.561926 0.749614 0.000000
O O17 0.313600 0.270050 0.500000
O O18 0.223813 0.235425 0.431834
O O19 0.161915 0.036749 0.347826
O O20 0.894024 0.000000 0.750000
#
# Coordination Sequence:
#
# PCOD9393888 Si02
#       8
#     4   8   8   8   8   8   8   8
#     4  10  24  46  70  88 120 164 206 258 300 377
#     4  10  20  38  61  89 119 157 206 258 317 379
#     4  11  22  38  61  94 125 167 214 260 309 372
#     4  10  25  43  64  90 122 160 213 259 318 393
#     4  10  20  35  57  87 128 174 211 246 298 360
#     4  11  22  37  58  90 130 161 202 263 324 376
#     4  10  22  38  59  90 120 157 204 257 318 389
#     4  11  21  40  68  86 121 160 203 266 325 381
#
# _framework density 19.434073999999999
#
# number of rings (size 3 to 8) (size 9 to 14) (size 15 to 20)
#    0.000    1.600    2.667    2.000    4.667    1.067 
#    1.200    2.000    0.000    0.400    0.000    0.933 
#    0.000    0.000    0.000    0.000    0.000    0.000 
#
# Total GULP energy -334242.130954 kJ/mol
# GULP energy per Si atom -5570.702183 kJ/mol
# Density = 1.938984 g / cm^3
# Si number density = 19.434074 Si / 1000 Ang^3
#
#
#
# Elastic Constant Matrix: (Units=GPa)
#
#
# Indices 1 2 3 4 5 6 
#
# 1 83.1805 6.0472 19.5687 0.0000 0.0000 0.0000
# 2 6.0472 55.7682 -1.6434 0.0000 0.0000 0.0000
# 3 19.5687 -1.6434 72.2582 0.0000 0.0000 0.0000
# 4 0.0000 0.0000 0.0000 25.6906 0.0000 0.0000
# 5 0.0000 0.0000 0.0000 0.0000 316.9437 0.0000
# 6 0.0000 0.0000 0.0000 0.0000 0.0000 -4.7312
#
#
#
# Elastic Compliance Matrix: (Units=1/GPa)
#
#
# Indices 1 2 3 4 5 6 
#
# 1 0.012966 -0.001510 -0.003546 0.000000 0.000000 0.000000
# 2 -0.001510 0.018119 0.000821 0.000000 0.000000 0.000000
# 3 -0.003546 0.000821 0.014818 0.000000 0.000000 0.000000
# 4 0.000000 0.000000 0.000000 0.038925 0.000000 0.000000
# 5 0.000000 0.000000 0.000000 0.000000 0.003155 0.000000
# 6 0.000000 0.000000 0.000000 0.000000 0.000000 -0.211363
#
#
# Mechanical properties :
#
#
# Convention : Reuss Voigt Hill
#
# Bulk Modulus (GPa) = 26.71408 28.79465 27.75437
# Shear Modulus (GPa) = -48.81297 80.06291 15.62497
#
# Velocity S-wave (km/s) = -5.01714 6.42547 2.83856
# Velocity P-wave (km/s) = 4.44820 8.36048 5.00555
#
# Compressibility (1/GPa) = 0.03743344
#
# Stress axis : x y z
#
# Youngs Moduli (GPa) = 77.12463 55.18958 67.48466
#
# Poissons Ratio (x) = 0.08336 0.23928
# Poissons Ratio (y) = 0.11649 -0.05542
# Poissons Ratio (z) = 0.27347 -0.04532
#
# Static dielectric constant tensor:
#      x y z
#    x 1.681810 0.000000 0.000000 
#    y 0.000000 1.791280 0.000000 
#    z 0.000000 0.000000 0.502980 
# 
# From -- ./inp_files/23405.got.cif
#   From: 2010.05.17/outbox.cif.g08.bks.cpg/sg49_12_cif.got.tgz:23405.got - 2010.06.03 21:02:19.
