data_PCOD9393874
_publ_section_title
;
Structure prediction by ZEFSAII (Michael W. Deem and Ramdas Pophale) SiO2 
 PCOD9393874
Probable space group: P C C M
;
_chemical_formula_sum "Si O2"
_cell_formula_units_Z 56
_cell_length_a 7.221372
_cell_length_b 14.359697
_cell_length_c 21.794802
_cell_angle_alpha 90.000000
_cell_angle_beta 90.000000
_cell_angle_gamma 90.000000
_cell_volume 2260.049346
_symmetry_space_group_name_H-M "P C C M"
_symmetry_group_IT_number 49
_symmetry_cell_setting 'orthorhombic'
loop_
_space_group_symop_operation_xyz
x,y,z
-x,-y,z
x,-y,1/2-z
-x,y,1/2-z
-x,-y,-z
x,y,-z
-x,y,1/2+z
x,-y,1/2+z
loop_
_atom_site_type_symbol
_atom_site_label
_atom_site_fract_x
_atom_site_fract_y
_atom_site_fract_z
Si Si1 0.197037 0.285868 0.380932
Si Si2 0.225463 0.209158 0.749759
Si Si3 0.235171 0.663425 0.638069
Si Si4 0.728446 0.831999 0.065659
Si Si5 0.192934 0.043473 0.170857
Si Si6 0.686479 0.097859 0.067168
Si Si7 0.775619 0.484515 0.070011
O O1 0.279649 0.244261 0.317514
O O2 0.217157 0.198198 0.425651
O O3 0.277003 0.380324 0.409687
O O4 0.986588 0.318356 0.366877
O O5 0.287573 0.288202 0.797997
O O6 0.284509 0.106089 0.775048
O O7 0.000000 0.203832 0.750000
O O8 0.314250 0.726948 0.583747
O O9 0.284336 0.558453 0.621814
O O10 0.845807 0.877048 0.119772
O O11 0.532482 0.883481 0.065238
O O12 0.819092 0.837814 0.000000
O O13 0.281832 0.963612 0.128170
O O14 0.000000 0.000000 0.189737
O O15 0.740310 0.056758 0.000000
O O16 0.000000 0.500000 0.068158
O O17 0.714033 0.503155 0.000000
#
# Coordination Sequence:
#
# PCOD9393874 Si02
#       7
#     8   8   8   8   8   8   8
#     4  10  20  35  57  81 113 151 189 233 277 330
#     4   9  19  35  55  82 111 143 186 234 280 329
#     4   9  18  34  57  83 112 150 189 230 277 327
#     4  10  21  37  55  80 115 149 185 231 282 336
#     4  11  22  36  58  82 107 143 187 233 283 336
#     4  11  23  37  54  80 115 150 187 235 286 337
#     4   9  17  30  53  87 118 144 184 235 278 322
#
# _framework density 24.778220999999998
#
# number of rings (size 3 to 8) (size 9 to 14) (size 15 to 20)
#    0.000    2.143    0.000    4.286    0.000    7.714 
#    0.000    6.429    0.000   12.857    0.000    4.000 
#    0.000    0.000    0.000    0.000    0.000    0.000 
#
# Total GULP energy -312839.916212 kJ/mol
# GULP energy per Si atom -5586.427075 kJ/mol
# Density = 2.472182 g / cm^3
# Si number density = 24.778221 Si / 1000 Ang^3
#
#
#
# Elastic Constant Matrix: (Units=GPa)
#
#
# Indices 1 2 3 4 5 6 
#
# 1 67.7152 10.2873 21.4796 0.0000 0.0000 0.0000
# 2 10.2873 178.4651 64.1696 0.0000 0.0000 0.0000
# 3 21.4796 64.1696 168.5000 0.0000 0.0000 0.0000
# 4 0.0000 0.0000 0.0000 32.7668 0.0000 0.0000
# 5 0.0000 0.0000 0.0000 0.0000 -82.3768 0.0000
# 6 0.0000 0.0000 0.0000 0.0000 0.0000 16.3569
#
#
#
# Elastic Compliance Matrix: (Units=1/GPa)
#
#
# Indices 1 2 3 4 5 6 
#
# 1 0.015397 -0.000211 -0.001883 0.000000 0.000000 0.000000
# 2 -0.000211 0.006495 -0.002447 0.000000 0.000000 0.000000
# 3 -0.001883 -0.002447 0.007106 0.000000 0.000000 0.000000
# 4 0.000000 0.000000 0.000000 0.030519 0.000000 0.000000
# 5 0.000000 0.000000 0.000000 0.000000 -0.012139 0.000000
# 6 0.000000 0.000000 0.000000 0.000000 0.000000 0.061136
#
#
# Mechanical properties :
#
#
# Convention : Reuss Voigt Hill
#
# Bulk Modulus (GPa) = 50.20369 67.39479 58.79924
# Shear Modulus (GPa) = 40.24677 14.59896 27.42287
#
# Velocity S-wave (km/s) = 4.03461 2.42995 3.33037
# Velocity P-wave (km/s) = 6.48146 5.92715 6.21049
#
# Compressibility (1/GPa) = 0.01991886
#
# Stress axis : x y z
#
# Youngs Moduli (GPa) = 64.94824 153.95915 140.71686
#
# Poissons Ratio (x) = 0.03243 0.26490
# Poissons Ratio (y) = 0.01368 0.34429
# Poissons Ratio (z) = 0.12227 0.37669
#
# Static dielectric constant tensor:
#      x y z
#    x 2.020810 0.000000 0.000000 
#    y 0.000000 1.990780 0.000000 
#    z 0.000000 0.000000 1.966220 
# 
# From -- ./inp_files/19898.got.cif
#   From: 2010.05.17/outbox.cif.g08.bks.cpg/sg49_10_cif.got.tgz:19898.got - 2010.06.03 21:02:19.
