data_PCOD9393122
_publ_section_title
;
Structure prediction by ZEFSAII (Michael W. Deem and Ramdas Pophale) SiO2 
 PCOD9393122
Probable space group: P C C M
;
_chemical_formula_sum "Si O2"
_cell_formula_units_Z 56
_cell_length_a 12.586921
_cell_length_b 12.600119
_cell_length_c 14.570570
_cell_angle_alpha 90.000000
_cell_angle_beta 90.000000
_cell_angle_gamma 90.000000
_cell_volume 2310.844355
_symmetry_space_group_name_H-M "P C C M"
_symmetry_group_IT_number 49
_symmetry_cell_setting 'orthorhombic'
loop_
_space_group_symop_operation_xyz
x,y,z
-x,-y,z
x,-y,1/2-z
-x,y,1/2-z
-x,-y,-z
x,y,-z
-x,y,1/2+z
x,-y,1/2+z
loop_
_atom_site_type_symbol
_atom_site_label
_atom_site_fract_x
_atom_site_fract_y
_atom_site_fract_z
Si Si1 0.457029 0.301639 0.151906
Si Si2 0.843229 0.950449 0.104672
Si Si3 0.748436 0.558889 0.110108
Si Si4 0.080226 0.723611 0.387822
Si Si5 0.396617 0.945212 0.349776
Si Si6 0.308239 0.329636 0.395820
Si Si7 0.136060 0.820081 0.112030
O O1 0.500000 0.337421 0.250000
O O2 0.357769 0.371414 0.122291
O O3 0.420996 0.179623 0.155858
O O4 0.566337 0.314239 0.097578
O O5 0.884176 0.060669 0.146834
O O6 0.869731 0.835512 0.145051
O O7 0.715897 0.961494 0.102869
O O8 0.883974 0.944244 0.000000
O O9 0.850113 0.624626 0.145502
O O10 0.725666 0.441270 0.148176
O O11 0.762788 0.548799 0.000000
O O12 0.086668 0.720213 0.500000
O O13 0.956485 0.736778 0.364617
O O14 0.500000 0.000000 0.393542
O O15 0.386593 0.000000 0.250000
O O16 0.267822 0.333999 0.500000
O O17 0.247467 0.228694 0.354354
O O18 0.137084 0.832706 0.000000
#
# Coordination Sequence:
#
# PCOD9393122 Si02
#       7
#     8   8   8   8   8   8   8
#     4  12  23  38  60  81 111 153 192 232 285 346
#     4  10  19  33  57  85 112 145 188 233 282 345
#     4  10  21  38  60  87 116 149 193 239 281 332
#     4   9  17  32  56  86 117 148 184 230 284 340
#     4  11  22  37  54  79 113 149 184 231 287 335
#     4  10  22  38  58  87 118 149 191 240 283 330
#     4   9  18  32  54  86 119 148 182 231 286 337
#
# _framework density 24.233566
#
# number of rings (size 3 to 8) (size 9 to 14) (size 15 to 20)
#    0.000    1.857    2.857    2.143    0.000    5.429 
#    0.000    2.857    0.000    4.286    0.000    2.000 
#    0.000    0.000    0.000    0.000    0.000    0.000 
#
# Total GULP energy -312948.521492 kJ/mol
# GULP energy per Si atom -5588.366455 kJ/mol
# Density = 2.417841 g / cm^3
# Si number density = 24.233566 Si / 1000 Ang^3
#
#
#
# Elastic Constant Matrix: (Units=GPa)
#
#
# Indices 1 2 3 4 5 6 
#
# 1 90.2381 14.4957 -8.6273 0.0000 0.0000 0.0000
# 2 14.4957 123.6434 4.8473 0.0000 0.0000 0.0000
# 3 -8.6273 4.8473 49.1730 0.0000 0.0000 0.0000
# 4 0.0000 0.0000 0.0000 18.4273 0.0000 0.0000
# 5 0.0000 0.0000 0.0000 0.0000 -4.1012 0.0000
# 6 0.0000 0.0000 0.0000 0.0000 0.0000 -33.5379
#
#
#
# Elastic Compliance Matrix: (Units=1/GPa)
#
#
# Indices 1 2 3 4 5 6 
#
# 1 0.011519 -0.001435 0.002162 0.000000 0.000000 0.000000
# 2 -0.001435 0.008298 -0.001070 0.000000 0.000000 0.000000
# 3 0.002162 -0.001070 0.020821 0.000000 0.000000 0.000000
# 4 0.000000 0.000000 0.000000 0.054267 0.000000 0.000000
# 5 0.000000 0.000000 0.000000 0.000000 -0.243830 0.000000
# 6 0.000000 0.000000 0.000000 0.000000 0.000000 -0.029817
#
#
# Mechanical properties :
#
#
# Convention : Reuss Voigt Hill
#
# Bulk Modulus (GPa) = 25.02931 31.60955 28.31943
# Shear Modulus (GPa) = -30.35119 12.98021 -8.68549
#
# Velocity S-wave (km/s) = -3.54283 2.31688 -1.89522
# Velocity P-wave (km/s) = 2.52680 4.49769 2.63102
#
# Compressibility (1/GPa) = 0.03995317
#
# Stress axis : x y z
#
# Youngs Moduli (GPa) = 86.81239 120.51124 48.02790
#
# Poissons Ratio (x) = 0.17296 -0.10386
# Poissons Ratio (y) = 0.12460 0.05138
# Poissons Ratio (z) = -0.18773 0.12892
#
# Static dielectric constant tensor:
#      x y z
#    x 2.017360 0.000000 0.000000 
#    y 0.000000 1.959060 0.000000 
#    z 0.000000 0.000000 2.402630 
# 
# From -- ./inp_files/20512.got.cif
#   From: 2010.05.17/outbox.cif.g08.bks.cpg/sg49_11_cif.got.tgz:20512.got - 2010.06.03 21:02:19.
