data_PCOD9393313
_publ_section_title
;
Structure prediction by ZEFSAII (Michael W. Deem and Ramdas Pophale) SiO2 
 PCOD9393313
Probable space group: P C C M
;
_chemical_formula_sum "Si O2"
_cell_formula_units_Z 48
_cell_length_a 28.756036
_cell_length_b 8.579398
_cell_length_c 10.308550
_cell_angle_alpha 90.000000
_cell_angle_beta 90.000000
_cell_angle_gamma 90.000000
_cell_volume 2543.216987
_symmetry_space_group_name_H-M "P C C M"
_symmetry_group_IT_number 49
_symmetry_cell_setting 'orthorhombic'
loop_
_space_group_symop_operation_xyz
x,y,z
-x,-y,z
x,-y,1/2-z
-x,y,1/2-z
-x,-y,-z
x,y,-z
-x,y,1/2+z
x,-y,1/2+z
loop_
_atom_site_type_symbol
_atom_site_label
_atom_site_fract_x
_atom_site_fract_y
_atom_site_fract_z
Si Si1 0.047564 0.314033 0.500000
Si Si2 0.544992 0.197072 0.000000
Si Si3 0.563157 0.827017 0.000000
Si Si4 0.795183 0.142623 0.848328
Si Si5 0.888705 0.311920 0.240241
Si Si6 0.295712 0.357663 0.349687
Si Si7 0.604391 0.313121 0.761326
Si Si8 0.941278 0.306701 0.500000
O O1 0.075142 0.267127 0.372029
O O2 0.051645 0.504120 0.500000
O O3 0.994836 0.254316 0.500000
O O4 0.568482 0.265730 0.872224
O O5 0.490171 0.231463 0.000000
O O6 0.556617 0.013115 0.000000
O O7 0.589707 0.766819 0.127253
O O8 0.839457 0.240075 0.797783
O O9 0.748929 0.247446 0.843566
O O10 0.789717 0.000000 0.750000
O O11 0.802436 0.097536 0.000000
O O12 0.884227 0.500000 0.250000
O O13 0.911601 0.260270 0.375008
O O14 0.289125 0.500000 0.250000
O O15 0.301412 0.410826 0.500000
O O16 0.343319 0.272655 0.306843
O O17 0.603666 0.500000 0.750000
#
# Coordination Sequence:
#
# PCOD9393313 Si02
#       8
#     4   4   4   8   8   8   8   4
#     4   9  16  32  52  87 122 151 192 255 294 351
#     4  11  23  43  60  91 132 169 218 257 304 373
#     4  11  25  39  64  91 128 177 212 255 310 365
#     4  11  25  43  61  88 122 159 202 248 298 360
#     4  10  19  35  59  88 118 157 196 247 303 354
#     4  10  23  44  68  94 123 155 197 251 307 366
#     4  11  23  41  65  96 125 163 208 263 317 367
#     4   9  18  28  56  89 118 149 200 243 304 353
#
# _framework density 18.873735
#
# number of rings (size 3 to 8) (size 9 to 14) (size 15 to 20)
#    0.000    1.667    1.667    2.500    4.667    7.333 
#    0.000    0.000    0.000    3.000    0.000    0.000 
#    0.000    0.000    0.000    0.000    0.000    0.000 
#
# Total GULP energy -268051.164230 kJ/mol
# GULP energy per Si atom -5584.399255 kJ/mol
# Density = 1.883078 g / cm^3
# Si number density = 18.873735 Si / 1000 Ang^3
#
#
#
# Elastic Constant Matrix: (Units=GPa)
#
#
# Indices 1 2 3 4 5 6 
#
# 1 161.4476 35.9427 93.7892 0.0000 0.0000 0.0000
# 2 35.9427 32.8142 42.7445 0.0000 0.0000 0.0000
# 3 93.7892 42.7445 209.0927 0.0000 0.0000 0.0000
# 4 0.0000 0.0000 0.0000 19.1857 0.0000 0.0000
# 5 0.0000 0.0000 0.0000 0.0000 39.4135 0.0000
# 6 0.0000 0.0000 0.0000 0.0000 0.0000 -135.3633
#
#
#
# Elastic Compliance Matrix: (Units=1/GPa)
#
#
# Indices 1 2 3 4 5 6 
#
# 1 0.009285 -0.006467 -0.002843 0.000000 0.000000 0.000000
# 2 -0.006467 0.046040 -0.006511 0.000000 0.000000 0.000000
# 3 -0.002843 -0.006511 0.007389 0.000000 0.000000 0.000000
# 4 0.000000 0.000000 0.000000 0.052122 0.000000 0.000000
# 5 0.000000 0.000000 0.000000 0.000000 0.025372 0.000000
# 6 0.000000 0.000000 0.000000 0.000000 0.000000 -0.007388
#
#
# Mechanical properties :
#
#
# Convention : Reuss Voigt Hill
#
# Bulk Modulus (GPa) = 32.18368 83.14525 57.66446
# Shear Modulus (GPa) = 28.60087 0.03904 14.31995
#
# Velocity S-wave (km/s) = 3.89701 0.14397 2.75748
# Velocity P-wave (km/s) = 6.11049 6.64655 6.38415
#
# Compressibility (1/GPa) = 0.03107165
#
# Stress axis : x y z
#
# Youngs Moduli (GPa) = 107.69782 21.72031 135.34127
#
# Poissons Ratio (x) = 0.14047 0.38475
# Poissons Ratio (y) = 0.69652 0.88119
# Poissons Ratio (z) = 0.30616 0.14142
#
# Static dielectric constant tensor:
#      x y z
#    x 1.636990 0.000000 0.000000 
#    y 0.000000 1.646780 0.000000 
#    z 0.000000 0.000000 1.658760 
# 
# From -- ./inp_files/6934.got.cif
#   From: 2010.05.17/outbox.cif.g08.bks.cpg/sg49_4_cif.got.tgz:6934.got - 2010.06.03 21:02:19.
