data_PCOD9393897
_publ_section_title
;
Structure prediction by ZEFSAII (Michael W. Deem and Ramdas Pophale) SiO2 
 PCOD9393897
Probable space group: P C C M
;
_chemical_formula_sum "Si O2"
_cell_formula_units_Z 64
_cell_length_a 23.885240
_cell_length_b 5.234271
_cell_length_c 25.773466
_cell_angle_alpha 90.000000
_cell_angle_beta 90.000000
_cell_angle_gamma 90.000000
_cell_volume 3222.245603
_symmetry_space_group_name_H-M "P C C M"
_symmetry_group_IT_number 49
_symmetry_cell_setting 'orthorhombic'
loop_
_space_group_symop_operation_xyz
x,y,z
-x,-y,z
x,-y,1/2-z
-x,y,1/2-z
-x,-y,-z
x,y,-z
-x,y,1/2+z
x,-y,1/2+z
loop_
_atom_site_type_symbol
_atom_site_label
_atom_site_fract_x
_atom_site_fract_y
_atom_site_fract_z
Si Si1 0.625535 0.060280 0.941984
Si Si2 0.842999 0.648760 0.402124
Si Si3 0.358690 0.437573 0.192359
Si Si4 0.037294 0.753824 0.060682
Si Si5 0.433911 0.537682 0.594993
Si Si6 0.231556 0.642327 0.803770
Si Si7 0.213879 0.829359 0.440834
Si Si8 0.292023 0.958583 0.355924
O O1 0.589288 0.813011 0.924105
O O2 0.675412 0.114000 0.901003
O O3 0.588489 0.312950 0.941271
O O4 0.646423 0.012958 0.000000
O O5 0.907563 0.724904 0.404769
O O6 0.816852 0.592843 0.345558
O O7 0.832662 0.389766 0.434258
O O8 0.809019 0.888717 0.426530
O O9 0.376898 0.500000 0.250000
O O10 0.404726 0.509845 0.150661
O O11 0.296427 0.558366 0.185588
O O12 0.341630 0.146338 0.180101
O O13 0.000000 0.500000 0.064621
O O14 0.055143 0.781481 0.000000
O O15 0.000000 0.000000 0.073737
O O16 0.500000 0.500000 0.598476
O O17 0.218252 0.500000 0.750000
O O18 0.244591 0.941955 0.816043
O O19 0.233442 0.823491 0.500000
O O20 0.260315 0.770162 0.396729
#
# Coordination Sequence:
#
# PCOD9393897 Si02
#       8
#     8   8   8   8   8   8   8   8
#     4  11  23  40  63  87 118 158 200 245 301 366
#     4  11  22  38  57  91 123 157 206 250 297 354
#     4  10  21  40  61  85 115 156 195 250 310 365
#     4  10  20  35  58  86 121 163 202 240 287 345
#     4  11  24  42  62  89 119 154 206 255 300 366
#     4  10  21  39  61  87 119 158 199 252 308 368
#     4  11  21  34  56  85 125 162 191 241 299 359
#     4  10  21  39  57  89 122 154 199 243 301 371
#
# _framework density 19.861924999999999
#
# number of rings (size 3 to 8) (size 9 to 14) (size 15 to 20)
#    0.000    1.500    2.500    3.000    0.000    4.750 
#    0.000    3.750    0.000    1.875    0.000    0.875 
#    0.000    0.000    0.000    0.000    0.000    0.000 
#
# Total GULP energy -356415.862913 kJ/mol
# GULP energy per Si atom -5568.997858 kJ/mol
# Density = 1.981672 g / cm^3
# Si number density = 19.861925 Si / 1000 Ang^3
#
#
#
# Elastic Constant Matrix: (Units=GPa)
#
#
# Indices 1 2 3 4 5 6 
#
# 1 93.9529 24.3358 44.9330 0.0000 0.0000 0.0000
# 2 24.3358 83.7214 47.1653 0.0000 0.0000 0.0000
# 3 44.9330 47.1653 159.9831 0.0000 0.0000 0.0000
# 4 0.0000 0.0000 0.0000 68.4426 0.0000 0.0000
# 5 0.0000 0.0000 0.0000 0.0000 29.3330 0.0000
# 6 0.0000 0.0000 0.0000 0.0000 0.0000 25.1248
#
#
#
# Elastic Compliance Matrix: (Units=1/GPa)
#
#
# Indices 1 2 3 4 5 6 
#
# 1 0.012567 -0.001996 -0.002941 0.000000 0.000000 0.000000
# 2 -0.001996 0.014640 -0.003756 0.000000 0.000000 0.000000
# 3 -0.002941 -0.003756 0.008184 0.000000 0.000000 0.000000
# 4 0.000000 0.000000 0.000000 0.014611 0.000000 0.000000
# 5 0.000000 0.000000 0.000000 0.000000 0.034091 0.000000
# 6 0.000000 0.000000 0.000000 0.000000 0.000000 0.039801
#
#
# Mechanical properties :
#
#
# Convention : Reuss Voigt Hill
#
# Bulk Modulus (GPa) = 55.53737 63.39173 59.46455
# Shear Modulus (GPa) = 33.94836 39.32830 36.63833
#
# Velocity S-wave (km/s) = 4.13875 4.45464 4.29960
# Velocity P-wave (km/s) = 7.13172 7.64486 7.39275
#
# Compressibility (1/GPa) = 0.01800590
#
# Stress axis : x y z
#
# Youngs Moduli (GPa) = 79.57171 68.30458 122.19093
#
# Poissons Ratio (x) = 0.13634 0.35939
# Poissons Ratio (y) = 0.15883 0.45889
# Poissons Ratio (z) = 0.23404 0.25652
#
# Static dielectric constant tensor:
#      x y z
#    x 1.702510 0.000000 0.000000 
#    y 0.000000 2.021150 0.000000 
#    z 0.000000 0.000000 1.693460 
# 
# From -- ./inp_files/23428.got.cif
#   From: 2010.05.17/outbox.cif.g08.bks.cpg/sg49_12_cif.got.tgz:23428.got - 2010.06.03 21:02:19.
