data_PCOD9393207
_publ_section_title
;
Structure prediction by ZEFSAII (Michael W. Deem and Ramdas Pophale) SiO2 
 PCOD9393207
Probable space group: P C C M
;
_chemical_formula_sum "Si O2"
_cell_formula_units_Z 64
_cell_length_a 20.998844
_cell_length_b 19.991189
_cell_length_c 8.646541
_cell_angle_alpha 90.000000
_cell_angle_beta 90.000000
_cell_angle_gamma 90.000000
_cell_volume 3629.747522
_symmetry_space_group_name_H-M "P C C M"
_symmetry_group_IT_number 49
_symmetry_cell_setting 'orthorhombic'
loop_
_space_group_symop_operation_xyz
x,y,z
-x,-y,z
x,-y,1/2-z
-x,y,1/2-z
-x,-y,-z
x,y,-z
-x,y,1/2+z
x,-y,1/2+z
loop_
_atom_site_type_symbol
_atom_site_label
_atom_site_fract_x
_atom_site_fract_y
_atom_site_fract_z
Si Si1 0.812121 0.294674 0.685554
Si Si2 0.068103 0.213945 0.686063
Si Si3 0.566765 0.709078 0.315748
Si Si4 0.882143 0.070791 0.814528
Si Si5 0.314307 0.790782 0.314883
Si Si6 0.267275 0.071725 0.314384
Si Si7 0.615636 0.571423 0.814945
Si Si8 0.759261 0.570831 0.684975
O O1 0.815010 0.300291 0.500000
O O2 0.874590 0.258485 0.749183
O O3 0.750016 0.250057 0.725603
O O4 0.801219 0.367064 0.760201
O O5 0.068913 0.215995 0.500000
O O6 0.081020 0.137007 0.736757
O O7 0.000000 0.235777 0.750000
O O8 0.500000 0.735138 0.250000
O O9 0.565161 0.706105 0.500000
O O10 0.625637 0.754142 0.260270
O O11 0.577681 0.634688 0.248540
O O12 0.807618 0.078795 0.769440
O O13 0.905543 0.000000 0.750000
O O14 0.884480 0.067699 0.000000
O O15 0.320992 0.789596 0.500000
O O16 0.304936 0.865997 0.255373
O O17 0.270961 0.072664 0.500000
O O18 0.288763 0.000000 0.250000
O O19 0.592814 0.500000 0.750000
O O20 0.688503 0.579746 0.756464
O O21 0.614792 0.570653 0.000000
O O22 0.783347 0.500000 0.750000
O O23 0.754113 0.568494 0.500000
#
# Coordination Sequence:
#
# PCOD9393207 Si02
#       8
#     8   8   8   8   8   8   8   8
#     4  11  22  37  60  87 116 151 194 241 290 343
#     4  11  23  39  56  81 115 154 197 241 292 347
#     4  12  25  41  60  84 117 156 196 241 291 346
#     4   9  19  33  52  77 111 150 191 234 280 339
#     4  11  22  37  60  88 117 151 194 241 290 345
#     4  10  19  34  56  85 117 150 191 239 292 344
#     4  11  21  36  56  83 117 155 197 238 284 342
#     4  11  21  35  58  87 119 152 190 238 289 341
#
# _framework density 17.632080999999999
#
# number of rings (size 3 to 8) (size 9 to 14) (size 15 to 20)
#    0.000    1.250    2.500    5.625    0.000    3.000 
#    0.000    2.500    0.000    0.750    0.000    5.250 
#    0.000    0.000    0.000    0.000    0.000    0.000 
#
# Total GULP energy -357791.775689 kJ/mol
# GULP energy per Si atom -5590.496495 kJ/mol
# Density = 1.759195 g / cm^3
# Si number density = 17.632081 Si / 1000 Ang^3
#
#
#
# Elastic Constant Matrix: (Units=GPa)
#
#
# Indices 1 2 3 4 5 6 
#
# 1 112.6299 63.0985 55.3661 0.0000 0.0000 0.0000
# 2 63.0985 127.5341 55.5518 0.0000 0.0000 0.0000
# 3 55.3661 55.5518 117.6024 0.0000 0.0000 0.0000
# 4 0.0000 0.0000 0.0000 32.4673 0.0000 0.0000
# 5 0.0000 0.0000 0.0000 0.0000 -24.2840 0.0000
# 6 0.0000 0.0000 0.0000 0.0000 0.0000 19.9152
#
#
#
# Elastic Compliance Matrix: (Units=1/GPa)
#
#
# Indices 1 2 3 4 5 6 
#
# 1 0.013682 -0.004990 -0.004084 0.000000 0.000000 0.000000
# 2 -0.004990 0.011692 -0.003174 0.000000 0.000000 0.000000
# 3 -0.004084 -0.003174 0.011925 0.000000 0.000000 0.000000
# 4 0.000000 0.000000 0.000000 0.030800 0.000000 0.000000
# 5 0.000000 0.000000 0.000000 0.000000 -0.041179 0.000000
# 6 0.000000 0.000000 0.000000 0.000000 0.000000 0.050213
#
#
# Mechanical properties :
#
#
# Convention : Reuss Voigt Hill
#
# Bulk Modulus (GPa) = 78.10489 78.42214 78.26352
# Shear Modulus (GPa) = 47.21550 17.86971 32.54260
#
# Velocity S-wave (km/s) = 5.18038 3.18697 4.30076
# Velocity P-wave (km/s) = 8.95405 7.62338 8.31537
#
# Compressibility (1/GPa) = 0.01280330
#
# Stress axis : x y z
#
# Youngs Moduli (GPa) = 73.08880 85.52493 83.85625
#
# Poissons Ratio (x) = 0.42680 0.34248
# Poissons Ratio (y) = 0.36474 0.26614
# Poissons Ratio (z) = 0.29850 0.27144
#
# Static dielectric constant tensor:
#      x y z
#    x 1.593800 0.000000 0.000000 
#    y 0.000000 1.596260 0.000000 
#    z 0.000000 0.000000 1.584990 
# 
# From -- ./inp_files/5321.got.cif
#   From: 2010.05.17/outbox.cif.g08.bks.cpg/sg49_3_cif.got.tgz:5321.got - 2010.06.03 21:02:19.
