data_PCOD9393079
_publ_section_title
;
Structure prediction by ZEFSAII (Michael W. Deem and Ramdas Pophale) SiO2 
 PCOD9393079
Probable space group: P C C M
;
_chemical_formula_sum "Si O2"
_cell_formula_units_Z 64
_cell_length_a 15.580219
_cell_length_b 25.420315
_cell_length_c 8.835706
_cell_angle_alpha 90.000000
_cell_angle_beta 90.000000
_cell_angle_gamma 90.000000
_cell_volume 3499.417365
_symmetry_space_group_name_H-M "P C C M"
_symmetry_group_IT_number 49
_symmetry_cell_setting 'orthorhombic'
loop_
_space_group_symop_operation_xyz
x,y,z
-x,-y,z
x,-y,1/2-z
-x,y,1/2-z
-x,-y,-z
x,y,-z
-x,y,1/2+z
x,-y,1/2+z
loop_
_atom_site_type_symbol
_atom_site_label
_atom_site_fract_x
_atom_site_fract_y
_atom_site_fract_z
Si Si1 0.769871 0.943987 0.182476
Si Si2 0.231160 0.354316 0.317378
Si Si3 0.826689 0.760313 0.674362
Si Si4 0.588717 0.672853 0.180681
Si Si5 0.090569 0.857978 0.320044
Si Si6 0.091198 0.557798 0.818295
Si Si7 0.412769 0.102042 0.818738
Si Si8 0.626398 0.785658 0.675671
O O1 0.834831 0.898005 0.231122
O O2 0.672987 0.928804 0.228013
O O3 0.794317 0.000000 0.250000
O O4 0.771878 0.946463 0.000000
O O5 0.243776 0.351303 0.500000
O O6 0.183856 0.299795 0.272633
O O7 0.324637 0.355032 0.240840
O O8 0.168895 0.402729 0.282207
O O9 0.856361 0.760156 0.500000
O O10 0.884930 0.799154 0.769729
O O11 0.729829 0.783011 0.677670
O O12 0.500000 0.651176 0.250000
O O13 0.596455 0.733024 0.239993
O O14 0.585761 0.671756 0.000000
O O15 0.085822 0.860250 0.500000
O O16 0.000000 0.873289 0.250000
O O17 0.106977 0.500000 0.750000
O O18 0.000000 0.576266 0.750000
O O19 0.083481 0.554402 0.000000
O O20 0.500000 0.079321 0.750000
O O21 0.402939 0.161413 0.756587
O O22 0.417530 0.103120 0.000000
O O23 0.598164 0.784585 0.500000
#
# Coordination Sequence:
#
# PCOD9393079 Si02
#       8
#     8   8   8   8   8   8   8   8
#     4  10  24  43  62  81 108 140 180 229 278 334
#     4   9  20  37  56  84 119 154 195 239 285 337
#     4   9  18  34  56  82 113 148 183 222 275 331
#     4  11  21  33  52  79 115 156 195 237 282 334
#     4  11  23  40  60  85 112 142 180 225 276 334
#     4  10  20  36  59  85 118 154 196 247 291 343
#     4  11  22  37  56  83 112 142 182 225 273 331
#     4  10  19  33  54  80 111 148 186 226 273 328
#
# _framework density 18.28876
#
# number of rings (size 3 to 8) (size 9 to 14) (size 15 to 20)
#    0.000    1.875    1.250    4.125    0.000    6.000 
#    0.000    3.750    0.000    0.375    0.000    2.625 
#    0.000    0.000    0.000    0.000    0.000    0.000 
#
# Total GULP energy -357433.079215 kJ/mol
# GULP energy per Si atom -5584.891863 kJ/mol
# Density = 1.824713 g / cm^3
# Si number density = 18.288760 Si / 1000 Ang^3
#
#
#
# Elastic Constant Matrix: (Units=GPa)
#
#
# Indices 1 2 3 4 5 6 
#
# 1 123.5197 57.5671 50.6476 0.0000 0.0000 0.0000
# 2 57.5671 74.9183 32.0498 0.0000 0.0000 0.0000
# 3 50.6476 32.0498 73.5258 0.0000 0.0000 0.0000
# 4 0.0000 0.0000 0.0000 23.1224 0.0000 0.0000
# 5 0.0000 0.0000 0.0000 0.0000 29.2467 0.0000
# 6 0.0000 0.0000 0.0000 0.0000 0.0000 5.7199
#
#
#
# Elastic Compliance Matrix: (Units=1/GPa)
#
#
# Indices 1 2 3 4 5 6 
#
# 1 0.014713 -0.008568 -0.006401 0.000000 0.000000 0.000000
# 2 -0.008568 0.021396 -0.003425 0.000000 0.000000 0.000000
# 3 -0.006401 -0.003425 0.019503 0.000000 0.000000 0.000000
# 4 0.000000 0.000000 0.000000 0.043248 0.000000 0.000000
# 5 0.000000 0.000000 0.000000 0.000000 0.034192 0.000000
# 6 0.000000 0.000000 0.000000 0.000000 0.000000 0.174829
#
#
# Mechanical properties :
#
#
# Convention : Reuss Voigt Hill
#
# Bulk Modulus (GPa) = 53.11773 61.38811 57.25292
# Shear Modulus (GPa) = 14.24735 20.39777 17.32256
#
# Velocity S-wave (km/s) = 2.79413 3.34326 3.08095
# Velocity P-wave (km/s) = 6.28621 6.96721 6.63546
#
# Compressibility (1/GPa) = 0.01882610
#
# Stress axis : x y z
#
# Youngs Moduli (GPa) = 67.96581 46.73700 51.27537
#
# Poissons Ratio (x) = 0.40042 0.32819
# Poissons Ratio (y) = 0.58230 0.17562
# Poissons Ratio (z) = 0.43502 0.16007
#
# Static dielectric constant tensor:
#      x y z
#    x 1.647250 0.000000 0.000000 
#    y 0.000000 1.602000 0.000000 
#    z 0.000000 0.000000 1.616830 
# 
# From -- ./inp_files/4334.got.cif
#   From: 2010.05.17/outbox.cif.g08.bks.cpg/sg49_3_cif.got.tgz:4334.got - 2010.06.03 21:02:19.
