data_PCOD9393919
_publ_section_title
;
Structure prediction by ZEFSAII (Michael W. Deem and Ramdas Pophale) SiO2 
 PCOD9393919
Probable space group: P C C M
;
_chemical_formula_sum "Si O2"
_cell_formula_units_Z 64
_cell_length_a 21.727810
_cell_length_b 8.822629
_cell_length_c 15.439051
_cell_angle_alpha 90.000000
_cell_angle_beta 90.000000
_cell_angle_gamma 90.000000
_cell_volume 2959.610598
_symmetry_space_group_name_H-M "P C C M"
_symmetry_group_IT_number 49
_symmetry_cell_setting 'orthorhombic'
loop_
_space_group_symop_operation_xyz
x,y,z
-x,-y,z
x,-y,1/2-z
-x,y,1/2-z
-x,-y,-z
x,y,-z
-x,y,1/2+z
x,-y,1/2+z
loop_
_atom_site_type_symbol
_atom_site_label
_atom_site_fract_x
_atom_site_fract_y
_atom_site_fract_z
Si Si1 0.811617 0.556250 0.848649
Si Si2 0.643988 0.167309 0.273539
Si Si3 0.473279 0.828517 0.400006
Si Si4 0.315142 0.397555 0.093844
Si Si5 0.859137 0.835982 0.228718
Si Si6 0.420491 0.602452 0.163252
Si Si7 0.969881 0.832584 0.902913
Si Si8 0.096624 0.678169 0.902256
O O1 0.808306 0.500000 0.750000
O O2 0.748643 0.511191 0.895765
O O3 0.818978 0.734975 0.835757
O O4 0.873120 0.487639 0.891839
O O5 0.582396 0.163487 0.332686
O O6 0.686452 0.276725 0.329164
O O7 0.624101 0.259316 0.189225
O O8 0.664959 0.000000 0.250000
O O9 0.455360 0.803121 0.500000
O O10 0.519730 0.690420 0.373619
O O11 0.500000 0.000000 0.395648
O O12 0.377587 0.495456 0.104359
O O13 0.315193 0.323931 0.000000
O O14 0.923475 0.838520 0.176838
O O15 0.871248 0.765061 0.323225
O O16 0.833859 0.000000 0.250000
O O17 0.431839 0.500000 0.250000
O O18 0.023862 0.707667 0.891130
O O19 0.942797 0.809534 0.000000
O O20 0.000000 0.000000 0.904333
O O21 0.110532 0.733143 0.000000
#
# Coordination Sequence:
#
# PCOD9393919 Si02
#       8
#     8   8   8   8   8   8   8   8
#     4  10  23  43  63  89 125 170 220 266 321 379
#     4  11  22  39  63  92 128 166 208 255 314 387
#     4  11  22  37  61  95 134 165 203 261 320 379
#     4  11  24  44  66  90 124 166 216 273 319 370
#     4  11  22  37  65  95 130 169 215 269 328 393
#     4  10  22  39  65  95 125 167 212 255 313 384
#     4  10  20  35  60  93 131 168 211 264 326 393
#     4  10  21  38  62  92 128 172 215 268 325 387
#
# _framework density 21.624466999999999
#
# number of rings (size 3 to 8) (size 9 to 14) (size 15 to 20)
#    0.000    1.500    2.500    3.000    0.000    5.500 
#    0.000    6.250    0.000    0.000    0.000    0.000 
#    0.000    0.000    0.000    0.000    0.000    0.000 
#
# Total GULP energy -357007.887671 kJ/mol
# GULP energy per Si atom -5578.248245 kJ/mol
# Density = 2.157525 g / cm^3
# Si number density = 21.624467 Si / 1000 Ang^3
#
#
#
# Elastic Constant Matrix: (Units=GPa)
#
#
# Indices 1 2 3 4 5 6 
#
# 1 83.9595 20.4013 11.1515 0.0000 0.0000 0.0000
# 2 20.4013 88.7479 4.0673 0.0000 0.0000 0.0000
# 3 11.1515 4.0673 77.4357 0.0000 0.0000 0.0000
# 4 0.0000 0.0000 0.0000 23.7761 0.0000 0.0000
# 5 0.0000 0.0000 0.0000 0.0000 2.6809 0.0000
# 6 0.0000 0.0000 0.0000 0.0000 0.0000 14.7745
#
#
#
# Elastic Compliance Matrix: (Units=1/GPa)
#
#
# Indices 1 2 3 4 5 6 
#
# 1 0.012834 -0.002872 -0.001697 0.000000 0.000000 0.000000
# 2 -0.002872 0.011938 -0.000213 0.000000 0.000000 0.000000
# 3 -0.001697 -0.000213 0.013170 0.000000 0.000000 0.000000
# 4 0.000000 0.000000 0.000000 0.042059 0.000000 0.000000
# 5 0.000000 0.000000 0.000000 0.000000 0.373011 0.000000
# 6 0.000000 0.000000 0.000000 0.000000 0.000000 0.067684
#
#
# Mechanical properties :
#
#
# Convention : Reuss Voigt Hill
#
# Bulk Modulus (GPa) = 35.24213 35.70924 35.47569
# Shear Modulus (GPa) = 9.26406 22.54784 15.90595
#
# Velocity S-wave (km/s) = 2.07204 3.23259 2.71505
# Velocity P-wave (km/s) = 4.69651 5.52106 5.12539
#
# Compressibility (1/GPa) = 0.02837513
#
# Stress axis : x y z
#
# Youngs Moduli (GPa) = 77.91855 83.76636 75.93255
#
# Poissons Ratio (x) = 0.24062 0.12888
# Poissons Ratio (y) = 0.22382 0.01620
# Poissons Ratio (z) = 0.13225 0.01787
#
# Static dielectric constant tensor:
#      x y z
#    x 1.818950 0.000000 0.000000 
#    y 0.000000 1.847860 0.000000 
#    z 0.000000 0.000000 1.753490 
# 
# From -- ./inp_files/14555.got.cif
#   From: 2010.05.17/outbox.cif.g08.bks.cpg/sg49_8_cif.got.tgz:14555.got - 2010.06.03 21:02:19.
