data_PCOD9393200
_publ_section_title
;
Structure prediction by ZEFSAII (Michael W. Deem and Ramdas Pophale) SiO2 
 PCOD9393200
Probable space group: P C C M
;
_chemical_formula_sum "Si O2"
_cell_formula_units_Z 48
_cell_length_a 14.752722
_cell_length_b 20.941287
_cell_length_c 8.803415
_cell_angle_alpha 90.000000
_cell_angle_beta 90.000000
_cell_angle_gamma 90.000000
_cell_volume 2719.735705
_symmetry_space_group_name_H-M "P C C M"
_symmetry_group_IT_number 49
_symmetry_cell_setting 'orthorhombic'
loop_
_space_group_symop_operation_xyz
x,y,z
-x,-y,z
x,-y,1/2-z
-x,y,1/2-z
-x,-y,-z
x,y,-z
-x,y,1/2+z
x,-y,1/2+z
loop_
_atom_site_type_symbol
_atom_site_label
_atom_site_fract_x
_atom_site_fract_y
_atom_site_fract_z
Si Si1 0.901379 0.931196 0.818028
Si Si2 0.218546 0.190983 0.181951
Si Si3 0.789580 0.566595 0.317051
Si Si4 0.899548 0.306209 0.817186
Si Si5 0.404575 0.384713 0.317950
Si Si6 0.403775 0.233637 0.681774
O O1 0.830238 0.875794 0.780876
O O2 0.000000 0.914474 0.750000
O O3 0.875957 0.000000 0.750000
O O4 0.909249 0.936171 0.000000
O O5 0.159765 0.248118 0.253309
O O6 0.319301 0.196800 0.247589
O O7 0.220242 0.197906 0.000000
O O8 0.822559 0.500000 0.250000
O O9 0.788766 0.563187 0.500000
O O10 0.850816 0.627211 0.274621
O O11 0.686009 0.579711 0.264930
O O12 0.000000 0.303429 0.750000
O O13 0.902211 0.302193 0.000000
O O14 0.500000 0.407065 0.250000
O O15 0.409512 0.389805 0.500000
O O16 0.393282 0.309344 0.280909
O O17 0.500000 0.213075 0.750000
O O18 0.403827 0.227900 0.500000
#
# Coordination Sequence:
#
# PCOD9393200 Si02
#       6
#     8   8   8   8   8   8
#     4  10  21  36  56  84 118 153 190 228 272 328
#     4  11  22  36  58  88 116 148 188 228 276 330
#     4  10  22  39  55  75 106 141 182 227 279 335
#     4  11  23  40  58  80 109 141 184 234 281 335
#     4   9  18  34  53  77 106 138 175 220 272 328
#     4  10  19  34  56  83 115 148 184 229 278 330
#
# _framework density 17.648775000000001
#
# number of rings (size 3 to 8) (size 9 to 14) (size 15 to 20)
#    0.000    1.833    1.667    3.000    0.000    7.333 
#    0.000    3.333    0.000    0.500    0.000    3.500 
#    0.000    0.000    0.000    0.000    0.000    0.000 
#
# Total GULP energy -268126.080062 kJ/mol
# GULP energy per Si atom -5585.960001 kJ/mol
# Density = 1.760861 g / cm^3
# Si number density = 17.648775 Si / 1000 Ang^3
#
#
#
# Elastic Constant Matrix: (Units=GPa)
#
#
# Indices 1 2 3 4 5 6 
#
# 1 147.3843 80.6324 48.8282 0.0000 0.0000 0.0000
# 2 80.6324 109.4548 49.0245 0.0000 0.0000 0.0000
# 3 48.8282 49.0245 48.6717 0.0000 0.0000 0.0000
# 4 0.0000 0.0000 0.0000 2.4011 0.0000 0.0000
# 5 0.0000 0.0000 0.0000 0.0000 31.2579 0.0000
# 6 0.0000 0.0000 0.0000 0.0000 0.0000 12.3077
#
#
#
# Elastic Compliance Matrix: (Units=1/GPa)
#
#
# Indices 1 2 3 4 5 6 
#
# 1 0.012205 -0.006389 -0.005808 0.000000 0.000000 0.000000
# 2 -0.006389 0.019991 -0.013726 0.000000 0.000000 0.000000
# 3 -0.005808 -0.013726 0.040198 0.000000 0.000000 0.000000
# 4 0.000000 0.000000 0.000000 0.416482 0.000000 0.000000
# 5 0.000000 0.000000 0.000000 0.000000 0.031992 0.000000
# 6 0.000000 0.000000 0.000000 0.000000 0.000000 0.081250
#
#
# Mechanical properties :
#
#
# Convention : Reuss Voigt Hill
#
# Bulk Modulus (GPa) = 48.66961 73.60899 61.13930
# Shear Modulus (GPa) = 7.56642 17.66171 12.61406
#
# Velocity S-wave (km/s) = 2.07281 3.16687 2.67634
# Velocity P-wave (km/s) = 5.77627 7.42767 6.65341
#
# Compressibility (1/GPa) = 0.02054670
#
# Stress axis : x y z
#
# Youngs Moduli (GPa) = 81.93445 50.02282 24.87678
#
# Poissons Ratio (x) = 0.31962 0.14449
# Poissons Ratio (y) = 0.52352 0.34145
# Poissons Ratio (z) = 0.47590 0.68660
#
# Static dielectric constant tensor:
#      x y z
#    x 1.589580 0.000000 0.000000 
#    y 0.000000 1.587750 0.000000 
#    z 0.000000 0.000000 1.592510 
# 
# From -- ./inp_files/3698.got.cif
#   From: 2010.05.17/outbox.cif.g08.bks.cpg/sg49_2_cif.got.tgz:3698.got - 2010.06.03 21:02:19.
