data_PCOD9393037
_publ_section_title
;
Structure prediction by ZEFSAII (Michael W. Deem and Ramdas Pophale) SiO2 
 PCOD9393037
Probable space group: P C C M
;
_chemical_formula_sum "Si O2"
_cell_formula_units_Z 58
_cell_length_a 27.922938
_cell_length_b 14.885551
_cell_length_c 8.282044
_cell_angle_alpha 90.000000
_cell_angle_beta 90.000000
_cell_angle_gamma 90.000000
_cell_volume 3442.417655
_symmetry_space_group_name_H-M "P C C M"
_symmetry_group_IT_number 49
_symmetry_cell_setting 'orthorhombic'
loop_
_space_group_symop_operation_xyz
x,y,z
-x,-y,z
x,-y,1/2-z
-x,y,1/2-z
-x,-y,-z
x,y,-z
-x,y,1/2+z
x,-y,1/2+z
loop_
_atom_site_type_symbol
_atom_site_label
_atom_site_fract_x
_atom_site_fract_y
_atom_site_fract_z
Si Si1 0.169501 0.783712 0.192189
Si Si2 0.091224 0.911390 0.308737
Si Si3 0.319067 0.597515 0.305573
Si Si4 0.207882 0.597880 0.693463
Si Si5 0.447050 0.102156 0.806642
Si Si6 0.262283 0.102823 0.306386
Si Si7 0.355454 0.787901 0.695269
Si Si8 0.000000 0.000000 0.750000
O O1 0.122148 0.825169 0.270975
O O2 0.178712 0.680715 0.235795
O O3 0.215712 0.841105 0.249783
O O4 0.165738 0.794228 0.000000
O O5 0.079940 0.916854 0.500000
O O6 0.041864 0.926540 0.208423
O O7 0.120536 0.000000 0.250000
O O8 0.336778 0.500000 0.250000
O O9 0.319052 0.597809 0.500000
O O10 0.263530 0.606798 0.251973
O O11 0.347320 0.685509 0.248405
O O12 0.191073 0.500000 0.750000
O O13 0.206983 0.602451 0.500000
O O14 0.500000 0.129277 0.750000
O O15 0.404436 0.166108 0.747077
O O16 0.438536 0.000000 0.750000
O O17 0.446717 0.102152 0.000000
O O18 0.262715 0.104520 0.500000
O O19 0.309979 0.152363 0.245097
O O20 0.260696 0.000000 0.250000
O O21 0.356730 0.786321 0.500000
#
# Coordination Sequence:
#
# PCOD9393037 Si02
#       8
#     8   8   8   8   8   8   8   2
#     4  11  22  34  50  76 107 142 181 216 260 315
#     4  10  20  34  54  77 106 141 179 222 266 307
#     4   9  18  32  51  74 100 132 169 212 256 306
#     4  10  19  33  53  74 104 140 177 221 265 312
#     4  10  20  34  53  74  99 128 167 211 257 308
#     4  11  23  34  47  70 103 140 174 209 251 308
#     4  10  20  35  53  74 100 133 170 212 258 310
#     4   8  22  36  58  80 108 140 190 228 264 312
#
# _framework density 16.848623
#
# number of rings (size 3 to 8) (size 9 to 14) (size 15 to 20)
#    0.414    1.517    1.379    3.517    0.000    6.069 
#    0.000    0.000    0.000    0.414    0.000    3.379 
#    0.000    3.310    0.000    0.000    0.000    0.000 
#
# Total GULP energy -323037.427913 kJ/mol
# GULP energy per Si atom -5569.610826 kJ/mol
# Density = 1.681028 g / cm^3
# Si number density = 16.848623 Si / 1000 Ang^3
#
#
#
# Elastic Constant Matrix: (Units=GPa)
#
#
# Indices 1 2 3 4 5 6 
#
# 1 105.5734 72.0145 14.2059 0.0000 0.0000 0.0000
# 2 72.0145 139.7807 13.4591 0.0000 0.0000 0.0000
# 3 14.2059 13.4591 30.7470 0.0000 0.0000 0.0000
# 4 0.0000 0.0000 0.0000 26.7774 0.0000 0.0000
# 5 0.0000 0.0000 0.0000 0.0000 26.0200 0.0000
# 6 0.0000 0.0000 0.0000 0.0000 0.0000 20.5144
#
#
#
# Elastic Compliance Matrix: (Units=1/GPa)
#
#
# Indices 1 2 3 4 5 6 
#
# 1 0.014998 -0.007370 -0.003703 0.000000 0.000000 0.000000
# 2 -0.007370 0.011091 -0.001450 0.000000 0.000000 0.000000
# 3 -0.003703 -0.001450 0.034869 0.000000 0.000000 0.000000
# 4 0.000000 0.000000 0.000000 0.037345 0.000000 0.000000
# 5 0.000000 0.000000 0.000000 0.000000 0.038432 0.000000
# 6 0.000000 0.000000 0.000000 0.000000 0.000000 0.048746
#
#
# Mechanical properties :
#
#
# Convention : Reuss Voigt Hill
#
# Bulk Modulus (GPa) = 27.84619 52.82891 40.33755
# Shear Modulus (GPa) = 22.47220 26.42381 24.44800
#
# Velocity S-wave (km/s) = 3.65604 3.96448 3.81338
# Velocity P-wave (km/s) = 5.86390 7.23735 6.58652
#
# Compressibility (1/GPa) = 0.03591155
#
# Stress axis : x y z
#
# Youngs Moduli (GPa) = 66.67633 90.16512 28.67881
#
# Poissons Ratio (x) = 0.66454 0.10620
# Poissons Ratio (y) = 0.49142 0.04157
# Poissons Ratio (z) = 0.24691 0.13070
#
# Static dielectric constant tensor:
#      x y z
#    x 1.564740 0.000000 0.000000 
#    y 0.000000 1.570930 0.000000 
#    z 0.000000 0.000000 1.607380 
# 
# From -- ./inp_files/6780.got.cif
#   From: 2010.05.17/outbox.cif.g08.bks.cpg/sg49_4_cif.got.tgz:6780.got - 2010.06.03 21:02:19.
