data_PCOD9393980
_publ_section_title
;
Structure prediction by ZEFSAII (Michael W. Deem and Ramdas Pophale) SiO2 
 PCOD9393980
Probable space group: P C C M
;
_chemical_formula_sum "Si O2"
_cell_formula_units_Z 48
_cell_length_a 18.935511
_cell_length_b 9.103802
_cell_length_c 15.887337
_cell_angle_alpha 90.000000
_cell_angle_beta 90.000000
_cell_angle_gamma 90.000000
_cell_volume 2738.740859
_symmetry_space_group_name_H-M "P C C M"
_symmetry_group_IT_number 49
_symmetry_cell_setting 'orthorhombic'
loop_
_space_group_symop_operation_xyz
x,y,z
-x,-y,z
x,-y,1/2-z
-x,y,1/2-z
-x,-y,-z
x,y,-z
-x,y,1/2+z
x,-y,1/2+z
loop_
_atom_site_type_symbol
_atom_site_label
_atom_site_fract_x
_atom_site_fract_y
_atom_site_fract_z
Si Si1 0.916707 0.674044 0.744763
Si Si2 0.336224 0.182516 0.403426
Si Si3 0.831414 0.806624 0.406875
Si Si4 0.181405 0.103710 0.166460
Si Si5 0.583366 0.675137 0.247010
Si Si6 0.666984 0.168129 0.598540
O O1 0.905495 0.500000 0.750000
O O2 0.881392 0.727868 0.658611
O O3 0.875302 0.772158 0.812974
O O4 0.000000 0.703646 0.750000
O O5 0.353082 0.228003 0.500000
O O6 0.252533 0.211874 0.389482
O O7 0.379623 0.257869 0.329613
O O8 0.348326 0.006945 0.398301
O O9 0.845249 0.752646 0.500000
O O10 0.842985 0.981888 0.400026
O O11 0.253433 0.176841 0.134749
O O12 0.193597 0.000000 0.250000
O O13 0.593535 0.500000 0.250000
O O14 0.500000 0.706788 0.250000
O O15 0.617203 0.743872 0.162479
O O16 0.662904 0.213000 0.500000
#
# Coordination Sequence:
#
# PCOD9393980 Si02
#       6
#     8   8   8   8   8   8
#     4  10  21  36  51  73 109 147 177 210 257 312
#     4   9  19  37  61  83 105 134 175 224 270 312
#     4   9  18  35  57  81 104 130 171 223 266 307
#     4   9  17  32  57  81 104 136 174 216 264 314
#     4  11  24  38  52  76 112 148 178 213 260 314
#     4  10  20  36  58  84 107 133 174 224 269 315
#
# _framework density 17.526304
#
# number of rings (size 3 to 8) (size 9 to 14) (size 15 to 20)
#    0.000    2.333    0.000    5.000    0.000    8.333 
#    0.000   10.833    0.000    0.000    0.000    0.000 
#    0.000    0.000    0.000    0.000    0.000    0.000 
#
# Total GULP energy -267616.829148 kJ/mol
# GULP energy per Si atom -5575.350607 kJ/mol
# Density = 1.748641 g / cm^3
# Si number density = 17.526304 Si / 1000 Ang^3
#
#
#
# Elastic Constant Matrix: (Units=GPa)
#
#
# Indices 1 2 3 4 5 6 
#
# 1 125.5956 89.9034 94.2431 0.0000 0.0000 0.0000
# 2 89.9034 71.6721 59.5663 0.0000 0.0000 0.0000
# 3 94.2431 59.5663 134.6559 0.0000 0.0000 0.0000
# 4 0.0000 0.0000 0.0000 11.9817 0.0000 0.0000
# 5 0.0000 0.0000 0.0000 0.0000 -17.3323 0.0000
# 6 0.0000 0.0000 0.0000 0.0000 0.0000 33.7947
#
#
#
# Elastic Compliance Matrix: (Units=1/GPa)
#
#
# Indices 1 2 3 4 5 6 
#
# 1 0.119812 -0.127456 -0.027473 0.000000 0.000000 0.000000
# 2 -0.127456 0.157652 0.019465 0.000000 0.000000 0.000000
# 3 -0.027473 0.019465 0.018043 0.000000 0.000000 0.000000
# 4 0.000000 0.000000 0.000000 0.083461 0.000000 0.000000
# 5 0.000000 0.000000 0.000000 0.000000 -0.057696 0.000000
# 6 0.000000 0.000000 0.000000 0.000000 0.000000 0.029590
#
#
# Mechanical properties :
#
#
# Convention : Reuss Voigt Hill
#
# Bulk Modulus (GPa) = 40.68316 91.03879 65.86097
# Shear Modulus (GPa) = 7.93673 11.56954 9.75314
#
# Velocity S-wave (km/s) = 2.13033 2.57208 2.36155
# Velocity P-wave (km/s) = 5.41425 7.80241 6.71534
#
# Compressibility (1/GPa) = 0.02458020
#
# Stress axis : x y z
#
# Youngs Moduli (GPa) = 8.34644 6.34309 55.42222
#
# Poissons Ratio (x) = 0.80846 1.52259
# Poissons Ratio (y) = 1.06380 -1.07880
# Poissons Ratio (z) = 0.22930 -0.12347
#
# Static dielectric constant tensor:
#      x y z
#    x 1.580020 0.000000 0.000000 
#    y 0.000000 1.583700 0.000000 
#    z 0.000000 0.000000 1.644120 
# 
# From -- ./inp_files/11831.got.cif
#   From: 2010.05.17/outbox.cif.g08.bks.cpg/sg49_6_cif.got.tgz:11831.got - 2010.06.03 21:02:19.
