data_PCOD9393605
_publ_section_title
;
Structure prediction by ZEFSAII (Michael W. Deem and Ramdas Pophale) SiO2 
 PCOD9393605
Probable space group: P C C M
;
_chemical_formula_sum "Si O2"
_cell_formula_units_Z 30
_cell_length_a 11.871186
_cell_length_b 5.560043
_cell_length_c 18.146478
_cell_angle_alpha 90.000000
_cell_angle_beta 90.000000
_cell_angle_gamma 90.000000
_cell_volume 1197.745662
_symmetry_space_group_name_H-M "P C C M"
_symmetry_group_IT_number 49
_symmetry_cell_setting 'orthorhombic'
loop_
_space_group_symop_operation_xyz
x,y,z
-x,-y,z
x,-y,1/2-z
-x,y,1/2-z
-x,-y,-z
x,y,-z
-x,y,1/2+z
x,-y,1/2+z
loop_
_atom_site_type_symbol
_atom_site_label
_atom_site_fract_x
_atom_site_fract_y
_atom_site_fract_z
Si Si1 0.213174 0.736498 0.104446
Si Si2 0.328176 0.250411 0.241099
Si Si3 0.854963 0.233953 0.375270
Si Si4 0.426466 0.747924 0.000000
Si Si5 0.000000 0.000000 0.250000
O O1 0.234041 0.747753 0.193127
O O2 0.141404 0.495999 0.088403
O O3 0.149996 0.981637 0.082145
O O4 0.337121 0.737873 0.067876
O O5 0.388148 0.500000 0.250000
O O6 0.269281 0.248354 0.162141
O O7 0.387629 0.000000 0.250000
O O8 0.937390 0.179196 0.307250
O O9 0.500000 0.500000 0.000000
O O10 0.500000 0.000000 0.000000
#
# Coordination Sequence:
#
# PCOD9393605 Si02
#       5
#     8   8   8   4   2
#     4  10  20  39  57  86 128 160 203 259 346 346
#     4   8  14  29  50  79 109 157 182 225 319 370
#     4  10  20  33  60  94 130 165 196 261 302 393
#     4  12  26  44  70  91 108 165 242 278 300 400
#     4  12  20  34  64 112 126 162 240 226 302 410
#
# _framework density 25.047056000000001
#
# number of rings (size 3 to 8) (size 9 to 14) (size 15 to 20)
#    0.000    2.133    4.000    1.600    0.000    2.133 
#    0.000    0.000    0.000   48.000    0.000    0.000 
#    0.000    0.000    0.000    0.000    0.000    0.000 
#
# Total GULP energy -167111.056558 kJ/mol
# GULP energy per Si atom -5570.368552 kJ/mol
# Density = 2.499005 g / cm^3
# Si number density = 25.047056 Si / 1000 Ang^3
#
#
#
# Elastic Constant Matrix: (Units=GPa)
#
#
# Indices 1 2 3 4 5 6 
#
# 1 85.0380 55.3770 17.3068 0.0000 0.0000 0.0000
# 2 55.3770 346.8223 22.0013 0.0000 0.0000 0.0000
# 3 17.3068 22.0013 100.4850 0.0000 0.0000 0.0000
# 4 0.0000 0.0000 0.0000 0.8549 0.0000 0.0000
# 5 0.0000 0.0000 0.0000 0.0000 56.6808 0.0000
# 6 0.0000 0.0000 0.0000 0.0000 0.0000 37.4525
#
#
#
# Elastic Compliance Matrix: (Units=1/GPa)
#
#
# Indices 1 2 3 4 5 6 
#
# 1 0.013463 -0.002031 -0.001874 0.000000 0.000000 0.000000
# 2 -0.002031 0.003230 -0.000357 0.000000 0.000000 0.000000
# 3 -0.001874 -0.000357 0.010353 0.000000 0.000000 0.000000
# 4 0.000000 0.000000 0.000000 1.169661 0.000000 0.000000
# 5 0.000000 0.000000 0.000000 0.000000 0.017643 0.000000
# 6 0.000000 0.000000 0.000000 0.000000 0.000000 0.026701
#
#
# Mechanical properties :
#
#
# Convention : Reuss Voigt Hill
#
# Bulk Modulus (GPa) = 53.99144 80.19059 67.09101
# Shear Modulus (GPa) = 3.98169 48.17500 26.07834
#
# Velocity S-wave (km/s) = 1.26219 4.39039 3.23022
# Velocity P-wave (km/s) = 4.87103 7.60172 6.38409
#
# Compressibility (1/GPa) = 0.01852146
#
# Stress axis : x y z
#
# Youngs Moduli (GPa) = 74.27576 309.57306 96.59222
#
# Poissons Ratio (x) = 0.62868 0.18103
# Poissons Ratio (y) = 0.15084 0.03453
# Poissons Ratio (z) = 0.13921 0.11067
#
# Static dielectric constant tensor:
#      x y z
#    x 1.938750 0.000000 0.000000 
#    y 0.000000 2.163810 0.000000 
#    z 0.000000 0.000000 1.968170 
# 
# From -- ./inp_files/20197.got.cif
#   From: 2010.05.17/outbox.cif.g08.bks.cpg/sg49_11_cif.got.tgz:20197.got - 2010.06.03 21:02:19.
