data_PCOD9393143
_publ_section_title
;
Structure prediction by ZEFSAII (Michael W. Deem and Ramdas Pophale) SiO2 
 PCOD9393143
Probable space group: P C C M
;
_chemical_formula_sum "Si O2"
_cell_formula_units_Z 52
_cell_length_a 19.156957
_cell_length_b 16.604403
_cell_length_c 8.001801
_cell_angle_alpha 90.000000
_cell_angle_beta 90.000000
_cell_angle_gamma 90.000000
_cell_volume 2545.291554
_symmetry_space_group_name_H-M "P C C M"
_symmetry_group_IT_number 49
_symmetry_cell_setting 'orthorhombic'
loop_
_space_group_symop_operation_xyz
x,y,z
-x,-y,z
x,-y,1/2-z
-x,y,1/2-z
-x,-y,-z
x,y,-z
-x,y,1/2+z
x,-y,1/2+z
loop_
_atom_site_type_symbol
_atom_site_label
_atom_site_fract_x
_atom_site_fract_y
_atom_site_fract_z
Si Si1 0.921363 0.855166 0.694948
Si Si2 0.424506 0.312877 0.798945
Si Si3 0.275354 0.888989 0.309520
Si Si4 0.576347 0.872948 0.692835
Si Si5 0.192717 0.267487 0.197773
Si Si6 0.286324 0.407490 0.201460
Si Si7 0.835221 0.000000 0.750000
O O1 0.919035 0.880393 0.500000
O O2 0.872627 0.777049 0.719371
O O3 0.000000 0.839320 0.750000
O O4 0.889099 0.929469 0.801547
O O5 0.500000 0.348055 0.750000
O O6 0.421812 0.223900 0.719289
O O7 0.359655 0.367593 0.743833
O O8 0.421491 0.302402 0.000000
O O9 0.252779 0.908207 0.500000
O O10 0.356478 0.905313 0.289479
O O11 0.257418 0.795201 0.285964
O O12 0.224764 0.937383 0.185909
O O13 0.500000 0.900388 0.750000
O O14 0.585798 0.891874 0.500000
O O15 0.221934 0.352106 0.262293
O O16 0.176909 0.273946 0.000000
O O17 0.281262 0.500000 0.250000
O O18 0.285659 0.401729 0.000000
#
# Coordination Sequence:
#
# PCOD9393143 Si02
#       7
#     8   8   8   8   8   8   4
#     4  11  23  39  62  92 121 152 187 222 269 331
#     4  10  19  34  52  76 109 147 191 239 292 342
#     4  10  19  36  58  79 112 149 186 234 284 334
#     4  11  21  33  53  78 105 143 194 243 288 339
#     4   9  19  38  59  81 114 153 188 229 280 334
#     4  10  21  36  55  81 115 152 192 237 288 338
#     4  10  23  38  59  90 120 150 186 222 273 330
#
# _framework density 20.429880000000001
#
# number of rings (size 3 to 8) (size 9 to 14) (size 15 to 20)
#    0.000    1.846    1.538    3.923    0.000    7.692 
#    0.000    1.923    0.000    2.308    0.000    3.231 
#    0.000    0.000    0.000    0.000    0.000    0.000 
#
# Total GULP energy -289812.638854 kJ/mol
# GULP energy per Si atom -5573.319978 kJ/mol
# Density = 2.038338 g / cm^3
# Si number density = 20.429880 Si / 1000 Ang^3
#
#
#
# Elastic Constant Matrix: (Units=GPa)
#
#
# Indices 1 2 3 4 5 6 
#
# 1 170.6779 48.2463 19.8945 0.0000 0.0000 0.0000
# 2 48.2463 113.1412 5.2572 0.0000 0.0000 0.0000
# 3 19.8945 5.2572 70.7543 0.0000 0.0000 0.0000
# 4 0.0000 0.0000 0.0000 8.4501 0.0000 0.0000
# 5 0.0000 0.0000 0.0000 0.0000 21.1268 0.0000
# 6 0.0000 0.0000 0.0000 0.0000 0.0000 21.6981
#
#
#
# Elastic Compliance Matrix: (Units=1/GPa)
#
#
# Indices 1 2 3 4 5 6 
#
# 1 0.006864 -0.002847 -0.001718 0.000000 0.000000 0.000000
# 2 -0.002847 0.010050 0.000054 0.000000 0.000000 0.000000
# 3 -0.001718 0.000054 0.014613 0.000000 0.000000 0.000000
# 4 0.000000 0.000000 0.000000 0.118342 0.000000 0.000000
# 5 0.000000 0.000000 0.000000 0.000000 0.047333 0.000000
# 6 0.000000 0.000000 0.000000 0.000000 0.000000 0.046087
#
#
# Mechanical properties :
#
#
# Convention : Reuss Voigt Hill
#
# Bulk Modulus (GPa) = 44.43822 55.70773 50.07298
# Shear Modulus (GPa) = 19.24454 29.00001 24.12228
#
# Velocity S-wave (km/s) = 3.07250 3.77170 3.43991
# Velocity P-wave (km/s) = 5.86394 6.80401 6.35139
#
# Compressibility (1/GPa) = 0.02250315
#
# Stress axis : x y z
#
# Youngs Moduli (GPa) = 145.68494 99.50123 68.43404
#
# Poissons Ratio (x) = 0.28330 0.11760
# Poissons Ratio (y) = 0.41479 -0.00368
# Poissons Ratio (z) = 0.25036 -0.00535
#
# Static dielectric constant tensor:
#      x y z
#    x 1.740200 0.000000 0.000000 
#    y 0.000000 1.741790 0.000000 
#    z 0.000000 0.000000 1.742750 
# 
# From -- ./inp_files/5744.got.cif
#   From: 2010.05.17/outbox.cif.g08.bks.cpg/sg49_3_cif.got.tgz:5744.got - 2010.06.03 21:02:19.
