data_PCOD9393233
_publ_section_title
;
Structure prediction by ZEFSAII (Michael W. Deem and Ramdas Pophale) SiO2 
 PCOD9393233
Probable space group: P C C M
;
_chemical_formula_sum "Si O2"
_cell_formula_units_Z 64
_cell_length_a 23.450553
_cell_length_b 8.312372
_cell_length_c 17.157523
_cell_angle_alpha 90.000000
_cell_angle_beta 90.000000
_cell_angle_gamma 90.000000
_cell_volume 3344.511157
_symmetry_space_group_name_H-M "P C C M"
_symmetry_group_IT_number 49
_symmetry_cell_setting 'orthorhombic'
loop_
_space_group_symop_operation_xyz
x,y,z
-x,-y,z
x,-y,1/2-z
-x,y,1/2-z
-x,-y,-z
x,y,-z
-x,y,1/2+z
x,-y,1/2+z
loop_
_atom_site_type_symbol
_atom_site_label
_atom_site_fract_x
_atom_site_fract_y
_atom_site_fract_z
Si Si1 0.850702 0.888500 0.181885
Si Si2 0.574538 0.319673 0.095039
Si Si3 0.671879 0.809744 0.908701
Si Si4 0.671817 0.114491 0.820359
Si Si5 0.060226 0.910042 0.091904
Si Si6 0.935047 0.672396 0.724830
Si Si7 0.551993 0.308837 0.593358
Si Si8 0.748729 0.329497 0.288522
O O1 0.902800 0.803150 0.225031
O O2 0.802519 0.755309 0.169632
O O3 0.825031 0.000000 0.250000
O O4 0.883010 0.987475 0.114827
O O5 0.624042 0.225512 0.139830
O O6 0.511106 0.260262 0.119557
O O7 0.570790 0.509925 0.115908
O O8 0.581822 0.304574 0.000000
O O9 0.604296 0.808160 0.890561
O O10 0.700881 0.673432 0.855946
O O11 0.694733 0.984192 0.882739
O O12 0.679630 0.780662 0.000000
O O13 0.720736 0.222039 0.780449
O O14 0.649791 0.000000 0.750000
O O15 0.066180 0.740615 0.137357
O O16 0.057632 0.887163 0.000000
O O17 0.000000 0.000000 0.114928
O O18 0.910477 0.500000 0.750000
O O19 0.000000 0.669845 0.750000
O O20 0.546278 0.318582 0.500000
O O21 0.762097 0.500000 0.250000
#
# Coordination Sequence:
#
# PCOD9393233 Si02
#       8
#     8   8   8   8   8   8   8   8
#     4  10  20  36  62  83 114 153 195 233 280 352
#     4   9  16  31  54  78 106 142 188 238 298 361
#     4  10  20  36  57  80 111 149 193 243 298 358
#     4  10  21  35  52  77 111 146 191 246 299 353
#     4  10  20  36  59  91 126 157 195 248 297 334
#     4  10  19  34  58  89 120 159 203 235 278 355
#     4   8  16  30  52  80 105 139 187 238 293 363
#     4  11  23  40  59  83 114 153 198 244 292 344
#
# _framework density 19.135831
#
# number of rings (size 3 to 8) (size 9 to 14) (size 15 to 20)
#    0.000    2.250    1.250    3.375    0.000    1.000 
#    0.000    8.750    0.000   13.500    0.000    0.000 
#    0.000    0.000    0.000    0.000    0.000    0.000 
#
# Total GULP energy -356335.670440 kJ/mol
# GULP energy per Si atom -5567.744851 kJ/mol
# Density = 1.909228 g / cm^3
# Si number density = 19.135831 Si / 1000 Ang^3
#
#
#
# Elastic Constant Matrix: (Units=GPa)
#
#
# Indices 1 2 3 4 5 6 
#
# 1 84.6107 23.8653 26.2967 0.0000 0.0000 0.0000
# 2 23.8653 78.2097 36.1990 0.0000 0.0000 0.0000
# 3 26.2967 36.1990 66.9541 0.0000 0.0000 0.0000
# 4 0.0000 0.0000 0.0000 22.5139 0.0000 0.0000
# 5 0.0000 0.0000 0.0000 0.0000 -12.4379 0.0000
# 6 0.0000 0.0000 0.0000 0.0000 0.0000 27.4023
#
#
#
# Elastic Compliance Matrix: (Units=1/GPa)
#
#
# Indices 1 2 3 4 5 6 
#
# 1 0.013756 -0.002263 -0.004179 0.000000 0.000000 0.000000
# 2 -0.002263 0.017426 -0.008532 0.000000 0.000000 0.000000
# 3 -0.004179 -0.008532 0.021190 0.000000 0.000000 0.000000
# 4 0.000000 0.000000 0.000000 0.044417 0.000000 0.000000
# 5 0.000000 0.000000 0.000000 0.000000 -0.080399 0.000000
# 6 0.000000 0.000000 0.000000 0.000000 0.000000 0.036493
#
#
# Mechanical properties :
#
#
# Convention : Reuss Voigt Hill
#
# Bulk Modulus (GPa) = 44.59840 44.72180 44.66010
# Shear Modulus (GPa) = 55.36662 17.05657 36.21160
#
# Velocity S-wave (km/s) = 5.38482 2.98877 4.35483
# Velocity P-wave (km/s) = 7.87519 5.94406 6.97676
#
# Compressibility (1/GPa) = 0.02242233
#
# Stress axis : x y z
#
# Youngs Moduli (GPa) = 72.69514 57.38558 47.19182
#
# Poissons Ratio (x) = 0.12988 0.19722
# Poissons Ratio (y) = 0.16453 0.40266
# Poissons Ratio (z) = 0.30380 0.48964
#
# Static dielectric constant tensor:
#      x y z
#    x 1.708340 0.000000 0.000000 
#    y 0.000000 2.160900 0.000000 
#    z 0.000000 0.000000 1.719120 
# 
# From -- ./inp_files/18323.got.cif
#   From: 2010.05.17/outbox.cif.g08.bks.cpg/sg49_10_cif.got.tgz:18323.got - 2010.06.03 21:02:19.
