data_PCOD9393529
_publ_section_title
;
Structure prediction by ZEFSAII (Michael W. Deem and Ramdas Pophale) SiO2 
 PCOD9393529
Probable space group: P C C M
;
_chemical_formula_sum "Si O2"
_cell_formula_units_Z 40
_cell_length_a 19.026863
_cell_length_b 13.760498
_cell_length_c 8.791688
_cell_angle_alpha 90.000000
_cell_angle_beta 90.000000
_cell_angle_gamma 90.000000
_cell_volume 2301.831930
_symmetry_space_group_name_H-M "P C C M"
_symmetry_group_IT_number 49
_symmetry_cell_setting 'orthorhombic'
loop_
_space_group_symop_operation_xyz
x,y,z
-x,-y,z
x,-y,1/2-z
-x,y,1/2-z
-x,-y,-z
x,y,-z
-x,y,1/2+z
x,-y,1/2+z
loop_
_atom_site_type_symbol
_atom_site_label
_atom_site_fract_x
_atom_site_fract_y
_atom_site_fract_z
Si Si1 0.212414 0.898860 0.180863
Si Si2 0.287552 0.302739 0.681960
Si Si3 0.425864 0.391708 0.817777
Si Si4 0.924179 0.804037 0.181446
Si Si5 0.850242 0.602050 0.818022
O O1 0.262807 0.807398 0.214211
O O2 0.136770 0.871524 0.250777
O O3 0.237574 0.000000 0.250000
O O4 0.205768 0.907073 0.000000
O O5 0.292960 0.315722 0.500000
O O6 0.360245 0.328961 0.761735
O O7 0.225273 0.370889 0.746014
O O8 0.415852 0.500000 0.750000
O O9 0.500000 0.355742 0.750000
O O10 0.429216 0.396437 0.000000
O O11 0.901016 0.692882 0.218071
O O12 0.000000 0.825272 0.250000
O O13 0.925428 0.814221 0.000000
O O14 0.874912 0.500000 0.750000
O O15 0.843602 0.595235 0.000000
#
# Coordination Sequence:
#
# PCOD9393529 Si02
#       5
#     8   8   8   8   8
#     4  10  21  37  58  80 103 131 168 213 261 311
#     4  10  20  35  54  77 105 137 172 212 256 304
#     4  11  21  34  53  79 112 146 178 212 250 297
#     4  10  21  36  53  74 102 133 170 213 260 310
#     4  10  20  33  50  73 101 136 174 213 254 303
#
# _framework density 17.377462999999999
#
# number of rings (size 3 to 8) (size 9 to 14) (size 15 to 20)
#    0.000    1.800    0.000    5.400    0.000    5.600 
#    0.000    4.000    0.000    0.600    0.000    4.200 
#    0.000    0.000    0.000    0.000    0.000    0.000 
#
# Total GULP energy -223486.332761 kJ/mol
# GULP energy per Si atom -5587.158319 kJ/mol
# Density = 1.733791 g / cm^3
# Si number density = 17.377463 Si / 1000 Ang^3
#
#
#
# Elastic Constant Matrix: (Units=GPa)
#
#
# Indices 1 2 3 4 5 6 
#
# 1 99.7912 7.2799 42.1146 0.0000 0.0000 0.0000
# 2 7.2799 55.4751 29.1564 0.0000 0.0000 0.0000
# 3 42.1146 29.1564 86.1781 0.0000 0.0000 0.0000
# 4 0.0000 0.0000 0.0000 31.0910 0.0000 0.0000
# 5 0.0000 0.0000 0.0000 0.0000 26.7553 0.0000
# 6 0.0000 0.0000 0.0000 0.0000 0.0000 2.4493
#
#
#
# Elastic Compliance Matrix: (Units=1/GPa)
#
#
# Indices 1 2 3 4 5 6 
#
# 1 0.012797 0.001955 -0.006915 0.000000 0.000000 0.000000
# 2 0.001955 0.022223 -0.008474 0.000000 0.000000 0.000000
# 3 -0.006915 -0.008474 0.017850 0.000000 0.000000 0.000000
# 4 0.000000 0.000000 0.000000 0.032164 0.000000 0.000000
# 5 0.000000 0.000000 0.000000 0.000000 0.037376 0.000000
# 6 0.000000 0.000000 0.000000 0.000000 0.000000 0.408281
#
#
# Mechanical properties :
#
#
# Convention : Reuss Voigt Hill
#
# Bulk Modulus (GPa) = 38.45866 44.28289 41.37077
# Shear Modulus (GPa) = 8.83038 22.91867 15.87453
#
# Velocity S-wave (km/s) = 2.25667 3.63557 3.02572
# Velocity P-wave (km/s) = 5.38233 6.56974 6.00545
#
# Compressibility (1/GPa) = 0.02600195
#
# Stress axis : x y z
#
# Youngs Moduli (GPa) = 78.14539 44.99760 56.02145
#
# Poissons Ratio (x) = -0.08798 0.38739
# Poissons Ratio (y) = -0.15278 0.47474
# Poissons Ratio (z) = 0.54038 0.38132
#
# Static dielectric constant tensor:
#      x y z
#    x 1.565840 0.000000 0.000000 
#    y 0.000000 1.589290 0.000000 
#    z 0.000000 0.000000 1.575540 
# 
# From -- ./inp_files/2667.got.cif
#   From: 2010.05.17/outbox.cif.g08.bks.cpg/sg49_2_cif.got.tgz:2667.got - 2010.06.03 21:02:19.
