data_PCOD9393968
_publ_section_title
;
Structure prediction by ZEFSAII (Michael W. Deem and Ramdas Pophale) SiO2 
 PCOD9393968
Probable space group: P C C M
;
_chemical_formula_sum "Si O2"
_cell_formula_units_Z 48
_cell_length_a 31.264555
_cell_length_b 9.596139
_cell_length_c 8.619801
_cell_angle_alpha 90.000000
_cell_angle_beta 90.000000
_cell_angle_gamma 90.000000
_cell_volume 2586.104210
_symmetry_space_group_name_H-M "P C C M"
_symmetry_group_IT_number 49
_symmetry_cell_setting 'orthorhombic'
loop_
_space_group_symop_operation_xyz
x,y,z
-x,-y,z
x,-y,1/2-z
-x,y,1/2-z
-x,-y,-z
x,y,-z
-x,y,1/2+z
x,-y,1/2+z
loop_
_atom_site_type_symbol
_atom_site_label
_atom_site_fract_x
_atom_site_fract_y
_atom_site_fract_z
Si Si1 0.452236 0.651633 0.685748
Si Si2 0.120685 0.844553 0.186442
Si Si3 0.296711 0.655891 0.812875
Si Si4 0.781901 0.155064 0.813005
Si Si5 0.378210 0.843947 0.186660
Si Si6 0.045083 0.343575 0.185026
O O1 0.438309 0.500000 0.750000
O O2 0.500000 0.675835 0.750000
O O3 0.453151 0.647248 0.500000
O O4 0.419994 0.768660 0.745527
O O5 0.169508 0.804989 0.230472
O O6 0.085156 0.744958 0.257520
O O7 0.113894 0.000000 0.250000
O O8 0.117564 0.843650 0.000000
O O9 0.299783 0.500000 0.750000
O O10 0.253650 0.735128 0.760117
O O11 0.337328 0.750142 0.767783
O O12 0.296019 0.649463 0.000000
O O13 0.773155 0.000000 0.750000
O O14 0.780185 0.148047 0.000000
O O15 0.373892 0.000000 0.250000
O O16 0.380707 0.847233 0.000000
O O17 0.049155 0.500000 0.250000
O O18 0.000000 0.286471 0.250000
O O19 0.043267 0.347218 0.000000
#
# Coordination Sequence:
#
# PCOD9393968 Si02
#       6
#     8   8   8   8   8   8
#     4  11  22  39  62  88 118 152 191 234 283 336
#     4  10  20  36  57  83 114 147 186 230 278 331
#     4  10  22  38  57  83 114 148 188 232 278 331
#     4   9  19  36  57  82 112 146 184 227 275 329
#     4  11  23  39  59  85 116 151 192 236 285 337
#     4  11  22  38  58  81 110 145 185 229 280 333
#
# _framework density 18.560738000000001
#
# number of rings (size 3 to 8) (size 9 to 14) (size 15 to 20)
#    0.000    1.667    0.000    6.000    0.000    5.333 
#    0.000    5.000    0.000    0.000    0.000    0.000 
#    0.000    0.000    0.000    0.000    0.000    0.000 
#
# Total GULP energy -268251.571263 kJ/mol
# GULP energy per Si atom -5588.574401 kJ/mol
# Density = 1.851849 g / cm^3
# Si number density = 18.560738 Si / 1000 Ang^3
#
#
#
# Elastic Constant Matrix: (Units=GPa)
#
#
# Indices 1 2 3 4 5 6 
#
# 1 137.0142 112.8473 54.9987 0.0000 0.0000 0.0000
# 2 112.8473 149.7961 51.4682 0.0000 0.0000 0.0000
# 3 54.9987 51.4682 99.2360 0.0000 0.0000 0.0000
# 4 0.0000 0.0000 0.0000 37.3898 0.0000 0.0000
# 5 0.0000 0.0000 0.0000 0.0000 22.8120 0.0000
# 6 0.0000 0.0000 0.0000 0.0000 0.0000 45.4704
#
#
#
# Elastic Compliance Matrix: (Units=1/GPa)
#
#
# Indices 1 2 3 4 5 6 
#
# 1 0.020503 -0.014044 -0.004079 0.000000 0.000000 0.000000
# 2 -0.014044 0.017743 -0.001419 0.000000 0.000000 0.000000
# 3 -0.004079 -0.001419 0.013074 0.000000 0.000000 0.000000
# 4 0.000000 0.000000 0.000000 0.026745 0.000000 0.000000
# 5 0.000000 0.000000 0.000000 0.000000 0.043837 0.000000
# 6 0.000000 0.000000 0.000000 0.000000 0.000000 0.021992
#
#
# Mechanical properties :
#
#
# Convention : Reuss Voigt Hill
#
# Bulk Modulus (GPa) = 81.73032 91.63053 86.68042
# Shear Modulus (GPa) = 26.72984 32.24992 29.48988
#
# Velocity S-wave (km/s) = 3.79902 4.17290 3.99034
# Velocity P-wave (km/s) = 7.96071 8.52599 8.24820
#
# Compressibility (1/GPa) = 0.01223536
#
# Stress axis : x y z
#
# Youngs Moduli (GPa) = 48.77360 56.35963 76.48937
#
# Poissons Ratio (x) = 0.79152 0.31202
# Poissons Ratio (y) = 0.68498 0.10853
# Poissons Ratio (z) = 0.19896 0.07997
#
# Static dielectric constant tensor:
#      x y z
#    x 1.642750 0.000000 0.000000 
#    y 0.000000 1.591190 0.000000 
#    z 0.000000 0.000000 1.625360 
# 
# From -- ./inp_files/2052.got.cif
#   From: 2010.05.17/outbox.cif.g08.bks.cpg/sg49_2_cif.got.tgz:2052.got - 2010.06.03 21:02:19.
