data_PCOD9393189
_publ_section_title
;
Structure prediction by ZEFSAII (Michael W. Deem and Ramdas Pophale) SiO2 
 PCOD9393189
Probable space group: P C C M
;
_chemical_formula_sum "Si O2"
_cell_formula_units_Z 58
_cell_length_a 5.226294
_cell_length_b 18.399244
_cell_length_c 33.240536
_cell_angle_alpha 90.000000
_cell_angle_beta 90.000000
_cell_angle_gamma 90.000000
_cell_volume 3196.405239
_symmetry_space_group_name_H-M "P C C M"
_symmetry_group_IT_number 49
_symmetry_cell_setting 'orthorhombic'
loop_
_space_group_symop_operation_xyz
x,y,z
-x,-y,z
x,-y,1/2-z
-x,y,1/2-z
-x,-y,-z
x,y,-z
-x,y,1/2+z
x,-y,1/2+z
loop_
_atom_site_type_symbol
_atom_site_label
_atom_site_fract_x
_atom_site_fract_y
_atom_site_fract_z
Si Si1 0.515991 0.774373 0.338173
Si Si2 0.000000 0.000000 0.250000
Si Si3 0.608098 0.076555 0.295569
Si Si4 0.016385 0.270638 0.114972
Si Si5 0.956618 0.418421 0.844287
Si Si6 0.913807 0.834345 0.451808
Si Si7 0.542304 0.374515 0.703633
Si Si8 0.411769 0.078984 0.951109
O O1 0.455033 0.853870 0.321392
O O2 0.798222 0.766594 0.356951
O O3 0.487280 0.712129 0.304032
O O4 0.297150 0.752447 0.370134
O O5 0.895014 0.942158 0.216866
O O6 0.500000 0.084132 0.250000
O O7 0.500000 0.000000 0.312139
O O8 0.970078 0.240242 0.070723
O O9 0.980968 0.356311 0.121937
O O10 0.180641 0.399187 0.812232
O O11 0.000000 0.500000 0.858740
O O12 0.681435 0.410468 0.823077
O O13 0.925456 0.827705 0.500000
O O14 0.635457 0.864751 0.440552
O O15 0.133914 0.891936 0.438831
O O16 0.500000 0.392291 0.750000
O O17 0.500000 0.000000 0.936286
O O18 0.403769 0.074581 0.000000
#
# Coordination Sequence:
#
# PCOD9393189 Si02
#       8
#     8   2   8   8   8   8   8   8
#     4  10  21  36  53  72 107 139 169 217 259 307
#     4   8  18  32  52  74  92 132 190 224 258 292
#     4   9  19  33  51  73  97 137 183 220 258 292
#     4  10  22  37  53  76 104 133 172 209 260 320
#     4  10  21  36  54  75 105 140 165 204 259 311
#     4  10  19  34  56  77 102 136 174 217 257 302
#     4  10  20  34  52  81 104 133 175 210 251 302
#     4   9  17  30  51  77 103 132 166 206 252 301
#
# _framework density 18.145384
#
# number of rings (size 3 to 8) (size 9 to 14) (size 15 to 20)
#    0.000    2.483    0.000    2.483    3.862    3.310 
#    2.483    4.138    0.000    0.414    0.000    0.000 
#    0.000    9.931    0.000    0.000    0.000    1.655 
#
# Total GULP energy -323164.621669 kJ/mol
# GULP energy per Si atom -5571.803822 kJ/mol
# Density = 1.810408 g / cm^3
# Si number density = 18.145384 Si / 1000 Ang^3
#
#
#
# Elastic Constant Matrix: (Units=GPa)
#
#
# Indices 1 2 3 4 5 6 
#
# 1 55.0608 -6.6659 -10.0715 0.0000 0.0000 0.0000
# 2 -6.6659 120.7480 17.8199 0.0000 0.0000 0.0000
# 3 -10.0715 17.8199 20.1568 0.0000 0.0000 0.0000
# 4 0.0000 0.0000 0.0000 4.4642 0.0000 0.0000
# 5 0.0000 0.0000 0.0000 0.0000 18.3195 0.0000
# 6 0.0000 0.0000 0.0000 0.0000 0.0000 24.5279
#
#
#
# Elastic Compliance Matrix: (Units=1/GPa)
#
#
# Indices 1 2 3 4 5 6 
#
# 1 0.020008 -0.000426 0.010374 0.000000 0.000000 0.000000
# 2 -0.000426 0.009533 -0.008641 0.000000 0.000000 0.000000
# 3 0.010374 -0.008641 0.062434 0.000000 0.000000 0.000000
# 4 0.000000 0.000000 0.000000 0.224004 0.000000 0.000000
# 5 0.000000 0.000000 0.000000 0.000000 0.054587 0.000000
# 6 0.000000 0.000000 0.000000 0.000000 0.000000 0.040770
#
#
# Mechanical properties :
#
#
# Convention : Reuss Voigt Hill
#
# Bulk Modulus (GPa) = 10.57224 22.01452 16.29338
# Shear Modulus (GPa) = 11.35713 22.45453 16.90583
#
# Velocity S-wave (km/s) = 2.50451 3.52160 3.05567
# Velocity P-wave (km/s) = 3.76861 5.35669 4.63123
#
# Compressibility (1/GPa) = 0.09458738
#
# Stress axis : x y z
#
# Youngs Moduli (GPa) = 49.98081 104.89404 16.01699
#
# Poissons Ratio (x) = 0.04473 -0.16616
# Poissons Ratio (y) = 0.02131 0.13841
# Poissons Ratio (z) = -0.51850 0.90641
#
# Static dielectric constant tensor:
#      x y z
#    x 1.783980 0.000000 0.000000 
#    y 0.000000 1.621640 0.000000 
#    z 0.000000 0.000000 1.605590 
# 
# From -- ./inp_files/25909.got.cif
#   From: 2010.05.17/outbox.cif.g08.bks.cpg/sg49_13_cif.got.tgz:25909.got - 2010.06.03 21:02:19.
