data_PCOD9393699
_publ_section_title
;
Structure prediction by ZEFSAII (Michael W. Deem and Ramdas Pophale) SiO2 
 PCOD9393699
Probable space group: P C C M
;
_chemical_formula_sum "Si O2"
_cell_formula_units_Z 64
_cell_length_a 17.944515
_cell_length_b 21.042624
_cell_length_c 8.705015
_cell_angle_alpha 90.000000
_cell_angle_beta 90.000000
_cell_angle_gamma 90.000000
_cell_volume 3287.010896
_symmetry_space_group_name_H-M "P C C M"
_symmetry_group_IT_number 49
_symmetry_cell_setting 'orthorhombic'
loop_
_space_group_symop_operation_xyz
x,y,z
-x,-y,z
x,-y,1/2-z
-x,y,1/2-z
-x,-y,-z
x,y,-z
-x,y,1/2+z
x,-y,1/2+z
loop_
_atom_site_type_symbol
_atom_site_label
_atom_site_fract_x
_atom_site_fract_y
_atom_site_fract_z
Si Si1 0.200241 0.432727 0.684285
Si Si2 0.422355 0.701217 0.683170
Si Si3 0.869107 0.203802 0.315267
Si Si4 0.625461 0.568245 0.684608
Si Si5 0.292875 0.936713 0.183015
Si Si6 0.298707 0.794519 0.183613
Si Si7 0.076700 0.333520 0.684035
Si Si8 0.874882 0.064657 0.683008
O O1 0.174296 0.500000 0.750000
O O2 0.197777 0.435363 0.500000
O O3 0.286768 0.424463 0.727190
O O4 0.147131 0.375756 0.734973
O O5 0.500000 0.727000 0.750000
O O6 0.423431 0.701713 0.500000
O O7 0.413800 0.629226 0.743932
O O8 0.353869 0.743129 0.745137
O O9 0.868375 0.206579 0.500000
O O10 0.784200 0.209501 0.253810
O O11 0.912970 0.262720 0.246793
O O12 0.901778 0.134696 0.268580
O O13 0.600487 0.500000 0.750000
O O14 0.618363 0.568683 0.500000
O O15 0.326670 0.867025 0.211785
O O16 0.211430 0.934614 0.261974
O O17 0.331021 0.000000 0.250000
O O18 0.283323 0.943742 0.000000
O O19 0.293320 0.784865 0.000000
O O20 0.074389 0.332497 0.500000
O O21 0.000000 0.360655 0.750000
O O22 0.877634 0.060557 0.500000
O O23 0.908888 0.000000 0.750000
#
# Coordination Sequence:
#
# PCOD9393699 Si02
#       8
#     8   8   8   8   8   8   8   8
#     4   9  20  37  59  84 110 140 175 217 265 315
#     4  12  25  40  58  81 110 147 186 228 276 326
#     4  10  20  34  54  81 109 142 183 226 271 324
#     4  10  20  38  62  88 115 143 179 223 270 324
#     4   9  16  26  45  73 106 139 174 218 269 319
#     4  10  20  35  55  81 111 145 183 226 274 326
#     4  11  23  38  55  78 109 146 184 225 272 323
#     4   9  16  26  44  72 105 136 172 217 267 319
#
# _framework density 19.470579000000001
#
# number of rings (size 3 to 8) (size 9 to 14) (size 15 to 20)
#    0.000    2.000    0.000    4.875    0.000    6.000 
#    0.000    2.500    0.000    0.750    0.000    5.250 
#    0.000    0.000    0.000    0.000    0.000    0.000 
#
# Total GULP energy -357309.814520 kJ/mol
# GULP energy per Si atom -5582.965852 kJ/mol
# Density = 1.942626 g / cm^3
# Si number density = 19.470579 Si / 1000 Ang^3
#
#
#
# Elastic Constant Matrix: (Units=GPa)
#
#
# Indices 1 2 3 4 5 6 
#
# 1 55.2435 28.5035 15.6770 0.0000 0.0000 0.0000
# 2 28.5035 107.4840 29.9853 0.0000 0.0000 0.0000
# 3 15.6770 29.9853 66.5531 0.0000 0.0000 0.0000
# 4 0.0000 0.0000 0.0000 35.3265 0.0000 0.0000
# 5 0.0000 0.0000 0.0000 0.0000 14.3932 0.0000
# 6 0.0000 0.0000 0.0000 0.0000 0.0000 -16.5692
#
#
#
# Elastic Compliance Matrix: (Units=1/GPa)
#
#
# Indices 1 2 3 4 5 6 
#
# 1 0.021432 -0.004890 -0.002845 0.000000 0.000000 0.000000
# 2 -0.004890 0.011757 -0.004145 0.000000 0.000000 0.000000
# 3 -0.002845 -0.004145 0.017563 0.000000 0.000000 0.000000
# 4 0.000000 0.000000 0.000000 0.028307 0.000000 0.000000
# 5 0.000000 0.000000 0.000000 0.000000 0.069477 0.000000
# 6 0.000000 0.000000 0.000000 0.000000 0.000000 -0.060353
#
#
# Mechanical properties :
#
#
# Convention : Reuss Voigt Hill
#
# Bulk Modulus (GPa) = 37.04847 41.95692 39.50269
# Shear Modulus (GPa) = 41.34224 16.97109 29.15666
#
# Velocity S-wave (km/s) = 4.61295 2.95554 3.87392
# Velocity P-wave (km/s) = 6.88779 5.76564 6.35154
#
# Compressibility (1/GPa) = 0.02699167
#
# Stress axis : x y z
#
# Youngs Moduli (GPa) = 46.65902 85.05711 56.93646
#
# Poissons Ratio (x) = 0.41591 0.16201
# Poissons Ratio (y) = 0.22815 0.23601
# Poissons Ratio (z) = 0.13276 0.35258
#
# Static dielectric constant tensor:
#      x y z
#    x 1.683880 0.000000 0.000000 
#    y 0.000000 1.718520 0.000000 
#    z 0.000000 0.000000 1.647710 
# 
# From -- ./inp_files/5297.got.cif
#   From: 2010.05.17/outbox.cif.g08.bks.cpg/sg49_3_cif.got.tgz:5297.got - 2010.06.03 21:02:19.
