data_PCOD9393787
_publ_section_title
;
Structure prediction by ZEFSAII (Michael W. Deem and Ramdas Pophale) SiO2 
 PCOD9393787
Probable space group: P C C M
;
_chemical_formula_sum "Si O2"
_cell_formula_units_Z 48
_cell_length_a 32.299966
_cell_length_b 9.874132
_cell_length_c 8.653867
_cell_angle_alpha 90.000000
_cell_angle_beta 90.000000
_cell_angle_gamma 90.000000
_cell_volume 2760.013524
_symmetry_space_group_name_H-M "P C C M"
_symmetry_group_IT_number 49
_symmetry_cell_setting 'orthorhombic'
loop_
_space_group_symop_operation_xyz
x,y,z
-x,-y,z
x,-y,1/2-z
-x,y,1/2-z
-x,-y,-z
x,y,-z
-x,y,1/2+z
x,-y,1/2+z
loop_
_atom_site_type_symbol
_atom_site_label
_atom_site_fract_x
_atom_site_fract_y
_atom_site_fract_z
Si Si1 0.382802 0.149275 0.685927
Si Si2 0.455862 0.651403 0.186048
Si Si3 0.781575 0.652856 0.184294
Si Si4 0.711663 0.150952 0.814074
Si Si5 0.132451 0.653547 0.814469
Si Si6 0.042112 0.346236 0.684799
O O1 0.383793 0.143414 0.500000
O O2 0.417815 0.254424 0.736124
O O3 0.335754 0.187459 0.730342
O O4 0.391194 0.000000 0.750000
O O5 0.450202 0.500000 0.250000
O O6 0.500000 0.701788 0.250000
O O7 0.457538 0.647122 0.000000
O O8 0.777745 0.500000 0.250000
O O9 0.744316 0.744458 0.245169
O O10 0.825668 0.712216 0.242929
O O11 0.781756 0.646555 0.000000
O O12 0.719387 0.000000 0.750000
O O13 0.714640 0.150046 0.000000
O O14 0.131326 0.500000 0.750000
O O15 0.087256 0.714575 0.774886
O O16 0.136193 0.649855 0.000000
O O17 0.042885 0.500000 0.750000
O O18 0.039196 0.353032 0.500000
O O19 0.000000 0.281710 0.750000
#
# Coordination Sequence:
#
# PCOD9393787 Si02
#       6
#     8   8   8   8   8   8
#     4   9  20  36  55  77 102 131 166 204 246 293
#     4  10  20  35  53  77 105 136 170 205 245 290
#     4  11  21  33  50  73  99 131 167 207 252 300
#     4  10  20  37  56  76 102 132 166 207 251 300
#     4   9  16  26  39  58  85 119 156 198 243 291
#     4   9  15  21  32  50  76 111 151 190 234 285
#
# _framework density 17.391219
#
# number of rings (size 3 to 8) (size 9 to 14) (size 15 to 20)
#    0.000    2.333    0.000    5.500    0.000    5.000 
#    0.000    3.333    0.000    0.000    0.000    0.000 
#    0.000    0.667    0.000    7.000    0.000    6.333 
#
# Total GULP energy -267528.351771 kJ/mol
# GULP energy per Si atom -5573.507329 kJ/mol
# Density = 1.735164 g / cm^3
# Si number density = 17.391219 Si / 1000 Ang^3
#
#
#
# Elastic Constant Matrix: (Units=GPa)
#
#
# Indices 1 2 3 4 5 6 
#
# 1 201.7058 82.2368 62.9791 0.0000 0.0000 0.0000
# 2 82.2368 46.4582 28.6187 0.0000 0.0000 0.0000
# 3 62.9791 28.6187 84.2175 0.0000 0.0000 0.0000
# 4 0.0000 0.0000 0.0000 20.7423 0.0000 0.0000
# 5 0.0000 0.0000 0.0000 0.0000 -13.6936 0.0000
# 6 0.0000 0.0000 0.0000 0.0000 0.0000 -11.7112
#
#
#
# Elastic Compliance Matrix: (Units=1/GPa)
#
#
# Indices 1 2 3 4 5 6 
#
# 1 0.018568 -0.030751 -0.003436 0.000000 0.000000 0.000000
# 2 -0.030751 0.078152 -0.003561 0.000000 0.000000 0.000000
# 3 -0.003436 -0.003561 0.015653 0.000000 0.000000 0.000000
# 4 0.000000 0.000000 0.000000 0.048211 0.000000 0.000000
# 5 0.000000 0.000000 0.000000 0.000000 -0.073027 0.000000
# 6 0.000000 0.000000 0.000000 0.000000 0.000000 -0.085388
#
#
# Mechanical properties :
#
#
# Convention : Reuss Voigt Hill
#
# Bulk Modulus (GPa) = 27.11709 75.56118 51.33914
# Shear Modulus (GPa) = 55.58277 9.63730 32.61004
#
# Velocity S-wave (km/s) = 5.65947 2.35659 4.33492
# Velocity P-wave (km/s) = 7.63757 7.13771 7.39186
#
# Compressibility (1/GPa) = 0.03687711
#
# Stress axis : x y z
#
# Youngs Moduli (GPa) = 53.85677 12.79564 63.88406
#
# Poissons Ratio (x) = 0.39348 0.21947
# Poissons Ratio (y) = 1.65615 0.22751
# Poissons Ratio (z) = 0.18503 0.04557
#
# Static dielectric constant tensor:
#      x y z
#    x 1.648940 0.000000 0.000000 
#    y 0.000000 1.554870 0.000000 
#    z 0.000000 0.000000 1.584620 
# 
# From -- ./inp_files/6867.got.cif
#   From: 2010.05.17/outbox.cif.g08.bks.cpg/sg49_4_cif.got.tgz:6867.got - 2010.06.03 21:02:19.
