data_PCOD9393488
_publ_section_title
;
Structure prediction by ZEFSAII (Michael W. Deem and Ramdas Pophale) SiO2 
 PCOD9393488
Probable space group: P C C M
;
_chemical_formula_sum "Si O2"
_cell_formula_units_Z 64
_cell_length_a 10.471059
_cell_length_b 17.150572
_cell_length_c 14.298508
_cell_angle_alpha 90.000000
_cell_angle_beta 90.000000
_cell_angle_gamma 90.000000
_cell_volume 2567.792573
_symmetry_space_group_name_H-M "P C C M"
_symmetry_group_IT_number 49
_symmetry_cell_setting 'orthorhombic'
loop_
_space_group_symop_operation_xyz
x,y,z
-x,-y,z
x,-y,1/2-z
-x,y,1/2-z
-x,-y,-z
x,y,-z
-x,y,1/2+z
x,-y,1/2+z
loop_
_atom_site_type_symbol
_atom_site_label
_atom_site_fract_x
_atom_site_fract_y
_atom_site_fract_z
Si Si1 0.145251 0.279039 0.387160
Si Si2 0.868542 0.958966 0.114637
Si Si3 0.619570 0.042802 0.892634
Si Si4 0.862947 0.217920 0.611871
Si Si5 0.205574 0.449447 0.610144
Si Si6 0.485441 0.380850 0.638047
Si Si7 0.225193 0.615205 0.394692
Si Si8 0.591023 0.215568 0.159792
O O1 0.173594 0.277028 0.500000
O O2 0.138187 0.369871 0.357400
O O3 0.259902 0.237972 0.332183
O O4 0.012453 0.235754 0.373991
O O5 0.754782 0.015778 0.145191
O O6 0.839923 0.870071 0.147291
O O7 0.876003 0.954589 0.000000
O O8 0.000000 0.000000 0.143592
O O9 0.500000 0.000000 0.848604
O O10 0.592117 0.133646 0.890200
O O11 0.626203 0.016401 0.000000
O O12 0.834885 0.214477 0.500000
O O13 0.794831 0.298169 0.645672
O O14 0.175998 0.455779 0.500000
O O15 0.357660 0.428972 0.616921
O O16 0.174881 0.535009 0.650971
O O17 0.500000 0.383030 0.750000
O O18 0.623492 0.401846 0.600176
O O19 0.462004 0.291799 0.608285
O O20 0.170562 0.619998 0.500000
O O21 0.500000 0.207485 0.250000
#
# Coordination Sequence:
#
# PCOD9393488 Si02
#       8
#     8   8   8   8   8   8   8   8
#     4   9  17  33  57  84 115 151 195 238 284 349
#     4   9  17  31  52  81 115 146 184 231 282 347
#     4  10  21  34  54  86 116 145 184 237 294 347
#     4   9  18  31  53  85 117 151 187 236 297 352
#     4   9  18  32  51  79 114 152 189 234 292 351
#     4  10  21  35  53  77 108 151 200 242 286 347
#     4  10  20  32  51  82 117 148 186 240 300 354
#     4  10  21  36  55  79 110 149 191 232 289 348
#
# _framework density 24.924132
#
# number of rings (size 3 to 8) (size 9 to 14) (size 15 to 20)
#    0.000    2.500    0.000    1.875    1.750    6.250 
#    0.000    2.500    0.000    6.750    0.000    6.125 
#    0.000    0.000    0.000    0.000    0.000    1.125 
#
# Total GULP energy -357480.110214 kJ/mol
# GULP energy per Si atom -5585.626722 kJ/mol
# Density = 2.486740 g / cm^3
# Si number density = 24.924132 Si / 1000 Ang^3
#
#
#
# Elastic Constant Matrix: (Units=GPa)
#
#
# Indices 1 2 3 4 5 6 
#
# 1 62.4389 23.1913 6.9416 0.0000 0.0000 0.0000
# 2 23.1913 174.4146 6.9664 0.0000 0.0000 0.0000
# 3 6.9416 6.9664 89.3476 0.0000 0.0000 0.0000
# 4 0.0000 0.0000 0.0000 20.2269 0.0000 0.0000
# 5 0.0000 0.0000 0.0000 0.0000 -4.8304 0.0000
# 6 0.0000 0.0000 0.0000 0.0000 0.0000 7.7463
#
#
#
# Elastic Compliance Matrix: (Units=1/GPa)
#
#
# Indices 1 2 3 4 5 6 
#
# 1 0.016964 -0.002210 -0.001146 0.000000 0.000000 0.000000
# 2 -0.002210 0.006039 -0.000299 0.000000 0.000000 0.000000
# 3 -0.001146 -0.000299 0.011305 0.000000 0.000000 0.000000
# 4 0.000000 0.000000 0.000000 0.049439 0.000000 0.000000
# 5 0.000000 0.000000 0.000000 0.000000 -0.207024 0.000000
# 6 0.000000 0.000000 0.000000 0.000000 0.000000 0.129094
#
#
# Mechanical properties :
#
#
# Convention : Reuss Voigt Hill
#
# Bulk Modulus (GPa) = 37.03944 44.48884 40.76414
# Shear Modulus (GPa) = 225.97899 23.90202 124.94051
#
# Velocity S-wave (km/s) = 9.53224 3.10012 7.08782
# Velocity P-wave (km/s) = 11.66381 5.54101 9.13092
#
# Compressibility (1/GPa) = 0.02699825
#
# Stress axis : x y z
#
# Youngs Moduli (GPa) = 58.94903 165.58338 88.45974
#
# Poissons Ratio (x) = 0.36592 0.10134
# Poissons Ratio (y) = 0.13027 0.02647
# Poissons Ratio (z) = 0.06753 0.04954
#
# Static dielectric constant tensor:
#      x y z
#    x 1.934840 0.000000 0.000000 
#    y 0.000000 1.942660 0.000000 
#    z 0.000000 0.000000 2.012650 
# 
# From -- ./inp_files/17281.got.cif
#   From: 2010.05.17/outbox.cif.g08.bks.cpg/sg49_9_cif.got.tgz:17281.got - 2010.06.03 21:02:19.
