data_PCOD9393117
_publ_section_title
;
Structure prediction by ZEFSAII (Michael W. Deem and Ramdas Pophale) SiO2 
 PCOD9393117
Probable space group: P C C M
;
_chemical_formula_sum "Si O2"
_cell_formula_units_Z 64
_cell_length_a 18.281974
_cell_length_b 9.419789
_cell_length_c 18.032206
_cell_angle_alpha 90.000000
_cell_angle_beta 90.000000
_cell_angle_gamma 90.000000
_cell_volume 3105.368347
_symmetry_space_group_name_H-M "P C C M"
_symmetry_group_IT_number 49
_symmetry_cell_setting 'orthorhombic'
loop_
_space_group_symop_operation_xyz
x,y,z
-x,-y,z
x,-y,1/2-z
-x,y,1/2-z
-x,-y,-z
x,y,-z
-x,y,1/2+z
x,-y,1/2+z
loop_
_atom_site_type_symbol
_atom_site_label
_atom_site_fract_x
_atom_site_fract_y
_atom_site_fract_z
Si Si1 0.338383 0.963817 0.916777
Si Si2 0.679609 0.699056 0.921144
Si Si3 0.575735 0.134479 0.794029
Si Si4 0.115045 0.316030 0.587256
Si Si5 0.852420 0.637826 0.087106
Si Si6 0.681780 0.345155 0.265140
Si Si7 0.967260 0.852796 0.913927
Si Si8 0.788921 0.871113 0.301984
O O1 0.333803 0.133257 0.921482
O O2 0.414277 0.914467 0.878517
O O3 0.273237 0.919839 0.861256
O O4 0.329134 0.906473 0.000000
O O5 0.765886 0.665246 0.911925
O O6 0.645246 0.646928 0.845756
O O7 0.655460 0.638565 0.000000
O O8 0.500000 0.149276 0.750000
O O9 0.619808 0.279644 0.786837
O O10 0.612375 0.000000 0.750000
O O11 0.140767 0.303170 0.500000
O O12 0.127563 0.478902 0.612734
O O13 0.031300 0.264471 0.586167
O O14 0.154694 0.212070 0.645456
O O15 0.897452 0.771127 0.120037
O O16 0.873982 0.635296 0.000000
O O17 0.709839 0.500000 0.250000
O O18 0.748254 0.236872 0.253971
O O19 0.947884 0.890651 0.000000
O O20 0.000000 0.000000 0.881679
O O21 0.815492 0.000000 0.250000
#
# Coordination Sequence:
#
# PCOD9393117 Si02
#       8
#     8   8   8   8   8   8   8   8
#     4  10  19  35  60  90 118 150 192 244 293 335
#     4  10  19  33  56  86 114 145 194 244 294 347
#     4  10  20  39  60  84 120 153 190 231 274 338
#     4  10  20  34  53  79 110 152 199 245 302 361
#     4   9  18  32  51  78 114 150 188 246 303 356
#     4  11  21  37  58  84 115 155 191 231 293 354
#     4   9  18  30  49  78 110 146 193 248 300 354
#     4  11  21  36  54  83 116 149 194 246 300 355
#
# _framework density 20.609473000000001
#
# number of rings (size 3 to 8) (size 9 to 14) (size 15 to 20)
#    0.000    2.000    2.500    2.250    1.750    1.750 
#    0.000    4.375    0.000    2.625    0.000    8.750 
#    0.000    0.000    0.000    0.000    0.000    0.000 
#
# Total GULP energy -356341.198814 kJ/mol
# GULP energy per Si atom -5567.831231 kJ/mol
# Density = 2.056256 g / cm^3
# Si number density = 20.609473 Si / 1000 Ang^3
#
#
#
# Elastic Constant Matrix: (Units=GPa)
#
#
# Indices 1 2 3 4 5 6 
#
# 1 36.3091 13.0275 -7.6700 0.0000 0.0000 0.0000
# 2 13.0275 104.8375 14.2295 0.0000 0.0000 0.0000
# 3 -7.6700 14.2295 93.6977 0.0000 0.0000 0.0000
# 4 0.0000 0.0000 0.0000 17.7699 0.0000 0.0000
# 5 0.0000 0.0000 0.0000 0.0000 20.4944 0.0000
# 6 0.0000 0.0000 0.0000 0.0000 0.0000 40.4967
#
#
#
# Elastic Compliance Matrix: (Units=1/GPa)
#
#
# Indices 1 2 3 4 5 6 
#
# 1 0.029656 -0.004099 0.003050 0.000000 0.000000 0.000000
# 2 -0.004099 0.010306 -0.001901 0.000000 0.000000 0.000000
# 3 0.003050 -0.001901 0.011211 0.000000 0.000000 0.000000
# 4 0.000000 0.000000 0.000000 0.056275 0.000000 0.000000
# 5 0.000000 0.000000 0.000000 0.000000 0.048794 0.000000
# 6 0.000000 0.000000 0.000000 0.000000 0.000000 0.024693
#
#
# Mechanical properties :
#
#
# Convention : Reuss Voigt Hill
#
# Bulk Modulus (GPa) = 22.08782 30.44647 26.26715
# Shear Modulus (GPa) = 24.76154 30.10268 27.43211
#
# Velocity S-wave (km/s) = 3.46997 3.82596 3.65231
# Velocity P-wave (km/s) = 5.17638 5.85853 5.52799
#
# Compressibility (1/GPa) = 0.04527382
#
# Stress axis : x y z
#
# Youngs Moduli (GPa) = 33.71957 97.03145 89.19847
#
# Poissons Ratio (x) = 0.39775 -0.27207
# Poissons Ratio (y) = 0.13822 0.16954
# Poissons Ratio (z) = -0.10285 0.18443
#
# Static dielectric constant tensor:
#      x y z
#    x 1.768150 0.000000 0.000000 
#    y 0.000000 1.878490 0.000000 
#    z 0.000000 0.000000 1.816980 
# 
# From -- ./inp_files/18301.got.cif
#   From: 2010.05.17/outbox.cif.g08.bks.cpg/sg49_10_cif.got.tgz:18301.got - 2010.06.03 21:02:19.
