data_PCOD9393943
_publ_section_title
;
Structure prediction by ZEFSAII (Michael W. Deem and Ramdas Pophale) SiO2 
 PCOD9393943
Probable space group: P C C M
;
_chemical_formula_sum "Si O2"
_cell_formula_units_Z 64
_cell_length_a 21.371973
_cell_length_b 17.502531
_cell_length_c 8.757466
_cell_angle_alpha 90.000000
_cell_angle_beta 90.000000
_cell_angle_gamma 90.000000
_cell_volume 3275.849434
_symmetry_space_group_name_H-M "P C C M"
_symmetry_group_IT_number 49
_symmetry_cell_setting 'orthorhombic'
loop_
_space_group_symop_operation_xyz
x,y,z
-x,-y,z
x,-y,1/2-z
-x,y,1/2-z
-x,-y,-z
x,y,-z
-x,y,1/2+z
x,-y,1/2+z
loop_
_atom_site_type_symbol
_atom_site_label
_atom_site_fract_x
_atom_site_fract_y
_atom_site_fract_z
Si Si1 0.849009 0.925825 0.320395
Si Si2 0.697797 0.707002 0.681763
Si Si3 0.792872 0.418780 0.315141
Si Si4 0.933180 0.380376 0.678238
Si Si5 0.565202 0.747193 0.814941
Si Si6 0.727306 0.131824 0.324400
Si Si7 0.066134 0.197013 0.178870
Si Si8 0.412960 0.079802 0.825326
O O1 0.843131 0.933969 0.500000
O O2 0.782568 0.918623 0.238875
O O3 0.883052 0.848018 0.274669
O O4 0.882579 0.000000 0.250000
O O5 0.694770 0.697102 0.500000
O O6 0.746602 0.646827 0.753379
O O7 0.627561 0.705699 0.752964
O O8 0.721459 0.791864 0.724568
O O9 0.771128 0.500000 0.250000
O O10 0.792443 0.416991 0.500000
O O11 0.865747 0.408913 0.262485
O O12 0.936554 0.400676 0.500000
O O13 0.928768 0.288349 0.691975
O O14 0.000000 0.404003 0.750000
O O15 0.500000 0.715501 0.750000
O O16 0.568023 0.836769 0.761644
O O17 0.566749 0.746629 0.000000
O O18 0.739239 0.154869 0.500000
O O19 0.662224 0.086806 0.321851
O O20 0.000000 0.174638 0.250000
O O21 0.070826 0.177307 0.000000
O O22 0.431162 0.000000 0.750000
O O23 0.434699 0.077682 0.000000
#
# Coordination Sequence:
#
# PCOD9393943 Si02
#       8
#     8   8   8   8   8   8   8   8
#     4  12  24  36  51  74 102 138 183 235 292 349
#     4  11  22  38  62  90 117 153 195 239 291 351
#     4  11  23  40  61  90 125 160 194 235 284 339
#     4   9  20  37  60  86 117 154 192 234 282 335
#     4  10  21  38  58  84 116 154 199 249 298 350
#     4  10  20  36  55  78 108 144 186 235 285 339
#     4  10  20  37  57  77 101 135 179 230 284 340
#     4   9  19  32  49  74 109 149 189 233 285 337
#
# _framework density 19.536916000000002
#
# number of rings (size 3 to 8) (size 9 to 14) (size 15 to 20)
#    0.000    1.750    0.000    5.625    0.000    7.250 
#    0.000    3.750    0.000    0.375    0.000    2.625 
#    0.000    0.000    0.000    0.000    0.000    0.000 
#
# Total GULP energy -357308.768047 kJ/mol
# GULP energy per Si atom -5582.949501 kJ/mol
# Density = 1.949245 g / cm^3
# Si number density = 19.536916 Si / 1000 Ang^3
#
#
#
# Elastic Constant Matrix: (Units=GPa)
#
#
# Indices 1 2 3 4 5 6 
#
# 1 114.0350 38.1909 31.3881 0.0000 0.0000 0.0000
# 2 38.1909 55.4886 16.0823 0.0000 0.0000 0.0000
# 3 31.3881 16.0823 71.4494 0.0000 0.0000 0.0000
# 4 0.0000 0.0000 0.0000 22.7796 0.0000 0.0000
# 5 0.0000 0.0000 0.0000 0.0000 24.1367 0.0000
# 6 0.0000 0.0000 0.0000 0.0000 0.0000 -63.7167
#
#
#
# Elastic Compliance Matrix: (Units=1/GPa)
#
#
# Indices 1 2 3 4 5 6 
#
# 1 0.012260 -0.007357 -0.003730 0.000000 0.000000 0.000000
# 2 -0.007357 0.023694 -0.002101 0.000000 0.000000 0.000000
# 3 -0.003730 -0.002101 0.016107 0.000000 0.000000 0.000000
# 4 0.000000 0.000000 0.000000 0.043899 0.000000 0.000000
# 5 0.000000 0.000000 0.000000 0.000000 0.041431 0.000000
# 6 0.000000 0.000000 0.000000 0.000000 0.000000 -0.015694
#
#
# Mechanical properties :
#
#
# Convention : Reuss Voigt Hill
#
# Bulk Modulus (GPa) = 38.93282 45.81062 42.37172
# Shear Modulus (GPa) = 31.92144 6.99404 19.45774
#
# Velocity S-wave (km/s) = 4.04654 1.89412 3.15929
# Velocity P-wave (km/s) = 6.46558 5.31815 5.91973
#
# Compressibility (1/GPa) = 0.02568527
#
# Stress axis : x y z
#
# Youngs Moduli (GPa) = 81.56777 42.20429 62.08318
#
# Poissons Ratio (x) = 0.31049 0.23156
# Poissons Ratio (y) = 0.60009 0.13046
# Poissons Ratio (z) = 0.30423 0.08869
#
# Static dielectric constant tensor:
#      x y z
#    x 1.687650 0.000000 0.000000 
#    y 0.000000 1.675810 0.000000 
#    z 0.000000 0.000000 1.665590 
# 
# From -- ./inp_files/5930.got.cif
#   From: 2010.05.17/outbox.cif.g08.bks.cpg/sg49_3_cif.got.tgz:5930.got - 2010.06.03 21:02:19.
