data_PCOD9393386
_publ_section_title
;
Structure prediction by ZEFSAII (Michael W. Deem and Ramdas Pophale) SiO2 
 PCOD9393386
Probable space group: P C C M
;
_chemical_formula_sum "Si O2"
_cell_formula_units_Z 64
_cell_length_a 20.846086
_cell_length_b 7.439472
_cell_length_c 18.047469
_cell_angle_alpha 90.000000
_cell_angle_beta 90.000000
_cell_angle_gamma 90.000000
_cell_volume 2798.871392
_symmetry_space_group_name_H-M "P C C M"
_symmetry_group_IT_number 49
_symmetry_cell_setting 'orthorhombic'
loop_
_space_group_symop_operation_xyz
x,y,z
-x,-y,z
x,-y,1/2-z
-x,y,1/2-z
-x,-y,-z
x,y,-z
-x,y,1/2+z
x,-y,1/2+z
loop_
_atom_site_type_symbol
_atom_site_label
_atom_site_fract_x
_atom_site_fract_y
_atom_site_fract_z
Si Si1 0.901583 0.260537 0.678717
Si Si2 0.345474 0.356907 0.914754
Si Si3 0.135014 0.683839 0.164614
Si Si4 0.016426 0.285434 0.420022
Si Si5 0.781202 0.809444 0.084524
Si Si6 0.264097 0.884872 0.826409
Si Si7 0.619358 0.220661 0.913740
Si Si8 0.480485 0.297959 0.089973
O O1 0.895512 0.218947 0.764374
O O2 0.882531 0.473150 0.671438
O O3 0.845540 0.175808 0.631022
O O4 0.970000 0.218419 0.644284
O O5 0.274633 0.321496 0.882887
O O6 0.365032 0.564924 0.917266
O O7 0.408385 0.257437 0.882416
O O8 0.337513 0.294336 0.000000
O O9 0.091569 0.743202 0.095468
O O10 0.210071 0.729210 0.170074
O O11 0.997773 0.213289 0.500000
O O12 0.000000 0.500000 0.421280
O O13 0.750512 0.001491 0.099059
O O14 0.796230 0.762287 0.000000
O O15 0.336663 0.835035 0.844750
O O16 0.257551 0.000000 0.750000
O O17 0.544531 0.185324 0.896261
O O18 0.630304 0.157499 0.000000
O O19 0.500000 0.500000 0.114672
O O20 0.474782 0.304341 0.000000
#
# Coordination Sequence:
#
# PCOD9393386 Si02
#       8
#     8   8   8   8   8   8   8   8
#     4  10  19  37  61  88 109 143 188 237 282 340
#     4   8  15  30  55  88 114 139 182 240 295 342
#     4  10  21  37  60  82 112 150 189 227 287 341
#     4   9  18  33  58  91 118 137 172 234 291 336
#     4  11  22  36  56  81 114 151 189 237 285 335
#     4  12  24  39  51  76 115 159 195 234 277 345
#     4   9  17  32  57  84 110 145 191 243 293 342
#     4   7  11  24  50  83 113 135 172 234 292 335
#
# _framework density 22.866358999999999
#
# number of rings (size 3 to 8) (size 9 to 14) (size 15 to 20)
#    0.000    2.500    1.250    3.375    0.000    3.000 
#    0.000    1.250    0.000    6.000    0.000    2.625 
#    0.000    0.000    0.000    0.000    0.000    1.125 
#
# Total GULP energy -356431.141167 kJ/mol
# GULP energy per Si atom -5569.236581 kJ/mol
# Density = 2.281431 g / cm^3
# Si number density = 22.866359 Si / 1000 Ang^3
#
#
#
# Elastic Constant Matrix: (Units=GPa)
#
#
# Indices 1 2 3 4 5 6 
#
# 1 96.3692 0.7338 27.7906 0.0000 0.0000 0.0000
# 2 0.7338 32.0927 1.2262 0.0000 0.0000 0.0000
# 3 27.7906 1.2262 49.0564 0.0000 0.0000 0.0000
# 4 0.0000 0.0000 0.0000 13.4875 0.0000 0.0000
# 5 0.0000 0.0000 0.0000 0.0000 44.7429 0.0000
# 6 0.0000 0.0000 0.0000 0.0000 0.0000 17.7004
#
#
#
# Elastic Compliance Matrix: (Units=1/GPa)
#
#
# Indices 1 2 3 4 5 6 
#
# 1 0.012403 -0.000015 -0.007026 0.000000 0.000000 0.000000
# 2 -0.000015 0.031190 -0.000771 0.000000 0.000000 0.000000
# 3 -0.007026 -0.000771 0.024384 0.000000 0.000000 0.000000
# 4 0.000000 0.000000 0.000000 0.074143 0.000000 0.000000
# 5 0.000000 0.000000 0.000000 0.000000 0.022350 0.000000
# 6 0.000000 0.000000 0.000000 0.000000 0.000000 0.056496
#
#
# Mechanical properties :
#
#
# Convention : Reuss Voigt Hill
#
# Bulk Modulus (GPa) = 19.10127 26.33549 22.71838
# Shear Modulus (GPa) = 19.68190 25.03734 22.35962
#
# Velocity S-wave (km/s) = 2.93701 3.31258 3.13043
# Velocity P-wave (km/s) = 4.45791 5.11596 4.79823
#
# Compressibility (1/GPa) = 0.05235255
#
# Stress axis : x y z
#
# Youngs Moduli (GPa) = 80.62570 32.06202 41.01012
#
# Poissons Ratio (x) = 0.00049 0.28814
# Poissons Ratio (y) = 0.00122 0.03162
# Poissons Ratio (z) = 0.56647 0.02472
#
# Static dielectric constant tensor:
#      x y z
#    x 1.935870 0.000000 0.000000 
#    y 0.000000 2.006830 0.000000 
#    z 0.000000 0.000000 1.827780 
# 
# From -- ./inp_files/18313.got.cif
#   From: 2010.05.17/outbox.cif.g08.bks.cpg/sg49_10_cif.got.tgz:18313.got - 2010.06.03 21:02:19.
