data_PCOD9393022
_publ_section_title
;
Structure prediction by ZEFSAII (Michael W. Deem and Ramdas Pophale) SiO2 
 PCOD9393022
Probable space group: P C C M
;
_chemical_formula_sum "Si O2"
_cell_formula_units_Z 64
_cell_length_a 21.017366
_cell_length_b 19.970662
_cell_length_c 8.809128
_cell_angle_alpha 90.000000
_cell_angle_beta 90.000000
_cell_angle_gamma 90.000000
_cell_volume 3697.461572
_symmetry_space_group_name_H-M "P C C M"
_symmetry_group_IT_number 49
_symmetry_cell_setting 'orthorhombic'
loop_
_space_group_symop_operation_xyz
x,y,z
-x,-y,z
x,-y,1/2-z
-x,y,1/2-z
-x,-y,-z
x,y,-z
-x,y,1/2+z
x,-y,1/2+z
loop_
_atom_site_type_symbol
_atom_site_label
_atom_site_fract_x
_atom_site_fract_y
_atom_site_fract_z
Si Si1 0.735581 0.071551 0.320411
Si Si2 0.433069 0.287765 0.317608
Si Si3 0.933323 0.209645 0.180812
Si Si4 0.111557 0.071644 0.820346
Si Si5 0.621521 0.570023 0.317593
Si Si6 0.306349 0.208447 0.682275
Si Si7 0.236963 0.568959 0.318884
Si Si8 0.185954 0.713499 0.318953
O O1 0.723305 0.072735 0.500000
O O2 0.812016 0.079695 0.299310
O O3 0.700917 0.132649 0.238512
O O4 0.718132 0.000000 0.250000
O O5 0.500000 0.265921 0.250000
O O6 0.436652 0.286558 0.500000
O O7 0.417642 0.364378 0.271341
O O8 0.373187 0.242004 0.272600
O O9 0.921017 0.134066 0.239149
O O10 0.875342 0.254550 0.240956
O O11 0.000000 0.233113 0.250000
O O12 0.935293 0.210351 0.000000
O O13 0.093404 0.000000 0.750000
O O14 0.098278 0.072759 0.000000
O O15 0.597129 0.500000 0.250000
O O16 0.623162 0.566099 0.500000
O O17 0.693535 0.578730 0.256267
O O18 0.300628 0.211769 0.500000
O O19 0.248617 0.249708 0.756141
O O20 0.210713 0.500000 0.250000
O O21 0.245287 0.562080 0.500000
O O22 0.195115 0.634568 0.289352
O O23 0.182176 0.724370 0.500000
#
# Coordination Sequence:
#
# PCOD9393022 Si02
#       8
#     8   8   8   8   8   8   8   8
#     4  10  20  34  56  85 116 147 183 230 279 332
#     4  10  23  38  54  78 111 150 191 234 282 337
#     4  12  25  40  59  82 114 153 190 234 282 332
#     4  10  20  35  55  82 116 151 192 230 273 331
#     4  10  19  33  51  77 110 147 189 230 275 331
#     4  11  21  36  58  84 113 147 188 234 282 332
#     4  10  20  33  55  84 114 146 183 230 280 331
#     4  11  22  37  58  86 114 147 189 232 280 334
#
# _framework density 17.309173000000001
#
# number of rings (size 3 to 8) (size 9 to 14) (size 15 to 20)
#    0.000    1.500    2.500    4.125    0.000    5.000 
#    0.000    2.500    0.000    0.750    0.000    5.250 
#    0.000    0.000    0.000    0.000    0.000    0.000 
#
# Total GULP energy -357632.750025 kJ/mol
# GULP energy per Si atom -5588.011719 kJ/mol
# Density = 1.726978 g / cm^3
# Si number density = 17.309173 Si / 1000 Ang^3
#
#
#
# Elastic Constant Matrix: (Units=GPa)
#
#
# Indices 1 2 3 4 5 6 
#
# 1 113.5914 63.4558 54.4024 0.0000 0.0000 0.0000
# 2 63.4558 118.0382 55.3107 0.0000 0.0000 0.0000
# 3 54.4024 55.3107 90.0747 0.0000 0.0000 0.0000
# 4 0.0000 0.0000 0.0000 31.0334 0.0000 0.0000
# 5 0.0000 0.0000 0.0000 0.0000 21.8650 0.0000
# 6 0.0000 0.0000 0.0000 0.0000 0.0000 13.9346
#
#
#
# Elastic Compliance Matrix: (Units=1/GPa)
#
#
# Indices 1 2 3 4 5 6 
#
# 1 0.014287 -0.005106 -0.005493 0.000000 0.000000 0.000000
# 2 -0.005106 0.013719 -0.005340 0.000000 0.000000 0.000000
# 3 -0.005493 -0.005340 0.017699 0.000000 0.000000 0.000000
# 4 0.000000 0.000000 0.000000 0.032223 0.000000 0.000000
# 5 0.000000 0.000000 0.000000 0.000000 0.045735 0.000000
# 6 0.000000 0.000000 0.000000 0.000000 0.000000 0.071764
#
#
# Mechanical properties :
#
#
# Convention : Reuss Voigt Hill
#
# Bulk Modulus (GPa) = 72.33155 74.22691 73.27923
# Shear Modulus (GPa) = 21.55955 23.26898 22.41427
#
# Velocity S-wave (km/s) = 3.53307 3.67047 3.60243
# Velocity P-wave (km/s) = 7.64998 7.80636 7.72856
#
# Compressibility (1/GPa) = 0.01382523
#
# Stress axis : x y z
#
# Youngs Moduli (GPa) = 69.99363 72.88968 56.50072
#
# Poissons Ratio (x) = 0.37221 0.31037
# Poissons Ratio (y) = 0.35742 0.30173
# Poissons Ratio (z) = 0.38450 0.38925
#
# Static dielectric constant tensor:
#      x y z
#    x 1.569810 0.000000 0.000000 
#    y 0.000000 1.589500 0.000000 
#    z 0.000000 0.000000 1.586060 
# 
# From -- ./inp_files/5272.got.cif
#   From: 2010.05.17/outbox.cif.g08.bks.cpg/sg49_3_cif.got.tgz:5272.got - 2010.06.03 21:02:19.
