data_PCOD9393782
_publ_section_title
;
Structure prediction by ZEFSAII (Michael W. Deem and Ramdas Pophale) SiO2 
 PCOD9393782
Probable space group: P C C M
;
_chemical_formula_sum "Si O2"
_cell_formula_units_Z 48
_cell_length_a 10.466329
_cell_length_b 29.751315
_cell_length_c 8.702013
_cell_angle_alpha 90.000000
_cell_angle_beta 90.000000
_cell_angle_gamma 90.000000
_cell_volume 2709.694166
_symmetry_space_group_name_H-M "P C C M"
_symmetry_group_IT_number 49
_symmetry_cell_setting 'orthorhombic'
loop_
_space_group_symop_operation_xyz
x,y,z
-x,-y,z
x,-y,1/2-z
-x,y,1/2-z
-x,-y,-z
x,y,-z
-x,y,1/2+z
x,-y,1/2+z
loop_
_atom_site_type_symbol
_atom_site_label
_atom_site_fract_x
_atom_site_fract_y
_atom_site_fract_z
Si Si1 0.362468 0.882677 0.315096
Si Si2 0.637307 0.550099 0.815980
Si Si3 0.638353 0.221333 0.684269
Si Si4 0.138576 0.950291 0.685211
Si Si5 0.139032 0.388419 0.684160
Si Si6 0.861687 0.717287 0.316605
O O1 0.500000 0.896590 0.250000
O O2 0.368981 0.883733 0.500000
O O3 0.339421 0.830793 0.268880
O O4 0.248411 0.915479 0.267219
O O5 0.658744 0.500000 0.750000
O O6 0.500000 0.565346 0.750000
O O7 0.749961 0.582234 0.759260
O O8 0.631901 0.548414 0.000000
O O9 0.500000 0.234662 0.750000
O O10 0.635104 0.223409 0.500000
O O11 0.749787 0.252755 0.746943
O O12 0.132718 0.952157 0.500000
O O13 0.000000 0.936815 0.750000
O O14 0.165934 0.000000 0.750000
O O15 0.140005 0.393922 0.500000
O O16 0.158532 0.335529 0.719814
O O17 0.000000 0.401159 0.750000
O O18 0.863518 0.722010 0.500000
O O19 0.000000 0.730228 0.250000
#
# Coordination Sequence:
#
# PCOD9393782 Si02
#       6
#     8   8   8   8   8   8
#     4   9  20  36  54  77 105 137 174 216 261 312
#     4  11  22  38  59  83 112 145 182 224 270 319
#     4  10  20  36  56  79 108 141 179 221 266 317
#     4  10  20  35  53  76 104 135 173 214 260 311
#     4  10  21  38  58  82 111 143 181 223 269 319
#     4  10  21  37  57  81 110 143 179 222 269 318
#
# _framework density 17.714175000000001
#
# number of rings (size 3 to 8) (size 9 to 14) (size 15 to 20)
#    0.000    2.000    0.000    4.500    0.000    6.000 
#    0.000    5.000    0.000    0.000    0.000    0.000 
#    0.000    0.000    0.000    0.000    0.000    0.000 
#
# Total GULP energy -268075.637056 kJ/mol
# GULP energy per Si atom -5584.909105 kJ/mol
# Density = 1.767386 g / cm^3
# Si number density = 17.714175 Si / 1000 Ang^3
#
#
#
# Elastic Constant Matrix: (Units=GPa)
#
#
# Indices 1 2 3 4 5 6 
#
# 1 209.9461 119.6837 75.5675 0.0000 0.0000 0.0000
# 2 119.6837 84.0823 51.5628 0.0000 0.0000 0.0000
# 3 75.5675 51.5628 82.1791 0.0000 0.0000 0.0000
# 4 0.0000 0.0000 0.0000 33.3048 0.0000 0.0000
# 5 0.0000 0.0000 0.0000 0.0000 37.1788 0.0000
# 6 0.0000 0.0000 0.0000 0.0000 0.0000 42.7106
#
#
#
# Elastic Compliance Matrix: (Units=1/GPa)
#
#
# Indices 1 2 3 4 5 6 
#
# 1 0.025321 -0.035374 -0.001088 0.000000 0.000000 0.000000
# 2 -0.035374 0.068752 -0.010609 0.000000 0.000000 0.000000
# 3 -0.001088 -0.010609 0.019826 0.000000 0.000000 0.000000
# 4 0.000000 0.000000 0.000000 0.030026 0.000000 0.000000
# 5 0.000000 0.000000 0.000000 0.000000 0.026897 0.000000
# 6 0.000000 0.000000 0.000000 0.000000 0.000000 0.023413
#
#
# Mechanical properties :
#
#
# Convention : Reuss Voigt Hill
#
# Bulk Modulus (GPa) = 50.62163 96.64840 73.63501
# Shear Modulus (GPa) = 16.95130 31.26507 24.10818
#
# Velocity S-wave (km/s) = 3.09679 4.20572 3.69311
# Velocity P-wave (km/s) = 6.43629 8.84661 7.73590
#
# Compressibility (1/GPa) = 0.01975440
#
# Stress axis : x y z
#
# Youngs Moduli (GPa) = 39.49356 14.54511 50.43938
#
# Poissons Ratio (x) = 0.51453 0.05488
# Poissons Ratio (y) = 1.39706 0.53513
# Poissons Ratio (z) = 0.04297 0.15432
#
# Static dielectric constant tensor:
#      x y z
#    x 1.571950 0.000000 0.000000 
#    y 0.000000 1.591830 0.000000 
#    z 0.000000 0.000000 1.593630 
# 
# From -- ./inp_files/2015.got.cif
#   From: 2010.05.17/outbox.cif.g08.bks.cpg/sg49_2_cif.got.tgz:2015.got - 2010.06.03 21:02:19.
