data_PCOD9393596
_publ_section_title
;
Structure prediction by ZEFSAII (Michael W. Deem and Ramdas Pophale) SiO2 
 PCOD9393596
Probable space group: P C C M
;
_chemical_formula_sum "Si O2"
_cell_formula_units_Z 54
_cell_length_a 5.276849
_cell_length_b 21.572311
_cell_length_c 24.813113
_cell_angle_alpha 90.000000
_cell_angle_beta 90.000000
_cell_angle_gamma 90.000000
_cell_volume 2824.571631
_symmetry_space_group_name_H-M "P C C M"
_symmetry_group_IT_number 49
_symmetry_cell_setting 'orthorhombic'
loop_
_space_group_symop_operation_xyz
x,y,z
-x,-y,z
x,-y,1/2-z
-x,y,1/2-z
-x,-y,-z
x,y,-z
-x,y,1/2+z
x,-y,1/2+z
loop_
_atom_site_type_symbol
_atom_site_label
_atom_site_fract_x
_atom_site_fract_y
_atom_site_fract_z
Si Si1 0.000000 0.000000 0.397839
Si Si2 0.500000 0.000000 0.250000
Si Si3 0.827115 0.210803 0.938448
Si Si4 0.503768 0.355185 0.314868
Si Si5 0.728398 0.906147 0.162981
Si Si6 0.377826 0.918872 0.058285
Si Si7 0.679228 0.771249 0.868659
Si Si8 0.997718 0.571605 0.184346
O O1 0.977753 0.059115 0.358482
O O2 0.232400 0.016606 0.435686
O O3 0.356244 0.048811 0.211078
O O4 0.833740 0.135979 0.941102
O O5 0.552266 0.220878 0.911141
O O6 0.058478 0.235294 0.902051
O O7 0.838054 0.234247 0.000000
O O8 0.500000 0.353989 0.250000
O O9 0.584807 0.287506 0.334951
O O10 0.236057 0.385478 0.332480
O O11 0.732616 0.399270 0.332921
O O12 0.545214 0.911867 0.111243
O O13 0.728450 0.831997 0.169495
O O14 0.505611 0.910848 0.000000
O O15 0.000000 0.500000 0.166975
O O16 0.000000 0.571270 0.250000
#
# Coordination Sequence:
#
# PCOD9393596 Si02
#       8
#     4   2   8   8   8   8   8   8
#     4  12  19  39  54  82  96 131 189 232 304 352
#     4  12  24  46  54  68 110 152 202 236 280 350
#     4  10  21  38  60  83 111 145 183 241 304 356
#     4  10  20  33  54  85 122 160 196 228 276 337
#     4  11  25  39  57  76 106 147 193 241 290 349
#     4  10  21  37  57  81 105 128 174 244 311 358
#     4  11  22  39  58  84 117 148 195 236 289 340
#     4   9  17  32  54  83 120 159 194 233 278 328
#
# _framework density 19.117943
#
# number of rings (size 3 to 8) (size 9 to 14) (size 15 to 20)
#    0.000    1.630    2.963    2.000    1.037    4.444 
#    0.000    0.000    3.259    0.000    0.000    0.000 
#    0.000   41.481    0.000    0.000    0.000    0.000 
#
# Total GULP energy -300727.317737 kJ/mol
# GULP energy per Si atom -5569.024403 kJ/mol
# Density = 1.907443 g / cm^3
# Si number density = 19.117943 Si / 1000 Ang^3
#
#
#
# Elastic Constant Matrix: (Units=GPa)
#
#
# Indices 1 2 3 4 5 6 
#
# 1 92.2791 24.4169 18.4961 0.0000 0.0000 0.0000
# 2 24.4169 122.4967 21.7019 0.0000 0.0000 0.0000
# 3 18.4961 21.7019 64.7486 0.0000 0.0000 0.0000
# 4 0.0000 0.0000 0.0000 10.1126 0.0000 0.0000
# 5 0.0000 0.0000 0.0000 0.0000 -208.3089 0.0000
# 6 0.0000 0.0000 0.0000 0.0000 0.0000 30.6062
#
#
#
# Elastic Compliance Matrix: (Units=1/GPa)
#
#
# Indices 1 2 3 4 5 6 
#
# 1 0.011888 -0.001880 -0.002766 0.000000 0.000000 0.000000
# 2 -0.001880 0.008976 -0.002472 0.000000 0.000000 0.000000
# 3 -0.002766 -0.002472 0.017063 0.000000 0.000000 0.000000
# 4 0.000000 0.000000 0.000000 0.098887 0.000000 0.000000
# 5 0.000000 0.000000 0.000000 0.000000 -0.004801 0.000000
# 6 0.000000 0.000000 0.000000 0.000000 0.000000 0.032673
#
#
# Mechanical properties :
#
#
# Convention : Reuss Voigt Hill
#
# Bulk Modulus (GPa) = 42.20682 45.41712 43.81197
# Shear Modulus (GPa) = 26.76392 -19.19071 3.78661
#
# Velocity S-wave (km/s) = 3.74563 -3.17173 1.40888
# Velocity P-wave (km/s) = 6.38994 3.22408 5.06093
#
# Compressibility (1/GPa) = 0.02369285
#
# Stress axis : x y z
#
# Youngs Moduli (GPa) = 84.11515 111.40796 58.60665
#
# Poissons Ratio (x) = 0.20941 0.16211
# Poissons Ratio (y) = 0.15811 0.14485
# Poissons Ratio (z) = 0.23267 0.27535
#
# Static dielectric constant tensor:
#      x y z
#    x 1.738760 0.000000 0.000000 
#    y 0.000000 1.735150 0.000000 
#    z 0.000000 0.000000 1.691470 
# 
# From -- ./inp_files/21910.got.cif
#   From: 2010.05.17/outbox.cif.g08.bks.cpg/sg49_11_cif.got.tgz:21910.got - 2010.06.03 21:02:19.
