data_PCOD9393121
_publ_section_title
;
Structure prediction by ZEFSAII (Michael W. Deem and Ramdas Pophale) SiO2 
 PCOD9393121
Probable space group: P C C M
;
_chemical_formula_sum "Si O2"
_cell_formula_units_Z 40
_cell_length_a 12.182176
_cell_length_b 8.870639
_cell_length_c 14.356281
_cell_angle_alpha 90.000000
_cell_angle_beta 90.000000
_cell_angle_gamma 90.000000
_cell_volume 1551.392635
_symmetry_space_group_name_H-M "P C C M"
_symmetry_group_IT_number 49
_symmetry_cell_setting 'orthorhombic'
loop_
_space_group_symop_operation_xyz
x,y,z
-x,-y,z
x,-y,1/2-z
-x,y,1/2-z
-x,-y,-z
x,y,-z
-x,y,1/2+z
x,-y,1/2+z
loop_
_atom_site_type_symbol
_atom_site_label
_atom_site_fract_x
_atom_site_fract_y
_atom_site_fract_z
Si Si1 0.292070 0.222193 0.887023
Si Si2 0.973620 0.834894 0.641335
Si Si3 0.112103 0.429521 0.897356
Si Si4 0.270015 0.121717 0.388966
Si Si5 0.469069 0.330626 0.612373
O O1 0.226232 0.373387 0.851902
O O2 0.420917 0.237177 0.869223
O O3 0.260670 0.052712 0.853992
O O4 0.280005 0.231151 0.000000
O O5 0.846796 0.798771 0.626786
O O6 0.000000 0.825566 0.750000
O O7 0.060480 0.734084 0.591043
O O8 0.000000 0.000000 0.608368
O O9 0.000000 0.500000 0.853177
O O10 0.130157 0.501003 0.000000
O O11 0.288149 0.105623 0.500000
O O12 0.365403 0.232648 0.352260
O O13 0.500000 0.500000 0.643998
O O14 0.452361 0.343479 0.500000
#
# Coordination Sequence:
#
# PCOD9393121 Si02
#       5
#     8   8   8   8   8
#     4   9  17  31  50  80 116 149 187 237 293 350
#     4  11  23  38  56  82 116 153 199 244 296 355
#     4  10  21  35  57  86 116 150 193 244 296 355
#     4  10  19  33  57  83 115 155 194 241 298 356
#     4   9  18  30  50  84 120 149 185 241 300 353
#
# _framework density 25.783287999999999
#
# number of rings (size 3 to 8) (size 9 to 14) (size 15 to 20)
#    0.000    2.200    2.000    1.200    2.800    3.600 
#    0.000    0.000    0.000    1.200    0.000    1.400 
#    0.000    0.000    0.000    0.000    0.000    0.200 
#
# Total GULP energy -223102.713009 kJ/mol
# GULP energy per Si atom -5577.567825 kJ/mol
# Density = 2.572460 g / cm^3
# Si number density = 25.783288 Si / 1000 Ang^3
#
#
#
# Elastic Constant Matrix: (Units=GPa)
#
#
# Indices 1 2 3 4 5 6 
#
# 1 181.0731 12.3859 -13.5218 0.0000 0.0000 0.0000
# 2 12.3859 52.2476 13.6990 0.0000 0.0000 0.0000
# 3 -13.5218 13.6990 77.6853 0.0000 0.0000 0.0000
# 4 0.0000 0.0000 0.0000 14.1066 0.0000 0.0000
# 5 0.0000 0.0000 0.0000 0.0000 -3.3675 0.0000
# 6 0.0000 0.0000 0.0000 0.0000 0.0000 47.1733
#
#
#
# Elastic Compliance Matrix: (Units=1/GPa)
#
#
# Indices 1 2 3 4 5 6 
#
# 1 0.005736 -0.001700 0.001298 0.000000 0.000000 0.000000
# 2 -0.001700 0.020571 -0.003923 0.000000 0.000000 0.000000
# 3 0.001298 -0.003923 0.013790 0.000000 0.000000 0.000000
# 4 0.000000 0.000000 0.000000 0.070889 0.000000 0.000000
# 5 0.000000 0.000000 0.000000 0.000000 -0.296956 0.000000
# 6 0.000000 0.000000 0.000000 0.000000 0.000000 0.021198
#
#
# Mechanical properties :
#
#
# Convention : Reuss Voigt Hill
#
# Bulk Modulus (GPa) = 31.79987 37.34803 34.57395
# Shear Modulus (GPa) = -34.33160 31.47866 -1.42647
#
# Velocity S-wave (km/s) = -3.65299 3.49792 -0.74462
# Velocity P-wave (km/s) = 2.33070 5.55254 3.56361
#
# Compressibility (1/GPa) = 0.03144667
#
# Stress axis : x y z
#
# Youngs Moduli (GPa) = 174.34153 48.61116 72.51484
#
# Poissons Ratio (x) = 0.08265 -0.09414
# Poissons Ratio (y) = 0.29640 0.28451
# Poissons Ratio (z) = -0.22633 0.19073
#
# Static dielectric constant tensor:
#      x y z
#    x 2.094190 0.000000 0.000000 
#    y 0.000000 2.246630 0.000000 
#    z 0.000000 0.000000 1.983930 
# 
# From -- ./inp_files/15968.got.cif
#   From: 2010.05.17/outbox.cif.g08.bks.cpg/sg49_8_cif.got.tgz:15968.got - 2010.06.03 21:02:19.
