data_PCOD9393936
_publ_section_title
;
Structure prediction by ZEFSAII (Michael W. Deem and Ramdas Pophale) SiO2 
 PCOD9393936
Probable space group: P C C M
;
_chemical_formula_sum "Si O2"
_cell_formula_units_Z 64
_cell_length_a 17.279783
_cell_length_b 21.249570
_cell_length_c 9.201247
_cell_angle_alpha 90.000000
_cell_angle_beta 90.000000
_cell_angle_gamma 90.000000
_cell_volume 3378.587101
_symmetry_space_group_name_H-M "P C C M"
_symmetry_group_IT_number 49
_symmetry_cell_setting 'orthorhombic'
loop_
_space_group_symop_operation_xyz
x,y,z
-x,-y,z
x,-y,1/2-z
-x,y,1/2-z
-x,-y,-z
x,y,-z
-x,y,1/2+z
x,-y,1/2+z
loop_
_atom_site_type_symbol
_atom_site_label
_atom_site_fract_x
_atom_site_fract_y
_atom_site_fract_z
Si Si1 0.745004 0.936073 0.823693
Si Si2 0.714957 0.805102 0.673678
Si Si3 0.382324 0.435659 0.331136
Si Si4 0.076623 0.085558 0.833516
Si Si5 0.803793 0.563271 0.331749
Si Si6 0.924194 0.360300 0.332986
Si Si7 0.421330 0.293888 0.675632
Si Si8 0.132483 0.776126 0.662888
O O1 0.708574 0.872035 0.757699
O O2 0.837045 0.933386 0.783975
O O3 0.713966 0.000000 0.750000
O O4 0.738978 0.936829 0.000000
O O5 0.712976 0.815605 0.500000
O O6 0.649461 0.753238 0.710788
O O7 0.798374 0.778091 0.721953
O O8 0.406111 0.500000 0.250000
O O9 0.405062 0.441573 0.500000
O O10 0.288825 0.432257 0.324059
O O11 0.408994 0.366973 0.276452
O O12 0.082455 0.161161 0.826130
O O13 0.000000 0.066069 0.750000
O O14 0.069461 0.065247 0.000000
O O15 0.827650 0.500000 0.250000
O O16 0.826158 0.562300 0.500000
O O17 0.847124 0.617870 0.247813
O O18 0.924444 0.381008 0.500000
O O19 0.919753 0.285047 0.328307
O O20 0.000000 0.383569 0.250000
O O21 0.500000 0.271192 0.750000
O O22 0.427719 0.294859 0.500000
O O23 0.168727 0.777141 0.500000
#
# Coordination Sequence:
#
# PCOD9393936 Si02
#       8
#     8   8   8   8   8   8   8   8
#     4  10  21  37  56  81 111 145 188 233 279 331
#     4  10  20  36  59  84 110 143 183 227 274 324
#     4   9  19  36  57  82 112 146 184 223 264 317
#     4   9  18  31  47  71 105 142 179 220 266 316
#     4  10  20  36  55  73  96 128 170 219 269 321
#     4  11  22  34  49  71  99 132 173 222 276 328
#     4  10  22  38  57  85 118 149 181 217 263 320
#     4   9  19  34  51  74 103 136 177 221 266 321
#
# _framework density 18.942829
#
# number of rings (size 3 to 8) (size 9 to 14) (size 15 to 20)
#    0.000    2.250    0.000    3.375    0.000    7.250 
#    0.000    3.750    0.000    0.375    0.000    2.625 
#    0.000    0.000    0.000    0.000    0.000    0.000 
#
# Total GULP energy -356956.490346 kJ/mol
# GULP energy per Si atom -5577.445162 kJ/mol
# Density = 1.889971 g / cm^3
# Si number density = 18.942829 Si / 1000 Ang^3
#
#
#
# Elastic Constant Matrix: (Units=GPa)
#
#
# Indices 1 2 3 4 5 6 
#
# 1 54.4833 29.1986 39.3320 0.0000 0.0000 0.0000
# 2 29.1986 94.6639 41.2454 0.0000 0.0000 0.0000
# 3 39.3320 41.2454 81.5548 0.0000 0.0000 0.0000
# 4 0.0000 0.0000 0.0000 -6.1870 0.0000 0.0000
# 5 0.0000 0.0000 0.0000 0.0000 25.7797 0.0000
# 6 0.0000 0.0000 0.0000 0.0000 0.0000 -78.9030
#
#
#
# Elastic Compliance Matrix: (Units=1/GPa)
#
#
# Indices 1 2 3 4 5 6 
#
# 1 0.029120 -0.003672 -0.012187 0.000000 0.000000 0.000000
# 2 -0.003672 0.014012 -0.005316 0.000000 0.000000 0.000000
# 3 -0.012187 -0.005316 0.020827 0.000000 0.000000 0.000000
# 4 0.000000 0.000000 0.000000 -0.161630 0.000000 0.000000
# 5 0.000000 0.000000 0.000000 0.000000 0.038790 0.000000
# 6 0.000000 0.000000 0.000000 0.000000 0.000000 -0.012674
#
#
# Mechanical properties :
#
#
# Convention : Reuss Voigt Hill
#
# Bulk Modulus (GPa) = 46.27325 50.02823 48.15074
# Shear Modulus (GPa) = -227.26163 -3.80031 -115.53097
#
# Velocity S-wave (km/s) = -10.96507 -1.41794 -7.81804
# Velocity P-wave (km/s) = 11.65459 4.87716 7.48475
#
# Compressibility (1/GPa) = 0.02161076
#
# Stress axis : x y z
#
# Youngs Moduli (GPa) = 34.34074 71.36557 48.01363
#
# Poissons Ratio (x) = 0.26206 0.58513
# Poissons Ratio (y) = 0.12610 0.25522
# Poissons Ratio (z) = 0.41850 0.37935
#
# Static dielectric constant tensor:
#      x y z
#    x 1.632660 0.000000 0.000000 
#    y 0.000000 1.701700 0.000000 
#    z 0.000000 0.000000 1.663940 
# 
# From -- ./inp_files/5281.got.cif
#   From: 2010.05.17/outbox.cif.g08.bks.cpg/sg49_3_cif.got.tgz:5281.got - 2010.06.03 21:02:19.
