data_PCOD9393615
_publ_section_title
;
Structure prediction by ZEFSAII (Michael W. Deem and Ramdas Pophale) SiO2 
 PCOD9393615
Probable space group: P C C M
;
_chemical_formula_sum "Si O2"
_cell_formula_units_Z 64
_cell_length_a 21.336000
_cell_length_b 17.802747
_cell_length_c 8.548520
_cell_angle_alpha 90.000000
_cell_angle_beta 90.000000
_cell_angle_gamma 90.000000
_cell_volume 3247.064793
_symmetry_space_group_name_H-M "P C C M"
_symmetry_group_IT_number 49
_symmetry_cell_setting 'orthorhombic'
loop_
_space_group_symop_operation_xyz
x,y,z
-x,-y,z
x,-y,1/2-z
-x,y,1/2-z
-x,-y,-z
x,y,-z
-x,y,1/2+z
x,-y,1/2+z
loop_
_atom_site_type_symbol
_atom_site_label
_atom_site_fract_x
_atom_site_fract_y
_atom_site_fract_z
Si Si1 0.708485 0.580460 0.811359
Si Si2 0.641882 0.922884 0.679776
Si Si3 0.206309 0.717381 0.189167
Si Si4 0.098804 0.922224 0.811480
Si Si5 0.435191 0.792684 0.315232
Si Si6 0.232864 0.118376 0.815987
Si Si7 0.934644 0.752795 0.313254
Si Si8 0.567420 0.620671 0.188781
O O1 0.731388 0.500000 0.750000
O O2 0.751256 0.647542 0.743389
O O3 0.634663 0.587084 0.763140
O O4 0.710576 0.584185 0.000000
O O5 0.625411 0.917962 0.500000
O O6 0.618120 0.849020 0.765932
O O7 0.715789 0.920722 0.708196
O O8 0.616035 0.000000 0.750000
O O9 0.230808 0.793566 0.270038
O O10 0.131845 0.714719 0.232942
O O11 0.209993 0.725330 0.000000
O O12 0.166006 0.915395 0.728170
O O13 0.068694 0.841539 0.769417
O O14 0.069888 0.000000 0.750000
O O15 0.104486 0.924785 0.000000
O O16 0.500000 0.823930 0.250000
O O17 0.438169 0.787930 0.500000
O O18 0.428280 0.707626 0.255996
O O19 0.246884 0.109021 0.000000
O O20 0.936802 0.749518 0.500000
O O21 0.000000 0.720883 0.250000
O O22 0.500000 0.591249 0.250000
O O23 0.564637 0.617506 0.000000
#
# Coordination Sequence:
#
# PCOD9393615 Si02
#       8
#     8   8   8   8   8   8   8   8
#     4  11  23  39  60  90 123 157 191 230 278 334
#     4  12  24  37  52  73 101 137 180 233 290 341
#     4  10  21  39  61  87 116 150 190 235 282 338
#     4  10  20  34  50  75 110 149 190 235 284 337
#     4  10  20  37  57  78 102 134 178 228 278 335
#     4  11  21  35  55  79 106 141 183 229 279 337
#     4   9  20  36  56  82 113 148 192 239 288 343
#     4   9  20  37  59  85 116 151 190 229 273 327
#
# _framework density 19.71011
#
# number of rings (size 3 to 8) (size 9 to 14) (size 15 to 20)
#    0.000    1.750    0.000    5.625    0.000    6.250 
#    0.000    3.750    0.000    0.375    0.000    2.625 
#    0.000    0.000    0.000    0.000    0.000    0.000 
#
# Total GULP energy -357276.214266 kJ/mol
# GULP energy per Si atom -5582.440848 kJ/mol
# Density = 1.966525 g / cm^3
# Si number density = 19.710110 Si / 1000 Ang^3
#
#
#
# Elastic Constant Matrix: (Units=GPa)
#
#
# Indices 1 2 3 4 5 6 
#
# 1 93.0510 36.8182 2.9387 0.0000 0.0000 0.0000
# 2 36.8182 94.0643 10.2052 0.0000 0.0000 0.0000
# 3 2.9387 10.2052 41.6246 0.0000 0.0000 0.0000
# 4 0.0000 0.0000 0.0000 23.3047 0.0000 0.0000
# 5 0.0000 0.0000 0.0000 0.0000 22.1222 0.0000
# 6 0.0000 0.0000 0.0000 0.0000 0.0000 -5.2086
#
#
#
# Elastic Compliance Matrix: (Units=1/GPa)
#
#
# Indices 1 2 3 4 5 6 
#
# 1 0.012721 -0.005015 0.000331 0.000000 0.000000 0.000000
# 2 -0.005015 0.012899 -0.002808 0.000000 0.000000 0.000000
# 3 0.000331 -0.002808 0.024689 0.000000 0.000000 0.000000
# 4 0.000000 0.000000 0.000000 0.042910 0.000000 0.000000
# 5 0.000000 0.000000 0.000000 0.000000 0.045203 0.000000
# 6 0.000000 0.000000 0.000000 0.000000 0.000000 -0.191990
#
#
# Mechanical properties :
#
#
# Convention : Reuss Voigt Hill
#
# Bulk Modulus (GPa) = 28.30863 36.51822 32.41342
# Shear Modulus (GPa) = -186.50090 19.96218 -83.26936
#
# Velocity S-wave (km/s) = -9.73793 3.18589 -6.50682
# Velocity P-wave (km/s) = 10.58503 5.66578 6.32225
#
# Compressibility (1/GPa) = 0.03532492
#
# Stress axis : x y z
#
# Youngs Moduli (GPa) = 78.61228 77.52744 40.50327
#
# Poissons Ratio (x) = 0.38880 -0.01343
# Poissons Ratio (y) = 0.39424 0.11375
# Poissons Ratio (z) = -0.02606 0.21772
#
# Static dielectric constant tensor:
#      x y z
#    x 1.715960 0.000000 0.000000 
#    y 0.000000 1.670570 0.000000 
#    z 0.000000 0.000000 1.666000 
# 
# From -- ./inp_files/5987.got.cif
#   From: 2010.05.17/outbox.cif.g08.bks.cpg/sg49_3_cif.got.tgz:5987.got - 2010.06.03 21:02:19.
