data_PCOD9393753
_publ_section_title
;
Structure prediction by ZEFSAII (Michael W. Deem and Ramdas Pophale) SiO2 
 PCOD9393753
Probable space group: P C C M
;
_chemical_formula_sum "Si O2"
_cell_formula_units_Z 34
_cell_length_a 8.910128
_cell_length_b 11.404190
_cell_length_c 17.399695
_cell_angle_alpha 90.000000
_cell_angle_beta 90.000000
_cell_angle_gamma 90.000000
_cell_volume 1768.031600
_symmetry_space_group_name_H-M "P C C M"
_symmetry_group_IT_number 49
_symmetry_cell_setting 'orthorhombic'
loop_
_space_group_symop_operation_xyz
x,y,z
-x,-y,z
x,-y,1/2-z
-x,y,1/2-z
-x,-y,-z
x,y,-z
-x,y,1/2+z
x,-y,1/2+z
loop_
_atom_site_type_symbol
_atom_site_label
_atom_site_fract_x
_atom_site_fract_y
_atom_site_fract_z
Si Si1 0.325827 0.638316 0.235080
Si Si2 0.000000 0.000000 0.250000
Si Si3 0.179928 0.758979 0.091237
Si Si4 0.147892 0.801698 0.648954
Si Si5 0.335911 0.001563 0.089748
O O1 0.311401 0.500000 0.250000
O O2 0.500000 0.670857 0.250000
O O3 0.268542 0.674532 0.149997
O O4 0.223546 0.706614 0.296533
O O5 0.901728 0.911472 0.200790
O O6 0.233940 0.890947 0.114167
O O7 0.001462 0.754656 0.107711
O O8 0.206447 0.738217 0.000000
O O9 0.265745 0.869169 0.595503
O O10 0.500000 0.000000 0.128009
O O11 0.354120 0.976080 0.000000
#
# Coordination Sequence:
#
# PCOD9393753 Si02
#       5
#     8   2   8   8   8
#     4  11  25  45  65  87 119 167 218 258 299 359
#     4  12  20  32  58  92 120 148 208 238 304 368
#     4  11  22  39  62  93 126 159 201 258 314 365
#     4  12  20  37  61  89 124 161 205 253 306 366
#     4  10  20  34  57  92 129 162 197 247 312 373
#
# _framework density 19.230425
#
# number of rings (size 3 to 8) (size 9 to 14) (size 15 to 20)
#    0.000    0.941    4.706    2.118    0.000    3.765 
#    0.000    9.412    0.000    0.000    0.000    0.000 
#    0.000    0.000    0.000    0.000    0.000    0.000 
#
# Total GULP energy -189616.232914 kJ/mol
# GULP energy per Si atom -5576.948027 kJ/mol
# Density = 1.918666 g / cm^3
# Si number density = 19.230425 Si / 1000 Ang^3
#
#
#
# Elastic Constant Matrix: (Units=GPa)
#
#
# Indices 1 2 3 4 5 6 
#
# 1 136.3007 48.9415 53.6548 0.0000 0.0000 0.0000
# 2 48.9415 85.7318 49.0192 0.0000 0.0000 0.0000
# 3 53.6548 49.0192 100.2294 0.0000 0.0000 0.0000
# 4 0.0000 0.0000 0.0000 -297.4026 0.0000 0.0000
# 5 0.0000 0.0000 0.0000 0.0000 24.7469 0.0000
# 6 0.0000 0.0000 0.0000 0.0000 0.0000 32.2567
#
#
#
# Elastic Compliance Matrix: (Units=1/GPa)
#
#
# Indices 1 2 3 4 5 6 
#
# 1 0.010077 -0.003704 -0.003583 0.000000 0.000000 0.000000
# 2 -0.003704 0.017554 -0.006602 0.000000 0.000000 0.000000
# 3 -0.003583 -0.006602 0.015124 0.000000 0.000000 0.000000
# 4 0.000000 0.000000 0.000000 -0.003362 0.000000 0.000000
# 5 0.000000 0.000000 0.000000 0.000000 0.040409 0.000000
# 6 0.000000 0.000000 0.000000 0.000000 0.000000 0.031001
#
#
# Mechanical properties :
#
#
# Convention : Reuss Voigt Hill
#
# Bulk Modulus (GPa) = 66.77079 69.49921 68.13500
# Shear Modulus (GPa) = 34.82536 -36.70338 -0.93901
#
# Velocity S-wave (km/s) = 4.26014 -4.37350 -0.69954
# Velocity P-wave (km/s) = 7.68084 3.27343 5.90384
#
# Compressibility (1/GPa) = 0.01497661
#
# Stress axis : x y z
#
# Youngs Moduli (GPa) = 99.23401 56.96778 66.11980
#
# Poissons Ratio (x) = 0.21101 0.23690
# Poissons Ratio (y) = 0.36757 0.43653
# Poissons Ratio (z) = 0.35555 0.37611
#
# Static dielectric constant tensor:
#      x y z
#    x 1.809020 0.000000 0.000000 
#    y 0.000000 1.636700 0.000000 
#    z 0.000000 0.000000 1.724880 
# 
# From -- ./inp_files/19452.got.cif
#   From: 2010.05.17/outbox.cif.g08.bks.cpg/sg49_10_cif.got.tgz:19452.got - 2010.06.03 21:02:19.
