data_PCOD9393802
_publ_section_title
;
Structure prediction by ZEFSAII (Michael W. Deem and Ramdas Pophale) SiO2 
 PCOD9393802
Probable space group: P C C M
;
_chemical_formula_sum "Si O2"
_cell_formula_units_Z 56
_cell_length_a 22.282052
_cell_length_b 14.329349
_cell_length_c 8.826287
_cell_angle_alpha 90.000000
_cell_angle_beta 90.000000
_cell_angle_gamma 90.000000
_cell_volume 2818.121341
_symmetry_space_group_name_H-M "P C C M"
_symmetry_group_IT_number 49
_symmetry_cell_setting 'orthorhombic'
loop_
_space_group_symop_operation_xyz
x,y,z
-x,-y,z
x,-y,1/2-z
-x,y,1/2-z
-x,-y,-z
x,y,-z
-x,y,1/2+z
x,-y,1/2+z
loop_
_atom_site_type_symbol
_atom_site_label
_atom_site_fract_x
_atom_site_fract_y
_atom_site_fract_z
Si Si1 0.822335 0.850639 0.828973
Si Si2 0.309431 0.093114 0.828494
Si Si3 0.062568 0.639682 0.174316
Si Si4 0.438883 0.396015 0.317864
Si Si5 0.680893 0.308257 0.316571
Si Si6 0.194714 0.655863 0.179442
Si Si7 0.938547 0.867715 0.325936
O O1 0.763098 0.912089 0.831095
O O2 0.812158 0.766445 0.711959
O O3 0.883099 0.897506 0.777082
O O4 0.828767 0.811219 0.000000
O O5 0.319309 0.198343 0.769147
O O6 0.332943 0.000000 0.750000
O O7 0.331777 0.092978 0.000000
O O8 0.129904 0.615259 0.235076
O O9 0.060878 0.753386 0.176478
O O10 0.000000 0.608907 0.250000
O O11 0.061216 0.609353 0.000000
O O12 0.437372 0.500000 0.250000
O O13 0.500000 0.351812 0.250000
O O14 0.441214 0.397582 0.500000
O O15 0.378435 0.349753 0.256994
O O16 0.680196 0.311765 0.500000
O O17 0.741477 0.361674 0.260821
O O18 0.199503 0.637858 0.000000
O O19 0.932734 0.896676 0.500000
O O20 0.000000 0.897340 0.250000
#
# Coordination Sequence:
#
# PCOD9393802 Si02
#       7
#     8   8   8   8   8   8   8
#     4   9  16  26  38  56  82 115 157 211 269 325
#     4   9  19  32  49  72 101 137 180 228 276 323
#     4   8  14  21  31  50  80 117 162 212 265 322
#     4  11  22  39  64  94 126 159 188 220 260 315
#     4  10  20  35  54  81 114 149 188 233 280 330
#     4   9  16  26  40  63  93 130 175 223 274 329
#     4   9  15  22  33  50  71 102 145 199 261 327
#
# _framework density 19.871395
#
# number of rings (size 3 to 8) (size 9 to 14) (size 15 to 20)
#    0.000    2.714    0.000    5.143    0.000    7.429 
#    0.000    0.000    0.000    0.857    0.000    6.000 
#    0.000    0.571    0.000    6.000    0.000    7.571 
#
# Total GULP energy -311879.730981 kJ/mol
# GULP energy per Si atom -5569.280910 kJ/mol
# Density = 1.982617 g / cm^3
# Si number density = 19.871395 Si / 1000 Ang^3
#
#
#
# Elastic Constant Matrix: (Units=GPa)
#
#
# Indices 1 2 3 4 5 6 
#
# 1 174.2530 31.6786 60.1122 0.0000 0.0000 0.0000
# 2 31.6786 45.9135 18.4023 0.0000 0.0000 0.0000
# 3 60.1122 18.4023 84.6197 0.0000 0.0000 0.0000
# 4 0.0000 0.0000 0.0000 10.1691 0.0000 0.0000
# 5 0.0000 0.0000 0.0000 0.0000 27.0234 0.0000
# 6 0.0000 0.0000 0.0000 0.0000 0.0000 -11.6587
#
#
#
# Elastic Compliance Matrix: (Units=1/GPa)
#
#
# Indices 1 2 3 4 5 6 
#
# 1 0.008111 -0.003601 -0.004979 0.000000 0.000000 0.000000
# 2 -0.003601 0.025458 -0.002979 0.000000 0.000000 0.000000
# 3 -0.004979 -0.002979 0.016002 0.000000 0.000000 0.000000
# 4 0.000000 0.000000 0.000000 0.098337 0.000000 0.000000
# 5 0.000000 0.000000 0.000000 0.000000 0.037005 0.000000
# 6 0.000000 0.000000 0.000000 0.000000 0.000000 -0.085773
#
#
# Mechanical properties :
#
#
# Convention : Reuss Voigt Hill
#
# Bulk Modulus (GPa) = 37.79968 58.35250 48.07609
# Shear Modulus (GPa) = 38.14605 18.07963 28.11284
#
# Velocity S-wave (km/s) = 4.38613 3.01961 3.76538
# Velocity P-wave (km/s) = 6.68688 6.44874 6.56889
#
# Compressibility (1/GPa) = 0.02645525
#
# Stress axis : x y z
#
# Youngs Moduli (GPa) = 123.29067 39.27993 62.49159
#
# Poissons Ratio (x) = 0.14144 0.31113
# Poissons Ratio (y) = 0.44394 0.18613
# Poissons Ratio (z) = 0.61384 0.11700
#
# Static dielectric constant tensor:
#      x y z
#    x 1.753140 0.000000 0.000000 
#    y 0.000000 1.758910 0.000000 
#    z 0.000000 0.000000 1.725080 
# 
# From -- ./inp_files/5885.got.cif
#   From: 2010.05.17/outbox.cif.g08.bks.cpg/sg49_3_cif.got.tgz:5885.got - 2010.06.03 21:02:19.
