data_PCOD9393254
_publ_section_title
;
Structure prediction by ZEFSAII (Michael W. Deem and Ramdas Pophale) SiO2 
 PCOD9393254
Probable space group: P C C M
;
_chemical_formula_sum "Si O2"
_cell_formula_units_Z 40
_cell_length_a 10.372873
_cell_length_b 8.677753
_cell_length_c 26.107473
_cell_angle_alpha 90.000000
_cell_angle_beta 90.000000
_cell_angle_gamma 90.000000
_cell_volume 2350.017966
_symmetry_space_group_name_H-M "P C C M"
_symmetry_group_IT_number 49
_symmetry_cell_setting 'orthorhombic'
loop_
_space_group_symop_operation_xyz
x,y,z
-x,-y,z
x,-y,1/2-z
-x,y,1/2-z
-x,-y,-z
x,y,-z
-x,y,1/2+z
x,-y,1/2+z
loop_
_atom_site_type_symbol
_atom_site_label
_atom_site_fract_x
_atom_site_fract_y
_atom_site_fract_z
Si Si1 0.542482 0.326571 0.439153
Si Si2 0.213195 0.172989 0.108603
Si Si3 0.717286 0.142857 0.941225
Si Si4 0.042439 0.324426 0.408581
Si Si5 0.974239 0.183154 0.691574
O O1 0.500000 0.500000 0.427417
O O2 0.570585 0.317946 0.500000
O O3 0.667860 0.275676 0.408514
O O4 0.421343 0.215020 0.429037
O O5 0.168589 0.201470 0.167210
O O6 0.082330 0.219657 0.078029
O O7 0.246815 0.997790 0.095554
O O8 0.828727 0.271719 0.936521
O O9 0.713224 0.086241 0.000000
O O10 0.000000 0.500000 0.415859
O O11 0.058987 0.283058 0.348111
O O12 0.000000 0.225355 0.750000
O O13 0.000000 0.000000 0.685874
#
# Coordination Sequence:
#
# PCOD9393254 Si02
#       5
#     8   8   8   8   8
#     4  10  21  35  53  79 115 155 186 222 274 332
#     4  10  19  35  53  81 104 146 188 231 272 330
#     4  11  21  34  52  79 113 152 189 224 268 327
#     4  10  20  34  53  82 109 144 183 230 285 324
#     4   9  18  36  58  82 107 132 182 234 287 331
#
# _framework density 17.021146000000002
#
# number of rings (size 3 to 8) (size 9 to 14) (size 15 to 20)
#    1.200    0.800    2.000    3.000    0.000    4.800 
#    0.000    0.000    0.000    1.200    0.000    1.400 
#    0.000    0.000    0.000    0.000    0.000    0.000 
#
# Total GULP energy -222726.155037 kJ/mol
# GULP energy per Si atom -5568.153876 kJ/mol
# Density = 1.698240 g / cm^3
# Si number density = 17.021146 Si / 1000 Ang^3
#
#
#
# Elastic Constant Matrix: (Units=GPa)
#
#
# Indices 1 2 3 4 5 6 
#
# 1 99.2259 4.4233 42.1385 0.0000 0.0000 0.0000
# 2 4.4233 42.5434 16.8955 0.0000 0.0000 0.0000
# 3 42.1385 16.8955 68.6191 0.0000 0.0000 0.0000
# 4 0.0000 0.0000 0.0000 19.7006 0.0000 0.0000
# 5 0.0000 0.0000 0.0000 0.0000 26.2052 0.0000
# 6 0.0000 0.0000 0.0000 0.0000 0.0000 30.7255
#
#
#
# Elastic Compliance Matrix: (Units=1/GPa)
#
#
# Indices 1 2 3 4 5 6 
#
# 1 0.013807 0.002141 -0.009006 0.000000 0.000000 0.000000
# 2 0.002141 0.026385 -0.007811 0.000000 0.000000 0.000000
# 3 -0.009006 -0.007811 0.022027 0.000000 0.000000 0.000000
# 4 0.000000 0.000000 0.000000 0.050760 0.000000 0.000000
# 5 0.000000 0.000000 0.000000 0.000000 0.038160 0.000000
# 6 0.000000 0.000000 0.000000 0.000000 0.000000 0.032546
#
#
# Mechanical properties :
#
#
# Convention : Reuss Voigt Hill
#
# Bulk Modulus (GPa) = 30.42607 37.47809 33.95208
# Shear Modulus (GPa) = 22.32203 25.12167 23.72185
#
# Velocity S-wave (km/s) = 3.62530 3.84592 3.73724
# Velocity P-wave (km/s) = 5.95298 6.46435 6.21393
#
# Compressibility (1/GPa) = 0.03286655
#
# Stress axis : x y z
#
# Youngs Moduli (GPa) = 72.42599 37.90035 45.39865
#
# Poissons Ratio (x) = -0.08115 0.40886
# Poissons Ratio (y) = -0.15507 0.35463
# Poissons Ratio (z) = 0.65227 0.29605
#
# Static dielectric constant tensor:
#      x y z
#    x 1.565360 0.000000 0.000000 
#    y 0.000000 1.593080 0.000000 
#    z 0.000000 0.000000 1.586080 
# 
# From -- ./inp_files/24349.got.cif
#   From: 2010.05.17/outbox.cif.g08.bks.cpg/sg49_13_cif.got.tgz:24349.got - 2010.06.03 21:02:19.
