data_PCOD9393025
_publ_section_title
;
Structure prediction by ZEFSAII (Michael W. Deem and Ramdas Pophale) SiO2 
 PCOD9393025
Probable space group: P C C M
;
_chemical_formula_sum "Si O2"
_cell_formula_units_Z 48
_cell_length_a 17.565995
_cell_length_b 7.336966
_cell_length_c 17.807656
_cell_angle_alpha 90.000000
_cell_angle_beta 90.000000
_cell_angle_gamma 90.000000
_cell_volume 2295.070437
_symmetry_space_group_name_H-M "P C C M"
_symmetry_group_IT_number 49
_symmetry_cell_setting 'orthorhombic'
loop_
_space_group_symop_operation_xyz
x,y,z
-x,-y,z
x,-y,1/2-z
-x,y,1/2-z
-x,-y,-z
x,y,-z
-x,y,1/2+z
x,-y,1/2+z
loop_
_atom_site_type_symbol
_atom_site_label
_atom_site_fract_x
_atom_site_fract_y
_atom_site_fract_z
Si Si1 0.915917 0.721178 0.266232
Si Si2 0.339254 0.191664 0.584249
Si Si3 0.218762 0.363123 0.819867
Si Si4 0.640292 0.243061 0.415447
Si Si5 0.488835 0.221759 0.664992
Si Si6 0.168795 0.315503 0.412292
O O1 0.919124 0.500000 0.250000
O O2 0.844380 0.775938 0.213336
O O3 0.892114 0.755385 0.352133
O O4 0.000000 0.791056 0.250000
O O5 0.350936 0.263155 0.500000
O O6 0.404239 0.268236 0.637811
O O7 0.252057 0.230538 0.604316
O O8 0.353128 0.975966 0.581848
O O9 0.234778 0.500000 0.750000
O O10 0.297425 0.297100 0.853964
O O11 0.179491 0.474231 0.887969
O O12 0.656639 0.310238 0.500000
O O13 0.555562 0.292752 0.388868
O O14 0.500000 0.281396 0.750000
O O15 0.500000 0.000000 0.664022
O O16 0.151373 0.291228 0.500000
#
# Coordination Sequence:
#
# PCOD9393025 Si02
#       6
#     8   8   8   8   8   8
#     4   8  16  32  50  71  99 125 157 202 246 289
#     4   9  18  32  51  74  98 129 168 209 243 282
#     4   9  19  32  50  73 101 130 159 201 248 293
#     4  10  19  33  52  73 100 132 166 203 247 291
#     4   9  18  29  47  73  98 127 169 209 238 277
#     4   9  17  31  52  74  98 127 163 202 246 293
#
# _framework density 20.914390000000001
#
# number of rings (size 3 to 8) (size 9 to 14) (size 15 to 20)
#    0.000    3.333    0.000    1.000    4.667    2.000 
#    0.000    8.333    0.000    5.000    0.000    3.500 
#    0.000    0.000    0.000    0.000    0.000    0.000 
#
# Total GULP energy -267568.433500 kJ/mol
# GULP energy per Si atom -5574.342365 kJ/mol
# Density = 2.086679 g / cm^3
# Si number density = 20.914390 Si / 1000 Ang^3
#
#
#
# Elastic Constant Matrix: (Units=GPa)
#
#
# Indices 1 2 3 4 5 6 
#
# 1 158.1614 7.0964 116.3204 0.0000 0.0000 0.0000
# 2 7.0964 41.8685 12.5264 0.0000 0.0000 0.0000
# 3 116.3204 12.5264 157.9829 0.0000 0.0000 0.0000
# 4 0.0000 0.0000 0.0000 9.1621 0.0000 0.0000
# 5 0.0000 0.0000 0.0000 0.0000 35.8739 0.0000
# 6 0.0000 0.0000 0.0000 0.0000 0.0000 11.3521
#
#
#
# Elastic Compliance Matrix: (Units=1/GPa)
#
#
# Indices 1 2 3 4 5 6 
#
# 1 0.013811 0.000719 -0.010226 0.000000 0.000000 0.000000
# 2 0.000719 0.024502 -0.002472 0.000000 0.000000 0.000000
# 3 -0.010226 -0.002472 0.014055 0.000000 0.000000 0.000000
# 4 0.000000 0.000000 0.000000 0.109146 0.000000 0.000000
# 5 0.000000 0.000000 0.000000 0.000000 0.027875 0.000000
# 6 0.000000 0.000000 0.000000 0.000000 0.000000 0.088089
#
#
# Mechanical properties :
#
#
# Convention : Reuss Voigt Hill
#
# Bulk Modulus (GPa) = 35.19910 69.98881 52.59396
# Shear Modulus (GPa) = 16.08199 26.08224 21.08212
#
# Velocity S-wave (km/s) = 2.77599 3.53526 3.17838
# Velocity P-wave (km/s) = 5.20975 7.08527 6.21862
#
# Compressibility (1/GPa) = 0.02840981
#
# Stress axis : x y z
#
# Youngs Moduli (GPa) = 72.40571 40.81287 71.14938
#
# Poissons Ratio (x) = -0.02933 0.72756
# Poissons Ratio (y) = -0.05203 0.17587
# Poissons Ratio (z) = 0.74041 0.10088
#
# Static dielectric constant tensor:
#      x y z
#    x 1.771590 0.000000 0.000000 
#    y 0.000000 1.838870 0.000000 
#    z 0.000000 0.000000 1.740440 
# 
# From -- ./inp_files/18116.got.cif
#   From: 2010.05.17/outbox.cif.g08.bks.cpg/sg49_10_cif.got.tgz:18116.got - 2010.06.03 21:02:19.
