data_PCOD9393384
_publ_section_title
;
Structure prediction by ZEFSAII (Michael W. Deem and Ramdas Pophale) SiO2 
 PCOD9393384
Probable space group: P C C M
;
_chemical_formula_sum "Si O2"
_cell_formula_units_Z 56
_cell_length_a 15.929956
_cell_length_b 20.700283
_cell_length_c 8.440823
_cell_angle_alpha 90.000000
_cell_angle_beta 90.000000
_cell_angle_gamma 90.000000
_cell_volume 2783.400190
_symmetry_space_group_name_H-M "P C C M"
_symmetry_group_IT_number 49
_symmetry_cell_setting 'orthorhombic'
loop_
_space_group_symop_operation_xyz
x,y,z
-x,-y,z
x,-y,1/2-z
-x,y,1/2-z
-x,-y,-z
x,y,-z
-x,y,1/2+z
x,-y,1/2+z
loop_
_atom_site_type_symbol
_atom_site_label
_atom_site_fract_x
_atom_site_fract_y
_atom_site_fract_z
Si Si1 0.587410 0.623961 0.309725
Si Si2 0.771493 0.930961 0.813266
Si Si3 0.588682 0.901811 0.684191
Si Si4 0.374764 0.234428 0.185355
Si Si5 0.908115 0.327225 0.190024
Si Si6 0.193496 0.205916 0.688811
Si Si7 0.232325 0.570846 0.191222
O O1 0.500000 0.594366 0.250000
O O2 0.586571 0.627502 0.500000
O O3 0.593544 0.696200 0.239783
O O4 0.672690 0.588200 0.257955
O O5 0.671690 0.925499 0.774643
O O6 0.814503 0.869293 0.730834
O O7 0.800956 0.000000 0.750000
O O8 0.782953 0.926230 0.000000
O O9 0.500000 0.925755 0.750000
O O10 0.597671 0.917444 0.500000
O O11 0.589806 0.824353 0.710632
O O12 0.275201 0.230953 0.217945
O O13 0.392509 0.222948 0.000000
O O14 0.881812 0.253881 0.231840
O O15 0.834932 0.375756 0.246447
O O16 0.000000 0.344101 0.250000
O O17 0.908912 0.330986 0.000000
O O18 0.209836 0.212094 0.500000
O O19 0.209280 0.500000 0.250000
O O20 0.232168 0.571843 0.000000
#
# Coordination Sequence:
#
# PCOD9393384 Si02
#       7
#     8   8   8   8   8   8   8
#     4  11  22  38  57  82 118 158 206 255 305 358
#     4  11  22  37  56  83 114 153 201 243 297 361
#     4  11  21  34  50  73 108 150 196 251 306 356
#     4  11  20  32  53  82 112 150 199 248 302 358
#     4  10  22  41  66  96 127 159 198 245 304 364
#     4  10  19  37  61  86 120 157 194 245 302 353
#     4  10  23  43  63  87 124 165 203 251 305 362
#
# _framework density 20.119278000000001
#
# number of rings (size 3 to 8) (size 9 to 14) (size 15 to 20)
#    0.000    1.429    1.429    6.857    0.000    3.714 
#    0.000    4.286    0.000    0.429    0.000    3.000 
#    0.000    0.000    0.000    0.000    0.000    0.000 
#
# Total GULP energy -313014.969450 kJ/mol
# GULP energy per Si atom -5589.553026 kJ/mol
# Density = 2.007349 g / cm^3
# Si number density = 20.119278 Si / 1000 Ang^3
#
#
#
# Elastic Constant Matrix: (Units=GPa)
#
#
# Indices 1 2 3 4 5 6 
#
# 1 107.7101 47.8424 13.5476 0.0000 0.0000 0.0000
# 2 47.8424 116.5295 9.4643 0.0000 0.0000 0.0000
# 3 13.5476 9.4643 58.4058 0.0000 0.0000 0.0000
# 4 0.0000 0.0000 0.0000 62.7938 0.0000 0.0000
# 5 0.0000 0.0000 0.0000 0.0000 10.4148 0.0000
# 6 0.0000 0.0000 0.0000 0.0000 0.0000 -14.2831
#
#
#
# Elastic Compliance Matrix: (Units=1/GPa)
#
#
# Indices 1 2 3 4 5 6 
#
# 1 0.011568 -0.004592 -0.001939 0.000000 0.000000 0.000000
# 2 -0.004592 0.010519 -0.000639 0.000000 0.000000 0.000000
# 3 -0.001939 -0.000639 0.017675 0.000000 0.000000 0.000000
# 4 0.000000 0.000000 0.000000 0.015925 0.000000 0.000000
# 5 0.000000 0.000000 0.000000 0.000000 0.096017 0.000000
# 6 0.000000 0.000000 0.000000 0.000000 0.000000 -0.070013
#
#
# Mechanical properties :
#
#
# Convention : Reuss Voigt Hill
#
# Bulk Modulus (GPa) = 39.33791 47.15042 43.24417
# Shear Modulus (GPa) = 47.84465 25.90452 36.87459
#
# Velocity S-wave (km/s) = 4.88182 3.59213 4.28576
# Velocity P-wave (km/s) = 7.16735 6.37894 6.78461
#
# Compressibility (1/GPa) = 0.02542077
#
# Stress axis : x y z
#
# Youngs Moduli (GPa) = 86.44831 95.06956 56.57711
#
# Poissons Ratio (x) = 0.43653 0.10971
# Poissons Ratio (y) = 0.39695 0.03618
# Poissons Ratio (z) = 0.16763 0.06079
#
# Static dielectric constant tensor:
#      x y z
#    x 1.719880 0.000000 0.000000 
#    y 0.000000 1.724380 0.000000 
#    z 0.000000 0.000000 1.691110 
# 
# From -- ./inp_files/4033.got.cif
#   From: 2010.05.17/outbox.cif.g08.bks.cpg/sg49_3_cif.got.tgz:4033.got - 2010.06.03 21:02:19.
