data_PCOD9393951
_publ_section_title
;
Structure prediction by ZEFSAII (Michael W. Deem and Ramdas Pophale) SiO2 
 PCOD9393951
Probable space group: P C C M
;
_chemical_formula_sum "Si O2"
_cell_formula_units_Z 56
_cell_length_a 18.510740
_cell_length_b 8.692407
_cell_length_c 16.042591
_cell_angle_alpha 90.000000
_cell_angle_beta 90.000000
_cell_angle_gamma 90.000000
_cell_volume 2581.299190
_symmetry_space_group_name_H-M "P C C M"
_symmetry_group_IT_number 49
_symmetry_cell_setting 'orthorhombic'
loop_
_space_group_symop_operation_xyz
x,y,z
-x,-y,z
x,-y,1/2-z
-x,y,1/2-z
-x,-y,-z
x,y,-z
-x,y,1/2+z
x,-y,1/2+z
loop_
_atom_site_type_symbol
_atom_site_label
_atom_site_fract_x
_atom_site_fract_y
_atom_site_fract_z
Si Si1 0.689716 0.396030 0.137209
Si Si2 0.399389 0.892558 0.399347
Si Si3 0.273913 0.273604 0.820491
Si Si4 0.454863 0.766349 0.900690
Si Si5 0.934618 0.620989 0.906540
Si Si6 0.116074 0.821740 0.264205
Si Si7 0.842677 0.670681 0.590720
O O1 0.708726 0.575111 0.124582
O O2 0.702472 0.336803 0.230659
O O3 0.606641 0.357259 0.118941
O O4 0.755964 0.310617 0.091018
O O5 0.392284 0.882649 0.500000
O O6 0.325378 0.857308 0.354616
O O7 0.462390 0.773678 0.369355
O O8 0.423466 0.065638 0.378799
O O9 0.193686 0.208831 0.808988
O O10 0.462390 0.762636 0.000000
O O11 0.936800 0.736573 0.829060
O O12 0.864874 0.508873 0.900333
O O13 0.000000 0.500000 0.901952
O O14 0.934715 0.691140 0.000000
O O15 0.123896 0.748075 0.172456
O O16 0.100930 0.000000 0.250000
O O17 0.870988 0.722087 0.500000
#
# Coordination Sequence:
#
# PCOD9393951 Si02
#       7
#     8   8   8   8   8   8   8
#     4  10  20  36  56  79 117 155 208 267 318 392
#     4   9  20  36  53  79 115 154 207 269 333 402
#     4  10  22  36  54  84 118 158 202 265 329 384
#     4   9  19  36  55  77 110 158 210 263 328 403
#     4  10  22  44  74 103 135 180 225 267 323 398
#     4  11  24  41  64 100 141 173 217 280 335 403
#     4  10  21  39  63  92 127 175 223 267 326 398
#
# _framework density 21.694502
#
# number of rings (size 3 to 8) (size 9 to 14) (size 15 to 20)
#    0.000    2.143    1.429    1.714    4.000    4.571 
#    0.000    5.714    0.000    2.571    0.000    0.000 
#    0.000    0.000    0.000    0.000    0.000    0.000 
#
# Total GULP energy -312275.655119 kJ/mol
# GULP energy per Si atom -5576.350984 kJ/mol
# Density = 2.164512 g / cm^3
# Si number density = 21.694502 Si / 1000 Ang^3
#
#
#
# Elastic Constant Matrix: (Units=GPa)
#
#
# Indices 1 2 3 4 5 6 
#
# 1 76.9982 5.6718 15.7001 0.0000 0.0000 0.0000
# 2 5.6718 55.1529 50.4176 0.0000 0.0000 0.0000
# 3 15.7001 50.4176 105.8072 0.0000 0.0000 0.0000
# 4 0.0000 0.0000 0.0000 26.7151 0.0000 0.0000
# 5 0.0000 0.0000 0.0000 0.0000 23.0203 0.0000
# 6 0.0000 0.0000 0.0000 0.0000 0.0000 22.1716
#
#
#
# Elastic Compliance Matrix: (Units=1/GPa)
#
#
# Indices 1 2 3 4 5 6 
#
# 1 0.013411 0.000780 -0.002361 0.000000 0.000000 0.000000
# 2 0.000780 0.032170 -0.015445 0.000000 0.000000 0.000000
# 3 -0.002361 -0.015445 0.017161 0.000000 0.000000 0.000000
# 4 0.000000 0.000000 0.000000 0.037432 0.000000 0.000000
# 5 0.000000 0.000000 0.000000 0.000000 0.043440 0.000000
# 6 0.000000 0.000000 0.000000 0.000000 0.000000 0.045103
#
#
# Mechanical properties :
#
#
# Convention : Reuss Voigt Hill
#
# Bulk Modulus (GPa) = 34.85665 42.39306 38.62485
# Shear Modulus (GPa) = 21.52078 25.45933 23.49005
#
# Velocity S-wave (km/s) = 3.15301 3.42941 3.29411
# Velocity P-wave (km/s) = 5.41823 5.93839 5.68426
#
# Compressibility (1/GPa) = 0.02868893
#
# Stress axis : x y z
#
# Youngs Moduli (GPa) = 74.56334 31.08489 58.27141
#
# Poissons Ratio (x) = -0.02423 0.13761
# Poissons Ratio (y) = -0.05812 0.89999
# Poissons Ratio (z) = 0.17608 0.48010
#
# Static dielectric constant tensor:
#      x y z
#    x 1.834930 0.000000 0.000000 
#    y 0.000000 1.782970 0.000000 
#    z 0.000000 0.000000 1.802530 
# 
# From -- ./inp_files/14425.got.cif
#   From: 2010.05.17/outbox.cif.g08.bks.cpg/sg49_8_cif.got.tgz:14425.got - 2010.06.03 21:02:19.
