data_PCOD9393757
_publ_section_title
;
Structure prediction by ZEFSAII (Michael W. Deem and Ramdas Pophale) SiO2 
 PCOD9393757
Probable space group: P C C M
;
_chemical_formula_sum "Si O2"
_cell_formula_units_Z 64
_cell_length_a 25.892749
_cell_length_b 14.827123
_cell_length_c 8.889524
_cell_angle_alpha 90.000000
_cell_angle_beta 90.000000
_cell_angle_gamma 90.000000
_cell_volume 3412.821377
_symmetry_space_group_name_H-M "P C C M"
_symmetry_group_IT_number 49
_symmetry_cell_setting 'orthorhombic'
loop_
_space_group_symop_operation_xyz
x,y,z
-x,-y,z
x,-y,1/2-z
-x,y,1/2-z
-x,-y,-z
x,y,-z
-x,y,1/2+z
x,-y,1/2+z
loop_
_atom_site_type_symbol
_atom_site_label
_atom_site_fract_x
_atom_site_fract_y
_atom_site_fract_z
Si Si1 0.346833 0.902679 0.318471
Si Si2 0.556709 0.210717 0.680626
Si Si3 0.847526 0.099230 0.318948
Si Si4 0.946078 0.220215 0.319487
Si Si5 0.250579 0.221000 0.818724
Si Si6 0.557656 0.588901 0.179718
Si Si7 0.782820 0.405203 0.821823
Si Si8 0.093732 0.595586 0.820755
O O1 0.346820 0.909022 0.500000
O O2 0.402236 0.863512 0.269530
O O3 0.302286 0.832100 0.276147
O O4 0.336618 0.000000 0.250000
O O5 0.500000 0.200308 0.750000
O O6 0.551542 0.206296 0.500000
O O7 0.578613 0.311393 0.714488
O O8 0.846190 0.091558 0.500000
O O9 0.899379 0.153339 0.277352
O O10 0.798408 0.159664 0.272937
O O11 0.845697 0.000000 0.250000
O O12 0.949097 0.224553 0.500000
O O13 0.933563 0.319307 0.254947
O O14 0.000000 0.188909 0.250000
O O15 0.245261 0.319191 0.747757
O O16 0.249349 0.229989 0.000000
O O17 0.583511 0.500000 0.250000
O O18 0.500000 0.591787 0.250000
O O19 0.554561 0.578435 0.000000
O O20 0.766456 0.500000 0.750000
O O21 0.844541 0.395007 0.792420
O O22 0.775535 0.408278 0.000000
O O23 0.077391 0.500000 0.750000
O O24 0.085202 0.595376 0.000000
#
# Coordination Sequence:
#
# PCOD9393757 Si02
#       8
#     8   8   8   8   8   8   8   8
#     4  10  22  39  59  83 113 147 187 237 289 338
#     4   9  19  35  54  79 111 150 189 229 279 333
#     4  10  22  38  59  83 108 142 185 233 285 340
#     4  11  23  39  57  81 114 149 190 236 285 339
#     4  10  20  38  61  85 115 148 184 232 284 334
#     4   9  15  25  44  70 101 134 174 216 261 313
#     4  10  20  34  58  89 119 152 188 228 275 334
#     4  10  20  35  57  85 115 150 188 230 278 333
#
# _framework density 18.752811999999999
#
# number of rings (size 3 to 8) (size 9 to 14) (size 15 to 20)
#    0.000    2.125    1.250    2.250    0.000    4.750 
#    0.000    4.375    0.000    1.500    0.000    0.000 
#    0.000    0.000    0.000    0.000    0.000    0.000 
#
# Total GULP energy -357288.949388 kJ/mol
# GULP energy per Si atom -5582.639834 kJ/mol
# Density = 1.871013 g / cm^3
# Si number density = 18.752812 Si / 1000 Ang^3
#
#
#
# Elastic Constant Matrix: (Units=GPa)
#
#
# Indices 1 2 3 4 5 6 
#
# 1 96.9112 64.1307 33.1109 0.0000 0.0000 0.0000
# 2 64.1307 136.8653 36.6377 0.0000 0.0000 0.0000
# 3 33.1109 36.6377 32.5476 0.0000 0.0000 0.0000
# 4 0.0000 0.0000 0.0000 79.5277 0.0000 0.0000
# 5 0.0000 0.0000 0.0000 0.0000 19.8746 0.0000
# 6 0.0000 0.0000 0.0000 0.0000 0.0000 12.0229
#
#
#
# Elastic Compliance Matrix: (Units=1/GPa)
#
#
# Indices 1 2 3 4 5 6 
#
# 1 0.017959 -0.005044 -0.012591 0.000000 0.000000 0.000000
# 2 -0.005044 0.011875 -0.008235 0.000000 0.000000 0.000000
# 3 -0.012591 -0.008235 0.052804 0.000000 0.000000 0.000000
# 4 0.000000 0.000000 0.000000 0.012574 0.000000 0.000000
# 5 0.000000 0.000000 0.000000 0.000000 0.050315 0.000000
# 6 0.000000 0.000000 0.000000 0.000000 0.000000 0.083174
#
#
# Mechanical properties :
#
#
# Convention : Reuss Voigt Hill
#
# Bulk Modulus (GPa) = 32.36750 59.34252 45.85501
# Shear Modulus (GPa) = 17.19745 31.11470 24.15607
#
# Velocity S-wave (km/s) = 3.03158 4.07775 3.59295
# Velocity P-wave (km/s) = 5.43613 7.34057 6.45893
#
# Compressibility (1/GPa) = 0.03089519
#
# Stress axis : x y z
#
# Youngs Moduli (GPa) = 55.68313 84.21379 18.93813
#
# Poissons Ratio (x) = 0.42480 0.23846
# Poissons Ratio (y) = 0.28088 0.15596
# Poissons Ratio (z) = 0.70113 0.69351
#
# Static dielectric constant tensor:
#      x y z
#    x 1.650420 0.000000 0.000000 
#    y 0.000000 1.641420 0.000000 
#    z 0.000000 0.000000 1.627930 
# 
# From -- ./inp_files/6525.got.cif
#   From: 2010.05.17/outbox.cif.g08.bks.cpg/sg49_4_cif.got.tgz:6525.got - 2010.06.03 21:02:19.
