data_PCOD9393931
_publ_section_title
;
Structure prediction by ZEFSAII (Michael W. Deem and Ramdas Pophale) SiO2 
 PCOD9393931
Probable space group: P C C M
;
_chemical_formula_sum "Si O2"
_cell_formula_units_Z 26
_cell_length_a 7.843993
_cell_length_b 15.870499
_cell_length_c 9.334259
_cell_angle_alpha 90.000000
_cell_angle_beta 90.000000
_cell_angle_gamma 90.000000
_cell_volume 1162.004010
_symmetry_space_group_name_H-M "P C C M"
_symmetry_group_IT_number 49
_symmetry_cell_setting 'orthorhombic'
loop_
_space_group_symop_operation_xyz
x,y,z
-x,-y,z
x,-y,1/2-z
-x,y,1/2-z
-x,-y,-z
x,y,-z
-x,y,1/2+z
x,-y,1/2+z
loop_
_atom_site_type_symbol
_atom_site_label
_atom_site_fract_x
_atom_site_fract_y
_atom_site_fract_z
Si Si1 0.250390 0.132701 0.253657
Si Si2 0.500000 0.000000 0.750000
Si Si3 0.810591 0.749197 0.000000
Si Si4 0.000000 0.500000 0.750000
Si Si5 0.000000 0.000000 0.750000
Si Si6 0.406287 0.753257 0.000000
Si Si7 0.116360 0.384591 0.500000
O O1 0.162890 0.193731 0.140094
O O2 0.121600 0.066999 0.328726
O O3 0.351434 0.190578 0.364061
O O4 0.376603 0.066688 0.172863
O O5 0.606494 0.729888 0.000000
O O6 0.944646 0.673158 0.000000
O O7 0.108058 0.441703 0.642262
O O8 0.282578 0.673069 0.000000
#
# Coordination Sequence:
#
# PCOD9393931 Si02
#       7
#     8   2   4   2   2   4   4
#     4  11  23  37  58  86 127 171 220 265 316 354
#     4  10  20  36  52  84 124 170 204 272 292 348
#     4  12  23  42  65  96 124 169 214 261 315 385
#     4  10  24  48  70 102 128 162 192 258 338 388
#     4  10  24  38  56  84 120 178 224 272 318 356
#     4  12  23  42  65  96 124 169 214 261 315 385
#     4  11  24  44  72  95 132 160 204 259 320 402
#
# _framework density 22.375136999999999
#
# number of rings (size 3 to 8) (size 9 to 14) (size 15 to 20)
#    0.000    0.923    3.077    3.692    0.000    7.385 
#    0.000    4.615    0.000    0.000    0.000    0.000 
#    0.000    0.000    0.000    0.000    0.000    0.000 
#
# Total GULP energy -144992.373754 kJ/mol
# GULP energy per Si atom -5576.629760 kJ/mol
# Density = 2.232421 g / cm^3
# Si number density = 22.375137 Si / 1000 Ang^3
#
#
#
# Elastic Constant Matrix: (Units=GPa)
#
#
# Indices 1 2 3 4 5 6 
#
# 1 134.3488 82.4260 28.0224 0.0000 0.0000 0.0000
# 2 82.4260 154.5023 57.9599 0.0000 0.0000 0.0000
# 3 28.0224 57.9599 127.8183 0.0000 0.0000 0.0000
# 4 0.0000 0.0000 0.0000 51.8621 0.0000 0.0000
# 5 0.0000 0.0000 0.0000 0.0000 -82.4660 0.0000
# 6 0.0000 0.0000 0.0000 0.0000 0.0000 35.8444
#
#
#
# Elastic Compliance Matrix: (Units=1/GPa)
#
#
# Indices 1 2 3 4 5 6 
#
# 1 0.011075 -0.006022 0.000303 0.000000 0.000000 0.000000
# 2 -0.006022 0.011073 -0.003701 0.000000 0.000000 0.000000
# 3 0.000303 -0.003701 0.009436 0.000000 0.000000 0.000000
# 4 0.000000 0.000000 0.000000 0.019282 0.000000 0.000000
# 5 0.000000 0.000000 0.000000 0.000000 -0.012126 0.000000
# 6 0.000000 0.000000 0.000000 0.000000 0.000000 0.027898
#
#
# Mechanical properties :
#
#
# Convention : Reuss Voigt Hill
#
# Bulk Modulus (GPa) = 78.47369 83.72067 81.09718
# Shear Modulus (GPa) = 55.72519 17.59884 36.66201
#
# Velocity S-wave (km/s) = 4.99590 2.80757 4.05225
# Velocity P-wave (km/s) = 8.27204 6.92878 7.63003
#
# Compressibility (1/GPa) = 0.01274312
#
# Stress axis : x y z
#
# Youngs Moduli (GPa) = 90.29582 90.30618 105.98223
#
# Poissons Ratio (x) = 0.54381 -0.03208
# Poissons Ratio (y) = 0.54375 0.39225
# Poissons Ratio (z) = -0.02733 0.33423
#
# Static dielectric constant tensor:
#      x y z
#    x 1.961240 0.000000 0.000000 
#    y 0.000000 1.783680 0.000000 
#    z 0.000000 0.000000 1.837550 
# 
# From -- ./inp_files/7875.got.cif
#   From: 2010.05.17/outbox.cif.g08.bks.cpg/sg49_4_cif.got.tgz:7875.got - 2010.06.03 21:02:19.
