data_PCOD9393150
_publ_section_title
;
Structure prediction by ZEFSAII (Michael W. Deem and Ramdas Pophale) SiO2 
 PCOD9393150
Probable space group: P C C M
;
_chemical_formula_sum "Si O2"
_cell_formula_units_Z 64
_cell_length_a 20.052403
_cell_length_b 20.052403
_cell_length_c 9.270233
_cell_angle_alpha 90.000000
_cell_angle_beta 90.000000
_cell_angle_gamma 90.000000
_cell_volume 3727.550178
_symmetry_space_group_name_H-M "P C C M"
_symmetry_group_IT_number 49
_symmetry_cell_setting 'orthorhombic'
loop_
_space_group_symop_operation_xyz
x,y,z
-x,-y,z
x,-y,1/2-z
-x,y,1/2-z
-x,-y,-z
x,y,-z
-x,y,1/2+z
x,-y,1/2+z
loop_
_atom_site_type_symbol
_atom_site_label
_atom_site_fract_x
_atom_site_fract_y
_atom_site_fract_z
Si Si1 0.295821 0.795821 0.827947
Si Si2 0.432668 0.280994 0.672975
Si Si3 0.240806 0.565452 0.165966
Si Si4 0.197026 0.302974 0.171684
Si Si5 0.598079 0.433189 0.835035
Si Si6 0.219006 0.932668 0.827025
Si Si7 0.066811 0.901921 0.835035
Si Si8 0.934548 0.259194 0.834034
O O1 0.370999 0.769584 0.799852
O O2 0.250160 0.750160 0.728639
O O3 0.269584 0.870999 0.799852
O O4 0.283082 0.783082 0.000000
O O5 0.500000 0.258405 0.750000
O O6 0.440810 0.283351 0.500000
O O7 0.419522 0.358541 0.720474
O O8 0.218273 0.500000 0.250000
O O9 0.217848 0.627677 0.258236
O O10 0.321385 0.565543 0.162639
O O11 0.217944 0.568357 0.000000
O O12 0.127677 0.282152 0.241764
O O13 0.194494 0.305506 0.000000
O O14 0.576883 0.500000 0.750000
O O15 0.573879 0.438241 0.000000
O O16 0.141459 0.919522 0.779526
O O17 0.241595 0.000000 0.750000
O O18 0.216648 0.940810 0.000000
O O19 0.065543 0.821385 0.837361
O O20 0.000000 0.923117 0.750000
O O21 0.061759 0.926121 0.000000
O O22 0.000000 0.281727 0.750000
O O23 0.931643 0.282056 0.000000
#
# Coordination Sequence:
#
# PCOD9393150 Si02
#       8
#     8   8   8   8   8   8   8   8
#     4  10  20  40  60  77 108 147 183 224 280 333
#     4  10  21  37  57  80 108 145 183 225 278 330
#     4  10  19  34  53  77 110 146 185 229 279 329
#     4  12  22  32  54  85 110 143 188 234 279 325
#     4   9  18  32  51  75 108 148 182 217 263 317
#     4  10  21  37  57  80 108 145 183 225 278 330
#     4   9  18  32  51  75 108 148 182 217 263 317
#     4  10  19  34  53  77 110 146 185 229 279 329
#
# _framework density 17.169454999999999
#
# number of rings (size 3 to 8) (size 9 to 14) (size 15 to 20)
#    0.000    2.000    2.500    1.875    0.000    3.500 
#    0.000    2.500    0.000    0.750    0.000    5.250 
#    0.000    0.000    0.000    0.000    0.000    0.000 
#
# Total GULP energy -356788.495298 kJ/mol
# GULP energy per Si atom -5574.820239 kJ/mol
# Density = 1.713038 g / cm^3
# Si number density = 17.169455 Si / 1000 Ang^3
#
#
#
# Elastic Constant Matrix: (Units=GPa)
#
#
# Indices 1 2 3 4 5 6 
#
# 1 114.0174 56.9814 65.4201 0.0000 0.0000 0.0000
# 2 56.9814 114.0174 65.4201 0.0000 0.0000 0.0000
# 3 65.4201 65.4201 106.9369 0.0000 0.0000 0.0000
# 4 0.0000 0.0000 0.0000 49.0325 0.0000 0.0000
# 5 0.0000 0.0000 0.0000 0.0000 49.0325 0.0000
# 6 0.0000 0.0000 0.0000 0.0000 0.0000 14.7088
#
#
#
# Elastic Compliance Matrix: (Units=1/GPa)
#
#
# Indices 1 2 3 4 5 6 
#
# 1 0.014264 -0.003269 -0.006726 0.000000 0.000000 0.000000
# 2 -0.003269 0.014264 -0.006726 0.000000 0.000000 0.000000
# 3 -0.006726 -0.006726 0.017581 0.000000 0.000000 0.000000
# 4 0.000000 0.000000 0.000000 0.020395 0.000000 0.000000
# 5 0.000000 0.000000 0.000000 0.000000 0.020395 0.000000
# 6 0.000000 0.000000 0.000000 0.000000 0.000000 0.067987
#
#
# Mechanical properties :
#
#
# Convention : Reuss Voigt Hill
#
# Bulk Modulus (GPa) = 78.95385 78.95718 78.95551
# Shear Modulus (GPa) = 25.96758 32.36476 29.16617
#
# Velocity S-wave (km/s) = 3.89322 4.34639 4.12603
# Velocity P-wave (km/s) = 8.14214 8.44245 8.29365
#
# Compressibility (1/GPa) = 0.01266563
#
# Stress axis : x y z
#
# Youngs Moduli (GPa) = 70.10864 70.10863 56.88055
#
# Poissons Ratio (x) = 0.22920 0.38258
# Poissons Ratio (y) = 0.22920 0.38258
# Poissons Ratio (z) = 0.47155 0.47155
#
# Static dielectric constant tensor:
#      x y z
#    x 2.292850 0.000000 0.000000 
#    y 0.000000 2.292850 0.000000 
#    z 0.000000 0.000000 1.563010 
# 
# From -- ./inp_files/5306.got.cif
#   From: 2010.05.17/outbox.cif.g08.bks.cpg/sg49_3_cif.got.tgz:5306.got - 2010.06.03 21:02:19.
