data_PCOD9393023
_publ_section_title
;
Structure prediction by ZEFSAII (Michael W. Deem and Ramdas Pophale) SiO2 
 PCOD9393023
Probable space group: P C C M
;
_chemical_formula_sum "Si O2"
_cell_formula_units_Z 64
_cell_length_a 19.950113
_cell_length_b 19.677294
_cell_length_c 9.197372
_cell_angle_alpha 90.000000
_cell_angle_beta 90.000000
_cell_angle_gamma 90.000000
_cell_volume 3610.559338
_symmetry_space_group_name_H-M "P C C M"
_symmetry_group_IT_number 49
_symmetry_cell_setting 'orthorhombic'
loop_
_space_group_symop_operation_xyz
x,y,z
-x,-y,z
x,-y,1/2-z
-x,y,1/2-z
-x,-y,-z
x,y,-z
-x,y,1/2+z
x,-y,1/2+z
loop_
_atom_site_type_symbol
_atom_site_label
_atom_site_fract_x
_atom_site_fract_y
_atom_site_fract_z
Si Si1 0.695446 0.811341 0.166582
Si Si2 0.430934 0.285331 0.823589
Si Si3 0.777747 0.071004 0.823793
Si Si4 0.067457 0.901554 0.165251
Si Si5 0.065042 0.262425 0.664800
Si Si6 0.407429 0.568922 0.833272
Si Si7 0.246695 0.565299 0.836664
Si Si8 0.804986 0.692933 0.164798
O O1 0.628870 0.768463 0.211125
O O2 0.726909 0.870978 0.265348
O O3 0.753324 0.754822 0.162769
O O4 0.684934 0.836163 0.000000
O O5 0.500000 0.261080 0.750000
O O6 0.419977 0.361106 0.755401
O O7 0.434672 0.290459 0.000000
O O8 0.856812 0.082677 0.779965
O O9 0.758173 0.000000 0.750000
O O10 0.775998 0.069385 0.000000
O O11 0.064286 0.819625 0.161688
O O12 0.000000 0.923429 0.250000
O O13 0.063261 0.927644 0.000000
O O14 0.065821 0.286938 0.500000
O O15 0.129844 0.284850 0.750200
O O16 0.000000 0.286205 0.750000
O O17 0.429151 0.500000 0.750000
O O18 0.327156 0.562343 0.844532
O O19 0.434092 0.573168 0.000000
O O20 0.222027 0.500000 0.750000
O O21 0.228473 0.631367 0.747891
O O22 0.220067 0.567608 0.000000
O O23 0.820939 0.673834 0.000000
#
# Coordination Sequence:
#
# PCOD9393023 Si02
#       8
#     8   8   8   8   8   8   8   8
#     4  10  22  39  60  85 114 146 186 233 279 332
#     4  11  23  40  60  86 117 151 190 233 284 339
#     4  11  23  39  59  85 116 151 191 233 283 336
#     4   9  19  33  51  77 112 152 189 228 270 325
#     4  10  19  33  51  78 111 146 189 233 284 335
#     4  10  20  34  54  81 116 156 194 233 278 331
#     4  10  20  33  52  79 112 148 188 234 283 335
#     4  11  20  33  56  83 110 146 188 236 286 332
#
# _framework density 17.725784000000001
#
# number of rings (size 3 to 8) (size 9 to 14) (size 15 to 20)
#    0.000    1.750    2.500    2.250    0.000    4.500 
#    0.000    2.500    0.000    0.750    0.000    5.250 
#    0.000    0.000    0.000    0.000    0.000    0.000 
#
# Total GULP energy -356922.630469 kJ/mol
# GULP energy per Si atom -5576.916101 kJ/mol
# Density = 1.768544 g / cm^3
# Si number density = 17.725784 Si / 1000 Ang^3
#
#
#
# Elastic Constant Matrix: (Units=GPa)
#
#
# Indices 1 2 3 4 5 6 
#
# 1 112.1450 41.6180 56.9829 0.0000 0.0000 0.0000
# 2 41.6180 92.3214 60.2723 0.0000 0.0000 0.0000
# 3 56.9829 60.2723 140.6330 0.0000 0.0000 0.0000
# 4 0.0000 0.0000 0.0000 -40.9311 0.0000 0.0000
# 5 0.0000 0.0000 0.0000 0.0000 1.6594 0.0000
# 6 0.0000 0.0000 0.0000 0.0000 0.0000 15.7783
#
#
#
# Elastic Compliance Matrix: (Units=1/GPa)
#
#
# Indices 1 2 3 4 5 6 
#
# 1 0.011819 -0.003057 -0.003479 0.000000 0.000000 0.000000
# 2 -0.003057 0.015830 -0.005546 0.000000 0.000000 0.000000
# 3 -0.003479 -0.005546 0.010897 0.000000 0.000000 0.000000
# 4 0.000000 0.000000 0.000000 -0.024431 0.000000 0.000000
# 5 0.000000 0.000000 0.000000 0.000000 0.602644 0.000000
# 6 0.000000 0.000000 0.000000 0.000000 0.000000 0.063378
#
#
# Mechanical properties :
#
#
# Convention : Reuss Voigt Hill
#
# Bulk Modulus (GPa) = 69.52468 73.64952 71.58710
# Shear Modulus (GPa) = 7.05123 7.71641 7.38382
#
# Velocity S-wave (km/s) = 1.99664 2.08870 2.04319
# Velocity P-wave (km/s) = 6.68004 6.88886 6.78526
#
# Compressibility (1/GPa) = 0.01438338
#
# Stress axis : x y z
#
# Youngs Moduli (GPa) = 84.60868 63.16947 91.76652
#
# Poissons Ratio (x) = 0.19310 0.31925
# Poissons Ratio (y) = 0.25863 0.50894
# Poissons Ratio (z) = 0.29435 0.35034
#
# Static dielectric constant tensor:
#      x y z
#    x 1.595670 0.000000 0.000000 
#    y 0.000000 1.573330 0.000000 
#    z 0.000000 0.000000 1.620820 
# 
# From -- ./inp_files/5252.got.cif
#   From: 2010.05.17/outbox.cif.g08.bks.cpg/sg49_3_cif.got.tgz:5252.got - 2010.06.03 21:02:19.
