data_PCOD9393655
_publ_section_title
;
Structure prediction by ZEFSAII (Michael W. Deem and Ramdas Pophale) SiO2 
 PCOD9393655
Probable space group: P C C M
;
_chemical_formula_sum "Si O2"
_cell_formula_units_Z 64
_cell_length_a 16.418083
_cell_length_b 11.898979
_cell_length_c 14.895939
_cell_angle_alpha 90.000000
_cell_angle_beta 90.000000
_cell_angle_gamma 90.000000
_cell_volume 2910.047180
_symmetry_space_group_name_H-M "P C C M"
_symmetry_group_IT_number 49
_symmetry_cell_setting 'orthorhombic'
loop_
_space_group_symop_operation_xyz
x,y,z
-x,-y,z
x,-y,1/2-z
-x,y,1/2-z
-x,-y,-z
x,y,-z
-x,y,1/2+z
x,-y,1/2+z
loop_
_atom_site_type_symbol
_atom_site_label
_atom_site_fract_x
_atom_site_fract_y
_atom_site_fract_z
Si Si1 0.192053 0.109088 0.719184
Si Si2 0.927042 0.206039 0.900448
Si Si3 0.422646 0.835020 0.105050
Si Si4 0.880933 0.824814 0.096095
Si Si5 0.612370 0.093033 0.603560
Si Si6 0.770124 0.601402 0.099477
Si Si7 0.322518 0.730130 0.744242
Si Si8 0.914472 0.547223 0.650348
O O1 0.127601 0.107676 0.639414
O O2 0.142044 0.123483 0.810116
O O3 0.246335 0.218051 0.702658
O O4 0.241697 0.000000 0.750000
O O5 0.919251 0.319493 0.844264
O O6 0.022094 0.180632 0.904311
O O7 0.898440 0.233967 0.000000
O O8 0.518640 0.864215 0.111096
O O9 0.393532 0.744637 0.180212
O O10 0.383882 0.959248 0.122795
O O11 0.405537 0.804518 0.000000
O O12 0.835147 0.704320 0.099746
O O13 0.854928 0.876566 0.000000
O O14 0.637932 0.107004 0.500000
O O15 0.659930 0.176590 0.667738
O O16 0.708448 0.624521 0.183526
O O17 0.829891 0.494698 0.107816
O O18 0.730082 0.601004 0.000000
O O19 0.912020 0.500000 0.750000
O O20 0.000000 0.500000 0.608739
#
# Coordination Sequence:
#
# PCOD9393655 Si02
#       8
#     8   8   8   8   8   8   8   8
#     4  11  24  37  51  75 112 151 187 232 288 351
#     4  11  23  38  57  80 106 142 192 243 292 355
#     4   9  18  31  51  79 112 152 203 247 290 347
#     4   9  19  35  54  73  97 133 186 237 284 341
#     4   9  17  31  52  80 110 150 202 251 290 346
#     4  10  20  34  52  80 110 141 184 238 296 356
#     4  11  20  33  51  74 112 155 194 232 287 352
#     4  11  21  34  61  86 109 141 184 243 314 366
#
# _framework density 21.992771999999999
#
# number of rings (size 3 to 8) (size 9 to 14) (size 15 to 20)
#    0.000    1.875    1.250    4.875    1.750    4.000 
#    0.000    1.250    0.000    0.000    0.000    0.000 
#    0.000   18.000    0.000   49.750    0.000    2.250 
#
# Total GULP energy -356672.365656 kJ/mol
# GULP energy per Si atom -5573.005713 kJ/mol
# Density = 2.194272 g / cm^3
# Si number density = 21.992772 Si / 1000 Ang^3
#
#
#
# Elastic Constant Matrix: (Units=GPa)
#
#
# Indices 1 2 3 4 5 6 
#
# 1 52.3037 5.7297 24.1533 0.0000 0.0000 0.0000
# 2 5.7297 18.9182 -5.6877 0.0000 0.0000 0.0000
# 3 24.1533 -5.6877 78.0733 0.0000 0.0000 0.0000
# 4 0.0000 0.0000 0.0000 14.0910 0.0000 0.0000
# 5 0.0000 0.0000 0.0000 0.0000 27.8741 0.0000
# 6 0.0000 0.0000 0.0000 0.0000 0.0000 9.9336
#
#
#
# Elastic Compliance Matrix: (Units=1/GPa)
#
#
# Indices 1 2 3 4 5 6 
#
# 1 0.023923 -0.009683 -0.008106 0.000000 0.000000 0.000000
# 2 -0.009683 0.057962 0.007218 0.000000 0.000000 0.000000
# 3 -0.008106 0.007218 0.015842 0.000000 0.000000 0.000000
# 4 0.000000 0.000000 0.000000 0.070967 0.000000 0.000000
# 5 0.000000 0.000000 0.000000 0.000000 0.035876 0.000000
# 6 0.000000 0.000000 0.000000 0.000000 0.000000 0.100669
#
#
# Mechanical properties :
#
#
# Convention : Reuss Voigt Hill
#
# Bulk Modulus (GPa) = 13.05737 21.96508 17.51123
# Shear Modulus (GPa) = 14.20820 18.71973 16.46396
#
# Velocity S-wave (km/s) = 2.54449 2.92066 2.73904
# Velocity P-wave (km/s) = 3.81871 4.62415 4.24060
#
# Compressibility (1/GPa) = 0.07658508
#
# Stress axis : x y z
#
# Youngs Moduli (GPa) = 41.80022 17.25273 63.12251
#
# Poissons Ratio (x) = 0.16705 0.51170
# Poissons Ratio (y) = 0.40474 -0.45562
# Poissons Ratio (z) = 0.33885 -0.12453
#
# Static dielectric constant tensor:
#      x y z
#    x 1.872540 0.000000 0.000000 
#    y 0.000000 1.903070 0.000000 
#    z 0.000000 0.000000 1.827620 
# 
# From -- ./inp_files/14173.got.cif
#   From: 2010.05.17/outbox.cif.g08.bks.cpg/sg49_8_cif.got.tgz:14173.got - 2010.06.03 21:02:19.
