data_PCOD9393662
_publ_section_title
;
Structure prediction by ZEFSAII (Michael W. Deem and Ramdas Pophale) SiO2 
 PCOD9393662
Probable space group: P C C M
;
_chemical_formula_sum "Si O2"
_cell_formula_units_Z 58
_cell_length_a 26.448495
_cell_length_b 14.792192
_cell_length_c 8.935749
_cell_angle_alpha 90.000000
_cell_angle_beta 90.000000
_cell_angle_gamma 90.000000
_cell_volume 3495.943948
_symmetry_space_group_name_H-M "P C C M"
_symmetry_group_IT_number 49
_symmetry_cell_setting 'orthorhombic'
loop_
_space_group_symop_operation_xyz
x,y,z
-x,-y,z
x,-y,1/2-z
-x,y,1/2-z
-x,-y,-z
x,y,-z
-x,y,1/2+z
x,-y,1/2+z
loop_
_atom_site_type_symbol
_atom_site_label
_atom_site_fract_x
_atom_site_fract_y
_atom_site_fract_z
Si Si1 0.555601 0.596267 0.819402
Si Si2 0.259762 0.599045 0.179284
Si Si3 0.835422 0.723557 0.678672
Si Si4 0.359123 0.281325 0.680039
Si Si5 0.797815 0.904792 0.822981
Si Si6 0.676931 0.096464 0.321574
Si Si7 0.900615 0.588248 0.167803
Si Si8 0.000000 0.500000 0.250000
O O1 0.572904 0.500000 0.750000
O O2 0.500000 0.611912 0.750000
O O3 0.593742 0.672367 0.761988
O O4 0.553541 0.591240 0.000000
O O5 0.261137 0.500000 0.250000
O O6 0.210902 0.657618 0.225643
O O7 0.309734 0.657443 0.214951
O O8 0.257637 0.589133 0.000000
O O9 0.835478 0.729448 0.500000
O O10 0.825941 0.820896 0.748853
O O11 0.885689 0.675240 0.738372
O O12 0.365771 0.280574 0.500000
O O13 0.349437 0.180809 0.741375
O O14 0.737456 0.892978 0.797681
O O15 0.812433 0.000000 0.750000
O O16 0.806435 0.906865 0.000000
O O17 0.667693 0.096722 0.500000
O O18 0.662424 0.000000 0.250000
O O19 0.877790 0.500000 0.250000
O O20 0.960268 0.564324 0.165501
O O21 0.881419 0.596123 0.000000
#
# Coordination Sequence:
#
# PCOD9393662 Si02
#       8
#     8   8   8   8   8   8   8   2
#     4  11  22  38  58  82 108 140 181 226 274 325
#     4  10  22  34  47  70 105 144 179 214 259 317
#     4  11  21  34  51  76 108 146 183 221 270 323
#     4  11  21  36  55  78 107 143 182 225 270 323
#     4  10  20  34  53  76 106 143 184 228 272 322
#     4  10  20  34  54  79 106 142 182 226 271 323
#     4  10  20  34  53  77 106 141 182 226 271 317
#     4   8  22  36  58  76 108 144 190 236 272 320
#
# _framework density 16.590655999999999
#
# number of rings (size 3 to 8) (size 9 to 14) (size 15 to 20)
#    0.414    1.241    1.379    4.759    0.000    5.517 
#    0.000    0.000    0.000    0.414    0.000    3.379 
#    0.000    3.310    0.000    0.000    0.000    0.000 
#
# Total GULP energy -323618.172405 kJ/mol
# GULP energy per Si atom -5579.623662 kJ/mol
# Density = 1.655289 g / cm^3
# Si number density = 16.590656 Si / 1000 Ang^3
#
#
#
# Elastic Constant Matrix: (Units=GPa)
#
#
# Indices 1 2 3 4 5 6 
#
# 1 57.4314 55.4227 39.3329 0.0000 0.0000 0.0000
# 2 55.4227 164.7213 69.6747 0.0000 0.0000 0.0000
# 3 39.3329 69.6747 103.1074 0.0000 0.0000 0.0000
# 4 0.0000 0.0000 0.0000 35.0252 0.0000 0.0000
# 5 0.0000 0.0000 0.0000 0.0000 20.2082 0.0000
# 6 0.0000 0.0000 0.0000 0.0000 0.0000 357.1763
#
#
#
# Elastic Compliance Matrix: (Units=1/GPa)
#
#
# Indices 1 2 3 4 5 6 
#
# 1 0.028285 -0.006935 -0.006104 0.000000 0.000000 0.000000
# 2 -0.006935 0.010201 -0.004248 0.000000 0.000000 0.000000
# 3 -0.006104 -0.004248 0.014897 0.000000 0.000000 0.000000
# 4 0.000000 0.000000 0.000000 0.028551 0.000000 0.000000
# 5 0.000000 0.000000 0.000000 0.000000 0.049485 0.000000
# 6 0.000000 0.000000 0.000000 0.000000 0.000000 0.002800
#
#
# Mechanical properties :
#
#
# Convention : Reuss Voigt Hill
#
# Bulk Modulus (GPa) = 53.16223 72.68007 62.92115
# Shear Modulus (GPa) = 28.56141 93.20394 60.88267
#
# Velocity S-wave (km/s) = 4.15364 7.50337 6.06437
# Velocity P-wave (km/s) = 7.42406 10.90735 9.32971
#
# Compressibility (1/GPa) = 0.01881035
#
# Stress axis : x y z
#
# Youngs Moduli (GPa) = 35.35483 98.02970 67.12585
#
# Poissons Ratio (x) = 0.67984 0.40971
# Poissons Ratio (y) = 0.24519 0.28513
# Poissons Ratio (z) = 0.21579 0.41641
#
# Static dielectric constant tensor:
#      x y z
#    x 1.565110 0.000000 0.000000 
#    y 0.000000 1.525200 0.000000 
#    z 0.000000 0.000000 1.565200 
# 
# From -- ./inp_files/6755.got.cif
#   From: 2010.05.17/outbox.cif.g08.bks.cpg/sg49_4_cif.got.tgz:6755.got - 2010.06.03 21:02:19.
