data_PCOD9393338
_publ_section_title
;
Structure prediction by ZEFSAII (Michael W. Deem and Ramdas Pophale) SiO2 
 PCOD9393338
Probable space group: P C C M
;
_chemical_formula_sum "Si O2"
_cell_formula_units_Z 64
_cell_length_a 9.336336
_cell_length_b 21.119647
_cell_length_c 15.158836
_cell_angle_alpha 90.000000
_cell_angle_beta 90.000000
_cell_angle_gamma 90.000000
_cell_volume 2989.021111
_symmetry_space_group_name_H-M "P C C M"
_symmetry_group_IT_number 49
_symmetry_cell_setting 'orthorhombic'
loop_
_space_group_symop_operation_xyz
x,y,z
-x,-y,z
x,-y,1/2-z
-x,y,1/2-z
-x,-y,-z
x,y,-z
-x,y,1/2+z
x,-y,1/2+z
loop_
_atom_site_type_symbol
_atom_site_label
_atom_site_fract_x
_atom_site_fract_y
_atom_site_fract_z
Si Si1 0.676995 0.093245 0.604492
Si Si2 0.368423 0.125908 0.397976
Si Si3 0.629908 0.745174 0.681678
Si Si4 0.855538 0.968351 0.604470
Si Si5 0.661352 0.608648 0.725033
Si Si6 0.092661 0.665521 0.660275
Si Si7 0.132677 0.799501 0.691955
Si Si8 0.105741 0.443379 0.399608
O O1 0.671086 0.106909 0.500000
O O2 0.516941 0.100658 0.641590
O O3 0.784966 0.143848 0.645748
O O4 0.737002 0.022939 0.613481
O O5 0.366973 0.106196 0.500000
O O6 0.378756 0.201608 0.392149
O O7 0.223978 0.094328 0.359330
O O8 0.500000 0.752361 0.750000
O O9 0.641085 0.671165 0.662809
O O10 0.765968 0.766096 0.737061
O O11 0.888697 0.956227 0.500000
O O12 0.000000 0.000000 0.642022
O O13 0.500000 0.587577 0.750000
O O14 0.755193 0.634003 0.809540
O O15 0.763983 0.562956 0.669233
O O16 0.101673 0.738539 0.628875
O O17 0.000000 0.669213 0.750000
O O18 0.995955 0.618752 0.602908
O O19 0.000000 0.821871 0.750000
O O20 0.155895 0.453947 0.500000
O O21 0.000000 0.500000 0.373173
#
# Coordination Sequence:
#
# PCOD9393338 Si02
#       8
#     8   8   8   8   8   8   8   8
#     4  10  20  35  55  78 104 145 196 238 290 361
#     4  10  20  35  57  81 106 149 197 236 293 363
#     4  10  19  36  57  82 118 150 183 239 303 353
#     4   9  19  35  53  75 106 141 186 245 296 349
#     4   9  19  36  62  91 121 159 203 245 293 357
#     4   8  17  35  56  83 114 160 207 236 287 363
#     4  10  20  34  54  81 114 148 187 244 299 344
#     4  10  21  39  62  90 128 166 201 248 299 346
#
# _framework density 21.411691999999999
#
# number of rings (size 3 to 8) (size 9 to 14) (size 15 to 20)
#    0.000    2.500    1.250    1.125    1.750    4.750 
#    0.000    2.500    0.000    1.500    0.000    0.000 
#    0.000    0.000    0.000    0.000    0.000    0.000 
#
# Total GULP energy -356754.225945 kJ/mol
# GULP energy per Si atom -5574.284780 kJ/mol
# Density = 2.136296 g / cm^3
# Si number density = 21.411692 Si / 1000 Ang^3
#
#
#
# Elastic Constant Matrix: (Units=GPa)
#
#
# Indices 1 2 3 4 5 6 
#
# 1 135.9577 39.4236 29.9343 0.0000 0.0000 0.0000
# 2 39.4236 72.3207 27.2957 0.0000 0.0000 0.0000
# 3 29.9343 27.2957 41.4778 0.0000 0.0000 0.0000
# 4 0.0000 0.0000 0.0000 26.2816 0.0000 0.0000
# 5 0.0000 0.0000 0.0000 0.0000 17.3948 0.0000
# 6 0.0000 0.0000 0.0000 0.0000 0.0000 38.2115
#
#
#
# Elastic Compliance Matrix: (Units=1/GPa)
#
#
# Indices 1 2 3 4 5 6 
#
# 1 0.009329 -0.003385 -0.004505 0.000000 0.000000 0.000000
# 2 -0.003385 0.019625 -0.010472 0.000000 0.000000 0.000000
# 3 -0.004505 -0.010472 0.034252 0.000000 0.000000 0.000000
# 4 0.000000 0.000000 0.000000 0.038049 0.000000 0.000000
# 5 0.000000 0.000000 0.000000 0.000000 0.057489 0.000000
# 6 0.000000 0.000000 0.000000 0.000000 0.000000 0.026170
#
#
# Mechanical properties :
#
#
# Convention : Reuss Voigt Hill
#
# Bulk Modulus (GPa) = 37.76159 49.22924 43.49541
# Shear Modulus (GPa) = 21.69540 26.58443 24.13991
#
# Velocity S-wave (km/s) = 3.18661 3.52744 3.36135
# Velocity P-wave (km/s) = 5.58691 6.29540 5.95171
#
# Compressibility (1/GPa) = 0.02648194
#
# Stress axis : x y z
#
# Youngs Moduli (GPa) = 107.19701 50.95576 29.19571
#
# Poissons Ratio (x) = 0.17249 0.13152
# Poissons Ratio (y) = 0.36286 0.30573
# Poissons Ratio (z) = 0.48290 0.53360
#
# Static dielectric constant tensor:
#      x y z
#    x 1.762600 0.000000 0.000000 
#    y 0.000000 1.871650 0.000000 
#    z 0.000000 0.000000 1.771800 
# 
# From -- ./inp_files/16545.got.cif
#   From: 2010.05.17/outbox.cif.g08.bks.cpg/sg49_9_cif.got.tgz:16545.got - 2010.06.03 21:02:19.
