data_PCOD9393053
_publ_section_title
;
Structure prediction by ZEFSAII (Michael W. Deem and Ramdas Pophale) SiO2 
 PCOD9393053
Probable space group: P C C M
;
_chemical_formula_sum "Si O2"
_cell_formula_units_Z 64
_cell_length_a 12.431305
_cell_length_b 16.688673
_cell_length_c 16.109393
_cell_angle_alpha 90.000000
_cell_angle_beta 90.000000
_cell_angle_gamma 90.000000
_cell_volume 3342.086635
_symmetry_space_group_name_H-M "P C C M"
_symmetry_group_IT_number 49
_symmetry_cell_setting 'orthorhombic'
loop_
_space_group_symop_operation_xyz
x,y,z
-x,-y,z
x,-y,1/2-z
-x,y,1/2-z
-x,-y,-z
x,y,-z
-x,y,1/2+z
x,-y,1/2+z
loop_
_atom_site_type_symbol
_atom_site_label
_atom_site_fract_x
_atom_site_fract_y
_atom_site_fract_z
Si Si1 0.879412 0.517000 0.596829
Si Si2 0.051307 0.767819 0.403051
Si Si3 0.229292 0.888413 0.404800
Si Si4 0.608682 0.755739 0.854607
Si Si5 0.620468 0.028279 0.898982
Si Si6 0.788039 0.361670 0.343252
Si Si7 0.162673 0.307424 0.344150
Si Si8 0.629103 0.209581 0.157891
O O1 0.875992 0.495602 0.500000
O O2 0.802145 0.455526 0.643893
O O3 0.854166 0.610039 0.607043
O O4 0.000000 0.500000 0.628556
O O5 0.025837 0.782208 0.500000
O O6 0.125044 0.841542 0.369533
O O7 0.126833 0.688879 0.397867
O O8 0.942592 0.747451 0.354795
O O9 0.201126 0.907338 0.500000
O O10 0.323622 0.821984 0.403670
O O11 0.286835 0.966982 0.368408
O O12 0.670148 0.671913 0.863898
O O13 0.484025 0.757614 0.876584
O O14 0.621435 0.780787 0.757741
O O15 0.638605 0.117072 0.865946
O O16 0.500000 0.000000 0.874303
O O17 0.622746 0.028154 0.000000
O O18 0.818713 0.334862 0.250442
O O19 0.267955 0.259084 0.371440
#
# Coordination Sequence:
#
# PCOD9393053 Si02
#       8
#     8   8   8   8   8   8   8   8
#     4  11  22  36  56  84 111 140 184 228 269 324
#     4  10  19  33  53  78 110 146 181 225 275 326
#     4   9  18  33  53  78 108 142 186 229 269 325
#     4   9  19  36  55  81 108 143 185 221 277 332
#     4  10  19  33  54  81 110 143 188 234 273 322
#     4  10  20  35  58  80 107 144 184 225 269 327
#     4  11  22  35  55  83 113 144 181 228 280 331
#     4  10  21  36  54  81 115 144 181 232 279 325
#
# _framework density 19.149713999999999
#
# number of rings (size 3 to 8) (size 9 to 14) (size 15 to 20)
#    0.000    2.000    2.500    1.500    0.000    2.500 
#    0.000    1.250    0.000    6.000    0.000    5.250 
#    0.000    0.000    0.000    0.000    0.000    0.000 
#
# Total GULP energy -357084.943721 kJ/mol
# GULP energy per Si atom -5579.452246 kJ/mol
# Density = 1.910613 g / cm^3
# Si number density = 19.149714 Si / 1000 Ang^3
#
#
#
# Elastic Constant Matrix: (Units=GPa)
#
#
# Indices 1 2 3 4 5 6 
#
# 1 148.4935 89.6015 12.9984 0.0000 0.0000 0.0000
# 2 89.6015 133.3340 9.7119 0.0000 0.0000 0.0000
# 3 12.9984 9.7119 18.8100 0.0000 0.0000 0.0000
# 4 0.0000 0.0000 0.0000 38.2955 0.0000 0.0000
# 5 0.0000 0.0000 0.0000 0.0000 8.5069 0.0000
# 6 0.0000 0.0000 0.0000 0.0000 0.0000 33.4796
#
#
#
# Elastic Compliance Matrix: (Units=1/GPa)
#
#
# Indices 1 2 3 4 5 6 
#
# 1 0.011632 -0.007514 -0.004159 0.000000 0.000000 0.000000
# 2 -0.007514 0.012647 -0.001337 0.000000 0.000000 0.000000
# 3 -0.004159 -0.001337 0.056728 0.000000 0.000000 0.000000
# 4 0.000000 0.000000 0.000000 0.026113 0.000000 0.000000
# 5 0.000000 0.000000 0.000000 0.000000 0.117552 0.000000
# 6 0.000000 0.000000 0.000000 0.000000 0.000000 0.029869
#
#
# Mechanical properties :
#
#
# Convention : Reuss Voigt Hill
#
# Bulk Modulus (GPa) = 18.18624 58.36234 38.27429
# Shear Modulus (GPa) = 16.72857 28.61144 22.67001
#
# Velocity S-wave (km/s) = 2.95882 3.86954 3.44442
# Velocity P-wave (km/s) = 4.60330 7.10686 5.98740
#
# Compressibility (1/GPa) = 0.05498662
#
# Stress axis : x y z
#
# Youngs Moduli (GPa) = 85.96680 79.07056 17.62810
#
# Poissons Ratio (x) = 0.59415 0.07331
# Poissons Ratio (y) = 0.64597 0.02357
# Poissons Ratio (z) = 0.35751 0.10574
#
# Static dielectric constant tensor:
#      x y z
#    x 1.671990 0.000000 0.000000 
#    y 0.000000 1.653820 0.000000 
#    z 0.000000 0.000000 1.716430 
# 
# From -- ./inp_files/17291.got.cif
#   From: 2010.05.17/outbox.cif.g08.bks.cpg/sg49_9_cif.got.tgz:17291.got - 2010.06.03 21:02:19.
