data_PCOD9393749
_publ_section_title
;
Structure prediction by ZEFSAII (Michael W. Deem and Ramdas Pophale) SiO2 
 PCOD9393749
Probable space group: P C C M
;
_chemical_formula_sum "Si O2"
_cell_formula_units_Z 48
_cell_length_a 17.047370
_cell_length_b 9.589863
_cell_length_c 13.470533
_cell_angle_alpha 90.000000
_cell_angle_beta 90.000000
_cell_angle_gamma 90.000000
_cell_volume 2202.188906
_symmetry_space_group_name_H-M "P C C M"
_symmetry_group_IT_number 49
_symmetry_cell_setting 'orthorhombic'
loop_
_space_group_symop_operation_xyz
x,y,z
-x,-y,z
x,-y,1/2-z
-x,y,1/2-z
-x,-y,-z
x,y,-z
-x,y,1/2+z
x,-y,1/2+z
loop_
_atom_site_type_symbol
_atom_site_label
_atom_site_fract_x
_atom_site_fract_y
_atom_site_fract_z
Si Si1 0.752042 0.055058 0.383813
Si Si2 0.071679 0.101934 0.119983
Si Si3 0.208532 0.270381 0.383860
Si Si4 0.670955 0.302726 0.725864
Si Si5 0.029673 0.348949 0.380405
Si Si6 0.410594 0.550496 0.886486
O O1 0.745109 0.094114 0.500000
O O2 0.839925 0.086273 0.344745
O O3 0.691209 0.153844 0.324505
O O4 0.754584 0.886406 0.381039
O O5 0.039439 0.248771 0.152703
O O6 0.078278 0.089246 0.000000
O O7 0.000000 0.000000 0.145767
O O8 0.218039 0.317554 0.500000
O O9 0.254098 0.343279 0.293951
O O10 0.116318 0.288356 0.360920
O O11 0.604352 0.321934 0.810810
O O12 0.644135 0.419240 0.646215
O O13 0.027318 0.345545 0.500000
O O14 0.000000 0.500000 0.351292
O O15 0.500000 0.500000 0.878395
O O16 0.394965 0.589957 0.000000
#
# Coordination Sequence:
#
# PCOD9393749 Si02
#       6
#     8   8   8   8   8   8
#     4  10  20  34  57  88 125 172 222 270 324 384
#     4   9  15  29  52  74 110 172 232 274 325 382
#     4  10  20  35  55  84 127 172 212 264 329 384
#     4  11  21  36  62  96 128 157 203 262 317 389
#     4   9  17  29  49  78 113 162 224 282 331 374
#     4  10  23  45  71  96 124 160 198 248 328 417
#
# _framework density 21.796495
#
# number of rings (size 3 to 8) (size 9 to 14) (size 15 to 20)
#    0.000    2.167    1.667    2.500    0.000    2.667 
#    0.000    5.833    0.000    9.000    0.000   18.667 
#    0.000    0.667    0.000    0.000    0.000    0.000 
#
# Total GULP energy -267439.171620 kJ/mol
# GULP energy per Si atom -5571.649409 kJ/mol
# Density = 2.174689 g / cm^3
# Si number density = 21.796495 Si / 1000 Ang^3
#
#
#
# Elastic Constant Matrix: (Units=GPa)
#
#
# Indices 1 2 3 4 5 6 
#
# 1 89.9997 36.3260 35.0561 0.0000 0.0000 0.0000
# 2 36.3260 109.5694 23.1022 0.0000 0.0000 0.0000
# 3 35.0561 23.1022 151.1577 0.0000 0.0000 0.0000
# 4 0.0000 0.0000 0.0000 -42.8486 0.0000 0.0000
# 5 0.0000 0.0000 0.0000 0.0000 60.6442 0.0000
# 6 0.0000 0.0000 0.0000 0.0000 0.0000 43.6201
#
#
#
# Elastic Compliance Matrix: (Units=1/GPa)
#
#
# Indices 1 2 3 4 5 6 
#
# 1 0.013731 -0.004010 -0.002572 0.000000 0.000000 0.000000
# 2 -0.004010 0.010602 -0.000690 0.000000 0.000000 0.000000
# 3 -0.002572 -0.000690 0.007318 0.000000 0.000000 0.000000
# 4 0.000000 0.000000 0.000000 -0.023338 0.000000 0.000000
# 5 0.000000 0.000000 0.000000 0.000000 0.016490 0.000000
# 6 0.000000 0.000000 0.000000 0.000000 0.000000 0.022925
#
#
# Mechanical properties :
#
#
# Convention : Reuss Voigt Hill
#
# Bulk Modulus (GPa) = 58.45777 59.96616 59.21196
# Shear Modulus (GPa) = 73.55752 29.36596 51.46174
#
# Velocity S-wave (km/s) = 5.81555 3.67451 4.86429
# Velocity P-wave (km/s) = 8.48365 6.75087 7.66637
#
# Compressibility (1/GPa) = 0.01710637
#
# Stress axis : x y z
#
# Youngs Moduli (GPa) = 72.82542 94.32441 136.65836
#
# Poissons Ratio (x) = 0.37826 0.35144
# Poissons Ratio (y) = 0.29205 0.09433
# Poissons Ratio (z) = 0.18728 0.06511
#
# Static dielectric constant tensor:
#      x y z
#    x 1.780370 0.000000 0.000000 
#    y 0.000000 1.773440 0.000000 
#    z 0.000000 0.000000 1.884780 
# 
# From -- ./inp_files/14002.got.cif
#   From: 2010.05.17/outbox.cif.g08.bks.cpg/sg49_8_cif.got.tgz:14002.got - 2010.06.03 21:02:19.
