data_PCOD9393722
_publ_section_title
;
Structure prediction by ZEFSAII (Michael W. Deem and Ramdas Pophale) SiO2 
 PCOD9393722
Probable space group: P C C M
;
_chemical_formula_sum "Si O2"
_cell_formula_units_Z 64
_cell_length_a 12.594082
_cell_length_b 10.963045
_cell_length_c 24.043320
_cell_angle_alpha 90.000000
_cell_angle_beta 90.000000
_cell_angle_gamma 90.000000
_cell_volume 3319.648875
_symmetry_space_group_name_H-M "P C C M"
_symmetry_group_IT_number 49
_symmetry_cell_setting 'orthorhombic'
loop_
_space_group_symop_operation_xyz
x,y,z
-x,-y,z
x,-y,1/2-z
-x,y,1/2-z
-x,-y,-z
x,y,-z
-x,y,1/2+z
x,-y,1/2+z
loop_
_atom_site_type_symbol
_atom_site_label
_atom_site_fract_x
_atom_site_fract_y
_atom_site_fract_z
Si Si1 0.055038 0.317856 0.564882
Si Si2 0.716629 0.297091 0.334456
Si Si3 0.167184 0.187538 0.064651
Si Si4 0.425626 0.888141 0.066977
Si Si5 0.513725 0.636643 0.376598
Si Si6 0.815929 0.084729 0.066505
Si Si7 0.882081 0.480572 0.163000
Si Si8 0.308769 0.630703 0.779858
O O1 0.077042 0.340593 0.500000
O O2 0.116985 0.198655 0.586692
O O3 0.096260 0.428713 0.601562
O O4 0.931637 0.279875 0.569161
O O5 0.750900 0.211064 0.385475
O O6 0.601475 0.344546 0.350670
O O7 0.809335 0.399509 0.335622
O O8 0.699919 0.268342 0.268919
O O9 0.132413 0.047617 0.073547
O O10 0.207949 0.195610 0.000000
O O11 0.462167 0.752883 0.084651
O O12 0.305074 0.910729 0.087076
O O13 0.500000 0.000000 0.086784
O O14 0.425793 0.893038 0.000000
O O15 0.500000 0.500000 0.402060
O O16 0.604170 0.642456 0.328379
O O17 0.810576 0.101867 0.000000
O O18 0.808636 0.384172 0.194844
O O19 0.000000 0.500000 0.186553
O O20 0.333279 0.500000 0.750000
#
# Coordination Sequence:
#
# PCOD9393722 Si02
#       8
#     8   8   8   8   8   8   8   8
#     4  10  20  34  55  84 119 155 197 243 295 360
#     4  11  23  36  59  88 114 158 197 245 305 363
#     4  10  20  37  58  87 120 155 199 243 296 367
#     4  10  22  40  61  90 129 165 198 250 320 384
#     4  12  22  38  65  92 118 159 211 258 303 360
#     4   9  18  34  58  81 112 159 200 234 287 362
#     4  11  21  36  55  84 119 151 194 242 303 352
#     4  10  22  39  61  85 116 157 207 256 297 366
#
# _framework density 19.279146999999998
#
# number of rings (size 3 to 8) (size 9 to 14) (size 15 to 20)
#    0.000    1.625    3.750    2.250    0.000    6.250 
#    0.000    0.000    0.000    9.000    0.000    3.500 
#    0.000    0.000    0.000    0.000    0.000    0.000 
#
# Total GULP energy -356374.863862 kJ/mol
# GULP energy per Si atom -5568.357248 kJ/mol
# Density = 1.923527 g / cm^3
# Si number density = 19.279147 Si / 1000 Ang^3
#
#
#
# Elastic Constant Matrix: (Units=GPa)
#
#
# Indices 1 2 3 4 5 6 
#
# 1 92.4858 11.9434 7.3023 0.0000 0.0000 0.0000
# 2 11.9434 66.0790 21.1289 0.0000 0.0000 0.0000
# 3 7.3023 21.1289 49.1841 0.0000 0.0000 0.0000
# 4 0.0000 0.0000 0.0000 2.8763 0.0000 0.0000
# 5 0.0000 0.0000 0.0000 0.0000 43.2081 0.0000
# 6 0.0000 0.0000 0.0000 0.0000 0.0000 29.8909
#
#
#
# Elastic Compliance Matrix: (Units=1/GPa)
#
#
# Indices 1 2 3 4 5 6 
#
# 1 0.011106 -0.001716 -0.000912 0.000000 0.000000 0.000000
# 2 -0.001716 0.017808 -0.007395 0.000000 0.000000 0.000000
# 3 -0.000912 -0.007395 0.023644 0.000000 0.000000 0.000000
# 4 0.000000 0.000000 0.000000 0.347663 0.000000 0.000000
# 5 0.000000 0.000000 0.000000 0.000000 0.023144 0.000000
# 6 0.000000 0.000000 0.000000 0.000000 0.000000 0.033455
#
#
# Mechanical properties :
#
#
# Convention : Reuss Voigt Hill
#
# Bulk Modulus (GPa) = 30.75761 32.05534 31.40648
# Shear Modulus (GPa) = 10.25213 26.35338 18.30275
#
# Velocity S-wave (km/s) = 2.30852 3.70122 3.08450
# Velocity P-wave (km/s) = 4.80564 5.91003 5.38621
#
# Compressibility (1/GPa) = 0.03251228
#
# Stress axis : x y z
#
# Youngs Moduli (GPa) = 90.04114 56.15385 42.29381
#
# Poissons Ratio (x) = 0.09635 0.03856
# Poissons Ratio (y) = 0.15449 0.31278
# Poissons Ratio (z) = 0.08210 0.41528
#
# Static dielectric constant tensor:
#      x y z
#    x 1.687060 0.000000 0.000000 
#    y 0.000000 1.711170 0.000000 
#    z 0.000000 0.000000 1.721550 
# 
# From -- ./inp_files/23002.got.cif
#   From: 2010.05.17/outbox.cif.g08.bks.cpg/sg49_12_cif.got.tgz:23002.got - 2010.06.03 21:02:19.
