data_PCOD9393048
_publ_section_title
;
Structure prediction by ZEFSAII (Michael W. Deem and Ramdas Pophale) SiO2 
 PCOD9393048
Probable space group: P C C M
;
_chemical_formula_sum "Si O2"
_cell_formula_units_Z 64
_cell_length_a 21.395711
_cell_length_b 17.839366
_cell_length_c 8.349942
_cell_angle_alpha 90.000000
_cell_angle_beta 90.000000
_cell_angle_gamma 90.000000
_cell_volume 3187.055289
_symmetry_space_group_name_H-M "P C C M"
_symmetry_group_IT_number 49
_symmetry_cell_setting 'orthorhombic'
loop_
_space_group_symop_operation_xyz
x,y,z
-x,-y,z
x,-y,1/2-z
-x,y,1/2-z
-x,-y,-z
x,y,-z
-x,y,1/2+z
x,-y,1/2+z
loop_
_atom_site_type_symbol
_atom_site_label
_atom_site_fract_x
_atom_site_fract_y
_atom_site_fract_z
Si Si1 0.431430 0.617024 0.808006
Si Si2 0.913962 0.081179 0.316306
Si Si3 0.797274 0.718541 0.191670
Si Si4 0.932849 0.247808 0.811100
Si Si5 0.352970 0.923119 0.191858
Si Si6 0.216065 0.116056 0.689058
Si Si7 0.433502 0.788583 0.192888
Si Si8 0.707145 0.580011 0.191454
O O1 0.500000 0.588583 0.750000
O O2 0.427402 0.703518 0.749842
O O3 0.364853 0.584815 0.751897
O O4 0.432744 0.613234 0.000000
O O5 0.933626 0.088211 0.500000
O O6 0.932057 0.157837 0.225283
O O7 0.839167 0.084808 0.297490
O O8 0.933338 0.000000 0.250000
O O9 0.871830 0.714597 0.229746
O O10 0.777898 0.794802 0.281625
O O11 0.752568 0.649139 0.241746
O O12 0.790570 0.728259 0.000000
O O13 0.000000 0.275974 0.750000
O O14 0.927388 0.257999 0.000000
O O15 0.280873 0.920176 0.236830
O O16 0.383319 0.847059 0.254243
O O17 0.382930 0.000000 0.250000
O O18 0.356324 0.921368 0.000000
O O19 0.202383 0.103314 0.500000
O O20 0.500000 0.817353 0.250000
O O21 0.431060 0.785574 0.000000
O O22 0.732657 0.500000 0.250000
O O23 0.705221 0.581038 0.000000
#
# Coordination Sequence:
#
# PCOD9393048 Si02
#       8
#     8   8   8   8   8   8   8   8
#     4  10  20  37  61  86 116 151 190 233 280 334
#     4  11  21  34  51  76 111 149 189 234 284 337
#     4  10  21  38  60  87 116 148 187 233 280 334
#     4  11  22  38  60  86 115 151 194 239 288 341
#     4  10  21  33  46  67  96 130 173 223 277 329
#     4  10  19  33  53  76 102 138 182 227 277 334
#     4   9  19  35  52  71  95 129 172 220 270 325
#     4  11  24  40  61  90 123 155 189 227 275 332
#
# _framework density 20.081233999999998
#
# number of rings (size 3 to 8) (size 9 to 14) (size 15 to 20)
#    0.000    1.750    0.000    6.375    0.000    6.750 
#    0.000    3.750    0.000    0.375    0.000    2.625 
#    0.000    0.000    0.000    0.000    0.000    0.000 
#
# Total GULP energy -357221.553603 kJ/mol
# GULP energy per Si atom -5581.586775 kJ/mol
# Density = 2.003553 g / cm^3
# Si number density = 20.081234 Si / 1000 Ang^3
#
#
#
# Elastic Constant Matrix: (Units=GPa)
#
#
# Indices 1 2 3 4 5 6 
#
# 1 103.5763 53.2196 14.4047 0.0000 0.0000 0.0000
# 2 53.2196 95.6465 5.8791 0.0000 0.0000 0.0000
# 3 14.4047 5.8791 42.6078 0.0000 0.0000 0.0000
# 4 0.0000 0.0000 0.0000 34.5208 0.0000 0.0000
# 5 0.0000 0.0000 0.0000 0.0000 19.3370 0.0000
# 6 0.0000 0.0000 0.0000 0.0000 0.0000 -42.2096
#
#
#
# Elastic Compliance Matrix: (Units=1/GPa)
#
#
# Indices 1 2 3 4 5 6 
#
# 1 0.014079 -0.007606 -0.003710 0.000000 0.000000 0.000000
# 2 -0.007606 0.014653 0.000549 0.000000 0.000000 0.000000
# 3 -0.003710 0.000549 0.024648 0.000000 0.000000 0.000000
# 4 0.000000 0.000000 0.000000 0.028968 0.000000 0.000000
# 5 0.000000 0.000000 0.000000 0.000000 0.051714 0.000000
# 6 0.000000 0.000000 0.000000 0.000000 0.000000 -0.023691
#
#
# Mechanical properties :
#
#
# Convention : Reuss Voigt Hill
#
# Bulk Modulus (GPa) = 31.39966 43.20417 37.30191
# Shear Modulus (GPa) = 35.08279 13.55145 24.31712
#
# Velocity S-wave (km/s) = 4.18430 2.60057 3.48363
# Velocity P-wave (km/s) = 6.24618 5.52980 5.89887
#
# Compressibility (1/GPa) = 0.03184748
#
# Stress axis : x y z
#
# Youngs Moduli (GPa) = 71.02980 68.24409 40.57061
#
# Poissons Ratio (x) = 0.51903 0.15053
# Poissons Ratio (y) = 0.54022 -0.02229
# Poissons Ratio (z) = 0.26354 -0.03749
#
# Static dielectric constant tensor:
#      x y z
#    x 1.724510 0.000000 0.000000 
#    y 0.000000 1.722120 0.000000 
#    z 0.000000 0.000000 1.731230 
# 
# From -- ./inp_files/5984.got.cif
#   From: 2010.05.17/outbox.cif.g08.bks.cpg/sg49_3_cif.got.tgz:5984.got - 2010.06.03 21:02:19.
