data_PCOD9393018
_publ_section_title
;
Structure prediction by ZEFSAII (Michael W. Deem and Ramdas Pophale) SiO2 
 PCOD9393018
Probable space group: P C C M
;
_chemical_formula_sum "Si O2"
_cell_formula_units_Z 58
_cell_length_a 14.883210
_cell_length_b 26.854396
_cell_length_c 8.949938
_cell_angle_alpha 90.000000
_cell_angle_beta 90.000000
_cell_angle_gamma 90.000000
_cell_volume 3577.107775
_symmetry_space_group_name_H-M "P C C M"
_symmetry_group_IT_number 49
_symmetry_cell_setting 'orthorhombic'
loop_
_space_group_symop_operation_xyz
x,y,z
-x,-y,z
x,-y,1/2-z
-x,y,1/2-z
-x,-y,-z
x,y,-z
-x,y,1/2+z
x,-y,1/2+z
loop_
_atom_site_type_symbol
_atom_site_label
_atom_site_fract_x
_atom_site_fract_y
_atom_site_fract_z
Si Si1 0.907382 0.324677 0.821173
Si Si2 0.500000 0.000000 0.250000
Si Si3 0.269862 0.830479 0.677087
Si Si4 0.092203 0.208293 0.677956
Si Si5 0.292353 0.643269 0.180833
Si Si6 0.402483 0.445903 0.180766
Si Si7 0.413789 0.901387 0.668076
Si Si8 0.598992 0.264041 0.678670
O O1 0.898011 0.266506 0.776488
O O2 0.813343 0.350552 0.782153
O O3 0.000000 0.343993 0.750000
O O4 0.916666 0.326432 0.000000
O O5 0.565849 0.960480 0.170315
O O6 0.248557 0.832641 0.500000
O O7 0.179553 0.819844 0.765022
O O8 0.320657 0.880834 0.728608
O O9 0.341155 0.785661 0.700219
O O10 0.086125 0.206377 0.500000
O O11 0.000000 0.189500 0.750000
O O12 0.333222 0.594920 0.259807
O O13 0.347403 0.690708 0.243179
O O14 0.301508 0.640918 0.000000
O O15 0.380692 0.500000 0.250000
O O16 0.500000 0.432475 0.250000
O O17 0.406730 0.447733 0.000000
O O18 0.500000 0.879232 0.750000
O O19 0.417075 0.883302 0.500000
O O20 0.500000 0.259528 0.750000
O O21 0.591484 0.272955 0.500000
#
# Coordination Sequence:
#
# PCOD9393018 Si02
#       8
#     8   2   8   8   8   8   8   8
#     4   9  19  33  52  75 102 134 172 213 256 305
#     4   8  18  32  54  72 104 136 182 220 268 300
#     4  10  20  33  48  72 103 138 174 213 258 307
#     4  10  19  33  51  74 101 137 175 216 259 308
#     4  11  21  36  54  76 105 137 174 214 257 309
#     4  11  22  38  58  81 105 136 174 217 263 309
#     4   9  18  31  49  72 101 135 174 216 258 302
#     4  11  22  33  47  69 102 140 174 209 252 305
#
# _framework density 16.214216
#
# number of rings (size 3 to 8) (size 9 to 14) (size 15 to 20)
#    0.414    1.517    1.379    3.931    0.000    2.759 
#    0.000    0.000    0.000    0.414    0.000    3.379 
#    0.000    3.310    0.000    0.000    0.000    0.000 
#
# Total GULP energy -323163.639892 kJ/mol
# GULP energy per Si atom -5571.786895 kJ/mol
# Density = 1.617731 g / cm^3
# Si number density = 16.214216 Si / 1000 Ang^3
#
#
#
# Elastic Constant Matrix: (Units=GPa)
#
#
# Indices 1 2 3 4 5 6 
#
# 1 145.3691 61.8329 56.1450 0.0000 0.0000 0.0000
# 2 61.8329 64.0114 32.4353 0.0000 0.0000 0.0000
# 3 56.1450 32.4353 82.2854 0.0000 0.0000 0.0000
# 4 0.0000 0.0000 0.0000 56.0291 0.0000 0.0000
# 5 0.0000 0.0000 0.0000 0.0000 31.3395 0.0000
# 6 0.0000 0.0000 0.0000 0.0000 0.0000 20.0499
#
#
#
# Elastic Compliance Matrix: (Units=1/GPa)
#
#
# Indices 1 2 3 4 5 6 
#
# 1 0.013108 -0.010159 -0.004939 0.000000 0.000000 0.000000
# 2 -0.010159 0.027395 -0.003867 0.000000 0.000000 0.000000
# 3 -0.004939 -0.003867 0.017047 0.000000 0.000000 0.000000
# 4 0.000000 0.000000 0.000000 0.017848 0.000000 0.000000
# 5 0.000000 0.000000 0.000000 0.000000 0.031909 0.000000
# 6 0.000000 0.000000 0.000000 0.000000 0.000000 0.049875
#
#
# Mechanical properties :
#
#
# Convention : Reuss Voigt Hill
#
# Bulk Modulus (GPa) = 50.96912 65.83248 58.40080
# Shear Modulus (GPa) = 24.79522 30.90055 27.84788
#
# Velocity S-wave (km/s) = 3.91478 4.37025 4.14877
# Velocity P-wave (km/s) = 7.20674 8.13359 7.68415
#
# Compressibility (1/GPa) = 0.01961972
#
# Stress axis : x y z
#
# Youngs Moduli (GPa) = 76.29034 36.50330 58.66054
#
# Poissons Ratio (x) = 0.37083 0.28974
# Poissons Ratio (y) = 0.77503 0.22683
# Poissons Ratio (z) = 0.37682 0.14115
#
# Static dielectric constant tensor:
#      x y z
#    x 1.543220 0.000000 0.000000 
#    y 0.000000 1.550540 0.000000 
#    z 0.000000 0.000000 1.555520 
# 
# From -- ./inp_files/4479.got.cif
#   From: 2010.05.17/outbox.cif.g08.bks.cpg/sg49_3_cif.got.tgz:4479.got - 2010.06.03 21:02:19.
