data_PCOD9393853
_publ_section_title
;
Structure prediction by ZEFSAII (Michael W. Deem and Ramdas Pophale) SiO2 
 PCOD9393853
Probable space group: P C C M
;
_chemical_formula_sum "Si O2"
_cell_formula_units_Z 56
_cell_length_a 15.309896
_cell_length_b 20.937214
_cell_length_c 8.605449
_cell_angle_alpha 90.000000
_cell_angle_beta 90.000000
_cell_angle_gamma 90.000000
_cell_volume 2758.447151
_symmetry_space_group_name_H-M "P C C M"
_symmetry_group_IT_number 49
_symmetry_cell_setting 'orthorhombic'
loop_
_space_group_symop_operation_xyz
x,y,z
-x,-y,z
x,-y,1/2-z
-x,y,1/2-z
-x,-y,-z
x,y,-z
-x,y,1/2+z
x,-y,1/2+z
loop_
_atom_site_type_symbol
_atom_site_label
_atom_site_fract_x
_atom_site_fract_y
_atom_site_fract_z
Si Si1 0.901700 0.703549 0.811879
Si Si2 0.099499 0.162109 0.686168
Si Si3 0.354157 0.435560 0.172934
Si Si4 0.401699 0.703548 0.311879
Si Si5 0.250000 0.071778 0.186403
Si Si6 0.854158 0.564440 0.827066
Si Si7 0.400501 0.162110 0.686168
O O1 0.864089 0.768908 0.742960
O O2 0.866810 0.634706 0.756625
O O3 0.000000 0.704148 0.750000
O O4 0.895564 0.706857 0.000000
O O5 0.096689 0.160821 0.500000
O O6 0.164386 0.108647 0.751124
O O7 0.000000 0.154847 0.750000
O O8 0.388982 0.500000 0.250000
O O9 0.366809 0.365294 0.243374
O O10 0.250000 0.443551 0.161971
O O11 0.392203 0.432335 0.000000
O O12 0.500000 0.704147 0.250000
O O13 0.395564 0.706857 0.500000
O O14 0.364089 0.768907 0.242960
O O15 0.335614 0.108647 0.248876
O O16 0.250000 0.000000 0.250000
O O17 0.250000 0.072319 0.000000
O O18 0.888983 0.500000 0.750000
O O19 0.892204 0.567665 0.000000
O O20 0.500000 0.154847 0.750000
O O21 0.403311 0.160821 0.500000
#
# Coordination Sequence:
#
# PCOD9393853 Si02
#       7
#     8   8   8   8   8   8   8
#     4  10  20  35  56  82 113 152 197 248 304 362
#     4  11  23  42  66  97 131 169 213 259 313 372
#     4   9  19  34  51  74 105 146 193 243 301 360
#     4  10  20  35  56  82 113 152 197 248 304 362
#     4  12  26  46  70 100 133 168 209 256 306 370
#     4   9  19  34  51  74 105 146 193 243 301 360
#     4  11  23  42  66  97 131 169 213 259 313 372
#
# _framework density 20.301276999999999
#
# number of rings (size 3 to 8) (size 9 to 14) (size 15 to 20)
#    0.000    1.714    0.000    6.429    2.000    3.429 
#    0.000    5.714    0.000    0.000    0.000    0.000 
#    0.000    0.000    0.000    0.000    0.000    0.000 
#
# Total GULP energy -312403.516580 kJ/mol
# GULP energy per Si atom -5578.634225 kJ/mol
# Density = 2.025507 g / cm^3
# Si number density = 20.301277 Si / 1000 Ang^3
#
#
#
# Elastic Constant Matrix: (Units=GPa)
#
#
# Indices 1 2 3 4 5 6 
#
# 1 70.9963 64.6485 35.6846 0.0000 0.0000 0.0000
# 2 64.6485 237.5003 83.6306 0.0000 0.0000 0.0000
# 3 35.6846 83.6306 143.7143 0.0000 0.0000 0.0000
# 4 0.0000 0.0000 0.0000 38.1453 0.0000 0.0000
# 5 0.0000 0.0000 0.0000 0.0000 23.5034 0.0000
# 6 0.0000 0.0000 0.0000 0.0000 0.0000 54.1734
#
#
#
# Elastic Compliance Matrix: (Units=1/GPa)
#
#
# Indices 1 2 3 4 5 6 
#
# 1 0.019254 -0.004474 -0.002177 0.000000 0.000000 0.000000
# 2 -0.004474 0.006335 -0.002576 0.000000 0.000000 0.000000
# 3 -0.002177 -0.002576 0.008998 0.000000 0.000000 0.000000
# 4 0.000000 0.000000 0.000000 0.026216 0.000000 0.000000
# 5 0.000000 0.000000 0.000000 0.000000 0.042547 0.000000
# 6 0.000000 0.000000 0.000000 0.000000 0.000000 0.018459
#
#
# Mechanical properties :
#
#
# Convention : Reuss Voigt Hill
#
# Bulk Modulus (GPa) = 61.98608 91.12650 76.55629
# Shear Modulus (GPa) = 34.33110 41.04757 37.68934
#
# Velocity S-wave (km/s) = 4.11674 4.50146 4.31339
# Velocity P-wave (km/s) = 7.29356 8.48540 7.91196
#
# Compressibility (1/GPa) = 0.01613266
#
# Stress axis : x y z
#
# Youngs Moduli (GPa) = 51.93784 157.84190 111.13952
#
# Poissons Ratio (x) = 0.70624 0.24195
# Poissons Ratio (y) = 0.23239 0.28627
# Poissons Ratio (z) = 0.11307 0.40656
#
# Static dielectric constant tensor:
#      x y z
#    x 1.693030 0.000000 0.000000 
#    y 0.000000 1.770350 0.000000 
#    z 0.000000 0.000000 1.722920 
# 
# From -- ./inp_files/4025.got.cif
#   From: 2010.05.17/outbox.cif.g08.bks.cpg/sg49_3_cif.got.tgz:4025.got - 2010.06.03 21:02:19.
