data_PCOD9393100
_publ_section_title
;
Structure prediction by ZEFSAII (Michael W. Deem and Ramdas Pophale) SiO2 
 PCOD9393100
Probable space group: P C C M
;
_chemical_formula_sum "Si O2"
_cell_formula_units_Z 64
_cell_length_a 18.147379
_cell_length_b 23.712621
_cell_length_c 8.911825
_cell_angle_alpha 90.000000
_cell_angle_beta 90.000000
_cell_angle_gamma 90.000000
_cell_volume 3834.953648
_symmetry_space_group_name_H-M "P C C M"
_symmetry_group_IT_number 49
_symmetry_cell_setting 'orthorhombic'
loop_
_space_group_symop_operation_xyz
x,y,z
-x,-y,z
x,-y,1/2-z
-x,y,1/2-z
-x,-y,-z
x,y,-z
-x,y,1/2+z
x,-y,1/2+z
loop_
_atom_site_type_symbol
_atom_site_label
_atom_site_fract_x
_atom_site_fract_y
_atom_site_fract_z
Si Si1 0.238808 0.062251 0.179351
Si Si2 0.183305 0.262106 0.676723
Si Si3 0.580084 0.747190 0.821704
Si Si4 0.702082 0.829658 0.319848
Si Si5 0.303186 0.658215 0.321853
Si Si6 0.920375 0.346466 0.679367
Si Si7 0.797081 0.438971 0.321558
Si Si8 0.928171 0.937511 0.178472
O O1 0.292491 0.108075 0.252178
O O2 0.154515 0.083128 0.208793
O O3 0.247111 0.000000 0.250000
O O4 0.248141 0.058894 0.000000
O O5 0.167902 0.263089 0.500000
O O6 0.220987 0.202784 0.717003
O O7 0.248800 0.305162 0.719747
O O8 0.114038 0.287157 0.765041
O O9 0.500000 0.750910 0.750000
O O10 0.636108 0.792761 0.750294
O O11 0.616943 0.685221 0.797409
O O12 0.576345 0.756564 0.000000
O O13 0.694942 0.830643 0.500000
O O14 0.285242 0.667957 0.500000
O O15 0.279821 0.594076 0.290497
O O16 0.924616 0.346282 0.500000
O O17 0.863141 0.396323 0.724819
O O18 0.000000 0.355798 0.750000
O O19 0.801710 0.500000 0.250000
O O20 0.803069 0.445412 0.500000
O O21 0.000000 0.908105 0.250000
O O22 0.926792 0.000000 0.250000
O O23 0.938287 0.941061 0.000000
#
# Coordination Sequence:
#
# PCOD9393100 Si02
#       8
#     8   8   8   8   8   8   8   8
#     4  10  20  33  50  73 101 136 174 211 252 297
#     4   9  17  30  49  71  93 121 160 204 250 297
#     4  10  19  33  55  81 107 131 159 199 246 295
#     4  10  20  34  53  77 103 130 163 202 244 297
#     4   8  16  31  49  70  98 130 161 197 242 290
#     4  10  20  33  48  67  95 130 169 213 260 305
#     4   9  18  31  47  69  96 130 171 211 251 296
#     4   9  16  26  42  63  87 117 155 197 239 279
#
# _framework density 16.688599
#
# number of rings (size 3 to 8) (size 9 to 14) (size 15 to 20)
#    0.000    2.625    0.000    3.375    0.000    6.250 
#    0.000    1.875    0.000    2.250    0.000    5.250 
#    0.000    0.000    0.000    0.000    0.000    0.000 
#
# Total GULP energy -356275.393018 kJ/mol
# GULP energy per Si atom -5566.803016 kJ/mol
# Density = 1.665061 g / cm^3
# Si number density = 16.688599 Si / 1000 Ang^3
#
#
#
# Elastic Constant Matrix: (Units=GPa)
#
#
# Indices 1 2 3 4 5 6 
#
# 1 108.1098 61.4829 50.1187 0.0000 0.0000 0.0000
# 2 61.4829 101.6647 48.1358 0.0000 0.0000 0.0000
# 3 50.1187 48.1358 55.7122 0.0000 0.0000 0.0000
# 4 0.0000 0.0000 0.0000 21.5757 0.0000 0.0000
# 5 0.0000 0.0000 0.0000 0.0000 27.2219 0.0000
# 6 0.0000 0.0000 0.0000 0.0000 0.0000 14.6833
#
#
#
# Elastic Compliance Matrix: (Units=1/GPa)
#
#
# Indices 1 2 3 4 5 6 
#
# 1 0.017385 -0.005261 -0.011094 0.000000 0.000000 0.000000
# 2 -0.005261 0.018238 -0.011025 0.000000 0.000000 0.000000
# 3 -0.011094 -0.011025 0.037455 0.000000 0.000000 0.000000
# 4 0.000000 0.000000 0.000000 0.046349 0.000000 0.000000
# 5 0.000000 0.000000 0.000000 0.000000 0.036735 0.000000
# 6 0.000000 0.000000 0.000000 0.000000 0.000000 0.068105
#
#
# Mechanical properties :
#
#
# Convention : Reuss Voigt Hill
#
# Bulk Modulus (GPa) = 54.59034 64.99574 59.79304
# Shear Modulus (GPa) = 17.53573 19.74611 18.64092
#
# Velocity S-wave (km/s) = 3.24506 3.44351 3.34576
# Velocity P-wave (km/s) = 6.84271 7.40548 7.12965
#
# Compressibility (1/GPa) = 0.01831826
#
# Stress axis : x y z
#
# Youngs Moduli (GPa) = 57.52130 54.83067 26.69862
#
# Poissons Ratio (x) = 0.28847 0.29619
# Poissons Ratio (y) = 0.30262 0.29435
# Poissons Ratio (z) = 0.63813 0.60451
#
# Static dielectric constant tensor:
#      x y z
#    x 1.576700 0.000000 0.000000 
#    y 0.000000 1.564060 0.000000 
#    z 0.000000 0.000000 1.557280 
# 
# From -- ./inp_files/5250.got.cif
#   From: 2010.05.17/outbox.cif.g08.bks.cpg/sg49_3_cif.got.tgz:5250.got - 2010.06.03 21:02:19.
