data_PCOD9393494
_publ_section_title
;
Structure prediction by ZEFSAII (Michael W. Deem and Ramdas Pophale) SiO2 
 PCOD9393494
Probable space group: P C C M
;
_chemical_formula_sum "Si O2"
_cell_formula_units_Z 40
_cell_length_a 7.664561
_cell_length_b 26.972807
_cell_length_c 9.674071
_cell_angle_alpha 90.000000
_cell_angle_beta 90.000000
_cell_angle_gamma 90.000000
_cell_volume 1999.966404
_symmetry_space_group_name_H-M "P C C M"
_symmetry_group_IT_number 49
_symmetry_cell_setting 'orthorhombic'
loop_
_space_group_symop_operation_xyz
x,y,z
-x,-y,z
x,-y,1/2-z
-x,y,1/2-z
-x,-y,-z
x,y,-z
-x,y,1/2+z
x,-y,1/2+z
loop_
_atom_site_type_symbol
_atom_site_label
_atom_site_fract_x
_atom_site_fract_y
_atom_site_fract_z
Si Si1 0.789133 0.656128 0.738133
Si Si2 0.000000 0.121306 0.750000
Si Si3 0.673919 0.052481 0.670204
Si Si4 0.721463 0.720887 0.000000
Si Si5 0.970605 0.196182 0.000000
Si Si6 0.334879 0.728403 0.000000
Si Si7 0.187590 0.453543 0.669137
O O1 0.715543 0.693211 0.625730
O O2 0.732101 0.600202 0.701933
O O3 0.000000 0.656341 0.750000
O O4 0.729289 0.682282 0.875748
O O5 0.163136 0.087138 0.793043
O O6 0.971470 0.159242 0.873211
O O7 0.500000 0.071859 0.750000
O O8 0.654743 0.047816 0.500000
O O9 0.704052 0.000000 0.750000
O O10 0.533041 0.745777 0.000000
O O11 0.874071 0.762288 0.000000
O O12 0.793077 0.226036 0.000000
O O13 0.273985 0.500000 0.750000
O O14 0.172441 0.459888 0.500000
O O15 0.000000 0.450623 0.750000
#
# Coordination Sequence:
#
# PCOD9393494 Si02
#       7
#     8   4   8   4   4   4   8
#     4  11  21  40  67  95 129 169 218 279 336 404
#     4  12  27  44  74 100 150 186 235 288 350 406
#     4  11  25  45  76 112 148 193 237 285 341 404
#     4  12  26  42  71  94 127 179 227 282 343 398
#     4  12  26  46  67 104 135 182 236 294 344 402
#     4  12  24  46  69  94 129 171 233 282 337 408
#     4  10  20  32  57  94 129 164 208 263 332 409
#
# _framework density 20.000335
#
# number of rings (size 3 to 8) (size 9 to 14) (size 15 to 20)
#    0.000    0.800    4.000    4.500    8.400    2.400 
#    0.000    0.000    0.000    3.600    0.000    0.000 
#    0.000    0.000    0.000    0.000    0.000    0.000 
#
# Total GULP energy -222965.008619 kJ/mol
# GULP energy per Si atom -5574.125215 kJ/mol
# Density = 1.995481 g / cm^3
# Si number density = 20.000335 Si / 1000 Ang^3
#
#
#
# Elastic Constant Matrix: (Units=GPa)
#
#
# Indices 1 2 3 4 5 6 
#
# 1 128.5356 66.2471 49.7486 0.0000 0.0000 0.0000
# 2 66.2471 125.6276 78.2084 0.0000 0.0000 0.0000
# 3 49.7486 78.2084 231.5799 0.0000 0.0000 0.0000
# 4 0.0000 0.0000 0.0000 40.8229 0.0000 0.0000
# 5 0.0000 0.0000 0.0000 0.0000 -121.7352 0.0000
# 6 0.0000 0.0000 0.0000 0.0000 0.0000 -8.7626
#
#
#
# Elastic Compliance Matrix: (Units=1/GPa)
#
#
# Indices 1 2 3 4 5 6 
#
# 1 0.010729 -0.005347 -0.000499 0.000000 0.000000 0.000000
# 2 -0.005347 0.012744 -0.003155 0.000000 0.000000 0.000000
# 3 -0.000499 -0.003155 0.005491 0.000000 0.000000 0.000000
# 4 0.000000 0.000000 0.000000 0.024496 0.000000 0.000000
# 5 0.000000 0.000000 0.000000 0.000000 -0.008215 0.000000
# 6 0.000000 0.000000 0.000000 0.000000 0.000000 -0.114122
#
#
# Mechanical properties :
#
#
# Convention : Reuss Voigt Hill
#
# Bulk Modulus (GPa) = 91.22994 97.12793 94.17894
# Shear Modulus (GPa) = -105.88679 1.50096 -52.19291
#
# Velocity S-wave (km/s) = -7.28405 0.86724 -5.11397
# Velocity P-wave (km/s) = 5.00300 7.04779 3.51008
#
# Compressibility (1/GPa) = 0.01096131
#
# Stress axis : x y z
#
# Youngs Moduli (GPa) = 93.20593 78.46905 182.11878
#
# Poissons Ratio (x) = 0.41957 0.09089
# Poissons Ratio (y) = 0.49837 0.57461
# Poissons Ratio (z) = 0.04651 0.24758
#
# Static dielectric constant tensor:
#      x y z
#    x 1.758840 0.000000 0.000000 
#    y 0.000000 1.771180 0.000000 
#    z 0.000000 0.000000 1.624620 
# 
# From -- ./inp_files/1825.got.cif
#   From: 2010.05.17/outbox.cif.g08.bks.cpg/sg49_1_cif.got.tgz:1825.got - 2010.06.03 21:02:19.
