data_PCOD9393683
_publ_section_title
;
Structure prediction by ZEFSAII (Michael W. Deem and Ramdas Pophale) SiO2 
 PCOD9393683
Probable space group: P C C M
;
_chemical_formula_sum "Si O2"
_cell_formula_units_Z 48
_cell_length_a 9.114819
_cell_length_b 30.026078
_cell_length_c 9.491589
_cell_angle_alpha 90.000000
_cell_angle_beta 90.000000
_cell_angle_gamma 90.000000
_cell_volume 2597.679588
_symmetry_space_group_name_H-M "P C C M"
_symmetry_group_IT_number 49
_symmetry_cell_setting 'orthorhombic'
loop_
_space_group_symop_operation_xyz
x,y,z
-x,-y,z
x,-y,1/2-z
-x,y,1/2-z
-x,-y,-z
x,y,-z
-x,y,1/2+z
x,-y,1/2+z
loop_
_atom_site_type_symbol
_atom_site_label
_atom_site_fract_x
_atom_site_fract_y
_atom_site_fract_z
Si Si1 0.345132 0.641062 0.831130
Si Si2 0.147405 0.936221 0.000000
Si Si3 0.808958 0.957836 0.000000
Si Si4 0.657091 0.458761 0.168578
Si Si5 0.852455 0.814799 0.162060
Si Si6 0.674813 0.900726 0.763391
Si Si7 0.154950 0.285956 0.830248
O O1 0.500000 0.640578 0.750000
O O2 0.278719 0.590975 0.817453
O O3 0.252732 0.678061 0.749859
O O4 0.360927 0.649598 0.000000
O O5 0.227367 0.913000 0.129300
O O6 0.970272 0.934580 0.000000
O O7 0.176403 0.989279 0.000000
O O8 0.719283 0.939805 0.869039
O O9 0.733051 0.500000 0.250000
O O10 0.500000 0.455698 0.250000
O O11 0.640656 0.467418 0.000000
O O12 0.733803 0.853056 0.185260
O O13 0.792362 0.765115 0.191033
O O14 0.000000 0.822932 0.250000
O O15 0.898560 0.815206 0.000000
O O16 0.500000 0.899698 0.750000
O O17 0.000000 0.287702 0.750000
O O18 0.144750 0.293967 0.000000
#
# Coordination Sequence:
#
# PCOD9393683 Si02
#       7
#     8   4   4   8   8   8   8
#     4  10  20  34  53  82 116 153 194 243 300 354
#     4  11  25  41  67  91 115 163 205 239 290 347
#     4  11  23  45  65  87 121 159 207 243 280 359
#     4   9  16  26  44  71 106 145 190 238 289 349
#     4  10  22  41  64  87 114 152 196 237 285 354
#     4  12  25  40  61  93 126 154 191 248 304 349
#     4  10  21  38  60  85 112 150 195 242 291 352
#
# _framework density 18.47803
#
# number of rings (size 3 to 8) (size 9 to 14) (size 15 to 20)
#    0.000    1.667    0.833    4.500    1.167    6.667 
#    0.000    0.000    0.000    0.500    0.000    3.500 
#    0.000    0.000    0.000    0.000    0.000    0.000 
#
# Total GULP energy -267566.785280 kJ/mol
# GULP energy per Si atom -5574.308027 kJ/mol
# Density = 1.843597 g / cm^3
# Si number density = 18.478030 Si / 1000 Ang^3
#
#
#
# Elastic Constant Matrix: (Units=GPa)
#
#
# Indices 1 2 3 4 5 6 
#
# 1 63.4684 40.5592 11.7647 0.0000 0.0000 0.0000
# 2 40.5592 115.0504 34.0310 0.0000 0.0000 0.0000
# 3 11.7647 34.0310 104.8288 0.0000 0.0000 0.0000
# 4 0.0000 0.0000 0.0000 37.8917 0.0000 0.0000
# 5 0.0000 0.0000 0.0000 0.0000 27.7627 0.0000
# 6 0.0000 0.0000 0.0000 0.0000 0.0000 27.4422
#
#
#
# Elastic Compliance Matrix: (Units=1/GPa)
#
#
# Indices 1 2 3 4 5 6 
#
# 1 0.020338 -0.007185 0.000050 0.000000 0.000000 0.000000
# 2 -0.007185 0.012153 -0.003139 0.000000 0.000000 0.000000
# 3 0.000050 -0.003139 0.010553 0.000000 0.000000 0.000000
# 4 0.000000 0.000000 0.000000 0.026391 0.000000 0.000000
# 5 0.000000 0.000000 0.000000 0.000000 0.036020 0.000000
# 6 0.000000 0.000000 0.000000 0.000000 0.000000 0.036440
#
#
# Mechanical properties :
#
#
# Convention : Reuss Voigt Hill
#
# Bulk Modulus (GPa) = 44.45147 50.67304 47.56226
# Shear Modulus (GPa) = 29.42200 31.75216 30.58708
#
# Velocity S-wave (km/s) = 3.99465 4.14982 4.07298
# Velocity P-wave (km/s) = 6.73684 7.10242 6.92204
#
# Compressibility (1/GPa) = 0.02249644
#
# Stress axis : x y z
#
# Youngs Moduli (GPa) = 49.16931 82.28323 94.76159
#
# Poissons Ratio (x) = 0.59117 -0.00473
# Poissons Ratio (y) = 0.35326 0.29746
# Poissons Ratio (z) = -0.00245 0.25829
#
# Static dielectric constant tensor:
#      x y z
#    x 1.614020 0.000000 0.000000 
#    y 0.000000 1.674100 0.000000 
#    z 0.000000 0.000000 1.608800 
# 
# From -- ./inp_files/2143.got.cif
#   From: 2010.05.17/outbox.cif.g08.bks.cpg/sg49_2_cif.got.tgz:2143.got - 2010.06.03 21:02:19.
