data_PCOD9393376
_publ_section_title
;
Structure prediction by ZEFSAII (Michael W. Deem and Ramdas Pophale) SiO2 
 PCOD9393376
Probable space group: P C C M
;
_chemical_formula_sum "Si O2"
_cell_formula_units_Z 48
_cell_length_a 9.430926
_cell_length_b 13.620903
_cell_length_c 18.526392
_cell_angle_alpha 90.000000
_cell_angle_beta 90.000000
_cell_angle_gamma 90.000000
_cell_volume 2379.858229
_symmetry_space_group_name_H-M "P C C M"
_symmetry_group_IT_number 49
_symmetry_cell_setting 'orthorhombic'
loop_
_space_group_symop_operation_xyz
x,y,z
-x,-y,z
x,-y,1/2-z
-x,y,1/2-z
-x,-y,-z
x,y,-z
-x,y,1/2+z
x,-y,1/2+z
loop_
_atom_site_type_symbol
_atom_site_label
_atom_site_fract_x
_atom_site_fract_y
_atom_site_fract_z
Si Si1 0.925137 0.245706 0.580244
Si Si2 0.658130 0.966264 0.832104
Si Si3 0.820967 0.126249 0.086988
Si Si4 0.346416 0.690676 0.843481
Si Si5 0.124205 0.567895 0.918488
Si Si6 0.336261 0.731356 0.674226
O O1 0.869854 0.222330 0.500000
O O2 0.802449 0.291305 0.628435
O O3 0.017574 0.154297 0.609389
O O4 0.045123 0.328293 0.574035
O O5 0.657863 0.849375 0.832180
O O6 0.500000 0.000000 0.852661
O O7 0.684211 0.000000 0.750000
O O8 0.767392 0.022725 0.883116
O O9 0.716792 0.210443 0.119536
O O10 0.816374 0.129282 0.000000
O O11 0.263748 0.595814 0.873985
O O12 0.321615 0.701957 0.757773
O O13 0.515542 0.688437 0.854355
O O14 0.000000 0.500000 0.886310
O O15 0.157492 0.531038 0.000000
#
# Coordination Sequence:
#
# PCOD9393376 Si02
#       6
#     8   8   8   8   8   8
#     4   9  21  38  55  82 119 149 187 245 305 357
#     4  11  19  36  54  78 114 158 209 249 286 343
#     4  10  20  35  53  79 114 154 203 253 293 346
#     4  10  19  37  57  85 114 150 194 243 295 361
#     4   9  19  39  65  87 111 147 190 239 296 366
#     4  11  21  35  58  82 117 158 197 243 297 353
#
# _framework density 20.169269
#
# number of rings (size 3 to 8) (size 9 to 14) (size 15 to 20)
#    0.000    2.000    3.333    2.500    0.000    5.667 
#    0.000    5.000    0.000    5.000    0.000    0.000 
#    0.000    0.000    0.000    0.000    0.000    0.000 
#
# Total GULP energy -267682.701530 kJ/mol
# GULP energy per Si atom -5576.722949 kJ/mol
# Density = 2.012336 g / cm^3
# Si number density = 20.169269 Si / 1000 Ang^3
#
#
#
# Elastic Constant Matrix: (Units=GPa)
#
#
# Indices 1 2 3 4 5 6 
#
# 1 133.0014 17.0965 73.4946 0.0000 0.0000 0.0000
# 2 17.0965 42.6438 8.6326 0.0000 0.0000 0.0000
# 3 73.4946 8.6326 56.7548 0.0000 0.0000 0.0000
# 4 0.0000 0.0000 0.0000 10.5466 0.0000 0.0000
# 5 0.0000 0.0000 0.0000 0.0000 13.4030 0.0000
# 6 0.0000 0.0000 0.0000 0.0000 0.0000 623.1322
#
#
#
# Elastic Compliance Matrix: (Units=1/GPa)
#
#
# Indices 1 2 3 4 5 6 
#
# 1 0.027040 -0.003872 -0.034426 0.000000 0.000000 0.000000
# 2 -0.003872 0.024749 0.001249 0.000000 0.000000 0.000000
# 3 -0.034426 0.001249 0.062010 0.000000 0.000000 0.000000
# 4 0.000000 0.000000 0.000000 0.094817 0.000000 0.000000
# 5 0.000000 0.000000 0.000000 0.000000 0.074610 0.000000
# 6 0.000000 0.000000 0.000000 0.000000 0.000000 0.001605
#
#
# Mechanical properties :
#
#
# Convention : Reuss Voigt Hill
#
# Bulk Modulus (GPa) = 25.18796 47.87193 36.52995
# Shear Modulus (GPa) = 13.43497 138.29479 75.86488
#
# Velocity S-wave (km/s) = 2.58371 8.28951 6.13969
# Velocity P-wave (km/s) = 4.62776 10.74280 8.27116
#
# Compressibility (1/GPa) = 0.03970150
#
# Stress axis : x y z
#
# Youngs Moduli (GPa) = 36.98232 40.40502 16.12638
#
# Poissons Ratio (x) = 0.15643 0.55517
# Poissons Ratio (y) = 0.14318 -0.02014
# Poissons Ratio (z) = 1.27317 -0.05047
#
# Static dielectric constant tensor:
#      x y z
#    x 1.748830 0.000000 0.000000 
#    y 0.000000 1.779970 0.000000 
#    z 0.000000 0.000000 1.707130 
# 
# From -- ./inp_files/16309.got.cif
#   From: 2010.05.17/outbox.cif.g08.bks.cpg/sg49_9_cif.got.tgz:16309.got - 2010.06.03 21:02:19.
