data_PCOD9393549
_publ_section_title
;
Structure prediction by ZEFSAII (Michael W. Deem and Ramdas Pophale) SiO2 
 PCOD9393549
Probable space group: P C C M
;
_chemical_formula_sum "Si O2"
_cell_formula_units_Z 48
_cell_length_a 7.667477
_cell_length_b 17.067519
_cell_length_c 17.941799
_cell_angle_alpha 90.000000
_cell_angle_beta 90.000000
_cell_angle_gamma 90.000000
_cell_volume 2347.950106
_symmetry_space_group_name_H-M "P C C M"
_symmetry_group_IT_number 49
_symmetry_cell_setting 'orthorhombic'
loop_
_space_group_symop_operation_xyz
x,y,z
-x,-y,z
x,-y,1/2-z
-x,y,1/2-z
-x,-y,-z
x,y,-z
-x,y,1/2+z
x,-y,1/2+z
loop_
_atom_site_type_symbol
_atom_site_label
_atom_site_fract_x
_atom_site_fract_y
_atom_site_fract_z
Si Si1 0.355649 0.664467 0.413841
Si Si2 0.349318 0.731106 0.811910
Si Si3 0.796307 0.015885 0.330875
Si Si4 0.275107 0.162598 0.081193
Si Si5 0.708214 0.415837 0.729114
Si Si6 0.309888 0.134529 0.583754
O O1 0.369289 0.642916 0.500000
O O2 0.542802 0.688248 0.378382
O O3 0.246851 0.745395 0.408077
O O4 0.279257 0.600138 0.358632
O O5 0.500000 0.755243 0.750000
O O6 0.235632 0.663499 0.772163
O O7 0.254273 0.804461 0.850944
O O8 0.719090 0.954312 0.389928
O O9 0.716520 0.000000 0.250000
O O10 0.783423 0.105421 0.354857
O O11 0.000000 0.000000 0.327860
O O12 0.483437 0.149910 0.078875
O O13 0.203994 0.138859 0.000000
O O14 0.783061 0.500000 0.750000
O O15 0.500000 0.418534 0.750000
O O16 0.238181 0.147901 0.500000
#
# Coordination Sequence:
#
# PCOD9393549 Si02
#       6
#     8   8   8   8   8   8
#     4   8  14  25  42  63  88 116 155 197 229 269
#     4   8  15  25  43  66  90 122 154 196 233 275
#     4  11  25  36  46  68  99 129 161 198 244 292
#     4   9  18  33  52  72  91 121 166 207 237 279
#     4   8  14  24  37  60  92 125 155 182 227 284
#     4  10  20  33  51  73  94 124 167 203 236 283
#
# _framework density 20.443363999999999
#
# number of rings (size 3 to 8) (size 9 to 14) (size 15 to 20)
#    0.000    3.333    0.000    2.500    7.000    3.333 
#    0.000    7.500    0.000    0.000    0.000    0.000 
#    0.000    2.667    0.000    5.167    0.000    4.500 
#
# Total GULP energy -267275.003892 kJ/mol
# GULP energy per Si atom -5568.229248 kJ/mol
# Density = 2.039683 g / cm^3
# Si number density = 20.443364 Si / 1000 Ang^3
#
#
#
# Elastic Constant Matrix: (Units=GPa)
#
#
# Indices 1 2 3 4 5 6 
#
# 1 18.8087 3.1050 2.3954 0.0000 0.0000 0.0000
# 2 3.1050 59.3544 56.3174 0.0000 0.0000 0.0000
# 3 2.3954 56.3174 167.3316 0.0000 0.0000 0.0000
# 4 0.0000 0.0000 0.0000 31.2946 0.0000 0.0000
# 5 0.0000 0.0000 0.0000 0.0000 13.8258 0.0000
# 6 0.0000 0.0000 0.0000 0.0000 0.0000 -9.3365
#
#
#
# Elastic Compliance Matrix: (Units=1/GPa)
#
#
# Indices 1 2 3 4 5 6 
#
# 1 0.053638 -0.003052 0.000259 0.000000 0.000000 0.000000
# 2 -0.003052 0.024926 -0.008345 0.000000 0.000000 0.000000
# 3 0.000259 -0.008345 0.008781 0.000000 0.000000 0.000000
# 4 0.000000 0.000000 0.000000 0.031954 0.000000 0.000000
# 5 0.000000 0.000000 0.000000 0.000000 0.072329 0.000000
# 6 0.000000 0.000000 0.000000 0.000000 0.000000 -0.107107
#
#
# Mechanical properties :
#
#
# Convention : Reuss Voigt Hill
#
# Bulk Modulus (GPa) = 15.36835 41.01447 28.19141
# Shear Modulus (GPa) = 38.91447 19.40192 29.15819
#
# Velocity S-wave (km/s) = 4.36767 3.08402 3.78072
# Velocity P-wave (km/s) = 5.74189 5.72605 5.73397
#
# Compressibility (1/GPa) = 0.06506880
#
# Stress axis : x y z
#
# Youngs Moduli (GPa) = 18.64356 40.11870 113.87963
#
# Poissons Ratio (x) = 0.12244 -0.02954
# Poissons Ratio (y) = 0.05690 0.95038
# Poissons Ratio (z) = -0.00484 0.33481
#
# Static dielectric constant tensor:
#      x y z
#    x 1.752940 0.000000 0.000000 
#    y 0.000000 1.824600 0.000000 
#    z 0.000000 0.000000 1.868610 
# 
# From -- ./inp_files/16431.got.cif
#   From: 2010.05.17/outbox.cif.g08.bks.cpg/sg49_9_cif.got.tgz:16431.got - 2010.06.03 21:02:19.
