data_PCOD9393681
_publ_section_title
;
Structure prediction by ZEFSAII (Michael W. Deem and Ramdas Pophale) SiO2 
 PCOD9393681
Probable space group: P C C M
;
_chemical_formula_sum "Si O2"
_cell_formula_units_Z 64
_cell_length_a 25.040967
_cell_length_b 15.667872
_cell_length_c 8.690469
_cell_angle_alpha 90.000000
_cell_angle_beta 90.000000
_cell_angle_gamma 90.000000
_cell_volume 3409.607012
_symmetry_space_group_name_H-M "P C C M"
_symmetry_group_IT_number 49
_symmetry_cell_setting 'orthorhombic'
loop_
_space_group_symop_operation_xyz
x,y,z
-x,-y,z
x,-y,1/2-z
-x,y,1/2-z
-x,-y,-z
x,y,-z
-x,y,1/2+z
x,-y,1/2+z
loop_
_atom_site_type_symbol
_atom_site_label
_atom_site_fract_x
_atom_site_fract_y
_atom_site_fract_z
Si Si1 0.440837 0.591417 0.682904
Si Si2 0.057526 0.274042 0.685221
Si Si3 0.325774 0.912155 0.184514
Si Si4 0.357091 0.277639 0.316189
Si Si5 0.903107 0.913044 0.683541
Si Si6 0.789182 0.132236 0.682887
Si Si7 0.140761 0.410103 0.816161
Si Si8 0.765337 0.684834 0.316184
O O1 0.422236 0.500000 0.750000
O O2 0.500000 0.606541 0.750000
O O3 0.444017 0.584936 0.500000
O O4 0.401305 0.666713 0.732256
O O5 0.059158 0.280092 0.500000
O O6 0.068665 0.175367 0.729342
O O7 0.102563 0.334874 0.755838
O O8 0.000000 0.299372 0.750000
O O9 0.354000 0.822663 0.228842
O O10 0.265350 0.904973 0.247420
O O11 0.349495 0.000000 0.250000
O O12 0.324079 0.915387 0.000000
O O13 0.366295 0.281072 0.500000
O O14 0.298036 0.316542 0.287269
O O15 0.902488 0.917812 0.500000
O O16 0.842516 0.905772 0.744644
O O17 0.927290 0.000000 0.750000
O O18 0.789615 0.121324 0.500000
O O19 0.787183 0.231490 0.730042
O O20 0.121074 0.500000 0.750000
O O21 0.199599 0.392160 0.747152
O O22 0.142232 0.410916 0.000000
O O23 0.773143 0.694734 0.500000
#
# Coordination Sequence:
#
# PCOD9393681 Si02
#       8
#     8   8   8   8   8   8   8   8
#     4  11  22  38  62  88 119 156 200 250 300 354
#     4  11  25  45  67  88 116 150 191 244 296 352
#     4  10  20  34  53  80 119 161 201 247 294 346
#     4   9  20  37  58  86 122 161 200 245 295 349
#     4  11  23  38  59  85 117 152 191 238 290 348
#     4  11  20  32  54  82 115 154 196 238 287 346
#     4  12  25  42  66  92 120 154 194 239 293 355
#     4  10  20  37  59  86 122 158 194 238 292 349
#
# _framework density 18.770491
#
# number of rings (size 3 to 8) (size 9 to 14) (size 15 to 20)
#    0.000    1.375    1.250    6.375    0.000    5.500 
#    0.000    2.500    0.000    0.375    0.000    2.625 
#    0.000    0.000    0.000    0.000    0.000    0.000 
#
# Total GULP energy -357697.102839 kJ/mol
# GULP energy per Si atom -5589.017232 kJ/mol
# Density = 1.872777 g / cm^3
# Si number density = 18.770491 Si / 1000 Ang^3
#
#
#
# Elastic Constant Matrix: (Units=GPa)
#
#
# Indices 1 2 3 4 5 6 
#
# 1 68.2688 52.3279 36.4026 0.0000 0.0000 0.0000
# 2 52.3279 124.6290 48.8946 0.0000 0.0000 0.0000
# 3 36.4026 48.8946 87.5123 0.0000 0.0000 0.0000
# 4 0.0000 0.0000 0.0000 137.0707 0.0000 0.0000
# 5 0.0000 0.0000 0.0000 0.0000 44.2751 0.0000
# 6 0.0000 0.0000 0.0000 0.0000 0.0000 -4.3179
#
#
#
# Elastic Compliance Matrix: (Units=1/GPa)
#
#
# Indices 1 2 3 4 5 6 
#
# 1 0.023468 -0.007715 -0.005452 0.000000 0.000000 0.000000
# 2 -0.007715 0.012812 -0.003949 0.000000 0.000000 0.000000
# 3 -0.005452 -0.003949 0.015901 0.000000 0.000000 0.000000
# 4 0.000000 0.000000 0.000000 0.007296 0.000000 0.000000
# 5 0.000000 0.000000 0.000000 0.000000 0.022586 0.000000
# 6 0.000000 0.000000 0.000000 0.000000 0.000000 -0.231593
#
#
# Mechanical properties :
#
#
# Convention : Reuss Voigt Hill
#
# Bulk Modulus (GPa) = 55.70963 61.74002 58.72483
# Shear Modulus (GPa) = -45.74000 44.92456 -0.40772
#
# Velocity S-wave (km/s) = -4.94175 4.89751 -0.46657
# Velocity P-wave (km/s) = 1.67853 8.05880 5.57345
#
# Compressibility (1/GPa) = 0.01795022
#
# Stress axis : x y z
#
# Youngs Moduli (GPa) = 42.61059 78.04906 62.88773
#
# Poissons Ratio (x) = 0.60213 0.34285
# Poissons Ratio (y) = 0.32873 0.24837
# Poissons Ratio (z) = 0.23230 0.30825
#
# Static dielectric constant tensor:
#      x y z
#    x 1.622130 0.000000 0.000000 
#    y 0.000000 1.716570 0.000000 
#    z 0.000000 0.000000 1.621710 
# 
# From -- ./inp_files/6566.got.cif
#   From: 2010.05.17/outbox.cif.g08.bks.cpg/sg49_4_cif.got.tgz:6566.got - 2010.06.03 21:02:19.
