data_PCOD9393971
_publ_section_title
;
Structure prediction by ZEFSAII (Michael W. Deem and Ramdas Pophale) SiO2 
 PCOD9393971
Probable space group: P C C M
;
_chemical_formula_sum "Si O2"
_cell_formula_units_Z 40
_cell_length_a 26.161226
_cell_length_b 9.342950
_cell_length_c 8.583669
_cell_angle_alpha 90.000000
_cell_angle_beta 90.000000
_cell_angle_gamma 90.000000
_cell_volume 2098.046355
_symmetry_space_group_name_H-M "P C C M"
_symmetry_group_IT_number 49
_symmetry_cell_setting 'orthorhombic'
loop_
_space_group_symop_operation_xyz
x,y,z
-x,-y,z
x,-y,1/2-z
-x,y,1/2-z
-x,-y,-z
x,y,-z
-x,y,1/2+z
x,-y,1/2+z
loop_
_atom_site_type_symbol
_atom_site_label
_atom_site_fract_x
_atom_site_fract_y
_atom_site_fract_z
Si Si1 0.944787 0.839371 0.812658
Si Si2 0.153829 0.339838 0.812273
Si Si3 0.556541 0.158823 0.686684
Si Si4 0.650034 0.339719 0.186368
Si Si5 0.254101 0.838893 0.687675
O O1 0.898558 0.737342 0.761989
O O2 0.000000 0.791429 0.750000
O O3 0.936063 0.000000 0.750000
O O4 0.946341 0.844358 0.000000
O O5 0.157687 0.500000 0.750000
O O6 0.202678 0.245366 0.764971
O O7 0.153545 0.344620 0.000000
O O8 0.500000 0.193409 0.750000
O O9 0.555933 0.155757 0.500000
O O10 0.598296 0.269376 0.748137
O O11 0.569422 0.000000 0.750000
O O12 0.655917 0.500000 0.250000
O O13 0.697207 0.244142 0.245091
O O14 0.648750 0.340995 0.000000
O O15 0.257156 0.840441 0.500000
O O16 0.252784 0.000000 0.750000
#
# Coordination Sequence:
#
# PCOD9393971 Si02
#       5
#     8   8   8   8   8
#     4  10  20  36  57  84 113 149 192 238 286 342
#     4  10  23  39  58  84 117 152 192 237 291 348
#     4  11  22  40  64  92 123 160 202 247 294 347
#     4  12  25  42  62  89 122 158 197 244 296 352
#     4  11  23  41  63  89 117 153 196 242 292 349
#
# _framework density 19.065358
#
# number of rings (size 3 to 8) (size 9 to 14) (size 15 to 20)
#    0.000    1.200    0.000    7.800    0.000    5.600 
#    0.000    4.000    0.000    0.000    0.000    0.000 
#    0.000    0.000    0.000    0.000    0.000    0.000 
#
# Total GULP energy -223784.130508 kJ/mol
# GULP energy per Si atom -5594.603263 kJ/mol
# Density = 1.902196 g / cm^3
# Si number density = 19.065358 Si / 1000 Ang^3
#
#
#
# Elastic Constant Matrix: (Units=GPa)
#
#
# Indices 1 2 3 4 5 6 
#
# 1 142.3141 122.2945 59.9523 0.0000 0.0000 0.0000
# 2 122.2945 177.3590 60.3138 0.0000 0.0000 0.0000
# 3 59.9523 60.3138 128.0568 0.0000 0.0000 0.0000
# 4 0.0000 0.0000 0.0000 36.7911 0.0000 0.0000
# 5 0.0000 0.0000 0.0000 0.0000 32.8604 0.0000
# 6 0.0000 0.0000 0.0000 0.0000 0.0000 491.9179
#
#
#
# Elastic Compliance Matrix: (Units=1/GPa)
#
#
# Indices 1 2 3 4 5 6 
#
# 1 0.018231 -0.011512 -0.003113 0.000000 0.000000 0.000000
# 2 -0.011512 0.013983 -0.001196 0.000000 0.000000 0.000000
# 3 -0.003113 -0.001196 0.009830 0.000000 0.000000 0.000000
# 4 0.000000 0.000000 0.000000 0.027180 0.000000 0.000000
# 5 0.000000 0.000000 0.000000 0.000000 0.030432 0.000000
# 6 0.000000 0.000000 0.000000 0.000000 0.000000 0.002033
#
#
# Mechanical properties :
#
#
# Convention : Reuss Voigt Hill
#
# Bulk Modulus (GPa) = 96.14489 103.65012 99.89751
# Shear Modulus (GPa) = 36.55016 125.99182 81.27099
#
# Velocity S-wave (km/s) = 4.38322 8.13804 6.53606
# Velocity P-wave (km/s) = 8.72671 11.94936 10.46285
#
# Compressibility (1/GPa) = 0.01040097
#
# Stress axis : x y z
#
# Youngs Moduli (GPa) = 54.85253 71.51549 101.73046
#
# Poissons Ratio (x) = 0.82329 0.31669
# Poissons Ratio (y) = 0.63146 0.12170
# Poissons Ratio (z) = 0.17076 0.08556
#
# Static dielectric constant tensor:
#      x y z
#    x 1.649360 0.000000 0.000000 
#    y 0.000000 1.621330 0.000000 
#    z 0.000000 0.000000 1.644450 
# 
# From -- ./inp_files/1677.got.cif
#   From: 2010.05.17/outbox.cif.g08.bks.cpg/sg49_1_cif.got.tgz:1677.got - 2010.06.03 21:02:19.
