data_PCOD9393391
_publ_section_title
;
Structure prediction by ZEFSAII (Michael W. Deem and Ramdas Pophale) SiO2 
 PCOD9393391
Probable space group: P C C M
;
_chemical_formula_sum "Si O2"
_cell_formula_units_Z 64
_cell_length_a 19.137957
_cell_length_b 12.365910
_cell_length_c 14.181972
_cell_angle_alpha 90.000000
_cell_angle_beta 90.000000
_cell_angle_gamma 90.000000
_cell_volume 3356.280730
_symmetry_space_group_name_H-M "P C C M"
_symmetry_group_IT_number 49
_symmetry_cell_setting 'orthorhombic'
loop_
_space_group_symop_operation_xyz
x,y,z
-x,-y,z
x,-y,1/2-z
-x,y,1/2-z
-x,-y,-z
x,y,-z
-x,y,1/2+z
x,-y,1/2+z
loop_
_atom_site_type_symbol
_atom_site_label
_atom_site_fract_x
_atom_site_fract_y
_atom_site_fract_z
Si Si1 0.082022 0.631568 0.751628
Si Si2 0.424793 0.801249 0.229191
Si Si3 0.562389 0.582330 0.613223
Si Si4 0.318459 0.830629 0.388543
Si Si5 0.302736 0.084747 0.387520
Si Si6 0.803809 0.331378 0.387879
Si Si7 0.193053 0.739696 0.112871
Si Si8 0.283995 0.534420 0.113405
O O1 0.089125 0.500000 0.750000
O O2 0.121500 0.674504 0.659472
O O3 0.124707 0.692648 0.834892
O O4 0.000000 0.655515 0.750000
O O5 0.500000 0.854524 0.250000
O O6 0.441598 0.691164 0.173366
O O7 0.382655 0.787470 0.326802
O O8 0.369629 0.866404 0.165336
O O9 0.500000 0.500000 0.630938
O O10 0.563726 0.606775 0.500000
O O11 0.635702 0.526634 0.639448
O O12 0.332579 0.815565 0.500000
O O13 0.248428 0.765447 0.364888
O O14 0.304070 0.956842 0.370279
O O15 0.310653 0.103168 0.500000
O O16 0.230659 0.146961 0.360728
O O17 0.810947 0.337527 0.500000
O O18 0.764685 0.438823 0.350900
O O19 0.252757 0.651018 0.135901
O O20 0.180929 0.739928 0.000000
O O21 0.281757 0.525440 0.000000
#
# Coordination Sequence:
#
# PCOD9393391 Si02
#       8
#     8   8   8   8   8   8   8   8
#     4  11  23  36  55  89 127 160 189 225 286 362
#     4  12  25  38  56  86 119 156 201 249 310 364
#     4  10  22  40  60  86 122 158 199 253 309 365
#     4  10  24  42  62  88 117 157 206 253 302 356
#     4  10  21  42  68  89 111 149 206 262 305 351
#     4  10  21  38  59  85 118 155 192 242 294 352
#     4  10  19  37  64  89 112 146 198 252 295 346
#     4   9  17  33  59  85 108 148 199 243 297 349
#
# _framework density 19.068726000000002
#
# number of rings (size 3 to 8) (size 9 to 14) (size 15 to 20)
#    0.000    1.750    2.500    1.500    1.750    2.750 
#    0.000    2.500    0.000    1.875    0.000    3.500 
#    0.000    0.000    0.000    0.000    0.000    0.000 
#
# Total GULP energy -357470.831246 kJ/mol
# GULP energy per Si atom -5585.481738 kJ/mol
# Density = 1.902532 g / cm^3
# Si number density = 19.068726 Si / 1000 Ang^3
#
#
#
# Elastic Constant Matrix: (Units=GPa)
#
#
# Indices 1 2 3 4 5 6 
#
# 1 171.5786 46.9273 50.1571 0.0000 0.0000 0.0000
# 2 46.9273 84.3099 41.3040 0.0000 0.0000 0.0000
# 3 50.1571 41.3040 89.6170 0.0000 0.0000 0.0000
# 4 0.0000 0.0000 0.0000 19.7305 0.0000 0.0000
# 5 0.0000 0.0000 0.0000 0.0000 22.9911 0.0000
# 6 0.0000 0.0000 0.0000 0.0000 0.0000 13.5134
#
#
#
# Elastic Compliance Matrix: (Units=1/GPa)
#
#
# Indices 1 2 3 4 5 6 
#
# 1 0.007417 -0.002706 -0.002904 0.000000 0.000000 0.000000
# 2 -0.002706 0.016307 -0.006002 0.000000 0.000000 0.000000
# 3 -0.002904 -0.006002 0.015550 0.000000 0.000000 0.000000
# 4 0.000000 0.000000 0.000000 0.050683 0.000000 0.000000
# 5 0.000000 0.000000 0.000000 0.000000 0.043495 0.000000
# 6 0.000000 0.000000 0.000000 0.000000 0.000000 0.074000
#
#
# Mechanical properties :
#
#
# Convention : Reuss Voigt Hill
#
# Bulk Modulus (GPa) = 62.29922 69.14248 65.72085
# Shear Modulus (GPa) = 21.18405 25.05482 23.11944
#
# Velocity S-wave (km/s) = 3.33668 3.62874 3.48577
# Velocity P-wave (km/s) = 6.89829 7.34134 7.12326
#
# Compressibility (1/GPa) = 0.01605157
#
# Stress axis : x y z
#
# Youngs Moduli (GPa) = 134.82117 61.32263 64.30799
#
# Poissons Ratio (x) = 0.16592 0.18677
# Poissons Ratio (y) = 0.36478 0.38595
# Poissons Ratio (z) = 0.39156 0.36803
#
# Static dielectric constant tensor:
#      x y z
#    x 1.628530 0.000000 0.000000 
#    y 0.000000 1.678490 0.000000 
#    z 0.000000 0.000000 1.722400 
# 
# From -- ./inp_files/13095.got.cif
#   From: 2010.05.17/outbox.cif.g08.bks.cpg/sg49_7_cif.got.tgz:13095.got - 2010.06.03 21:02:19.
