data_PCOD9393880
_publ_section_title
;
Structure prediction by ZEFSAII (Michael W. Deem and Ramdas Pophale) SiO2 
 PCOD9393880
Probable space group: P C C M
;
_chemical_formula_sum "Si O2"
_cell_formula_units_Z 64
_cell_length_a 18.833613
_cell_length_b 21.090696
_cell_length_c 8.692031
_cell_angle_alpha 90.000000
_cell_angle_beta 90.000000
_cell_angle_gamma 90.000000
_cell_volume 3452.596457
_symmetry_space_group_name_H-M "P C C M"
_symmetry_group_IT_number 49
_symmetry_cell_setting 'orthorhombic'
loop_
_space_group_symop_operation_xyz
x,y,z
-x,-y,z
x,-y,1/2-z
-x,y,1/2-z
-x,-y,-z
x,y,-z
-x,y,1/2+z
x,-y,1/2+z
loop_
_atom_site_type_symbol
_atom_site_label
_atom_site_fract_x
_atom_site_fract_y
_atom_site_fract_z
Si Si1 0.673284 0.811147 0.814251
Si Si2 0.078851 0.931966 0.815444
Si Si3 0.833599 0.568242 0.185346
Si Si4 0.330873 0.431710 0.185560
Si Si5 0.420918 0.310028 0.814102
Si Si6 0.079107 0.308204 0.815114
Si Si7 0.168781 0.808585 0.815790
Si Si8 0.421423 0.931617 0.315357
O O1 0.625448 0.750978 0.768030
O O2 0.750603 0.807833 0.741125
O O3 0.632152 0.875601 0.772332
O O4 0.680489 0.809501 0.000000
O O5 0.130690 0.874684 0.772135
O O6 0.000000 0.919662 0.750000
O O7 0.102352 0.000000 0.750000
O O8 0.074672 0.935802 0.000000
O O9 0.855796 0.500000 0.250000
O O10 0.751358 0.579422 0.232290
O O11 0.882870 0.626354 0.234794
O O12 0.834984 0.565483 0.000000
O O13 0.352942 0.500000 0.250000
O O14 0.380678 0.374093 0.236215
O O15 0.332363 0.434036 0.000000
O O16 0.500000 0.306636 0.750000
O O17 0.424019 0.310399 0.000000
O O18 0.125467 0.249353 0.756960
O O19 0.000000 0.304215 0.750000
O O20 0.076949 0.307150 0.000000
O O21 0.166222 0.803209 0.000000
O O22 0.500000 0.918098 0.250000
O O23 0.425751 0.935038 0.500000
O O24 0.399336 0.000000 0.250000
#
# Coordination Sequence:
#
# PCOD9393880 Si02
#       8
#     8   8   8   8   8   8   8   8
#     4  10  22  39  58  80 109 146 184 227 279 330
#     4  10  21  37  58  84 112 144 182 223 270 324
#     4   9  19  36  58  82 110 146 185 228 276 328
#     4   9  18  34  55  78 106 140 178 220 268 322
#     4  10  21  37  56  79 108 142 182 226 273 324
#     4  11  23  39  59  83 114 150 188 231 279 331
#     4  11  24  39  58  85 113 145 187 232 278 331
#     4  10  20  35  57  83 112 147 185 227 277 332
#
# _framework density 18.536773
#
# number of rings (size 3 to 8) (size 9 to 14) (size 15 to 20)
#    0.000    2.000    0.000    3.750    0.000    9.000 
#    0.000    7.500    0.000    0.000    0.000    0.000 
#    0.000    0.000    0.000    0.000    0.000    0.000 
#
# Total GULP energy -357546.285007 kJ/mol
# GULP energy per Si atom -5586.660703 kJ/mol
# Density = 1.849458 g / cm^3
# Si number density = 18.536773 Si / 1000 Ang^3
#
#
#
# Elastic Constant Matrix: (Units=GPa)
#
#
# Indices 1 2 3 4 5 6 
#
# 1 155.9576 138.6733 45.3346 0.0000 0.0000 0.0000
# 2 138.6733 198.6527 54.7500 0.0000 0.0000 0.0000
# 3 45.3346 54.7500 33.7634 0.0000 0.0000 0.0000
# 4 0.0000 0.0000 0.0000 21.9897 0.0000 0.0000
# 5 0.0000 0.0000 0.0000 0.0000 25.4616 0.0000
# 6 0.0000 0.0000 0.0000 0.0000 0.0000 41.3309
#
#
#
# Elastic Compliance Matrix: (Units=1/GPa)
#
#
# Indices 1 2 3 4 5 6 
#
# 1 0.017717 -0.010507 -0.006751 0.000000 0.000000 0.000000
# 2 -0.010507 0.015333 -0.010755 0.000000 0.000000 0.000000
# 3 -0.006751 -0.010755 0.056123 0.000000 0.000000 0.000000
# 4 0.000000 0.000000 0.000000 0.045476 0.000000 0.000000
# 5 0.000000 0.000000 0.000000 0.000000 0.039275 0.000000
# 6 0.000000 0.000000 0.000000 0.000000 0.000000 0.024195
#
#
# Mechanical properties :
#
#
# Convention : Reuss Voigt Hill
#
# Bulk Modulus (GPa) = 30.16934 96.20993 63.18964
# Shear Modulus (GPa) = 18.85417 27.73083 23.29250
#
# Velocity S-wave (km/s) = 3.19270 3.87200 3.54864
# Velocity P-wave (km/s) = 5.46825 8.48556 7.13816
#
# Compressibility (1/GPa) = 0.03314623
#
# Stress axis : x y z
#
# Youngs Moduli (GPa) = 56.44293 65.21935 17.81808
#
# Poissons Ratio (x) = 0.68527 0.12028
# Poissons Ratio (y) = 0.59305 0.19164
# Poissons Ratio (z) = 0.38103 0.70146
#
# Static dielectric constant tensor:
#      x y z
#    x 1.603890 0.000000 0.000000 
#    y 0.000000 1.627210 0.000000 
#    z 0.000000 0.000000 1.630130 
# 
# From -- ./inp_files/5302.got.cif
#   From: 2010.05.17/outbox.cif.g08.bks.cpg/sg49_3_cif.got.tgz:5302.got - 2010.06.03 21:02:19.
