data_PCOD9393196
_publ_section_title
;
Structure prediction by ZEFSAII (Michael W. Deem and Ramdas Pophale) SiO2 
 PCOD9393196
Probable space group: P C C M
;
_chemical_formula_sum "Si O2"
_cell_formula_units_Z 60
_cell_length_a 24.080870
_cell_length_b 14.913302
_cell_length_c 7.824498
_cell_angle_alpha 90.000000
_cell_angle_beta 90.000000
_cell_angle_gamma 90.000000
_cell_volume 2809.975088
_symmetry_space_group_name_H-M "P C C M"
_symmetry_group_IT_number 49
_symmetry_cell_setting 'orthorhombic'
loop_
_space_group_symop_operation_xyz
x,y,z
-x,-y,z
x,-y,1/2-z
-x,y,1/2-z
-x,-y,-z
x,y,-z
-x,y,1/2+z
x,-y,1/2+z
loop_
_atom_site_type_symbol
_atom_site_label
_atom_site_fract_x
_atom_site_fract_y
_atom_site_fract_z
Si Si1 0.410329 0.898829 0.707943
Si Si2 0.061196 0.104423 0.299180
Si Si3 0.304300 0.345234 0.302029
Si Si4 0.712318 0.850300 0.192196
Si Si5 0.828354 0.796030 0.201789
Si Si6 0.500000 0.756119 0.250000
Si Si7 0.187820 0.595158 0.703758
Si Si8 0.426408 0.600100 0.795796
O O1 0.413767 0.882859 0.500000
O O2 0.345703 0.887827 0.765421
O O3 0.451959 0.828572 0.798599
O O4 0.427287 0.000000 0.750000
O O5 0.066635 0.111646 0.500000
O O6 0.113649 0.154600 0.221742
O O7 0.000000 0.139055 0.250000
O O8 0.063134 0.000000 0.250000
O O9 0.306563 0.316314 0.500000
O O10 0.298115 0.256368 0.190622
O O11 0.250291 0.404439 0.275070
O O12 0.361242 0.392985 0.260469
O O13 0.774480 0.850844 0.273501
O O14 0.715644 0.888646 0.000000
O O15 0.833454 0.693065 0.266479
O O16 0.816128 0.789847 0.000000
O O17 0.456668 0.678129 0.310277
O O18 0.160245 0.500000 0.750000
O O19 0.189023 0.598170 0.500000
O O20 0.443448 0.500000 0.750000
O O21 0.435141 0.617713 0.000000
#
# Coordination Sequence:
#
# PCOD9393196 Si02
#       8
#     8   8   8   8   8   4   8   8
#     4  11  25  43  65  87 111 146 190 242 300 361
#     4  11  22  38  62  91 126 164 205 246 295 347
#     4  10  19  34  56  82 112 147 188 234 289 351
#     4   9  19  38  60  85 115 152 189 236 295 348
#     4   9  19  36  59  88 124 159 200 244 294 348
#     4  12  24  44  64  80 108 146 196 244 296 358
#     4  10  20  34  55  85 122 162 202 246 292 346
#     4  11  25  40  58  85 111 143 184 234 293 358
#
# _framework density 21.352502999999999
#
# number of rings (size 3 to 8) (size 9 to 14) (size 15 to 20)
#    0.000    1.733    1.333    4.400    0.000    9.067 
#    0.000    1.333    0.000    0.400    0.000    2.800 
#    0.000    0.000    0.000    0.000    0.000    0.000 
#
# Total GULP energy -334095.223400 kJ/mol
# GULP energy per Si atom -5568.253723 kJ/mol
# Density = 2.130390 g / cm^3
# Si number density = 21.352503 Si / 1000 Ang^3
#
#
#
# Elastic Constant Matrix: (Units=GPa)
#
#
# Indices 1 2 3 4 5 6 
#
# 1 153.1971 61.6961 3.4147 0.0000 0.0000 0.0000
# 2 61.6961 122.1423 3.0316 0.0000 0.0000 0.0000
# 3 3.4147 3.0316 54.1065 0.0000 0.0000 0.0000
# 4 0.0000 0.0000 0.0000 38.4842 0.0000 0.0000
# 5 0.0000 0.0000 0.0000 0.0000 18.2074 0.0000
# 6 0.0000 0.0000 0.0000 0.0000 0.0000 8.6639
#
#
#
# Elastic Compliance Matrix: (Units=1/GPa)
#
#
# Indices 1 2 3 4 5 6 
#
# 1 0.008199 -0.004134 -0.000286 0.000000 0.000000 0.000000
# 2 -0.004134 0.010283 -0.000315 0.000000 0.000000 0.000000
# 3 -0.000286 -0.000315 0.018518 0.000000 0.000000 0.000000
# 4 0.000000 0.000000 0.000000 0.025985 0.000000 0.000000
# 5 0.000000 0.000000 0.000000 0.000000 0.054923 0.000000
# 6 0.000000 0.000000 0.000000 0.000000 0.000000 0.115421
#
#
# Mechanical properties :
#
#
# Convention : Reuss Voigt Hill
#
# Bulk Modulus (GPa) = 36.32499 51.74786 44.03643
# Shear Modulus (GPa) = 19.84319 30.49134 25.16727
#
# Velocity S-wave (km/s) = 3.05177 3.78299 3.43688
# Velocity P-wave (km/s) = 5.42833 6.58551 6.03472
#
# Compressibility (1/GPa) = 0.02752926
#
# Stress axis : x y z
#
# Youngs Moduli (GPa) = 121.96779 97.24503 54.00217
#
# Poissons Ratio (x) = 0.40204 0.01543
# Poissons Ratio (y) = 0.50425 0.01702
# Poissons Ratio (z) = 0.03486 0.03066
#
# Static dielectric constant tensor:
#      x y z
#    x 1.677690 0.000000 0.000000 
#    y 0.000000 1.760990 0.000000 
#    z 0.000000 0.000000 1.791230 
# 
# From -- ./inp_files/6426.got.cif
#   From: 2010.05.17/outbox.cif.g08.bks.cpg/sg49_4_cif.got.tgz:6426.got - 2010.06.03 21:02:19.
