data_PCOD9393677
_publ_section_title
;
Structure prediction by ZEFSAII (Michael W. Deem and Ramdas Pophale) SiO2 
 PCOD9393677
Probable space group: P C C M
;
_chemical_formula_sum "Si O2"
_cell_formula_units_Z 56
_cell_length_a 15.193107
_cell_length_b 23.163637
_cell_length_c 8.685076
_cell_angle_alpha 90.000000
_cell_angle_beta 90.000000
_cell_angle_gamma 90.000000
_cell_volume 3056.518087
_symmetry_space_group_name_H-M "P C C M"
_symmetry_group_IT_number 49
_symmetry_cell_setting 'orthorhombic'
loop_
_space_group_symop_operation_xyz
x,y,z
-x,-y,z
x,-y,1/2-z
-x,y,1/2-z
-x,-y,-z
x,y,-z
-x,y,1/2+z
x,-y,1/2+z
loop_
_atom_site_type_symbol
_atom_site_label
_atom_site_fract_x
_atom_site_fract_y
_atom_site_fract_z
Si Si1 0.595974 0.662963 0.685106
Si Si2 0.726309 0.440082 0.815874
Si Si3 0.404521 0.209784 0.815264
Si Si4 0.777598 0.159136 0.313997
Si Si5 0.094767 0.604573 0.684736
Si Si6 0.094241 0.738319 0.315153
Si Si7 0.094121 0.935694 0.816298
O O1 0.500000 0.647019 0.750000
O O2 0.592250 0.666808 0.500000
O O3 0.666760 0.614682 0.729674
O O4 0.616645 0.726090 0.752708
O O5 0.690058 0.500000 0.750000
O O6 0.823980 0.430720 0.750680
O O7 0.729081 0.442744 0.000000
O O8 0.500000 0.193354 0.750000
O O9 0.324376 0.167761 0.772125
O O10 0.409267 0.212840 0.000000
O O11 0.783266 0.153681 0.500000
O O12 0.829898 0.217504 0.268519
O O13 0.828322 0.106180 0.237993
O O14 0.093680 0.601442 0.500000
O O15 0.108660 0.671893 0.732773
O O16 0.000000 0.586454 0.750000
O O17 0.089656 0.738641 0.500000
O O18 0.000000 0.757168 0.250000
O O19 0.000000 0.914625 0.750000
O O20 0.107183 0.000000 0.750000
O O21 0.088754 0.937929 0.000000
#
# Coordination Sequence:
#
# PCOD9393677 Si02
#       7
#     8   8   8   8   8   8   8
#     4  10  21  37  58  82 109 139 174 216 267 325
#     4  11  24  39  55  77 102 133 174 220 266 318
#     4  10  20  35  57  83 113 145 179 221 269 321
#     4  10  20  34  53  80 112 146 183 223 268 317
#     4  10  20  36  56  77 104 138 174 215 263 317
#     4   9  18  31  49  75 106 137 169 208 259 314
#     4  11  22  37  57  81 113 152 191 230 269 314
#
# _framework density 18.321501000000001
#
# number of rings (size 3 to 8) (size 9 to 14) (size 15 to 20)
#    0.000    1.857    0.000    5.571    0.000    7.429 
#    0.000    2.857    0.000    0.429    0.000    3.000 
#    0.000    0.000    0.000    0.000    0.000    0.000 
#
# Total GULP energy -312872.885081 kJ/mol
# GULP energy per Si atom -5587.015805 kJ/mol
# Density = 1.827980 g / cm^3
# Si number density = 18.321501 Si / 1000 Ang^3
#
#
#
# Elastic Constant Matrix: (Units=GPa)
#
#
# Indices 1 2 3 4 5 6 
#
# 1 136.3670 72.1982 50.1062 0.0000 0.0000 0.0000
# 2 72.1982 70.1056 35.4897 0.0000 0.0000 0.0000
# 3 50.1062 35.4897 66.0510 0.0000 0.0000 0.0000
# 4 0.0000 0.0000 0.0000 16.6851 0.0000 0.0000
# 5 0.0000 0.0000 0.0000 0.0000 17.7414 0.0000
# 6 0.0000 0.0000 0.0000 0.0000 0.0000 9.7382
#
#
#
# Elastic Compliance Matrix: (Units=1/GPa)
#
#
# Indices 1 2 3 4 5 6 
#
# 1 0.017185 -0.015245 -0.004845 0.000000 0.000000 0.000000
# 2 -0.015245 0.033118 -0.006230 0.000000 0.000000 0.000000
# 3 -0.004845 -0.006230 0.022163 0.000000 0.000000 0.000000
# 4 0.000000 0.000000 0.000000 0.059934 0.000000 0.000000
# 5 0.000000 0.000000 0.000000 0.000000 0.056365 0.000000
# 6 0.000000 0.000000 0.000000 0.000000 0.000000 0.102688
#
#
# Mechanical properties :
#
#
# Convention : Reuss Voigt Hill
#
# Bulk Modulus (GPa) = 50.43955 65.34574 57.89265
# Shear Modulus (GPa) = 14.25720 16.48157 15.36939
#
# Velocity S-wave (km/s) = 2.79259 3.00255 2.89947
# Velocity P-wave (km/s) = 6.16345 6.91115 6.54798
#
# Compressibility (1/GPa) = 0.01982571
#
# Stress axis : x y z
#
# Youngs Moduli (GPa) = 58.19143 30.19528 45.12117
#
# Poissons Ratio (x) = 0.46032 0.21862
# Poissons Ratio (y) = 0.88712 0.28109
# Poissons Ratio (z) = 0.28194 0.18811
#
# Static dielectric constant tensor:
#      x y z
#    x 1.622840 0.000000 0.000000 
#    y 0.000000 1.628070 0.000000 
#    z 0.000000 0.000000 1.612250 
# 
# From -- ./inp_files/4047.got.cif
#   From: 2010.05.17/outbox.cif.g08.bks.cpg/sg49_3_cif.got.tgz:4047.got - 2010.06.03 21:02:19.
