data_PCOD9393914
_publ_section_title
;
Structure prediction by ZEFSAII (Michael W. Deem and Ramdas Pophale) SiO2 
 PCOD9393914
Probable space group: P C C M
;
_chemical_formula_sum "Si O2"
_cell_formula_units_Z 64
_cell_length_a 12.547571
_cell_length_b 7.990681
_cell_length_c 31.073210
_cell_angle_alpha 90.000000
_cell_angle_beta 90.000000
_cell_angle_gamma 90.000000
_cell_volume 3115.513054
_symmetry_space_group_name_H-M "P C C M"
_symmetry_group_IT_number 49
_symmetry_cell_setting 'orthorhombic'
loop_
_space_group_symop_operation_xyz
x,y,z
-x,-y,z
x,-y,1/2-z
-x,y,1/2-z
-x,-y,-z
x,y,-z
-x,y,1/2+z
x,-y,1/2+z
loop_
_atom_site_type_symbol
_atom_site_label
_atom_site_fract_x
_atom_site_fract_y
_atom_site_fract_z
Si Si1 0.465315 0.191381 0.799276
Si Si2 0.016082 0.203342 0.797958
Si Si3 0.391069 0.644136 0.130286
Si Si4 0.297202 0.647167 0.419242
Si Si5 0.231543 0.158078 0.839265
Si Si6 0.112369 0.599514 0.950054
Si Si7 0.504278 0.296002 0.954381
Si Si8 0.836659 0.781044 0.363869
O O1 0.500000 0.229393 0.750000
O O2 0.532622 0.309656 0.830827
O O3 0.340780 0.188143 0.812774
O O4 0.500000 0.000000 0.807367
O O5 0.135259 0.235723 0.812746
O O6 0.000000 0.266094 0.750000
O O7 0.932056 0.269937 0.832430
O O8 0.000000 0.000000 0.797354
O O9 0.378718 0.458370 0.111366
O O10 0.426966 0.748508 0.087619
O O11 0.270576 0.678831 0.143702
O O12 0.235720 0.759970 0.385992
O O13 0.214362 0.525045 0.443016
O O14 0.380177 0.749220 0.448237
O O15 0.200366 0.966655 0.849979
O O16 0.127203 0.741080 0.913056
O O17 0.000000 0.500000 0.943402
O O18 0.113519 0.657018 0.000000
O O19 0.500000 0.500000 0.957959
O O20 0.547129 0.233033 0.000000
#
# Coordination Sequence:
#
# PCOD9393914 Si02
#       8
#     8   8   8   8   8   8   8   8
#     4  11  23  36  60  88 120 161 209 252 310 379
#     4   9  20  35  59  86 112 149 200 246 297 368
#     4  10  20  36  56  84 119 157 198 248 301 367
#     4  10  20  35  60  83 121 159 199 248 312 371
#     4  11  21  37  60  88 122 159 198 257 314 366
#     4  10  21  39  63  88 117 162 212 251 306 381
#     4   9  17  31  54  81 110 149 195 237 290 361
#     4  10  21  37  61  85 121 155 199 253 307 358
#
# _framework density 20.542363999999999
#
# number of rings (size 3 to 8) (size 9 to 14) (size 15 to 20)
#    0.000    2.000    2.500    1.125    1.750    4.000 
#    0.000    2.500    0.000   10.875    0.000    0.000 
#    0.000    0.000    0.000    0.000    0.000    0.000 
#
# Total GULP energy -356607.084271 kJ/mol
# GULP energy per Si atom -5571.985692 kJ/mol
# Density = 2.049561 g / cm^3
# Si number density = 20.542364 Si / 1000 Ang^3
#
#
#
# Elastic Constant Matrix: (Units=GPa)
#
#
# Indices 1 2 3 4 5 6 
#
# 1 147.0785 7.8148 72.2028 0.0000 0.0000 0.0000
# 2 7.8148 9.9451 19.1832 0.0000 0.0000 0.0000
# 3 72.2028 19.1832 130.9968 0.0000 0.0000 0.0000
# 4 0.0000 0.0000 0.0000 19.6195 0.0000 0.0000
# 5 0.0000 0.0000 0.0000 0.0000 1.3855 0.0000
# 6 0.0000 0.0000 0.0000 0.0000 0.0000 19.7219
#
#
#
# Elastic Compliance Matrix: (Units=1/GPa)
#
#
# Indices 1 2 3 4 5 6 
#
# 1 0.009415 0.003640 -0.005722 0.000000 0.000000 0.000000
# 2 0.003640 0.141544 -0.022734 0.000000 0.000000 0.000000
# 3 -0.005722 -0.022734 0.014117 0.000000 0.000000 0.000000
# 4 0.000000 0.000000 0.000000 0.050970 0.000000 0.000000
# 5 0.000000 0.000000 0.000000 0.000000 0.721760 0.000000
# 6 0.000000 0.000000 0.000000 0.000000 0.000000 0.050705
#
#
# Mechanical properties :
#
#
# Convention : Reuss Voigt Hill
#
# Bulk Modulus (GPa) = 8.66229 54.04687 31.35458
# Shear Modulus (GPa) = 4.64415 20.73337 12.68876
#
# Velocity S-wave (km/s) = 1.50522 3.18039 2.48803
# Velocity P-wave (km/s) = 2.69200 6.31297 4.85286
#
# Compressibility (1/GPa) = 0.11544285
#
# Stress axis : x y z
#
# Youngs Moduli (GPa) = 106.21547 7.06494 70.83720
#
# Poissons Ratio (x) = -0.02571 0.40535
# Poissons Ratio (y) = -0.38658 1.61039
# Poissons Ratio (z) = 0.60779 0.16061
#
# Static dielectric constant tensor:
#      x y z
#    x 1.857230 0.000000 0.000000 
#    y 0.000000 1.792590 0.000000 
#    z 0.000000 0.000000 1.789660 
# 
# From -- ./inp_files/26694.got.cif
#   From: 2010.05.17/outbox.cif.g08.bks.cpg/sg49_14_cif.got.tgz:26694.got - 2010.06.03 21:02:19.
