data_PCOD9393227
_publ_section_title
;
Structure prediction by ZEFSAII (Michael W. Deem and Ramdas Pophale) SiO2 
 PCOD9393227
Probable space group: P C C M
;
_chemical_formula_sum "Si O2"
_cell_formula_units_Z 40
_cell_length_a 5.252306
_cell_length_b 22.619219
_cell_length_c 15.072691
_cell_angle_alpha 90.000000
_cell_angle_beta 90.000000
_cell_angle_gamma 90.000000
_cell_volume 1790.681808
_symmetry_space_group_name_H-M "P C C M"
_symmetry_group_IT_number 49
_symmetry_cell_setting 'orthorhombic'
loop_
_space_group_symop_operation_xyz
x,y,z
-x,-y,z
x,-y,1/2-z
-x,y,1/2-z
-x,-y,-z
x,y,-z
-x,y,1/2+z
x,-y,1/2+z
loop_
_atom_site_type_symbol
_atom_site_label
_atom_site_fract_x
_atom_site_fract_y
_atom_site_fract_z
Si Si1 0.334216 0.733444 0.606574
Si Si2 0.155272 0.340900 0.393563
Si Si3 0.753680 0.473742 0.849858
Si Si4 0.055288 0.066635 0.354231
Si Si5 0.562023 0.863091 0.899166
O O1 0.287274 0.740175 0.500000
O O2 0.593723 0.698021 0.618976
O O3 0.385629 0.799049 0.643956
O O4 0.092888 0.695212 0.638997
O O5 0.124619 0.351588 0.500000
O O6 0.211981 0.403733 0.348993
O O7 0.500000 0.500000 0.892097
O O8 0.751576 0.500000 0.750000
O O9 0.000000 0.500000 0.895915
O O10 0.338213 0.093976 0.364014
O O11 0.000000 0.066470 0.250000
O O12 0.836303 0.106176 0.397458
O O13 0.000000 0.000000 0.386956
O O14 0.477822 0.851633 0.000000
#
# Coordination Sequence:
#
# PCOD9393227 Si02
#       5
#     8   8   8   8   8
#     4   9  19  35  58  88 116 148 188 246 307 350
#     4  10  19  34  58  84 111 146 193 237 291 359
#     4  10  21  36  55  75 110 149 182 233 286 352
#     4  11  24  41  62  88 130 175 209 256 318 379
#     4  11  22  39  66  94 125 162 212 270 316 369
#
# _framework density 22.337859999999999
#
# number of rings (size 3 to 8) (size 9 to 14) (size 15 to 20)
#    0.000    1.800    0.000    4.200    0.000    8.000 
#    0.000    0.000   44.000    0.000    0.000    0.000 
#    0.000    0.000    0.000    0.000    0.000    0.000 
#
# Total GULP energy -223343.093024 kJ/mol
# GULP energy per Si atom -5583.577326 kJ/mol
# Density = 2.228702 g / cm^3
# Si number density = 22.337860 Si / 1000 Ang^3
#
#
#
# Elastic Constant Matrix: (Units=GPa)
#
#
# Indices 1 2 3 4 5 6 
#
# 1 151.4075 46.3737 8.0821 0.0000 0.0000 0.0000
# 2 46.3737 187.7038 18.4091 0.0000 0.0000 0.0000
# 3 8.0821 18.4091 49.2431 0.0000 0.0000 0.0000
# 4 0.0000 0.0000 0.0000 13.8868 0.0000 0.0000
# 5 0.0000 0.0000 0.0000 0.0000 7.3000 0.0000
# 6 0.0000 0.0000 0.0000 0.0000 0.0000 82.4945
#
#
#
# Elastic Compliance Matrix: (Units=1/GPa)
#
#
# Indices 1 2 3 4 5 6 
#
# 1 0.007159 -0.001716 -0.000533 0.000000 0.000000 0.000000
# 2 -0.001716 0.005942 -0.001940 0.000000 0.000000 0.000000
# 3 -0.000533 -0.001940 0.021120 0.000000 0.000000 0.000000
# 4 0.000000 0.000000 0.000000 0.072011 0.000000 0.000000
# 5 0.000000 0.000000 0.000000 0.000000 0.136986 0.000000
# 6 0.000000 0.000000 0.000000 0.000000 0.000000 0.012122
#
#
# Mechanical properties :
#
#
# Convention : Reuss Voigt Hill
#
# Bulk Modulus (GPa) = 38.69641 59.34267 49.01954
# Shear Modulus (GPa) = 18.35994 41.76890 30.06442
#
# Velocity S-wave (km/s) = 2.87003 4.32889 3.67262
# Velocity P-wave (km/s) = 5.32387 7.18397 6.32269
#
# Compressibility (1/GPa) = 0.02584219
#
# Stress axis : x y z
#
# Youngs Moduli (GPa) = 139.68723 168.29906 47.34839
#
# Poissons Ratio (x) = 0.28886 0.02525
# Poissons Ratio (y) = 0.23975 0.09184
# Poissons Ratio (z) = 0.07450 0.32643
#
# Static dielectric constant tensor:
#      x y z
#    x 1.795020 0.000000 0.000000 
#    y 0.000000 1.925890 0.000000 
#    z 0.000000 0.000000 1.869000 
# 
# From -- ./inp_files/15267.got.cif
#   From: 2010.05.17/outbox.cif.g08.bks.cpg/sg49_8_cif.got.tgz:15267.got - 2010.06.03 21:02:19.
