data_PCOD9393348
_publ_section_title
;
Structure prediction by ZEFSAII (Michael W. Deem and Ramdas Pophale) SiO2 
 PCOD9393348
Probable space group: P C C M
;
_chemical_formula_sum "Si O2"
_cell_formula_units_Z 48
_cell_length_a 14.741141
_cell_length_b 20.857760
_cell_length_c 8.723207
_cell_angle_alpha 90.000000
_cell_angle_beta 90.000000
_cell_angle_gamma 90.000000
_cell_volume 2682.099866
_symmetry_space_group_name_H-M "P C C M"
_symmetry_group_IT_number 49
_symmetry_cell_setting 'orthorhombic'
loop_
_space_group_symop_operation_xyz
x,y,z
-x,-y,z
x,-y,1/2-z
-x,y,1/2-z
-x,-y,-z
x,y,-z
-x,y,1/2+z
x,-y,1/2+z
loop_
_atom_site_type_symbol
_atom_site_label
_atom_site_fract_x
_atom_site_fract_y
_atom_site_fract_z
Si Si1 0.596965 0.390545 0.816029
Si Si2 0.212813 0.185094 0.684900
Si Si3 0.213918 0.566909 0.682825
Si Si4 0.404402 0.760967 0.183603
Si Si5 0.898979 0.314328 0.816129
Si Si6 0.900726 0.930085 0.817084
O O1 0.500000 0.412119 0.750000
O O2 0.683020 0.424508 0.741745
O O3 0.606153 0.314532 0.777736
O O4 0.598890 0.397631 0.000000
O O5 0.211576 0.176643 0.500000
O O6 0.315634 0.200619 0.734390
O O7 0.152866 0.248039 0.719835
O O8 0.169695 0.123539 0.763868
O O9 0.178149 0.500000 0.750000
O O10 0.211952 0.565863 0.500000
O O11 0.156419 0.626507 0.745962
O O12 0.500000 0.783568 0.250000
O O13 0.408204 0.764293 0.000000
O O14 0.000000 0.312659 0.750000
O O15 0.900963 0.321056 0.000000
O O16 0.000000 0.913154 0.750000
O O17 0.877384 0.000000 0.750000
O O18 0.906401 0.933516 0.000000
#
# Coordination Sequence:
#
# PCOD9393348 Si02
#       6
#     8   8   8   8   8   8
#     4  10  19  36  58  85 115 148 186 233 288 344
#     4  10  20  37  60  87 120 154 189 234 283 333
#     4  12  25  41  60  82 110 149 191 238 292 349
#     4   9  18  33  55  84 117 151 185 230 280 333
#     4  11  23  41  61  85 115 147 189 238 288 342
#     4  11  22  37  58  86 120 158 196 236 283 338
#
# _framework density 17.896426000000002
#
# number of rings (size 3 to 8) (size 9 to 14) (size 15 to 20)
#    0.000    1.500    1.667    5.000    0.000    4.667 
#    0.000    3.333    0.000    0.500    0.000    3.500 
#    0.000    0.000    0.000    0.000    0.000    0.000 
#
# Total GULP energy -268308.555350 kJ/mol
# GULP energy per Si atom -5589.761570 kJ/mol
# Density = 1.785569 g / cm^3
# Si number density = 17.896426 Si / 1000 Ang^3
#
#
#
# Elastic Constant Matrix: (Units=GPa)
#
#
# Indices 1 2 3 4 5 6 
#
# 1 138.8238 70.5126 53.5108 0.0000 0.0000 0.0000
# 2 70.5126 96.9223 50.6795 0.0000 0.0000 0.0000
# 3 53.5108 50.6795 90.6934 0.0000 0.0000 0.0000
# 4 0.0000 0.0000 0.0000 17.3424 0.0000 0.0000
# 5 0.0000 0.0000 0.0000 0.0000 34.2232 0.0000
# 6 0.0000 0.0000 0.0000 0.0000 0.0000 -86.0319
#
#
#
# Elastic Compliance Matrix: (Units=1/GPa)
#
#
# Indices 1 2 3 4 5 6 
#
# 1 0.012018 -0.007114 -0.003115 0.000000 0.000000 0.000000
# 2 -0.007114 0.018788 -0.006301 0.000000 0.000000 0.000000
# 3 -0.003115 -0.006301 0.016385 0.000000 0.000000 0.000000
# 4 0.000000 0.000000 0.000000 0.057662 0.000000 0.000000
# 5 0.000000 0.000000 0.000000 0.000000 0.029220 0.000000
# 6 0.000000 0.000000 0.000000 0.000000 0.000000 -0.011624
#
#
# Mechanical properties :
#
#
# Convention : Reuss Voigt Hill
#
# Bulk Modulus (GPa) = 70.77280 75.09392 72.93336
# Shear Modulus (GPa) = 31.20696 3.22252 17.21474
#
# Velocity S-wave (km/s) = 4.18036 1.34334 3.10483
# Velocity P-wave (km/s) = 7.93298 6.66764 7.32767
#
# Compressibility (1/GPa) = 0.01412972
#
# Stress axis : x y z
#
# Youngs Moduli (GPa) = 83.21109 53.22538 61.02995
#
# Poissons Ratio (x) = 0.37865 0.19013
# Poissons Ratio (y) = 0.59197 0.38457
# Poissons Ratio (z) = 0.25923 0.33539
#
# Static dielectric constant tensor:
#      x y z
#    x 1.601570 0.000000 0.000000 
#    y 0.000000 1.599030 0.000000 
#    z 0.000000 0.000000 1.595970 
# 
# From -- ./inp_files/3688.got.cif
#   From: 2010.05.17/outbox.cif.g08.bks.cpg/sg49_2_cif.got.tgz:3688.got - 2010.06.03 21:02:19.
