data_PCOD9393093
_publ_section_title
;
Structure prediction by ZEFSAII (Michael W. Deem and Ramdas Pophale) SiO2 
 PCOD9393093
Probable space group: P C C M
;
_chemical_formula_sum "Si O2"
_cell_formula_units_Z 64
_cell_length_a 11.078821
_cell_length_b 17.098421
_cell_length_c 19.263078
_cell_angle_alpha 90.000000
_cell_angle_beta 90.000000
_cell_angle_gamma 90.000000
_cell_volume 3649.011524
_symmetry_space_group_name_H-M "P C C M"
_symmetry_group_IT_number 49
_symmetry_cell_setting 'orthorhombic'
loop_
_space_group_symop_operation_xyz
x,y,z
-x,-y,z
x,-y,1/2-z
-x,y,1/2-z
-x,-y,-z
x,y,-z
-x,y,1/2+z
x,-y,1/2+z
loop_
_atom_site_type_symbol
_atom_site_label
_atom_site_fract_x
_atom_site_fract_y
_atom_site_fract_z
Si Si1 0.257285 0.807049 0.659504
Si Si2 0.208226 0.706369 0.210999
Si Si3 0.346835 0.735527 0.076220
Si Si4 0.628183 0.412954 0.719783
Si Si5 0.773492 0.101674 0.919001
Si Si6 0.360579 0.023357 0.170563
Si Si7 0.016928 0.825245 0.826188
Si Si8 0.383972 0.331648 0.079397
O O1 0.259735 0.775244 0.739079
O O2 0.334930 0.885508 0.657476
O O3 0.303142 0.738690 0.609563
O O4 0.116610 0.821396 0.643474
O O5 0.275636 0.697464 0.138712
O O6 0.250650 0.631042 0.254159
O O7 0.076581 0.739709 0.190458
O O8 0.325987 0.828459 0.085059
O O9 0.482488 0.705620 0.079132
O O10 0.296691 0.716035 0.000000
O O11 0.632246 0.500000 0.750000
O O12 0.500000 0.378220 0.750000
O O13 0.621477 0.400544 0.636776
O O14 0.889078 0.131963 0.876026
O O15 0.720269 0.026256 0.881990
O O16 0.801267 0.089293 0.000000
O O17 0.500000 0.000000 0.160616
O O18 0.328811 0.000000 0.250000
O O19 0.000000 0.863737 0.750000
O O20 0.353766 0.353582 0.000000
#
# Coordination Sequence:
#
# PCOD9393093 Si02
#       8
#     8   8   8   8   8   8   8   8
#     4  10  21  33  53  74 101 142 187 237 267 318
#     4   9  17  33  54  75 101 137 177 219 262 319
#     4   9  16  29  49  74 100 133 173 214 263 316
#     4  10  19  33  54  85 116 141 167 209 270 335
#     4  10  21  35  53  76 107 141 179 230 284 332
#     4  11  22  35  51  78 108 144 186 231 286 337
#     4   9  18  35  55  76  99 138 190 230 270 319
#     4  10  20  34  53  79 110 146 179 220 272 327
#
# _framework density 17.538996999999998
#
# number of rings (size 3 to 8) (size 9 to 14) (size 15 to 20)
#    0.000    2.250    1.250    3.000    0.000    2.750 
#    0.000    5.000    0.000    9.375    0.000    0.875 
#    0.000    0.000    0.000    0.000    0.000    0.000 
#
# Total GULP energy -356314.237739 kJ/mol
# GULP energy per Si atom -5567.409965 kJ/mol
# Density = 1.749908 g / cm^3
# Si number density = 17.538997 Si / 1000 Ang^3
#
#
#
# Elastic Constant Matrix: (Units=GPa)
#
#
# Indices 1 2 3 4 5 6 
#
# 1 72.6971 30.5513 30.7002 0.0000 0.0000 0.0000
# 2 30.5513 75.4862 42.9154 0.0000 0.0000 0.0000
# 3 30.7002 42.9154 126.0809 0.0000 0.0000 0.0000
# 4 0.0000 0.0000 0.0000 21.8296 0.0000 0.0000
# 5 0.0000 0.0000 0.0000 0.0000 -229.7104 0.0000
# 6 0.0000 0.0000 0.0000 0.0000 0.0000 8.3152
#
#
#
# Elastic Compliance Matrix: (Units=1/GPa)
#
#
# Indices 1 2 3 4 5 6 
#
# 1 0.017069 -0.005636 -0.002238 0.000000 0.000000 0.000000
# 2 -0.005636 0.018287 -0.004852 0.000000 0.000000 0.000000
# 3 -0.002238 -0.004852 0.010128 0.000000 0.000000 0.000000
# 4 0.000000 0.000000 0.000000 0.045809 0.000000 0.000000
# 5 0.000000 0.000000 0.000000 0.000000 -0.004353 0.000000
# 6 0.000000 0.000000 0.000000 0.000000 0.000000 0.120261
#
#
# Mechanical properties :
#
#
# Convention : Reuss Voigt Hill
#
# Bulk Modulus (GPa) = 49.92022 53.62199 51.77111
# Shear Modulus (GPa) = 20.89151 -28.57330 -3.84089
#
# Velocity S-wave (km/s) = 3.45504 -4.04063 -1.48144
# Velocity P-wave (km/s) = 6.66638 2.97834 5.16290
#
# Compressibility (1/GPa) = 0.02003196
#
# Stress axis : x y z
#
# Youngs Moduli (GPa) = 58.58436 54.68329 98.73691
#
# Poissons Ratio (x) = 0.30820 0.22096
# Poissons Ratio (y) = 0.33019 0.47909
# Poissons Ratio (z) = 0.13111 0.26533
#
# Static dielectric constant tensor:
#      x y z
#    x 1.614610 0.000000 0.000000 
#    y 0.000000 1.607620 0.000000 
#    z 0.000000 0.000000 1.616910 
# 
# From -- ./inp_files/17372.got.cif
#   From: 2010.05.17/outbox.cif.g08.bks.cpg/sg49_9_cif.got.tgz:17372.got - 2010.06.03 21:02:19.
