data_PCOD9393211
_publ_section_title
;
Structure prediction by ZEFSAII (Michael W. Deem and Ramdas Pophale) SiO2 
 PCOD9393211
Probable space group: P C C M
;
_chemical_formula_sum "Si O2"
_cell_formula_units_Z 48
_cell_length_a 21.001668
_cell_length_b 14.781401
_cell_length_c 8.808003
_cell_angle_alpha 90.000000
_cell_angle_beta 90.000000
_cell_angle_gamma 90.000000
_cell_volume 2734.304276
_symmetry_space_group_name_H-M "P C C M"
_symmetry_group_IT_number 49
_symmetry_cell_setting 'orthorhombic'
loop_
_space_group_symop_operation_xyz
x,y,z
-x,-y,z
x,-y,1/2-z
-x,y,1/2-z
-x,-y,-z
x,y,-z
-x,y,1/2+z
x,-y,1/2+z
loop_
_atom_site_type_symbol
_atom_site_label
_atom_site_fract_x
_atom_site_fract_y
_atom_site_fract_z
Si Si1 0.934472 0.717499 0.681613
Si Si2 0.307275 0.711337 0.683407
Si Si3 0.810430 0.399941 0.817954
Si Si4 0.261245 0.094689 0.181551
Si Si5 0.110661 0.904093 0.681725
Si Si6 0.431656 0.400864 0.817616
O O1 0.938549 0.721759 0.500000
O O2 0.873722 0.656463 0.723756
O O3 0.923604 0.817843 0.747410
O O4 0.000000 0.680589 0.750000
O O5 0.300600 0.708306 0.500000
O O6 0.250915 0.652330 0.754615
O O7 0.297926 0.815367 0.732161
O O8 0.375192 0.667913 0.722069
O O9 0.812962 0.500000 0.750000
O O10 0.806736 0.404631 0.000000
O O11 0.186152 0.105388 0.219473
O O12 0.283721 0.000000 0.250000
O O13 0.265458 0.088759 0.000000
O O14 0.103648 0.904453 0.500000
O O15 0.089118 0.000000 0.750000
O O16 0.416665 0.500000 0.750000
O O17 0.500000 0.373788 0.750000
O O18 0.436141 0.407685 0.000000
#
# Coordination Sequence:
#
# PCOD9393211 Si02
#       6
#     8   8   8   8   8   8
#     4  11  24  40  57  79 106 141 183 225 275 330
#     4  10  20  36  58  84 113 146 182 224 272 320
#     4  11  24  39  58  82 108 139 180 227 273 326
#     4   9  18  32  53  81 111 142 176 219 269 319
#     4  10  19  34  57  81 110 142 175 222 274 327
#     4  10  20  34  54  80 114 149 185 223 267 321
#
# _framework density 17.554741
#
# number of rings (size 3 to 8) (size 9 to 14) (size 15 to 20)
#    0.000    1.833    1.667    3.000    0.000    6.667 
#    0.000    3.333    0.000    0.500    0.000    3.500 
#    0.000    0.000    0.000    0.000    0.000    0.000 
#
# Total GULP energy -268117.713290 kJ/mol
# GULP energy per Si atom -5585.785694 kJ/mol
# Density = 1.751479 g / cm^3
# Si number density = 17.554741 Si / 1000 Ang^3
#
#
#
# Elastic Constant Matrix: (Units=GPa)
#
#
# Indices 1 2 3 4 5 6 
#
# 1 120.8296 81.6472 44.2358 0.0000 0.0000 0.0000
# 2 81.6472 143.0734 39.1399 0.0000 0.0000 0.0000
# 3 44.2358 39.1399 35.4907 0.0000 0.0000 0.0000
# 4 0.0000 0.0000 0.0000 28.5752 0.0000 0.0000
# 5 0.0000 0.0000 0.0000 0.0000 14.9991 0.0000
# 6 0.0000 0.0000 0.0000 0.0000 0.0000 3.0108
#
#
#
# Elastic Compliance Matrix: (Units=1/GPa)
#
#
# Indices 1 2 3 4 5 6 
#
# 1 0.018220 -0.005993 -0.016100 0.000000 0.000000 0.000000
# 2 -0.005993 0.011980 -0.005742 0.000000 0.000000 0.000000
# 3 -0.016100 -0.005742 0.054577 0.000000 0.000000 0.000000
# 4 0.000000 0.000000 0.000000 0.034995 0.000000 0.000000
# 5 0.000000 0.000000 0.000000 0.000000 0.066671 0.000000
# 6 0.000000 0.000000 0.000000 0.000000 0.000000 0.332134
#
#
# Mechanical properties :
#
#
# Convention : Reuss Voigt Hill
#
# Bulk Modulus (GPa) = 34.35757 69.93771 52.14764
# Shear Modulus (GPa) = 8.56236 18.27509 13.41872
#
# Velocity S-wave (km/s) = 2.21091 3.23001 2.76777
# Velocity P-wave (km/s) = 5.11191 7.33736 6.32331
#
# Compressibility (1/GPa) = 0.02910567
#
# Stress axis : x y z
#
# Youngs Moduli (GPa) = 54.88415 83.46960 18.32277
#
# Poissons Ratio (x) = 0.50025 0.29500
# Poissons Ratio (y) = 0.32893 0.10522
# Poissons Ratio (z) = 0.88366 0.47931
#
# Static dielectric constant tensor:
#      x y z
#    x 1.592990 0.000000 0.000000 
#    y 0.000000 1.582100 0.000000 
#    z 0.000000 0.000000 1.555020 
# 
# From -- ./inp_files/3702.got.cif
#   From: 2010.05.17/outbox.cif.g08.bks.cpg/sg49_2_cif.got.tgz:3702.got - 2010.06.03 21:02:19.
