data_PCOD9393923
_publ_section_title
;
Structure prediction by ZEFSAII (Michael W. Deem and Ramdas Pophale) SiO2 
 PCOD9393923
Probable space group: P C C M
;
_chemical_formula_sum "Si O2"
_cell_formula_units_Z 64
_cell_length_a 10.683052
_cell_length_b 18.703451
_cell_length_c 14.261209
_cell_angle_alpha 90.000000
_cell_angle_beta 90.000000
_cell_angle_gamma 90.000000
_cell_volume 2849.531309
_symmetry_space_group_name_H-M "P C C M"
_symmetry_group_IT_number 49
_symmetry_cell_setting 'orthorhombic'
loop_
_space_group_symop_operation_xyz
x,y,z
-x,-y,z
x,-y,1/2-z
-x,y,1/2-z
-x,-y,-z
x,y,-z
-x,y,1/2+z
x,-y,1/2+z
loop_
_atom_site_type_symbol
_atom_site_label
_atom_site_fract_x
_atom_site_fract_y
_atom_site_fract_z
Si Si1 0.302907 0.856820 0.890511
Si Si2 0.323078 0.734331 0.605311
Si Si3 0.287961 0.619065 0.255969
Si Si4 0.649402 0.506386 0.393925
Si Si5 0.049363 0.791923 0.353950
Si Si6 0.579452 0.895564 0.891505
Si Si7 0.191931 0.711760 0.102206
Si Si8 0.820693 0.924609 0.784003
O O1 0.434021 0.894902 0.865234
O O2 0.303628 0.770130 0.884750
O O3 0.206433 0.880808 0.811230
O O4 0.275335 0.873902 0.000000
O O5 0.348492 0.707302 0.500000
O O6 0.360232 0.679746 0.686099
O O7 0.173954 0.748746 0.617432
O O8 0.383618 0.811858 0.615615
O O9 0.278766 0.556497 0.335420
O O10 0.344039 0.577139 0.168761
O O11 0.183416 0.662230 0.194624
O O12 0.500000 0.500000 0.399528
O O13 0.698428 0.509394 0.500000
O O14 0.094479 0.875094 0.351790
O O15 0.000000 0.779695 0.250000
O O16 0.930683 0.761280 0.407276
O O17 0.686226 0.935541 0.834109
O O18 0.588329 0.917487 0.000000
O O19 0.209262 0.675698 0.000000
O O20 0.869638 0.000000 0.750000
#
# Coordination Sequence:
#
# PCOD9393923 Si02
#       8
#     8   8   8   8   8   8   8   8
#     4  10  21  37  55  85 124 157 197 257 319 381
#     4  10  20  35  61  92 121 160 210 263 317 373
#     4  11  20  35  60  90 123 160 206 250 300 357
#     4  10  23  41  59  88 134 180 214 248 294 353
#     4  11  20  41  61  85 121 156 202 262 323 364
#     4   9  20  37  57  84 122 159 199 256 320 378
#     4  11  22  38  63  91 121 159 206 262 320 374
#     4  11  23  38  61  85 115 158 210 255 308 383
#
# _framework density 22.459833
#
# number of rings (size 3 to 8) (size 9 to 14) (size 15 to 20)
#    0.000    1.625    2.500    3.000    0.000    4.250 
#    0.000    3.750    0.000    7.500    0.000   10.500 
#    0.000    0.000    0.000    0.000    0.000    0.000 
#
# Total GULP energy -356550.137658 kJ/mol
# GULP energy per Si atom -5571.095901 kJ/mol
# Density = 2.240871 g / cm^3
# Si number density = 22.459833 Si / 1000 Ang^3
#
#
#
# Elastic Constant Matrix: (Units=GPa)
#
#
# Indices 1 2 3 4 5 6 
#
# 1 77.1721 28.5624 29.2295 0.0000 0.0000 0.0000
# 2 28.5624 80.2603 50.5515 0.0000 0.0000 0.0000
# 3 29.2295 50.5515 140.6439 0.0000 0.0000 0.0000
# 4 0.0000 0.0000 0.0000 10.6188 0.0000 0.0000
# 5 0.0000 0.0000 0.0000 0.0000 22.3359 0.0000
# 6 0.0000 0.0000 0.0000 0.0000 0.0000 10.8339
#
#
#
# Elastic Compliance Matrix: (Units=1/GPa)
#
#
# Indices 1 2 3 4 5 6 
#
# 1 0.015187 -0.004416 -0.001569 0.000000 0.000000 0.000000
# 2 -0.004416 0.017390 -0.005333 0.000000 0.000000 0.000000
# 3 -0.001569 -0.005333 0.009353 0.000000 0.000000 0.000000
# 4 0.000000 0.000000 0.000000 0.094173 0.000000 0.000000
# 5 0.000000 0.000000 0.000000 0.000000 0.044771 0.000000
# 6 0.000000 0.000000 0.000000 0.000000 0.000000 0.092303
#
#
# Mechanical properties :
#
#
# Convention : Reuss Voigt Hill
#
# Bulk Modulus (GPa) = 51.82990 57.19590 54.51290
# Shear Modulus (GPa) = 16.54296 21.40657 18.97476
#
# Velocity S-wave (km/s) = 2.71690 3.09059 2.90975
# Velocity P-wave (km/s) = 5.74185 6.18521 5.96765
#
# Compressibility (1/GPa) = 0.01929388
#
# Stress axis : x y z
#
# Youngs Moduli (GPa) = 65.84643 57.50485 106.91897
#
# Poissons Ratio (x) = 0.25397 0.16774
# Poissons Ratio (y) = 0.29081 0.57015
# Poissons Ratio (z) = 0.10330 0.30665
#
# Static dielectric constant tensor:
#      x y z
#    x 1.900710 0.000000 0.000000 
#    y 0.000000 1.921370 0.000000 
#    z 0.000000 0.000000 1.872690 
# 
# From -- ./inp_files/13106.got.cif
#   From: 2010.05.17/outbox.cif.g08.bks.cpg/sg49_7_cif.got.tgz:13106.got - 2010.06.03 21:02:19.
