data_PCOD9393484
_publ_section_title
;
Structure prediction by ZEFSAII (Michael W. Deem and Ramdas Pophale) SiO2 
 PCOD9393484
Probable space group: P C C M
;
_chemical_formula_sum "Si O2"
_cell_formula_units_Z 56
_cell_length_a 15.226601
_cell_length_b 23.153940
_cell_length_c 8.616399
_cell_angle_alpha 90.000000
_cell_angle_beta 90.000000
_cell_angle_gamma 90.000000
_cell_volume 3037.761494
_symmetry_space_group_name_H-M "P C C M"
_symmetry_group_IT_number 49
_symmetry_cell_setting 'orthorhombic'
loop_
_space_group_symop_operation_xyz
x,y,z
-x,-y,z
x,-y,1/2-z
-x,y,1/2-z
-x,-y,-z
x,y,-z
-x,y,1/2+z
x,-y,1/2+z
loop_
_atom_site_type_symbol
_atom_site_label
_atom_site_fract_x
_atom_site_fract_y
_atom_site_fract_z
Si Si1 0.593711 0.890799 0.685916
Si Si2 0.223099 0.939115 0.812836
Si Si3 0.903293 0.296118 0.186405
Si Si4 0.904006 0.836781 0.687143
Si Si5 0.725658 0.659301 0.813930
Si Si6 0.594310 0.761656 0.813886
Si Si7 0.594629 0.564699 0.685452
O O1 0.500000 0.910611 0.750000
O O2 0.590248 0.889929 0.500000
O O3 0.676459 0.928535 0.737203
O O4 0.608550 0.825224 0.744052
O O5 0.165962 0.884237 0.760355
O O6 0.189993 0.000000 0.750000
O O7 0.220989 0.940265 0.000000
O O8 0.885059 0.229268 0.235331
O O9 0.824188 0.334294 0.251558
O O10 0.000000 0.311108 0.250000
O O11 0.904383 0.298601 0.000000
O O12 0.905566 0.837222 0.500000
O O13 0.000000 0.851807 0.750000
O O14 0.670644 0.717055 0.771085
O O15 0.671678 0.606215 0.743262
O O16 0.726215 0.654736 0.000000
O O17 0.500000 0.741024 0.750000
O O18 0.589459 0.765956 0.000000
O O19 0.607257 0.500000 0.750000
O O20 0.500000 0.585255 0.750000
O O21 0.590969 0.563417 0.500000
#
# Coordination Sequence:
#
# PCOD9393484 Si02
#       7
#     8   8   8   8   8   8   8
#     4  10  20  35  53  72  98 131 169 212 261 316
#     4  10  22  37  52  72  98 130 168 212 259 313
#     4  10  20  36  58  83 111 143 179 224 275 328
#     4   9  19  36  56  78 104 134 169 210 264 323
#     4  11  22  35  54  83 115 148 187 228 271 323
#     4  10  20  32  50  77 108 139 173 215 265 320
#     4  11  22  38  59  84 117 157 197 236 276 319
#
# _framework density 18.434626999999999
#
# number of rings (size 3 to 8) (size 9 to 14) (size 15 to 20)
#    0.000    1.857    0.000    5.571    0.000    7.429 
#    0.000    2.857    0.000    0.429    0.000    3.000 
#    0.000    0.000    0.000    0.000    0.000    0.000 
#
# Total GULP energy -312859.450636 kJ/mol
# GULP energy per Si atom -5586.775904 kJ/mol
# Density = 1.839267 g / cm^3
# Si number density = 18.434627 Si / 1000 Ang^3
#
#
#
# Elastic Constant Matrix: (Units=GPa)
#
#
# Indices 1 2 3 4 5 6 
#
# 1 140.5574 68.3361 40.8846 0.0000 0.0000 0.0000
# 2 68.3361 64.5102 24.0655 0.0000 0.0000 0.0000
# 3 40.8846 24.0655 60.0534 0.0000 0.0000 0.0000
# 4 0.0000 0.0000 0.0000 8.9646 0.0000 0.0000
# 5 0.0000 0.0000 0.0000 0.0000 29.0182 0.0000
# 6 0.0000 0.0000 0.0000 0.0000 0.0000 25.2004
#
#
#
# Elastic Compliance Matrix: (Units=1/GPa)
#
#
# Indices 1 2 3 4 5 6 
#
# 1 0.015741 -0.014905 -0.004743 0.000000 0.000000 0.000000
# 2 -0.014905 0.032339 -0.002812 0.000000 0.000000 0.000000
# 3 -0.004743 -0.002812 0.021008 0.000000 0.000000 0.000000
# 4 0.000000 0.000000 0.000000 0.111550 0.000000 0.000000
# 5 0.000000 0.000000 0.000000 0.000000 0.034461 0.000000
# 6 0.000000 0.000000 0.000000 0.000000 0.000000 0.039682
#
#
# Mechanical properties :
#
#
# Convention : Reuss Voigt Hill
#
# Bulk Modulus (GPa) = 41.37846 59.07704 50.22775
# Shear Modulus (GPa) = 16.24655 21.42562 18.83608
#
# Velocity S-wave (km/s) = 2.97190 3.41287 3.19999
# Velocity P-wave (km/s) = 5.85415 6.90265 6.39991
#
# Compressibility (1/GPa) = 0.02416716
#
# Stress axis : x y z
#
# Youngs Moduli (GPa) = 63.53009 30.92235 47.60039
#
# Poissons Ratio (x) = 0.46088 0.22579
# Poissons Ratio (y) = 0.94689 0.13387
# Poissons Ratio (z) = 0.30135 0.08696
#
# Static dielectric constant tensor:
#      x y z
#    x 1.629380 0.000000 0.000000 
#    y 0.000000 1.624320 0.000000 
#    z 0.000000 0.000000 1.621340 
# 
# From -- ./inp_files/4078.got.cif
#   From: 2010.05.17/outbox.cif.g08.bks.cpg/sg49_3_cif.got.tgz:4078.got - 2010.06.03 21:02:19.
