data_PCOD9393272
_publ_section_title
;
Structure prediction by ZEFSAII (Michael W. Deem and Ramdas Pophale) SiO2 
 PCOD9393272
Probable space group: P C C M
;
_chemical_formula_sum "Si O2"
_cell_formula_units_Z 48
_cell_length_a 5.214307
_cell_length_b 15.753198
_cell_length_c 30.343593
_cell_angle_alpha 90.000000
_cell_angle_beta 90.000000
_cell_angle_gamma 90.000000
_cell_volume 2492.483738
_symmetry_space_group_name_H-M "P C C M"
_symmetry_group_IT_number 49
_symmetry_cell_setting 'orthorhombic'
loop_
_space_group_symop_operation_xyz
x,y,z
-x,-y,z
x,-y,1/2-z
-x,y,1/2-z
-x,-y,-z
x,y,-z
-x,y,1/2+z
x,-y,1/2+z
loop_
_atom_site_type_symbol
_atom_site_label
_atom_site_fract_x
_atom_site_fract_y
_atom_site_fract_z
Si Si1 0.500000 0.500000 0.426699
Si Si2 0.720195 0.746887 0.899557
Si Si3 0.735797 0.055782 0.401716
Si Si4 0.188354 0.923991 0.500000
Si Si5 0.247227 0.403018 0.730143
Si Si6 0.820513 0.421629 0.500000
Si Si7 0.772772 0.360329 0.872057
Si Si8 0.847666 0.250396 0.500000
O O1 0.642768 0.432845 0.457731
O O2 0.295423 0.445102 0.399652
O O3 0.759076 0.846141 0.885320
O O4 0.463549 0.704800 0.879981
O O5 0.964988 0.688183 0.885628
O O6 0.700981 0.747832 0.953313
O O7 0.669977 0.071141 0.453724
O O8 0.500000 0.000000 0.383083
O O9 0.000000 0.000000 0.398482
O O10 0.014853 0.838767 0.500000
O O11 0.000000 0.000000 0.500000
O O12 0.247777 0.500000 0.750000
O O13 0.500000 0.362576 0.750000
O O14 0.230072 0.394412 0.678047
O O15 0.000000 0.359464 0.750000
O O16 0.994145 0.338319 0.500000
O O17 0.000000 0.500000 0.500000
#
# Coordination Sequence:
#
# PCOD9393272 Si02
#       8
#     4   8   8   4   8   4   8   4
#     4  11  24  34  57  78 114 164 215 256 292 343
#     4  11  24  38  59  89 123 165 208 256 303 350
#     4  10  19  35  56  81 116 155 200 249 304 360
#     4   8  17  30  53  78 103 151 205 254 307 357
#     4  10  21  40  62  86 116 149 190 241 314 367
#     4  11  21  38  50  74 114 164 226 249 291 340
#     4  12  24  40  60  89 121 155 208 253 304 370
#     4  10  19  38  53  76 126 162 209 262 298 337
#
# _framework density 19.257899999999999
#
# number of rings (size 3 to 8) (size 9 to 14) (size 15 to 20)
#    0.000    1.500    1.667    4.250    0.000    2.667 
#    0.000    5.000    0.000    0.000    0.000    0.000 
#    0.000   46.667    0.000    0.000    0.000    0.000 
#
# Total GULP energy -267256.771888 kJ/mol
# GULP energy per Si atom -5567.849414 kJ/mol
# Density = 1.921407 g / cm^3
# Si number density = 19.257900 Si / 1000 Ang^3
#
#
#
# Elastic Constant Matrix: (Units=GPa)
#
#
# Indices 1 2 3 4 5 6 
#
# 1 126.5558 36.4220 36.1840 0.0000 0.0000 0.0000
# 2 36.4220 164.1387 26.9472 0.0000 0.0000 0.0000
# 3 36.1840 26.9472 119.1966 0.0000 0.0000 0.0000
# 4 0.0000 0.0000 0.0000 22.5035 0.0000 0.0000
# 5 0.0000 0.0000 0.0000 0.0000 17.6565 0.0000
# 6 0.0000 0.0000 0.0000 0.0000 0.0000 18.0265
#
#
#
# Elastic Compliance Matrix: (Units=1/GPa)
#
#
# Indices 1 2 3 4 5 6 
#
# 1 0.009048 -0.001617 -0.002381 0.000000 0.000000 0.000000
# 2 -0.001617 0.006616 -0.001005 0.000000 0.000000 0.000000
# 3 -0.002381 -0.001005 0.009340 0.000000 0.000000 0.000000
# 4 0.000000 0.000000 0.000000 0.044437 0.000000 0.000000
# 5 0.000000 0.000000 0.000000 0.000000 0.056636 0.000000
# 6 0.000000 0.000000 0.000000 0.000000 0.000000 0.055474
#
#
# Mechanical properties :
#
#
# Convention : Reuss Voigt Hill
#
# Bulk Modulus (GPa) = 66.67632 67.66639 67.17136
# Shear Modulus (GPa) = 25.43804 32.32650 28.88227
#
# Velocity S-wave (km/s) = 3.63838 4.10153 3.87688
# Velocity P-wave (km/s) = 7.23522 7.59232 7.41592
#
# Compressibility (1/GPa) = 0.01499783
#
# Stress axis : x y z
#
# Youngs Moduli (GPa) = 110.52500 151.14538 107.07207
#
# Poissons Ratio (x) = 0.24437 0.25495
# Poissons Ratio (y) = 0.17869 0.10760
# Poissons Ratio (z) = 0.26317 0.15189
#
# Static dielectric constant tensor:
#      x y z
#    x 1.769780 0.000000 0.000000 
#    y 0.000000 1.724230 0.000000 
#    z 0.000000 0.000000 1.922220 
# 
# From -- ./inp_files/23993.got.cif
#   From: 2010.05.17/outbox.cif.g08.bks.cpg/sg49_12_cif.got.tgz:23993.got - 2010.06.03 21:02:19.
