data_PCOD9393738
_publ_section_title
;
Structure prediction by ZEFSAII (Michael W. Deem and Ramdas Pophale) SiO2 
 PCOD9393738
Probable space group: P C C M
;
_chemical_formula_sum "Si O2"
_cell_formula_units_Z 32
_cell_length_a 7.514401
_cell_length_b 9.332693
_cell_length_c 20.215691
_cell_angle_alpha 90.000000
_cell_angle_beta 90.000000
_cell_angle_gamma 90.000000
_cell_volume 1417.718275
_symmetry_space_group_name_H-M "P C C M"
_symmetry_group_IT_number 49
_symmetry_cell_setting 'orthorhombic'
loop_
_space_group_symop_operation_xyz
x,y,z
-x,-y,z
x,-y,1/2-z
-x,y,1/2-z
-x,-y,-z
x,y,-z
-x,y,1/2+z
x,-y,1/2+z
loop_
_atom_site_type_symbol
_atom_site_label
_atom_site_fract_x
_atom_site_fract_y
_atom_site_fract_z
Si Si1 0.771153 0.145150 0.579518
Si Si2 0.444718 0.660710 0.865089
Si Si3 0.304584 0.930916 0.186282
Si Si4 0.927972 0.353580 0.077136
O O1 0.761238 0.126413 0.500000
O O2 0.609398 0.249192 0.604204
O O3 0.951619 0.224036 0.602446
O O4 0.764479 0.993653 0.617006
O O5 0.500000 0.500000 0.845297
O O6 0.344625 0.761971 0.811223
O O7 0.283219 0.648662 0.916960
O O8 0.500000 0.000000 0.186370
O O9 0.211253 0.000000 0.250000
O O10 0.000000 0.500000 0.108642
O O11 0.975017 0.355636 0.000000
#
# Coordination Sequence:
#
# PCOD9393738 Si02
#       4
#     8   8   8   8
#     4  10  21  38  61  90 125 163 206 258 312 374
#     4  11  21  36  63  90 119 162 208 255 317 377
#     4   9  21  42  63  88 123 166 210 259 317 375
#     4  10  20  34  56  90 131 160 198 257 313 368
#
# _framework density 22.571479
#
# number of rings (size 3 to 8) (size 9 to 14) (size 15 to 20)
#    0.000    2.000    2.500    0.750    0.000    7.500 
#    0.000   15.000    0.000    1.500    0.000    0.000 
#    0.000    0.000    0.000    0.000    0.000    0.000 
#
# Total GULP energy -178284.018943 kJ/mol
# GULP energy per Si atom -5571.375592 kJ/mol
# Density = 2.252010 g / cm^3
# Si number density = 22.571479 Si / 1000 Ang^3
#
#
#
# Elastic Constant Matrix: (Units=GPa)
#
#
# Indices 1 2 3 4 5 6 
#
# 1 120.6727 51.6366 -0.2873 0.0000 0.0000 0.0000
# 2 51.6366 179.5587 60.1872 0.0000 0.0000 0.0000
# 3 -0.2873 60.1872 74.6146 0.0000 0.0000 0.0000
# 4 0.0000 0.0000 0.0000 10.0148 0.0000 0.0000
# 5 0.0000 0.0000 0.0000 0.0000 -237.0288 0.0000
# 6 0.0000 0.0000 0.0000 0.0000 0.0000 33.1129
#
#
#
# Elastic Compliance Matrix: (Units=1/GPa)
#
#
# Indices 1 2 3 4 5 6 
#
# 1 0.009986 -0.003954 0.003228 0.000000 0.000000 0.000000
# 2 -0.003954 0.009198 -0.007435 0.000000 0.000000 0.000000
# 3 0.003228 -0.007435 0.019412 0.000000 0.000000 0.000000
# 4 0.000000 0.000000 0.000000 0.099852 0.000000 0.000000
# 5 0.000000 0.000000 0.000000 0.000000 -0.004219 0.000000
# 6 0.000000 0.000000 0.000000 0.000000 0.000000 0.030200
#
#
# Mechanical properties :
#
#
# Convention : Reuss Voigt Hill
#
# Bulk Modulus (GPa) = 44.89402 66.43545 55.66473
# Shear Modulus (GPa) = 26.57073 -21.22625 2.67224
#
# Velocity S-wave (km/s) = 3.43473 -3.06992 1.08925
# Velocity P-wave (km/s) = 5.97183 4.11477 5.12806
#
# Compressibility (1/GPa) = 0.02227468
#
# Stress axis : x y z
#
# Youngs Moduli (GPa) = 100.13623 108.71462 51.51446
#
# Poissons Ratio (x) = 0.42983 -0.16627
# Poissons Ratio (y) = 0.39591 0.38301
# Poissons Ratio (z) = -0.32321 0.80830
#
# Static dielectric constant tensor:
#      x y z
#    x 1.884930 0.000000 0.000000 
#    y 0.000000 1.928070 0.000000 
#    z 0.000000 0.000000 1.901380 
# 
# From -- ./inp_files/19287.got.cif
#   From: 2010.05.17/outbox.cif.g08.bks.cpg/sg49_10_cif.got.tgz:19287.got - 2010.06.03 21:02:19.
