data_PCOD9393501
_publ_section_title
;
Structure prediction by ZEFSAII (Michael W. Deem and Ramdas Pophale) SiO2 
 PCOD9393501
Probable space group: P C C M
;
_chemical_formula_sum "Si O2"
_cell_formula_units_Z 64
_cell_length_a 20.409109
_cell_length_b 20.455461
_cell_length_c 8.568098
_cell_angle_alpha 90.000000
_cell_angle_beta 90.000000
_cell_angle_gamma 90.000000
_cell_volume 3576.990131
_symmetry_space_group_name_H-M "P C C M"
_symmetry_group_IT_number 49
_symmetry_cell_setting 'orthorhombic'
loop_
_space_group_symop_operation_xyz
x,y,z
-x,-y,z
x,-y,1/2-z
-x,y,1/2-z
-x,-y,-z
x,y,-z
-x,y,1/2+z
x,-y,1/2+z
loop_
_atom_site_type_symbol
_atom_site_label
_atom_site_fract_x
_atom_site_fract_y
_atom_site_fract_z
Si Si1 0.569622 0.111000 0.815722
Si Si2 0.603040 0.250069 0.315104
Si Si3 0.708155 0.070150 0.685467
Si Si4 0.926968 0.929728 0.815173
Si Si5 0.711924 0.568166 0.686739
Si Si6 0.743717 0.287590 0.188845
Si Si7 0.432944 0.390395 0.312518
Si Si8 0.181850 0.164046 0.314680
O O1 0.500000 0.087653 0.750000
O O2 0.575529 0.188319 0.778169
O O3 0.632376 0.080276 0.730775
O O4 0.574011 0.099501 0.000000
O O5 0.594019 0.240046 0.500000
O O6 0.679602 0.258949 0.273294
O O7 0.571536 0.317679 0.258877
O O8 0.716143 0.073699 0.500000
O O9 0.752853 0.124742 0.766008
O O10 0.729433 0.000000 0.750000
O O11 0.878343 0.872060 0.766443
O O12 0.000000 0.919057 0.750000
O O13 0.903442 0.000000 0.750000
O O14 0.930068 0.934790 0.000000
O O15 0.738437 0.500000 0.750000
O O16 0.712686 0.565334 0.500000
O O17 0.747570 0.635911 0.732319
O O18 0.635478 0.576133 0.735846
O O19 0.804011 0.239838 0.225128
O O20 0.732380 0.284413 0.000000
O O21 0.500000 0.421045 0.250000
O O22 0.434353 0.386837 0.500000
O O23 0.173041 0.159047 0.500000
#
# Coordination Sequence:
#
# PCOD9393501 Si02
#       8
#     8   8   8   8   8   8   8   8
#     4  12  24  39  55  73  97 129 169 221 280 336
#     4  11  20  32  51  74  98 126 165 214 271 329
#     4  12  25  41  58  80 105 136 178 224 275 330
#     4  11  22  38  59  87 124 162 200 234 271 323
#     4   9  19  34  50  71  99 135 171 216 270 330
#     4   9  19  35  55  77 106 139 177 220 270 321
#     4  10  20  33  47  66  93 124 165 211 267 330
#     4  11  21  37  61  86 114 150 187 230 275 318
#
# _framework density 17.892137000000002
#
# number of rings (size 3 to 8) (size 9 to 14) (size 15 to 20)
#    0.000    1.375    1.250    7.125    0.000    3.500 
#    0.000    2.500    0.000    0.000    0.000    0.000 
#    0.000    0.500    0.000    5.750    0.000    1.750 
#
# Total GULP energy -357678.609100 kJ/mol
# GULP energy per Si atom -5588.728267 kJ/mol
# Density = 1.785141 g / cm^3
# Si number density = 17.892137 Si / 1000 Ang^3
#
#
#
# Elastic Constant Matrix: (Units=GPa)
#
#
# Indices 1 2 3 4 5 6 
#
# 1 69.5258 38.2564 18.3236 0.0000 0.0000 0.0000
# 2 38.2564 114.1426 17.2173 0.0000 0.0000 0.0000
# 3 18.3236 17.2173 71.7028 0.0000 0.0000 0.0000
# 4 0.0000 0.0000 0.0000 13.4603 0.0000 0.0000
# 5 0.0000 0.0000 0.0000 0.0000 46.7928 0.0000
# 6 0.0000 0.0000 0.0000 0.0000 0.0000 42.1693
#
#
#
# Elastic Compliance Matrix: (Units=1/GPa)
#
#
# Indices 1 2 3 4 5 6 
#
# 1 0.018374 -0.005655 -0.003338 0.000000 0.000000 0.000000
# 2 -0.005655 0.010831 -0.001156 0.000000 0.000000 0.000000
# 3 -0.003338 -0.001156 0.015077 0.000000 0.000000 0.000000
# 4 0.000000 0.000000 0.000000 0.074292 0.000000 0.000000
# 5 0.000000 0.000000 0.000000 0.000000 0.021371 0.000000
# 6 0.000000 0.000000 0.000000 0.000000 0.000000 0.023714
#
#
# Mechanical properties :
#
#
# Convention : Reuss Voigt Hill
#
# Bulk Modulus (GPa) = 41.69185 44.77400 43.23293
# Shear Modulus (GPa) = 26.04835 32.58940 29.31887
#
# Velocity S-wave (km/s) = 3.81971 4.27246 4.05241
# Velocity P-wave (km/s) = 6.54262 7.02974 6.79055
#
# Compressibility (1/GPa) = 0.02398550
#
# Stress axis : x y z
#
# Youngs Moduli (GPa) = 54.42340 92.33082 66.32678
#
# Poissons Ratio (x) = 0.52213 0.22138
# Poissons Ratio (y) = 0.30776 0.07664
# Poissons Ratio (z) = 0.18165 0.10669
#
# Static dielectric constant tensor:
#      x y z
#    x 1.607000 0.000000 0.000000 
#    y 0.000000 1.640230 0.000000 
#    z 0.000000 0.000000 1.596890 
# 
# From -- ./inp_files/5341.got.cif
#   From: 2010.05.17/outbox.cif.g08.bks.cpg/sg49_3_cif.got.tgz:5341.got - 2010.06.03 21:02:19.
