data_PCOD9393282
_publ_section_title
;
Structure prediction by ZEFSAII (Michael W. Deem and Ramdas Pophale) SiO2 
 PCOD9393282
Probable space group: P C C M
;
_chemical_formula_sum "Si O2"
_cell_formula_units_Z 48
_cell_length_a 19.481408
_cell_length_b 15.150845
_cell_length_c 8.507672
_cell_angle_alpha 90.000000
_cell_angle_beta 90.000000
_cell_angle_gamma 90.000000
_cell_volume 2511.122706
_symmetry_space_group_name_H-M "P C C M"
_symmetry_group_IT_number 49
_symmetry_cell_setting 'orthorhombic'
loop_
_space_group_symop_operation_xyz
x,y,z
-x,-y,z
x,-y,1/2-z
-x,y,1/2-z
-x,-y,-z
x,y,-z
-x,y,1/2+z
x,-y,1/2+z
loop_
_atom_site_type_symbol
_atom_site_label
_atom_site_fract_x
_atom_site_fract_y
_atom_site_fract_z
Si Si1 0.577147 0.902155 0.687414
Si Si2 0.686405 0.236788 0.684504
Si Si3 0.782205 0.908519 0.688163
Si Si4 0.930512 0.853193 0.313316
Si Si5 0.925851 0.351200 0.810650
Si Si6 0.774762 0.404237 0.310809
O O1 0.500000 0.888660 0.750000
O O2 0.577567 0.907358 0.500000
O O3 0.623892 0.818571 0.738225
O O4 0.598676 0.000000 0.750000
O O5 0.671264 0.245420 0.500000
O O6 0.748573 0.170513 0.718239
O O7 0.718795 0.330115 0.741451
O O8 0.772312 0.898662 0.500000
O O9 0.862221 0.903913 0.727394
O O10 0.753396 0.000000 0.750000
O O11 0.934854 0.848983 0.500000
O O12 0.924613 0.751636 0.257906
O O13 0.000000 0.892876 0.250000
O O14 0.853135 0.388927 0.750277
O O15 0.000000 0.387150 0.750000
O O16 0.925980 0.356850 0.000000
O O17 0.753203 0.500000 0.250000
O O18 0.777345 0.401474 0.500000
#
# Coordination Sequence:
#
# PCOD9393282 Si02
#       6
#     8   8   8   8   8   8
#     4  11  22  39  65  97 133 167 200 238 280 334
#     4  11  23  40  61  87 119 156 194 237 290 347
#     4  11  22  36  53  79 110 148 192 237 288 344
#     4   9  19  33  51  72 101 141 185 235 289 344
#     4  10  19  35  57  81 110 145 192 247 308 366
#     4  11  24  40  61  87 116 152 197 248 302 360
#
# _framework density 19.114954999999998
#
# number of rings (size 3 to 8) (size 9 to 14) (size 15 to 20)
#    0.000    1.500    1.667    4.500    0.000    4.667 
#    0.000    3.333    0.000    0.500    0.000    3.500 
#    0.000    0.000    0.000    0.000    0.000    0.000 
#
# Total GULP energy -267774.157985 kJ/mol
# GULP energy per Si atom -5578.628291 kJ/mol
# Density = 1.907145 g / cm^3
# Si number density = 19.114955 Si / 1000 Ang^3
#
#
#
# Elastic Constant Matrix: (Units=GPa)
#
#
# Indices 1 2 3 4 5 6 
#
# 1 127.2661 54.8824 42.4780 0.0000 0.0000 0.0000
# 2 54.8824 139.6338 32.8271 0.0000 0.0000 0.0000
# 3 42.4780 32.8271 62.7182 0.0000 0.0000 0.0000
# 4 0.0000 0.0000 0.0000 34.8606 0.0000 0.0000
# 5 0.0000 0.0000 0.0000 0.0000 27.3370 0.0000
# 6 0.0000 0.0000 0.0000 0.0000 0.0000 32.3218
#
#
#
# Elastic Compliance Matrix: (Units=1/GPa)
#
#
# Indices 1 2 3 4 5 6 
#
# 1 0.011137 -0.002969 -0.005989 0.000000 0.000000 0.000000
# 2 -0.002969 0.008958 -0.002678 0.000000 0.000000 0.000000
# 3 -0.005989 -0.002678 0.021402 0.000000 0.000000 0.000000
# 4 0.000000 0.000000 0.000000 0.028686 0.000000 0.000000
# 5 0.000000 0.000000 0.000000 0.000000 0.036580 0.000000
# 6 0.000000 0.000000 0.000000 0.000000 0.000000 0.030939
#
#
# Mechanical properties :
#
#
# Convention : Reuss Voigt Hill
#
# Bulk Modulus (GPa) = 54.86801 65.55479 60.21140
# Shear Modulus (GPa) = 29.93143 32.19928 31.06536
#
# Velocity S-wave (km/s) = 3.96139 4.10873 4.03573
# Velocity P-wave (km/s) = 7.04912 7.54177 7.29960
#
# Compressibility (1/GPa) = 0.01822555
#
# Stress axis : x y z
#
# Youngs Moduli (GPa) = 89.79128 111.62958 46.72500
#
# Poissons Ratio (x) = 0.33148 0.27982
# Poissons Ratio (y) = 0.26663 0.12511
# Poissons Ratio (z) = 0.53773 0.29890
#
# Static dielectric constant tensor:
#      x y z
#    x 1.677060 0.000000 0.000000 
#    y 0.000000 1.640740 0.000000 
#    z 0.000000 0.000000 1.652470 
# 
# From -- ./inp_files/4893.got.cif
#   From: 2010.05.17/outbox.cif.g08.bks.cpg/sg49_3_cif.got.tgz:4893.got - 2010.06.03 21:02:19.
