data_PCOD9393423
_publ_section_title
;
Structure prediction by ZEFSAII (Michael W. Deem and Ramdas Pophale) SiO2 
 PCOD9393423
Probable space group: P C C M
;
_chemical_formula_sum "Si O2"
_cell_formula_units_Z 38
_cell_length_a 6.459761
_cell_length_b 11.417750
_cell_length_c 30.062290
_cell_angle_alpha 90.000000
_cell_angle_beta 90.000000
_cell_angle_gamma 90.000000
_cell_volume 2217.272342
_symmetry_space_group_name_H-M "P C C M"
_symmetry_group_IT_number 49
_symmetry_cell_setting 'orthorhombic'
loop_
_space_group_symop_operation_xyz
x,y,z
-x,-y,z
x,-y,1/2-z
-x,y,1/2-z
-x,-y,-z
x,y,-z
-x,y,1/2+z
x,-y,1/2+z
loop_
_atom_site_type_symbol
_atom_site_label
_atom_site_fract_x
_atom_site_fract_y
_atom_site_fract_z
Si Si1 0.469492 0.862039 0.051451
Si Si2 0.500000 0.500000 0.750000
Si Si3 0.879383 0.620241 0.705619
Si Si4 0.205827 0.700484 0.886061
Si Si5 0.826406 0.676927 0.950471
Si Si6 0.500000 0.500000 0.084074
O O1 0.314468 0.807129 0.087710
O O2 0.687324 0.793373 0.055750
O O3 0.500000 0.000000 0.057141
O O4 0.398629 0.840616 0.000000
O O5 0.652383 0.579555 0.720843
O O6 0.863177 0.709745 0.665039
O O7 0.000000 0.500000 0.691380
O O8 0.000000 0.661447 0.750000
O O9 0.371178 0.594444 0.888005
O O10 0.004807 0.667512 0.914529
O O11 0.664282 0.571548 0.944924
O O12 0.915731 0.676488 0.000000
#
# Coordination Sequence:
#
# PCOD9393423 Si02
#       6
#     8   2   8   8   8   4
#     4   9  20  37  53  73 100 133 179 223 254 297
#     4   8  16  32  52  68 100 140 162 202 254 292
#     4   9  18  30  47  74 102 129 164 202 247 309
#     4  11  20  32  51  75 103 136 169 206 254 303
#     4  10  20  32  49  73 102 135 166 203 252 301
#     4  10  20  30  46  72 106 138 168 198 234 304
#
# _framework density 17.138173999999999
#
# number of rings (size 3 to 8) (size 9 to 14) (size 15 to 20)
#    0.000    2.526    0.000    3.474    0.000    9.263 
#    0.000    3.158    0.000    0.000    0.000   11.053 
#    0.000    0.000    0.000    0.000    0.000    0.000 
#
# Total GULP energy -211885.121264 kJ/mol
# GULP energy per Si atom -5575.924244 kJ/mol
# Density = 1.709917 g / cm^3
# Si number density = 17.138174 Si / 1000 Ang^3
#
#
#
# Elastic Constant Matrix: (Units=GPa)
#
#
# Indices 1 2 3 4 5 6 
#
# 1 92.6013 22.4416 57.0496 0.0000 0.0000 0.0000
# 2 22.4416 75.0357 36.7554 0.0000 0.0000 0.0000
# 3 57.0496 36.7554 150.8160 0.0000 0.0000 0.0000
# 4 0.0000 0.0000 0.0000 15.7860 0.0000 0.0000
# 5 0.0000 0.0000 0.0000 0.0000 8.5517 0.0000
# 6 0.0000 0.0000 0.0000 0.0000 0.0000 6.9176
#
#
#
# Elastic Compliance Matrix: (Units=1/GPa)
#
#
# Indices 1 2 3 4 5 6 
#
# 1 0.014303 -0.001848 -0.004960 0.000000 0.000000 0.000000
# 2 -0.001848 0.015372 -0.003047 0.000000 0.000000 0.000000
# 3 -0.004960 -0.003047 0.009249 0.000000 0.000000 0.000000
# 4 0.000000 0.000000 0.000000 0.063347 0.000000 0.000000
# 5 0.000000 0.000000 0.000000 0.000000 0.116936 0.000000
# 6 0.000000 0.000000 0.000000 0.000000 0.000000 0.144559
#
#
# Mechanical properties :
#
#
# Convention : Reuss Voigt Hill
#
# Bulk Modulus (GPa) = 52.04578 61.21626 56.63102
# Shear Modulus (GPa) = 12.82440 19.73148 16.27794
#
# Velocity S-wave (km/s) = 2.73846 3.39679 3.08524
# Velocity P-wave (km/s) = 6.35871 7.15409 6.76809
#
# Compressibility (1/GPa) = 0.01921386
#
# Stress axis : x y z
#
# Youngs Moduli (GPa) = 69.91777 65.05156 108.11457
#
# Poissons Ratio (x) = 0.12022 0.53623
# Poissons Ratio (y) = 0.12921 0.32946
# Poissons Ratio (z) = 0.34678 0.19823
#
# Static dielectric constant tensor:
#      x y z
#    x 1.586910 0.000000 0.000000 
#    y 0.000000 1.571880 0.000000 
#    z 0.000000 0.000000 1.604250 
# 
# From -- ./inp_files/24692.got.cif
#   From: 2010.05.17/outbox.cif.g08.bks.cpg/sg49_13_cif.got.tgz:24692.got - 2010.06.03 21:02:19.
