data_PCOD9393128
_publ_section_title
;
Structure prediction by ZEFSAII (Michael W. Deem and Ramdas Pophale) SiO2 
 PCOD9393128
Probable space group: P C C M
;
_chemical_formula_sum "Si O2"
_cell_formula_units_Z 56
_cell_length_a 13.863979
_cell_length_b 10.432595
_cell_length_c 20.399045
_cell_angle_alpha 90.000000
_cell_angle_beta 90.000000
_cell_angle_gamma 90.000000
_cell_volume 2950.462343
_symmetry_space_group_name_H-M "P C C M"
_symmetry_group_IT_number 49
_symmetry_cell_setting 'orthorhombic'
loop_
_space_group_symop_operation_xyz
x,y,z
-x,-y,z
x,-y,1/2-z
-x,y,1/2-z
-x,-y,-z
x,y,-z
-x,y,1/2+z
x,-y,1/2+z
loop_
_atom_site_type_symbol
_atom_site_label
_atom_site_fract_x
_atom_site_fract_y
_atom_site_fract_z
Si Si1 0.394451 0.146361 0.222088
Si Si2 0.066546 0.877586 0.332856
Si Si3 0.401946 0.078702 0.072795
Si Si4 0.113255 0.509869 0.159459
Si Si5 0.073960 0.723690 0.074571
Si Si6 0.800912 0.967141 0.573452
Si Si7 0.196108 0.708102 0.737196
O O1 0.500000 0.185455 0.250000
O O2 0.398275 0.150799 0.142501
O O3 0.302257 0.232655 0.241834
O O4 0.379393 0.000000 0.250000
O O5 0.115804 0.818685 0.268987
O O6 0.007061 0.773268 0.374937
O O7 0.153768 0.932635 0.376623
O O8 0.000000 0.000000 0.323055
O O9 0.500000 0.000000 0.073091
O O10 0.312913 0.980279 0.076098
O O11 0.393923 0.143683 0.000000
O O12 0.106427 0.579149 0.089584
O O13 0.166203 0.615606 0.204208
O O14 0.172899 0.380605 0.172998
O O15 0.000000 0.500000 0.179501
O O16 0.160672 0.824608 0.085025
O O17 0.040195 0.736538 0.000000
O O18 0.834397 0.002265 0.500000
#
# Coordination Sequence:
#
# PCOD9393128 Si02
#       7
#     8   8   8   8   8   8   8
#     4  11  23  40  63  93 122 147 197 257 306 371
#     4  10  19  33  58  87 118 153 195 235 298 360
#     4  10  19  34  57  86 122 157 183 229 309 375
#     4  11  24  42  57  77 118 165 207 248 288 343
#     4  10  21  36  58  85 118 160 204 247 288 347
#     4   9  18  33  53  86 126 153 187 239 299 359
#     4  11  23  40  58  80 116 160 198 248 300 346
#
# _framework density 18.980076
#
# number of rings (size 3 to 8) (size 9 to 14) (size 15 to 20)
#    0.000    1.714    4.286    1.286    2.000    2.000 
#    0.000    4.286    0.000    0.000    0.000    0.000 
#    0.000   10.286    0.000    0.000    0.000    0.000 
#
# Total GULP energy -312160.518481 kJ/mol
# GULP energy per Si atom -5574.294973 kJ/mol
# Density = 1.893688 g / cm^3
# Si number density = 18.980076 Si / 1000 Ang^3
#
#
#
# Elastic Constant Matrix: (Units=GPa)
#
#
# Indices 1 2 3 4 5 6 
#
# 1 145.4842 44.6136 28.0259 0.0000 0.0000 0.0000
# 2 44.6136 65.4394 15.3512 0.0000 0.0000 0.0000
# 3 28.0259 15.3512 80.8595 0.0000 0.0000 0.0000
# 4 0.0000 0.0000 0.0000 16.2678 0.0000 0.0000
# 5 0.0000 0.0000 0.0000 0.0000 24.1038 0.0000
# 6 0.0000 0.0000 0.0000 0.0000 0.0000 30.3378
#
#
#
# Elastic Compliance Matrix: (Units=1/GPa)
#
#
# Indices 1 2 3 4 5 6 
#
# 1 0.009003 -0.005658 -0.002046 0.000000 0.000000 0.000000
# 2 -0.005658 0.019549 -0.001750 0.000000 0.000000 0.000000
# 3 -0.002046 -0.001750 0.013409 0.000000 0.000000 0.000000
# 4 0.000000 0.000000 0.000000 0.061471 0.000000 0.000000
# 5 0.000000 0.000000 0.000000 0.000000 0.041487 0.000000
# 6 0.000000 0.000000 0.000000 0.000000 0.000000 0.032962
#
#
# Mechanical properties :
#
#
# Convention : Reuss Voigt Hill
#
# Bulk Modulus (GPa) = 43.38054 51.97382 47.67718
# Shear Modulus (GPa) = 24.45304 27.72804 26.09054
#
# Velocity S-wave (km/s) = 3.59326 3.82632 3.71162
# Velocity P-wave (km/s) = 6.33410 6.85301 6.59866
#
# Compressibility (1/GPa) = 0.02305181
#
# Stress axis : x y z
#
# Youngs Moduli (GPa) = 111.07744 51.15332 74.57858
#
# Poissons Ratio (x) = 0.28941 0.15261
# Poissons Ratio (y) = 0.62843 0.13055
# Poissons Ratio (z) = 0.22729 0.08954
#
# Static dielectric constant tensor:
#      x y z
#    x 1.633620 0.000000 0.000000 
#    y 0.000000 1.710990 0.000000 
#    z 0.000000 0.000000 1.755550 
# 
# From -- ./inp_files/20483.got.cif
#   From: 2010.05.17/outbox.cif.g08.bks.cpg/sg49_11_cif.got.tgz:20483.got - 2010.06.03 21:02:19.
