data_PCOD9393408
_publ_section_title
;
Structure prediction by ZEFSAII (Michael W. Deem and Ramdas Pophale) SiO2 
 PCOD9393408
Probable space group: P C C M
;
_chemical_formula_sum "Si O2"
_cell_formula_units_Z 64
_cell_length_a 24.247022
_cell_length_b 15.818207
_cell_length_c 8.616836
_cell_angle_alpha 90.000000
_cell_angle_beta 90.000000
_cell_angle_gamma 90.000000
_cell_volume 3304.939307
_symmetry_space_group_name_H-M "P C C M"
_symmetry_group_IT_number 49
_symmetry_cell_setting 'orthorhombic'
loop_
_space_group_symop_operation_xyz
x,y,z
-x,-y,z
x,-y,1/2-z
-x,y,1/2-z
-x,-y,-z
x,y,-z
-x,y,1/2+z
x,-y,1/2+z
loop_
_atom_site_type_symbol
_atom_site_label
_atom_site_fract_x
_atom_site_fract_y
_atom_site_fract_z
Si Si1 0.630872 0.591077 0.313103
Si Si2 0.938347 0.245163 0.186292
Si Si3 0.869471 0.409764 0.812700
Si Si4 0.371072 0.908656 0.186228
Si Si5 0.132802 0.909733 0.315929
Si Si6 0.438146 0.749034 0.314486
Si Si7 0.248094 0.148837 0.686961
Si Si8 0.750535 0.653135 0.311698
O O1 0.613246 0.500000 0.250000
O O2 0.629333 0.591592 0.500000
O O3 0.593708 0.667166 0.250465
O O4 0.694025 0.609278 0.260698
O O5 0.908039 0.331885 0.235441
O O6 0.902863 0.166326 0.245991
O O7 0.000000 0.241780 0.250000
O O8 0.939022 0.243067 0.000000
O O9 0.887964 0.500000 0.750000
O O10 0.806897 0.390391 0.757854
O O11 0.868935 0.411969 0.000000
O O12 0.406542 0.832739 0.256790
O O13 0.306807 0.892008 0.226503
O O14 0.387912 0.000000 0.250000
O O15 0.375851 0.906331 0.000000
O O16 0.128122 0.909500 0.500000
O O17 0.196207 0.894578 0.266687
O O18 0.114488 0.000000 0.250000
O O19 0.500000 0.749759 0.250000
O O20 0.438597 0.746647 0.500000
O O21 0.240797 0.144128 0.500000
O O22 0.249506 0.247961 0.731198
O O23 0.750803 0.650867 0.500000
#
# Coordination Sequence:
#
# PCOD9393408 Si02
#       8
#     8   8   8   8   8   8   8   8
#     4  11  22  40  65  96 130 167 208 256 314 376
#     4  11  24  44  66  89 122 163 209 262 314 368
#     4  10  21  38  62  90 125 164 204 250 305 363
#     4  11  23  41  66  96 130 168 208 257 313 375
#     4  12  25  41  64  95 127 164 208 255 309 373
#     4  12  26  45  67  92 123 164 214 265 317 375
#     4  10  19  38  65  93 129 168 205 251 310 369
#     4   9  17  35  62  91 126 166 201 246 308 368
#
# _framework density 19.364954999999998
#
# number of rings (size 3 to 8) (size 9 to 14) (size 15 to 20)
#    0.000    1.250    2.500    4.125    0.000    4.000 
#    0.000    5.625    0.000    0.000    0.000    0.000 
#    0.000    0.000    0.000    0.000    0.000    0.000 
#
# Total GULP energy -357959.747517 kJ/mol
# GULP energy per Si atom -5593.121055 kJ/mol
# Density = 1.932088 g / cm^3
# Si number density = 19.364955 Si / 1000 Ang^3
#
#
#
# Elastic Constant Matrix: (Units=GPa)
#
#
# Indices 1 2 3 4 5 6 
#
# 1 139.6080 77.0373 54.9491 0.0000 0.0000 0.0000
# 2 77.0373 193.1312 56.7373 0.0000 0.0000 0.0000
# 3 54.9491 56.7373 81.5973 0.0000 0.0000 0.0000
# 4 0.0000 0.0000 0.0000 32.4275 0.0000 0.0000
# 5 0.0000 0.0000 0.0000 0.0000 32.2411 0.0000
# 6 0.0000 0.0000 0.0000 0.0000 0.0000 2.9498
#
#
#
# Elastic Compliance Matrix: (Units=1/GPa)
#
#
# Indices 1 2 3 4 5 6 
#
# 1 0.010777 -0.002723 -0.005364 0.000000 0.000000 0.000000
# 2 -0.002723 0.007195 -0.003169 0.000000 0.000000 0.000000
# 3 -0.005364 -0.003169 0.018071 0.000000 0.000000 0.000000
# 4 0.000000 0.000000 0.000000 0.030838 0.000000 0.000000
# 5 0.000000 0.000000 0.000000 0.000000 0.031016 0.000000
# 6 0.000000 0.000000 0.000000 0.000000 0.000000 0.339004
#
#
# Mechanical properties :
#
#
# Convention : Reuss Voigt Hill
#
# Bulk Modulus (GPa) = 73.90594 87.97597 80.94096
# Shear Modulus (GPa) = 10.77765 28.56456 19.67110
#
# Velocity S-wave (km/s) = 2.36170 3.84482 3.19063
# Velocity P-wave (km/s) = 6.75903 8.07709 7.44728
#
# Compressibility (1/GPa) = 0.01353071
#
# Stress axis : x y z
#
# Youngs Moduli (GPa) = 92.79356 138.98542 55.33678
#
# Poissons Ratio (x) = 0.37844 0.29682
# Poissons Ratio (y) = 0.25266 0.17538
# Poissons Ratio (z) = 0.49773 0.44049
#
# Static dielectric constant tensor:
#      x y z
#    x 1.656630 0.000000 0.000000 
#    y 0.000000 1.654860 0.000000 
#    z 0.000000 0.000000 1.652250 
# 
# From -- ./inp_files/6524.got.cif
#   From: 2010.05.17/outbox.cif.g08.bks.cpg/sg49_4_cif.got.tgz:6524.got - 2010.06.03 21:02:19.
