data_PCOD9393148
_publ_section_title
;
Structure prediction by ZEFSAII (Michael W. Deem and Ramdas Pophale) SiO2 
 PCOD9393148
Probable space group: P C C M
;
_chemical_formula_sum "Si O2"
_cell_formula_units_Z 58
_cell_length_a 13.469850
_cell_length_b 26.905620
_cell_length_c 8.525389
_cell_angle_alpha 90.000000
_cell_angle_beta 90.000000
_cell_angle_gamma 90.000000
_cell_volume 3089.726003
_symmetry_space_group_name_H-M "P C C M"
_symmetry_group_IT_number 49
_symmetry_cell_setting 'orthorhombic'
loop_
_space_group_symop_operation_xyz
x,y,z
-x,-y,z
x,-y,1/2-z
-x,y,1/2-z
-x,-y,-z
x,y,-z
-x,y,1/2+z
x,-y,1/2+z
loop_
_atom_site_type_symbol
_atom_site_label
_atom_site_fract_x
_atom_site_fract_y
_atom_site_fract_z
Si Si1 0.192146 0.554431 0.812541
Si Si2 0.609679 0.807171 0.188843
Si Si3 0.895879 0.943880 0.187564
Si Si4 0.332741 0.081028 0.191792
Si Si5 0.897580 0.347419 0.686857
Si Si6 0.303625 0.295747 0.810410
Si Si7 0.604379 0.605850 0.312875
Si Si8 0.500000 0.000000 0.250000
O O1 0.169526 0.500000 0.750000
O O2 0.119741 0.597210 0.751363
O O3 0.302137 0.572587 0.759794
O O4 0.189954 0.554026 0.000000
O O5 0.500000 0.798024 0.250000
O O6 0.641654 0.862443 0.236057
O O7 0.674182 0.760087 0.242477
O O8 0.610767 0.807089 0.000000
O O9 0.784342 0.925732 0.230148
O O10 0.000000 0.920291 0.250000
O O11 0.897017 0.000000 0.250000
O O12 0.901615 0.942871 0.000000
O O13 0.411520 0.043115 0.272294
O O14 0.344724 0.073952 0.000000
O O15 0.898348 0.349306 0.500000
O O16 0.804679 0.314392 0.739259
O O17 0.000000 0.326905 0.750000
O O18 0.377458 0.337984 0.747072
O O19 0.308934 0.297077 0.000000
O O20 0.500000 0.586899 0.250000
O O21 0.603452 0.606390 0.500000
#
# Coordination Sequence:
#
# PCOD9393148 Si02
#       8
#     8   8   8   8   8   8   8   2
#     4  10  21  36  53  77 108 143 179 223 267 317
#     4  10  20  36  54  79 110 143 177 219 269 323
#     4  10  19  34  53  76 101 135 177 221 265 312
#     4  10  21  34  53  79 112 147 183 226 276 331
#     4  10  20  36  57  81 105 137 177 222 270 326
#     4   9  19  35  56  77 103 136 174 218 270 321
#     4  10  20  33  52  76 105 139 178 218 264 315
#     4  12  18  36  54  78 112 152 190 222 280 332
#
# _framework density 18.771892000000001
#
# number of rings (size 3 to 8) (size 9 to 14) (size 15 to 20)
#    0.000    2.069    1.379    2.690    0.000    4.414 
#    0.000    4.828    0.000    0.000    0.000    0.000 
#    0.000    0.000    0.000    0.000    0.000    0.000 
#
# Total GULP energy -322985.167069 kJ/mol
# GULP energy per Si atom -5568.709777 kJ/mol
# Density = 1.872917 g / cm^3
# Si number density = 18.771892 Si / 1000 Ang^3
#
#
#
# Elastic Constant Matrix: (Units=GPa)
#
#
# Indices 1 2 3 4 5 6 
#
# 1 134.6809 38.1895 16.7580 0.0000 0.0000 0.0000
# 2 38.1895 115.1105 12.5101 0.0000 0.0000 0.0000
# 3 16.7580 12.5101 11.3219 0.0000 0.0000 0.0000
# 4 0.0000 0.0000 0.0000 7.1774 0.0000 0.0000
# 5 0.0000 0.0000 0.0000 0.0000 29.0286 0.0000
# 6 0.0000 0.0000 0.0000 0.0000 0.0000 3.5840
#
#
#
# Elastic Compliance Matrix: (Units=1/GPa)
#
#
# Indices 1 2 3 4 5 6 
#
# 1 0.009429 -0.001831 -0.011933 0.000000 0.000000 0.000000
# 2 -0.001831 0.010229 -0.008591 0.000000 0.000000 0.000000
# 3 -0.011933 -0.008591 0.115480 0.000000 0.000000 0.000000
# 4 0.000000 0.000000 0.000000 0.139325 0.000000 0.000000
# 5 0.000000 0.000000 0.000000 0.000000 0.034449 0.000000
# 6 0.000000 0.000000 0.000000 0.000000 0.000000 0.279016
#
#
# Mechanical properties :
#
#
# Convention : Reuss Voigt Hill
#
# Bulk Modulus (GPa) = 11.05873 44.00317 27.53095
# Shear Modulus (GPa) = 7.54398 20.86840 14.20619
#
# Velocity S-wave (km/s) = 2.00686 3.33781 2.75395
# Velocity P-wave (km/s) = 3.35766 6.19245 4.98098
#
# Compressibility (1/GPa) = 0.09042627
#
# Stress axis : x y z
#
# Youngs Moduli (GPa) = 106.05570 97.76523 8.65954
#
# Poissons Ratio (x) = 0.17904 0.10333
# Poissons Ratio (y) = 0.19423 0.07440
# Poissons Ratio (z) = 1.26553 0.83993
#
# Static dielectric constant tensor:
#      x y z
#    x 1.676110 0.000000 0.000000 
#    y 0.000000 1.638890 0.000000 
#    z 0.000000 0.000000 1.652700 
# 
# From -- ./inp_files/4266.got.cif
#   From: 2010.05.17/outbox.cif.g08.bks.cpg/sg49_3_cif.got.tgz:4266.got - 2010.06.03 21:02:19.
