data_PCOD9393545
_publ_section_title
;
Structure prediction by ZEFSAII (Michael W. Deem and Ramdas Pophale) SiO2 
 PCOD9393545
Probable space group: P C C M
;
_chemical_formula_sum "Si O2"
_cell_formula_units_Z 48
_cell_length_a 10.796792
_cell_length_b 12.013582
_cell_length_c 14.465251
_cell_angle_alpha 90.000000
_cell_angle_beta 90.000000
_cell_angle_gamma 90.000000
_cell_volume 1876.260889
_symmetry_space_group_name_H-M "P C C M"
_symmetry_group_IT_number 49
_symmetry_cell_setting 'orthorhombic'
loop_
_space_group_symop_operation_xyz
x,y,z
-x,-y,z
x,-y,1/2-z
-x,y,1/2-z
-x,-y,-z
x,y,-z
-x,y,1/2+z
x,-y,1/2+z
loop_
_atom_site_type_symbol
_atom_site_label
_atom_site_fract_x
_atom_site_fract_y
_atom_site_fract_z
Si Si1 0.795132 0.134357 0.113675
Si Si2 0.313074 0.361215 0.604643
Si Si3 0.059417 0.793299 0.611092
Si Si4 0.682552 0.910532 0.111890
Si Si5 0.420926 0.685151 0.613010
Si Si6 0.827393 0.567355 0.159826
O O1 0.747520 0.253110 0.147920
O O2 0.938872 0.139462 0.143594
O O3 0.702791 0.036690 0.144768
O O4 0.798819 0.128578 0.000000
O O5 0.339390 0.326027 0.500000
O O6 0.452300 0.375477 0.640247
O O7 0.218389 0.462859 0.598980
O O8 0.055429 0.794655 0.500000
O O9 0.185858 0.854460 0.636821
O O10 0.073481 0.662272 0.635773
O O11 0.579866 0.817572 0.135344
O O12 0.673284 0.917918 0.000000
O O13 0.397615 0.673014 0.500000
O O14 0.303553 0.632122 0.663535
O O15 0.861747 0.500000 0.250000
#
# Coordination Sequence:
#
# PCOD9393545 Si02
#       6
#     8   8   8   8   8   8
#     4   9  17  29  50  80 109 136 169 212 263 322
#     4  10  20  33  50  76 109 141 173 215 270 328
#     4   9  17  32  54  78 106 141 178 218 267 322
#     4   8  14  27  50  80 107 132 169 215 260 311
#     4   9  18  33  54  78 106 140 176 218 270 325
#     4  11  22  35  52  73 100 138 187 232 267 313
#
# _framework density 25.582796999999999
#
# number of rings (size 3 to 8) (size 9 to 14) (size 15 to 20)
#    0.000    2.667    0.000    3.500    0.000    6.000 
#    0.000    7.500    0.000    4.000    0.000    9.333 
#    0.000    0.000    0.000    0.000    0.000   10.667 
#
# Total GULP energy -267760.447960 kJ/mol
# GULP energy per Si atom -5578.342666 kJ/mol
# Density = 2.552457 g / cm^3
# Si number density = 25.582797 Si / 1000 Ang^3
#
#
#
# Elastic Constant Matrix: (Units=GPa)
#
#
# Indices 1 2 3 4 5 6 
#
# 1 41.8748 -5.9946 12.3075 0.0000 0.0000 0.0000
# 2 -5.9946 140.1521 -3.1735 0.0000 0.0000 0.0000
# 3 12.3075 -3.1735 51.1933 0.0000 0.0000 0.0000
# 4 0.0000 0.0000 0.0000 -0.8023 0.0000 0.0000
# 5 0.0000 0.0000 0.0000 0.0000 12.9124 0.0000
# 6 0.0000 0.0000 0.0000 0.0000 0.0000 14.4155
#
#
#
# Elastic Compliance Matrix: (Units=1/GPa)
#
#
# Indices 1 2 3 4 5 6 
#
# 1 0.025826 0.000965 -0.006149 0.000000 0.000000 0.000000
# 2 0.000965 0.007181 0.000213 0.000000 0.000000 0.000000
# 3 -0.006149 0.000213 0.021025 0.000000 0.000000 0.000000
# 4 0.000000 0.000000 0.000000 -1.246368 0.000000 0.000000
# 5 0.000000 0.000000 0.000000 0.000000 0.077445 0.000000
# 6 0.000000 0.000000 0.000000 0.000000 0.000000 0.069370
#
#
# Mechanical properties :
#
#
# Convention : Reuss Voigt Hill
#
# Bulk Modulus (GPa) = 22.68010 26.61101 24.64555
# Shear Modulus (GPa) = -4.89773 20.64385 7.87306
#
# Velocity S-wave (km/s) = -1.38514 2.84376 1.75618
# Velocity P-wave (km/s) = 2.51525 4.60512 3.71036
#
# Compressibility (1/GPa) = 0.04409152
#
# Stress axis : x y z
#
# Youngs Moduli (GPa) = 38.72041 139.25208 47.56175
#
# Poissons Ratio (x) = -0.13443 0.29246
# Poissons Ratio (y) = -0.03738 -0.01013
# Poissons Ratio (z) = 0.23809 -0.02967
#
# Static dielectric constant tensor:
#      x y z
#    x 2.067020 0.000000 0.000000 
#    y 0.000000 2.040970 0.000000 
#    z 0.000000 0.000000 2.452590 
# 
# From -- ./inp_files/17122.got.cif
#   From: 2010.05.17/outbox.cif.g08.bks.cpg/sg49_9_cif.got.tgz:17122.got - 2010.06.03 21:02:19.
