data_PCOD9393523
_publ_section_title
;
Structure prediction by ZEFSAII (Michael W. Deem and Ramdas Pophale) SiO2 
 PCOD9393523
Probable space group: P C C M
;
_chemical_formula_sum "Si O2"
_cell_formula_units_Z 56
_cell_length_a 20.402246
_cell_length_b 7.832074
_cell_length_c 16.316837
_cell_angle_alpha 90.000000
_cell_angle_beta 90.000000
_cell_angle_gamma 90.000000
_cell_volume 2607.298393
_symmetry_space_group_name_H-M "P C C M"
_symmetry_group_IT_number 49
_symmetry_cell_setting 'orthorhombic'
loop_
_space_group_symop_operation_xyz
x,y,z
-x,-y,z
x,-y,1/2-z
-x,y,1/2-z
-x,-y,-z
x,y,-z
-x,y,1/2+z
x,-y,1/2+z
loop_
_atom_site_type_symbol
_atom_site_label
_atom_site_fract_x
_atom_site_fract_y
_atom_site_fract_z
Si Si1 0.070345 0.947964 0.844079
Si Si2 0.653266 0.457972 0.839883
Si Si3 0.209631 0.054047 0.406564
Si Si4 0.345058 0.952630 0.160056
Si Si5 0.210676 0.528919 0.904925
Si Si6 0.424088 0.544050 0.000000
Si Si7 0.071737 0.425149 0.402450
Si Si8 0.423622 0.955699 0.000000
O O1 0.137171 0.011897 0.885748
O O2 0.072878 0.745253 0.850430
O O3 0.071307 0.000000 0.750000
O O4 0.000000 0.000000 0.881577
O O5 0.627347 0.500000 0.750000
O O6 0.655782 0.252802 0.845458
O O7 0.727638 0.525782 0.851236
O O8 0.610948 0.519714 0.917145
O O9 0.226202 0.012159 0.500000
O O10 0.269408 0.990326 0.351247
O O11 0.207588 0.262404 0.401412
O O12 0.369859 0.000000 0.250000
O O13 0.387733 0.016841 0.083135
O O14 0.137447 0.468889 0.881685
O O15 0.223773 0.484328 0.000000
O O16 0.500000 0.500000 0.000000
O O17 0.417648 0.749720 0.000000
O O18 0.078778 0.383911 0.500000
O O19 0.000000 0.500000 0.391174
O O20 0.500000 0.000000 0.000000
#
# Coordination Sequence:
#
# PCOD9393523 Si02
#       8
#     8   8   8   8   8   4   8   4
#     4  10  20  33  49  77 113 149 188 235 291 344
#     4  10  20  36  59  87 112 148 189 228 280 334
#     4   9  16  31  57  81 104 144 192 234 280 335
#     4  10  20  37  60  86 116 148 190 237 279 332
#     4   8  14  30  56  80 106 141 186 235 282 331
#     4  10  22  40  62  84 115 150 182 228 273 334
#     4   9  18  34  57  81 105 144 194 242 289 340
#     4  10  22  40  62  86 115 152 192 222 277 342
#
# _framework density 21.478169999999999
#
# number of rings (size 3 to 8) (size 9 to 14) (size 15 to 20)
#    0.000    2.571    1.429    1.714    0.000    2.857 
#    0.000   14.286    0.000    1.714    0.000    0.000 
#    0.000    0.000    0.000    0.000    0.000    0.000 
#
# Total GULP energy -312440.302410 kJ/mol
# GULP energy per Si atom -5579.291114 kJ/mol
# Density = 2.142928 g / cm^3
# Si number density = 21.478170 Si / 1000 Ang^3
#
#
#
# Elastic Constant Matrix: (Units=GPa)
#
#
# Indices 1 2 3 4 5 6 
#
# 1 153.3179 6.0512 78.8972 0.0000 0.0000 0.0000
# 2 6.0512 22.3660 12.6191 0.0000 0.0000 0.0000
# 3 78.8972 12.6191 136.0868 0.0000 0.0000 0.0000
# 4 0.0000 0.0000 0.0000 22.6652 0.0000 0.0000
# 5 0.0000 0.0000 0.0000 0.0000 17.2528 0.0000
# 6 0.0000 0.0000 0.0000 0.0000 0.0000 21.4879
#
#
#
# Elastic Compliance Matrix: (Units=1/GPa)
#
#
# Indices 1 2 3 4 5 6 
#
# 1 0.009302 0.000555 -0.005445 0.000000 0.000000 0.000000
# 2 0.000555 0.047212 -0.004700 0.000000 0.000000 0.000000
# 3 -0.005445 -0.004700 0.010941 0.000000 0.000000 0.000000
# 4 0.000000 0.000000 0.000000 0.044120 0.000000 0.000000
# 5 0.000000 0.000000 0.000000 0.000000 0.057961 0.000000
# 6 0.000000 0.000000 0.000000 0.000000 0.000000 0.046538
#
#
# Mechanical properties :
#
#
# Convention : Reuss Voigt Hill
#
# Bulk Modulus (GPa) = 20.71393 56.32285 38.51839
# Shear Modulus (GPa) = 19.89295 26.56140 23.22718
#
# Velocity S-wave (km/s) = 3.04665 3.52045 3.29208
# Velocity P-wave (km/s) = 4.69480 6.54255 5.69413
#
# Compressibility (1/GPa) = 0.04827670
#
# Stress axis : x y z
#
# Youngs Moduli (GPa) = 107.50118 21.18097 91.40320
#
# Poissons Ratio (x) = -0.01176 0.49764
# Poissons Ratio (y) = -0.05967 0.42957
# Poissons Ratio (z) = 0.58529 0.09954
#
# Static dielectric constant tensor:
#      x y z
#    x 1.821890 0.000000 0.000000 
#    y 0.000000 1.803400 0.000000 
#    z 0.000000 0.000000 1.761890 
# 
# From -- ./inp_files/14434.got.cif
#   From: 2010.05.17/outbox.cif.g08.bks.cpg/sg49_8_cif.got.tgz:14434.got - 2010.06.03 21:02:19.
