data_PCOD9393040
_publ_section_title
;
Structure prediction by ZEFSAII (Michael W. Deem and Ramdas Pophale) SiO2 
 PCOD9393040
Probable space group: P C C M
;
_chemical_formula_sum "Si O2"
_cell_formula_units_Z 40
_cell_length_a 27.391242
_cell_length_b 9.345125
_cell_length_c 8.621239
_cell_angle_alpha 90.000000
_cell_angle_beta 90.000000
_cell_angle_gamma 90.000000
_cell_volume 2206.818036
_symmetry_space_group_name_H-M "P C C M"
_symmetry_group_IT_number 49
_symmetry_cell_setting 'orthorhombic'
loop_
_space_group_symop_operation_xyz
x,y,z
-x,-y,z
x,-y,1/2-z
-x,y,1/2-z
-x,-y,-z
x,y,-z
-x,y,1/2+z
x,-y,1/2+z
loop_
_atom_site_type_symbol
_atom_site_label
_atom_site_fract_x
_atom_site_fract_y
_atom_site_fract_z
Si Si1 0.844593 0.837977 0.186817
Si Si2 0.352982 0.340326 0.314003
Si Si3 0.447912 0.839626 0.186139
Si Si4 0.737671 0.162072 0.313376
Si Si5 0.049977 0.836644 0.313904
O O1 0.791584 0.778362 0.233125
O O2 0.897125 0.772627 0.233350
O O3 0.844555 0.000000 0.250000
O O4 0.844937 0.843458 0.000000
O O5 0.353151 0.500000 0.250000
O O6 0.351391 0.342446 0.500000
O O7 0.402452 0.258039 0.266318
O O8 0.306120 0.255494 0.252025
O O9 0.500000 0.787243 0.250000
O O10 0.440696 0.000000 0.250000
O O11 0.450164 0.845586 0.000000
O O12 0.735043 0.158089 0.500000
O O13 0.733694 0.000000 0.250000
O O14 0.047025 0.841297 0.500000
O O15 0.000000 0.769409 0.250000
O O16 0.050801 0.000000 0.250000
#
# Coordination Sequence:
#
# PCOD9393040 Si02
#       5
#     8   8   8   8   8
#     4   8  15  25  38  58  85 118 157 199 243 290
#     4  11  24  39  55  78 106 138 172 211 257 304
#     4  10  21  37  59  84 109 137 171 207 247 293
#     4  10  19  33  53  75 100 133 172 214 256 303
#     4   9  14  20  30  48  77 113 151 190 235 288
#
# _framework density 18.125644999999999
#
# number of rings (size 3 to 8) (size 9 to 14) (size 15 to 20)
#    0.000    2.400    0.000    4.200    0.000    6.800 
#    0.000    2.000    0.000    0.000    0.000    0.000 
#    0.000    0.800    0.000    9.200    0.000    5.400 
#
# Total GULP energy -222868.699296 kJ/mol
# GULP energy per Si atom -5571.717482 kJ/mol
# Density = 1.808439 g / cm^3
# Si number density = 18.125645 Si / 1000 Ang^3
#
#
#
# Elastic Constant Matrix: (Units=GPa)
#
#
# Indices 1 2 3 4 5 6 
#
# 1 249.2348 76.3327 54.0012 0.0000 0.0000 0.0000
# 2 76.3327 49.1989 19.2410 0.0000 0.0000 0.0000
# 3 54.0012 19.2410 45.2587 0.0000 0.0000 0.0000
# 4 0.0000 0.0000 0.0000 16.1277 0.0000 0.0000
# 5 0.0000 0.0000 0.0000 0.0000 33.0471 0.0000
# 6 0.0000 0.0000 0.0000 0.0000 0.0000 -5.5165
#
#
#
# Elastic Compliance Matrix: (Units=1/GPa)
#
#
# Indices 1 2 3 4 5 6 
#
# 1 0.008669 -0.011281 -0.005548 0.000000 0.000000 0.000000
# 2 -0.011281 0.039058 -0.003145 0.000000 0.000000 0.000000
# 3 -0.005548 -0.003145 0.030052 0.000000 0.000000 0.000000
# 4 0.000000 0.000000 0.000000 0.062005 0.000000 0.000000
# 5 0.000000 0.000000 0.000000 0.000000 0.030260 0.000000
# 6 0.000000 0.000000 0.000000 0.000000 0.000000 -0.181273
#
#
# Mechanical properties :
#
#
# Convention : Reuss Voigt Hill
#
# Bulk Modulus (GPa) = 26.43299 71.42692 48.92996
# Shear Modulus (GPa) = 120.97895 21.67282 71.32588
#
# Velocity S-wave (km/s) = 8.17860 3.46164 6.27983
# Velocity P-wave (km/s) = 10.18827 7.44778 8.92385
#
# Compressibility (1/GPa) = 0.03783151
#
# Stress axis : x y z
#
# Youngs Moduli (GPa) = 115.34931 25.60300 33.27555
#
# Poissons Ratio (x) = 0.28882 0.18462
# Poissons Ratio (y) = 1.30123 0.10465
# Poissons Ratio (z) = 0.63997 0.08052
#
# Static dielectric constant tensor:
#      x y z
#    x 1.699740 0.000000 0.000000 
#    y 0.000000 1.565190 0.000000 
#    z 0.000000 0.000000 1.613160 
# 
# From -- ./inp_files/1886.got.cif
#   From: 2010.05.17/outbox.cif.g08.bks.cpg/sg49_1_cif.got.tgz:1886.got - 2010.06.03 21:02:19.
