data_PCOD9393349
_publ_section_title
;
Structure prediction by ZEFSAII (Michael W. Deem and Ramdas Pophale) SiO2 
 PCOD9393349
Probable space group: P C C M
;
_chemical_formula_sum "Si O2"
_cell_formula_units_Z 64
_cell_length_a 9.077445
_cell_length_b 19.563258
_cell_length_c 19.656651
_cell_angle_alpha 90.000000
_cell_angle_beta 90.000000
_cell_angle_gamma 90.000000
_cell_volume 3490.714545
_symmetry_space_group_name_H-M "P C C M"
_symmetry_group_IT_number 49
_symmetry_cell_setting 'orthorhombic'
loop_
_space_group_symop_operation_xyz
x,y,z
-x,-y,z
x,-y,1/2-z
-x,y,1/2-z
-x,-y,-z
x,y,-z
-x,y,1/2+z
x,-y,1/2+z
loop_
_atom_site_type_symbol
_atom_site_label
_atom_site_fract_x
_atom_site_fract_y
_atom_site_fract_z
Si Si1 0.170479 0.977945 0.172139
Si Si2 0.047246 0.576437 0.328593
Si Si3 0.686866 0.664009 0.821243
Si Si4 0.632914 0.710620 0.325781
Si Si5 0.337486 0.084464 0.080684
Si Si6 0.104157 0.308348 0.579449
Si Si7 0.172332 0.774951 0.579144
Si Si8 0.588090 0.128167 0.819139
O O1 0.246805 0.902667 0.173332
O O2 0.194204 0.000000 0.250000
O O3 0.267517 0.020526 0.119074
O O4 0.000000 0.000000 0.157577
O O5 0.220305 0.595394 0.333208
O O6 0.000000 0.500000 0.347455
O O7 0.000000 0.586287 0.250000
O O8 0.967940 0.630847 0.377069
O O9 0.713553 0.688369 0.743717
O O10 0.511937 0.663780 0.830774
O O11 0.745404 0.722433 0.871754
O O12 0.736209 0.703793 0.390287
O O13 0.590129 0.789819 0.318254
O O14 0.226785 0.148646 0.092266
O O15 0.489433 0.103491 0.117642
O O16 0.354219 0.074135 0.000000
O O17 0.105734 0.324933 0.500000
O O18 0.000027 0.241667 0.588679
O O19 0.207260 0.759693 0.500000
O O20 0.500000 0.105898 0.750000
#
# Coordination Sequence:
#
# PCOD9393349 Si02
#       8
#     8   8   8   8   8   8   8   8
#     4  11  26  42  59  86 118 157 205 258 318 380
#     4  10  20  38  64  90 122 164 208 249 296 361
#     4  10  19  36  58  90 122 151 205 248 304 361
#     4  11  21  35  59  92 122 158 201 257 312 361
#     4  11  23  41  63  88 119 162 209 256 318 377
#     4  10  22  38  60  92 128 164 200 251 309 362
#     4   9  19  36  58  86 118 154 199 251 305 365
#     4  12  22  40  63  88 119 159 207 260 316 385
#
# _framework density 18.334354999999999
#
# number of rings (size 3 to 8) (size 9 to 14) (size 15 to 20)
#    0.000    1.500    5.000    0.375    1.750    2.500 
#    0.000    0.625    0.000    0.750    0.000    0.000 
#    0.000    0.000    0.000    0.000    0.000    0.000 
#
# Total GULP energy -356817.323265 kJ/mol
# GULP energy per Si atom -5575.270676 kJ/mol
# Density = 1.829263 g / cm^3
# Si number density = 18.334355 Si / 1000 Ang^3
#
#
#
# Elastic Constant Matrix: (Units=GPa)
#
#
# Indices 1 2 3 4 5 6 
#
# 1 91.2314 45.7942 24.7909 0.0000 0.0000 0.0000
# 2 45.7942 74.9350 25.6499 0.0000 0.0000 0.0000
# 3 24.7909 25.6499 72.9762 0.0000 0.0000 0.0000
# 4 0.0000 0.0000 0.0000 22.7408 0.0000 0.0000
# 5 0.0000 0.0000 0.0000 0.0000 20.7637 0.0000
# 6 0.0000 0.0000 0.0000 0.0000 0.0000 22.2060
#
#
#
# Elastic Compliance Matrix: (Units=1/GPa)
#
#
# Indices 1 2 3 4 5 6 
#
# 1 0.016142 -0.009080 -0.002292 0.000000 0.000000 0.000000
# 2 -0.009080 0.020278 -0.004043 0.000000 0.000000 0.000000
# 3 -0.002292 -0.004043 0.015903 0.000000 0.000000 0.000000
# 4 0.000000 0.000000 0.000000 0.043974 0.000000 0.000000
# 5 0.000000 0.000000 0.000000 0.000000 0.048161 0.000000
# 6 0.000000 0.000000 0.000000 0.000000 0.000000 0.045033
#
#
# Mechanical properties :
#
#
# Convention : Reuss Voigt Hill
#
# Bulk Modulus (GPa) = 46.52763 47.95696 47.24229
# Shear Modulus (GPa) = 21.97963 22.66927 22.32445
#
# Velocity S-wave (km/s) = 3.46616 3.52011 3.49324
# Velocity P-wave (km/s) = 6.43827 6.53722 6.48794
#
# Compressibility (1/GPa) = 0.02149261
#
# Stress axis : x y z
#
# Youngs Moduli (GPa) = 61.95128 49.31550 62.88248
#
# Poissons Ratio (x) = 0.44778 0.14413
# Poissons Ratio (y) = 0.56251 0.25421
# Poissons Ratio (z) = 0.14200 0.19937
#
# Static dielectric constant tensor:
#      x y z
#    x 1.668560 0.000000 0.000000 
#    y 0.000000 1.616470 0.000000 
#    z 0.000000 0.000000 1.612000 
# 
# From -- ./inp_files/19994.got.cif
#   From: 2010.05.17/outbox.cif.g08.bks.cpg/sg49_10_cif.got.tgz:19994.got - 2010.06.03 21:02:19.
