data_PCOD9393144
_publ_section_title
;
Structure prediction by ZEFSAII (Michael W. Deem and Ramdas Pophale) SiO2 
 PCOD9393144
Probable space group: P C C M
;
_chemical_formula_sum "Si O2"
_cell_formula_units_Z 56
_cell_length_a 15.322201
_cell_length_b 11.653673
_cell_length_c 16.496476
_cell_angle_alpha 90.000000
_cell_angle_beta 90.000000
_cell_angle_gamma 90.000000
_cell_volume 2945.609436
_symmetry_space_group_name_H-M "P C C M"
_symmetry_group_IT_number 49
_symmetry_cell_setting 'orthorhombic'
loop_
_space_group_symop_operation_xyz
x,y,z
-x,-y,z
x,-y,1/2-z
-x,y,1/2-z
-x,-y,-z
x,y,-z
-x,y,1/2+z
x,-y,1/2+z
loop_
_atom_site_type_symbol
_atom_site_label
_atom_site_fract_x
_atom_site_fract_y
_atom_site_fract_z
Si Si1 0.776705 0.803744 0.405078
Si Si2 0.253953 0.145712 0.092988
Si Si3 0.900200 0.982260 0.346763
Si Si4 0.669773 0.604977 0.363593
Si Si5 0.507387 0.760825 0.592996
Si Si6 0.376671 0.042484 0.341518
Si Si7 0.659905 0.651763 0.827577
O O1 0.763196 0.834535 0.500000
O O2 0.866633 0.857052 0.374391
O O3 0.756126 0.670088 0.394459
O O4 0.703901 0.867675 0.350075
O O5 0.266580 0.256853 0.148271
O O6 0.168825 0.071278 0.114696
O O7 0.338461 0.064053 0.107920
O O8 0.251335 0.180127 0.000000
O O9 0.894292 0.000000 0.250000
O O10 0.000000 0.000000 0.371807
O O11 0.587947 0.670738 0.403383
O O12 0.661691 0.626929 0.267478
O O13 0.668477 0.468823 0.374511
O O14 0.479075 0.771514 0.500000
O O15 0.543171 0.882814 0.625367
O O16 0.431411 0.709854 0.648061
O O17 0.388854 0.000000 0.250000
#
# Coordination Sequence:
#
# PCOD9393144 Si02
#       7
#     8   8   8   8   8   8   8
#     4  10  19  34  58  84 109 138 176 223 272 319
#     4  11  21  34  53  79 112 143 176 221 274 324
#     4  10  20  36  60  87 114 144 176 210 255 318
#     4  10  21  38  57  76 104 143 189 229 266 319
#     4  11  22  36  54  78 107 140 186 236 278 318
#     4  10  19  34  53  73 105 146 185 222 268 324
#     4  11  23  37  54  76 105 145 187 228 271 317
#
# _framework density 19.011346
#
# number of rings (size 3 to 8) (size 9 to 14) (size 15 to 20)
#    0.000    1.571    0.000    9.429    0.000    5.714 
#    0.000    5.714    0.000    0.857    0.000    6.000 
#    0.000    0.000    0.000    0.000    0.000    0.000 
#
# Total GULP energy -312972.939609 kJ/mol
# GULP energy per Si atom -5588.802493 kJ/mol
# Density = 1.896808 g / cm^3
# Si number density = 19.011346 Si / 1000 Ang^3
#
#
#
# Elastic Constant Matrix: (Units=GPa)
#
#
# Indices 1 2 3 4 5 6 
#
# 1 107.5352 42.3106 17.9009 0.0000 0.0000 0.0000
# 2 42.3106 116.4743 11.4465 0.0000 0.0000 0.0000
# 3 17.9009 11.4465 76.6598 0.0000 0.0000 0.0000
# 4 0.0000 0.0000 0.0000 22.4665 0.0000 0.0000
# 5 0.0000 0.0000 0.0000 0.0000 10.8681 0.0000
# 6 0.0000 0.0000 0.0000 0.0000 0.0000 12.5543
#
#
#
# Elastic Compliance Matrix: (Units=1/GPa)
#
#
# Indices 1 2 3 4 5 6 
#
# 1 0.011153 -0.003852 -0.002029 0.000000 0.000000 0.000000
# 2 -0.003852 0.010044 -0.000600 0.000000 0.000000 0.000000
# 3 -0.002029 -0.000600 0.013608 0.000000 0.000000 0.000000
# 4 0.000000 0.000000 0.000000 0.044511 0.000000 0.000000
# 5 0.000000 0.000000 0.000000 0.000000 0.092012 0.000000
# 6 0.000000 0.000000 0.000000 0.000000 0.000000 0.079654
#
#
# Mechanical properties :
#
#
# Convention : Reuss Voigt Hill
#
# Bulk Modulus (GPa) = 45.78329 49.33170 47.55750
# Shear Modulus (GPa) = 18.43490 24.44520 21.44005
#
# Velocity S-wave (km/s) = 3.11734 3.58973 3.36184
# Velocity P-wave (km/s) = 6.09028 6.57164 6.33553
#
# Compressibility (1/GPa) = 0.02184203
#
# Stress axis : x y z
#
# Youngs Moduli (GPa) = 89.66499 99.56369 73.48568
#
# Poissons Ratio (x) = 0.38351 0.14911
# Poissons Ratio (y) = 0.34538 0.04411
# Poissons Ratio (z) = 0.18194 0.05976
#
# Static dielectric constant tensor:
#      x y z
#    x 1.665570 0.000000 0.000000 
#    y 0.000000 1.701870 0.000000 
#    z 0.000000 0.000000 1.658070 
# 
# From -- ./inp_files/13611.got.cif
#   From: 2010.05.17/outbox.cif.g08.bks.cpg/sg49_7_cif.got.tgz:13611.got - 2010.06.03 21:02:19.
