data_PCOD9393305
_publ_section_title
;
Structure prediction by ZEFSAII (Michael W. Deem and Ramdas Pophale) SiO2 
 PCOD9393305
Probable space group: P C C M
;
_chemical_formula_sum "Si O2"
_cell_formula_units_Z 48
_cell_length_a 19.493963
_cell_length_b 15.098178
_cell_length_c 8.777524
_cell_angle_alpha 90.000000
_cell_angle_beta 90.000000
_cell_angle_gamma 90.000000
_cell_volume 2583.430034
_symmetry_space_group_name_H-M "P C C M"
_symmetry_group_IT_number 49
_symmetry_cell_setting 'orthorhombic'
loop_
_space_group_symop_operation_xyz
x,y,z
-x,-y,z
x,-y,1/2-z
-x,y,1/2-z
-x,-y,-z
x,y,-z
-x,y,1/2+z
x,-y,1/2+z
loop_
_atom_site_type_symbol
_atom_site_label
_atom_site_fract_x
_atom_site_fract_y
_atom_site_fract_z
Si Si1 0.429501 0.133295 0.674567
Si Si2 0.279785 0.596360 0.316289
Si Si3 0.809904 0.760628 0.184755
Si Si4 0.289626 0.088083 0.820692
Si Si5 0.573215 0.652196 0.676015
Si Si6 0.923601 0.096451 0.684745
O O1 0.500000 0.105567 0.750000
O O2 0.423409 0.104275 0.500000
O O3 0.367509 0.097390 0.772466
O O4 0.427141 0.240526 0.677675
O O5 0.265101 0.500000 0.250000
O O6 0.281761 0.595790 0.500000
O O7 0.219014 0.664677 0.266921
O O8 0.356456 0.623195 0.258796
O O9 0.748956 0.825492 0.234976
O O10 0.877121 0.817988 0.229518
O O11 0.813061 0.756721 0.000000
O O12 0.259520 0.000000 0.750000
O O13 0.282413 0.083691 0.000000
O O14 0.500000 0.623929 0.750000
O O15 0.575381 0.622388 0.500000
O O16 0.923975 0.090605 0.500000
O O17 0.000000 0.109202 0.750000
O O18 0.900491 0.000000 0.750000
#
# Coordination Sequence:
#
# PCOD9393305 Si02
#       6
#     8   8   8   8   8   8
#     4  10  20  34  52  74 101 137 180 227 275 329
#     4  11  22  39  59  83 111 145 187 236 287 341
#     4   9  20  37  58  80 113 150 182 222 277 329
#     4  11  21  35  53  77 105 141 181 224 273 327
#     4  10  20  35  56  81 107 141 184 236 292 346
#     4  10  19  35  58  90 123 156 188 223 266 319
#
# _framework density 18.57995
#
# number of rings (size 3 to 8) (size 9 to 14) (size 15 to 20)
#    0.000    1.833    1.667    3.500    0.000    2.000 
#    0.000    9.167    0.000    0.500    0.000    3.500 
#    0.000    0.000    0.000    0.000    0.000    0.000 
#
# Total GULP energy -267703.212294 kJ/mol
# GULP energy per Si atom -5577.150256 kJ/mol
# Density = 1.853766 g / cm^3
# Si number density = 18.579950 Si / 1000 Ang^3
#
#
#
# Elastic Constant Matrix: (Units=GPa)
#
#
# Indices 1 2 3 4 5 6 
#
# 1 126.6527 62.1502 23.7063 0.0000 0.0000 0.0000
# 2 62.1502 122.4131 36.9200 0.0000 0.0000 0.0000
# 3 23.7063 36.9200 68.0899 0.0000 0.0000 0.0000
# 4 0.0000 0.0000 0.0000 38.9123 0.0000 0.0000
# 5 0.0000 0.0000 0.0000 0.0000 15.1229 0.0000
# 6 0.0000 0.0000 0.0000 0.0000 0.0000 26.9209
#
#
#
# Elastic Compliance Matrix: (Units=1/GPa)
#
#
# Indices 1 2 3 4 5 6 
#
# 1 0.010563 -0.005086 -0.000920 0.000000 0.000000 0.000000
# 2 -0.005086 0.012215 -0.004852 0.000000 0.000000 0.000000
# 3 -0.000920 -0.004852 0.017638 0.000000 0.000000 0.000000
# 4 0.000000 0.000000 0.000000 0.025699 0.000000 0.000000
# 5 0.000000 0.000000 0.000000 0.000000 0.066125 0.000000
# 6 0.000000 0.000000 0.000000 0.000000 0.000000 0.037146
#
#
# Mechanical properties :
#
#
# Convention : Reuss Voigt Hill
#
# Bulk Modulus (GPa) = 53.47758 62.52318 58.00038
# Shear Modulus (GPa) = 25.33758 29.14982 27.24370
#
# Velocity S-wave (km/s) = 3.69684 3.96521 3.83338
# Velocity P-wave (km/s) = 6.86055 7.39512 7.13284
#
# Compressibility (1/GPa) = 0.01869942
#
# Stress axis : x y z
#
# Youngs Moduli (GPa) = 94.66622 81.86948 56.69592
#
# Poissons Ratio (x) = 0.41636 0.05217
# Poissons Ratio (y) = 0.48143 0.27511
# Poissons Ratio (z) = 0.08712 0.39726
#
# Static dielectric constant tensor:
#      x y z
#    x 1.638760 0.000000 0.000000 
#    y 0.000000 1.700860 0.000000 
#    z 0.000000 0.000000 1.631210 
# 
# From -- ./inp_files/3719.got.cif
#   From: 2010.05.17/outbox.cif.g08.bks.cpg/sg49_2_cif.got.tgz:3719.got - 2010.06.03 21:02:19.
