data_PCOD9393973
_publ_section_title
;
Structure prediction by ZEFSAII (Michael W. Deem and Ramdas Pophale) SiO2 
 PCOD9393973
Probable space group: P C C M
;
_chemical_formula_sum "Si O2"
_cell_formula_units_Z 64
_cell_length_a 10.002995
_cell_length_b 20.520226
_cell_length_c 14.620983
_cell_angle_alpha 90.000000
_cell_angle_beta 90.000000
_cell_angle_gamma 90.000000
_cell_volume 3001.157333
_symmetry_space_group_name_H-M "P C C M"
_symmetry_group_IT_number 49
_symmetry_cell_setting 'orthorhombic'
loop_
_space_group_symop_operation_xyz
x,y,z
-x,-y,z
x,-y,1/2-z
-x,y,1/2-z
-x,-y,-z
x,y,-z
-x,y,1/2+z
x,-y,1/2+z
loop_
_atom_site_type_symbol
_atom_site_label
_atom_site_fract_x
_atom_site_fract_y
_atom_site_fract_z
Si Si1 0.377512 0.962150 0.897528
Si Si2 0.724834 0.706681 0.892257
Si Si3 0.359941 0.574005 0.858774
Si Si4 0.670143 0.565115 0.859822
Si Si5 0.130723 0.965299 0.651242
Si Si6 0.070169 0.818854 0.611991
Si Si7 0.238931 0.169179 0.612072
Si Si8 0.420189 0.285764 0.608744
O O1 0.305765 0.898579 0.856484
O O2 0.500000 0.000000 0.852219
O O3 0.261106 0.014789 0.902387
O O4 0.423148 0.942516 0.000000
O O5 0.753602 0.628949 0.885331
O O6 0.835906 0.758041 0.858300
O O7 0.572489 0.711748 0.853217
O O8 0.715569 0.720782 0.000000
O O9 0.515203 0.570894 0.890944
O O10 0.287910 0.507555 0.890901
O O11 0.345828 0.568151 0.749667
O O12 0.331491 0.648770 0.880299
O O13 0.117447 0.887995 0.651967
O O14 0.142468 0.000000 0.750000
O O15 0.000000 0.000000 0.609235
O O16 0.075353 0.822885 0.500000
O O17 0.913633 0.815872 0.638425
O O18 0.236770 0.167057 0.500000
O O19 0.336360 0.225749 0.644918
O O20 0.434801 0.276953 0.500000
#
# Coordination Sequence:
#
# PCOD9393973 Si02
#       8
#     8   8   8   8   8   8   8   8
#     4  10  21  36  59  83 102 135 178 220 267 316
#     4   9  18  30  49  78 105 129 168 221 264 306
#     4   8  14  26  46  69 100 140 171 207 254 312
#     4   8  14  27  45  70 102 134 174 210 252 307
#     4  11  23  39  56  78 109 139 176 222 265 322
#     4  10  20  36  58  77 100 140 179 214 265 323
#     4   9  18  33  51  75 104 133 171 213 256 316
#     4   9  17  29  47  75 105 130 165 214 263 306
#
# _framework density 21.325106999999999
#
# number of rings (size 3 to 8) (size 9 to 14) (size 15 to 20)
#    0.000    2.750    1.250    1.125    1.750    1.250 
#    2.250    2.500    0.000    0.750    0.000    5.250 
#    0.000    0.000    0.000    0.000    0.000    0.000 
#
# Total GULP energy -356387.579424 kJ/mol
# GULP energy per Si atom -5568.555928 kJ/mol
# Density = 2.127657 g / cm^3
# Si number density = 21.325107 Si / 1000 Ang^3
#
#
#
# Elastic Constant Matrix: (Units=GPa)
#
#
# Indices 1 2 3 4 5 6 
#
# 1 114.1575 97.3102 14.4361 0.0000 0.0000 0.0000
# 2 97.3102 204.6806 3.5749 0.0000 0.0000 0.0000
# 3 14.4361 3.5749 55.8940 0.0000 0.0000 0.0000
# 4 0.0000 0.0000 0.0000 25.3571 0.0000 0.0000
# 5 0.0000 0.0000 0.0000 0.0000 8.2913 0.0000
# 6 0.0000 0.0000 0.0000 0.0000 0.0000 21.5866
#
#
#
# Elastic Compliance Matrix: (Units=1/GPa)
#
#
# Indices 1 2 3 4 5 6 
#
# 1 0.015387 -0.007254 -0.003510 0.000000 0.000000 0.000000
# 2 -0.007254 0.008311 0.001342 0.000000 0.000000 0.000000
# 3 -0.003510 0.001342 0.018712 0.000000 0.000000 0.000000
# 4 0.000000 0.000000 0.000000 0.039437 0.000000 0.000000
# 5 0.000000 0.000000 0.000000 0.000000 0.120609 0.000000
# 6 0.000000 0.000000 0.000000 0.000000 0.000000 0.046325
#
#
# Mechanical properties :
#
#
# Convention : Reuss Voigt Hill
#
# Bulk Modulus (GPa) = 42.43512 67.26381 54.84946
# Shear Modulus (GPa) = 18.15009 28.34107 23.24558
#
# Velocity S-wave (km/s) = 2.92055 3.64950 3.30518
# Velocity P-wave (km/s) = 5.59599 7.02631 6.35154
#
# Compressibility (1/GPa) = 0.02356539
#
# Stress axis : x y z
#
# Youngs Moduli (GPa) = 64.98835 120.32165 53.44228
#
# Poissons Ratio (x) = 0.87284 0.18759
# Poissons Ratio (y) = 0.47144 -0.07172
# Poissons Ratio (z) = 0.22812 -0.16148
#
# Static dielectric constant tensor:
#      x y z
#    x 1.845520 0.000000 0.000000 
#    y 0.000000 1.815650 0.000000 
#    z 0.000000 0.000000 1.855720 
# 
# From -- ./inp_files/20015.got.cif
#   From: 2010.05.17/outbox.cif.g08.bks.cpg/sg49_11_cif.got.tgz:20015.got - 2010.06.03 21:02:19.
