data_PCOD9393944
_publ_section_title
;
Structure prediction by ZEFSAII (Michael W. Deem and Ramdas Pophale) SiO2 
 PCOD9393944
Probable space group: P C C M
;
_chemical_formula_sum "Si O2"
_cell_formula_units_Z 64
_cell_length_a 21.830725
_cell_length_b 8.307549
_cell_length_c 15.361543
_cell_angle_alpha 90.000000
_cell_angle_beta 90.000000
_cell_angle_gamma 90.000000
_cell_volume 2785.966637
_symmetry_space_group_name_H-M "P C C M"
_symmetry_group_IT_number 49
_symmetry_cell_setting 'orthorhombic'
loop_
_space_group_symop_operation_xyz
x,y,z
-x,-y,z
x,-y,1/2-z
-x,y,1/2-z
-x,-y,-z
x,y,-z
-x,y,1/2+z
x,-y,1/2+z
loop_
_atom_site_type_symbol
_atom_site_label
_atom_site_fract_x
_atom_site_fract_y
_atom_site_fract_z
Si Si1 0.496658 0.804270 0.146110
Si Si2 0.768268 0.837063 0.395332
Si Si3 0.978986 0.817536 0.104024
Si Si4 0.240056 0.787642 0.399668
Si Si5 0.627756 0.187329 0.639618
Si Si6 0.128389 0.621790 0.329641
Si Si7 0.364662 0.188619 0.650469
Si Si8 0.893993 0.690910 0.403247
O O1 0.500000 0.774404 0.250000
O O2 0.561947 0.746554 0.109772
O O3 0.429908 0.742648 0.116555
O O4 0.500000 0.000000 0.135970
O O5 0.770314 0.827136 0.500000
O O6 0.703948 0.753158 0.370067
O O7 0.832796 0.767056 0.361573
O O8 0.764019 0.025307 0.371139
O O9 0.919777 0.764650 0.157920
O O10 0.038527 0.717459 0.133756
O O11 0.967068 0.794078 0.000000
O O12 0.000000 0.000000 0.116698
O O13 0.218912 0.778758 0.500000
O O14 0.310562 0.734520 0.395004
O O15 0.196575 0.686405 0.338156
O O16 0.630275 0.191423 0.744791
O O17 0.632768 0.997003 0.617469
O O18 0.118549 0.500000 0.250000
O O19 0.117155 0.497711 0.407902
O O20 0.898333 0.765048 0.500000
#
# Coordination Sequence:
#
# PCOD9393944 Si02
#       8
#     8   8   8   8   8   8   8   8
#     4   7  10  19  36  65 102 143 184 229 291 357
#     4   9  18  32  53  82 114 152 197 240 291 353
#     4  10  21  42  71  94 114 152 200 243 292 355
#     4  10  20  36  55  78 112 154 199 248 292 349
#     4   8  14  24  44  71 101 146 194 237 291 351
#     4  12  26  40  58  87 121 154 192 244 299 358
#     4   8  13  23  43  70 110 147 183 236 296 355
#     4  10  21  38  60  84 114 152 193 236 284 352
#
# _framework density 22.972276999999998
#
# number of rings (size 3 to 8) (size 9 to 14) (size 15 to 20)
#    0.000    2.750    0.000    3.750    1.750    4.000 
#    0.000    3.125    0.000    3.750    0.000    0.875 
#    0.000    3.000    0.000    0.000    0.000    0.000 
#
# Total GULP energy -356756.056046 kJ/mol
# GULP energy per Si atom -5574.313376 kJ/mol
# Density = 2.291999 g / cm^3
# Si number density = 22.972277 Si / 1000 Ang^3
#
#
#
# Elastic Constant Matrix: (Units=GPa)
#
#
# Indices 1 2 3 4 5 6 
#
# 1 159.7316 21.0914 15.5332 0.0000 0.0000 0.0000
# 2 21.0914 34.0384 8.3217 0.0000 0.0000 0.0000
# 3 15.5332 8.3217 60.2359 0.0000 0.0000 0.0000
# 4 0.0000 0.0000 0.0000 14.5086 0.0000 0.0000
# 5 0.0000 0.0000 0.0000 0.0000 30.9623 0.0000
# 6 0.0000 0.0000 0.0000 0.0000 0.0000 -3.5189
#
#
#
# Elastic Compliance Matrix: (Units=1/GPa)
#
#
# Indices 1 2 3 4 5 6 
#
# 1 0.006905 -0.003978 -0.001231 0.000000 0.000000 0.000000
# 2 -0.003978 0.032697 -0.003491 0.000000 0.000000 0.000000
# 3 -0.001231 -0.003491 0.017401 0.000000 0.000000 0.000000
# 4 0.000000 0.000000 0.000000 0.068925 0.000000 0.000000
# 5 0.000000 0.000000 0.000000 0.000000 0.032297 0.000000
# 6 0.000000 0.000000 0.000000 0.000000 0.000000 -0.284181
#
#
# Mechanical properties :
#
#
# Convention : Reuss Voigt Hill
#
# Bulk Modulus (GPa) = 25.25071 38.21096 31.73083
# Shear Modulus (GPa) = -52.43619 22.32771 -15.05424
#
# Velocity S-wave (km/s) = -4.78282 3.12098 -2.56270
# Velocity P-wave (km/s) = 4.41417 5.44582 2.25523
#
# Compressibility (1/GPa) = 0.03960285
#
# Stress axis : x y z
#
# Youngs Moduli (GPa) = 144.81251 30.58380 57.46725
#
# Poissons Ratio (x) = 0.12166 0.07075
# Poissons Ratio (y) = 0.57605 0.20064
# Poissons Ratio (z) = 0.17829 0.10678
#
# Static dielectric constant tensor:
#      x y z
#    x 1.931470 0.000000 0.000000 
#    y 0.000000 1.841800 0.000000 
#    z 0.000000 0.000000 1.965790 
# 
# From -- ./inp_files/18328.got.cif
#   From: 2010.05.17/outbox.cif.g08.bks.cpg/sg49_10_cif.got.tgz:18328.got - 2010.06.03 21:02:19.
