data_PCOD9393406
_publ_section_title
;
Structure prediction by ZEFSAII (Michael W. Deem and Ramdas Pophale) SiO2 
 PCOD9393406
Probable space group: P C C M
;
_chemical_formula_sum "Si O2"
_cell_formula_units_Z 48
_cell_length_a 15.148223
_cell_length_b 8.579020
_cell_length_c 18.060188
_cell_angle_alpha 90.000000
_cell_angle_beta 90.000000
_cell_angle_gamma 90.000000
_cell_volume 2347.046192
_symmetry_space_group_name_H-M "P C C M"
_symmetry_group_IT_number 49
_symmetry_cell_setting 'orthorhombic'
loop_
_space_group_symop_operation_xyz
x,y,z
-x,-y,z
x,-y,1/2-z
-x,y,1/2-z
-x,-y,-z
x,y,-z
-x,y,1/2+z
x,-y,1/2+z
loop_
_atom_site_type_symbol
_atom_site_label
_atom_site_fract_x
_atom_site_fract_y
_atom_site_fract_z
Si Si1 0.685618 0.867005 0.851396
Si Si2 0.021532 0.179708 0.336479
Si Si3 0.351971 0.213977 0.682729
Si Si4 0.818886 0.405695 0.827330
Si Si5 0.489881 0.811401 0.418216
Si Si6 0.852971 0.298603 0.586069
O O1 0.649751 0.825807 0.769652
O O2 0.613941 0.787687 0.904926
O O3 0.783377 0.804918 0.866836
O O4 0.681890 0.054361 0.856634
O O5 0.118187 0.256185 0.340454
O O6 0.000000 0.196257 0.250000
O O7 0.952016 0.273175 0.385591
O O8 0.000000 0.000000 0.355600
O O9 0.281234 0.349190 0.674291
O O10 0.446026 0.250639 0.645928
O O11 0.839625 0.500000 0.750000
O O12 0.831102 0.524689 0.894020
O O13 0.516793 0.757666 0.500000
O O14 0.500000 0.000000 0.415304
O O15 0.843893 0.261571 0.500000
#
# Coordination Sequence:
#
# PCOD9393406 Si02
#       6
#     8   8   8   8   8   8
#     4  10  19  38  63  94 124 163 214 269 312 373
#     4  11  23  42  69  95 121 161 211 256 304 371
#     4  10  20  36  65  93 121 164 221 262 311 372
#     4  12  23  41  64  91 126 169 205 257 314 377
#     4   9  18  33  57  91 129 166 206 264 323 364
#     4  12  26  41  63  94 129 167 204 256 324 385
#
# _framework density 20.451239000000001
#
# number of rings (size 3 to 8) (size 9 to 14) (size 15 to 20)
#    0.000    1.333    3.333    2.500    0.000    7.667 
#    0.000    2.500    0.000    2.000    0.000    0.000 
#    0.000    0.000    0.000    0.000    0.000    0.000 
#
# Total GULP energy -267874.423061 kJ/mol
# GULP energy per Si atom -5580.717147 kJ/mol
# Density = 2.040469 g / cm^3
# Si number density = 20.451239 Si / 1000 Ang^3
#
#
#
# Elastic Constant Matrix: (Units=GPa)
#
#
# Indices 1 2 3 4 5 6 
#
# 1 67.8813 -2.1707 18.4723 0.0000 0.0000 0.0000
# 2 -2.1707 41.2198 7.9986 0.0000 0.0000 0.0000
# 3 18.4723 7.9986 71.9926 0.0000 0.0000 0.0000
# 4 0.0000 0.0000 0.0000 12.3016 0.0000 0.0000
# 5 0.0000 0.0000 0.0000 0.0000 4.2134 0.0000
# 6 0.0000 0.0000 0.0000 0.0000 0.0000 44.3589
#
#
#
# Elastic Compliance Matrix: (Units=1/GPa)
#
#
# Indices 1 2 3 4 5 6 
#
# 1 0.015949 0.001670 -0.004278 0.000000 0.000000 0.000000
# 2 0.001670 0.024970 -0.003203 0.000000 0.000000 0.000000
# 3 -0.004278 -0.003203 0.015344 0.000000 0.000000 0.000000
# 4 0.000000 0.000000 0.000000 0.081290 0.000000 0.000000
# 5 0.000000 0.000000 0.000000 0.000000 0.237339 0.000000
# 6 0.000000 0.000000 0.000000 0.000000 0.000000 0.022543
#
#
# Mechanical properties :
#
#
# Convention : Reuss Voigt Hill
#
# Bulk Modulus (GPa) = 22.40075 25.52158 23.96117
# Shear Modulus (GPa) = 11.79421 22.62768 17.21094
#
# Velocity S-wave (km/s) = 2.40406 3.32990 2.90411
# Velocity P-wave (km/s) = 4.32239 5.22404 4.79446
#
# Compressibility (1/GPa) = 0.04464137
#
# Stress axis : x y z
#
# Youngs Moduli (GPa) = 62.69940 40.04872 65.17297
#
# Poissons Ratio (x) = -0.06688 0.27880
# Poissons Ratio (y) = -0.10471 0.20873
# Poissons Ratio (z) = 0.26822 0.12826
#
# Static dielectric constant tensor:
#      x y z
#    x 1.714850 0.000000 0.000000 
#    y 0.000000 1.783050 0.000000 
#    z 0.000000 0.000000 1.746600 
# 
# From -- ./inp_files/16259.got.cif
#   From: 2010.05.17/outbox.cif.g08.bks.cpg/sg49_9_cif.got.tgz:16259.got - 2010.06.03 21:02:19.
