data_PCOD9393458
_publ_section_title
;
Structure prediction by ZEFSAII (Michael W. Deem and Ramdas Pophale) SiO2 
 PCOD9393458
Probable space group: P C C M
;
_chemical_formula_sum "Si O2"
_cell_formula_units_Z 64
_cell_length_a 27.666418
_cell_length_b 18.734229
_cell_length_c 8.876297
_cell_angle_alpha 90.000000
_cell_angle_beta 90.000000
_cell_angle_gamma 90.000000
_cell_volume 4600.664714
_symmetry_space_group_name_H-M "P C C M"
_symmetry_group_IT_number 49
_symmetry_cell_setting 'orthorhombic'
loop_
_space_group_symop_operation_xyz
x,y,z
-x,-y,z
x,-y,1/2-z
-x,y,1/2-z
-x,-y,-z
x,y,-z
-x,y,1/2+z
x,-y,1/2+z
loop_
_atom_site_type_symbol
_atom_site_label
_atom_site_fract_x
_atom_site_fract_y
_atom_site_fract_z
Si Si1 0.252629 0.843082 0.316915
Si Si2 0.646888 0.577397 0.679019
Si Si3 0.600069 0.794825 0.826216
Si Si4 0.154751 0.078884 0.819099
Si Si5 0.550425 0.336265 0.180466
Si Si6 0.699487 0.297256 0.327521
Si Si7 0.345714 0.078209 0.680580
Si Si8 0.048202 0.920133 0.680606
O O1 0.258546 0.847480 0.500000
O O2 0.200273 0.873081 0.274970
O O3 0.260970 0.760234 0.274829
O O4 0.294695 0.890108 0.241118
O O5 0.652707 0.500000 0.750000
O O6 0.647263 0.571889 0.500000
O O7 0.595140 0.612337 0.724020
O O8 0.687718 0.633245 0.731659
O O9 0.562739 0.742365 0.744548
O O10 0.650257 0.749865 0.826991
O O11 0.613227 0.867348 0.740100
O O12 0.586556 0.807975 0.000000
O O13 0.101474 0.109564 0.781337
O O14 0.159741 0.000000 0.750000
O O15 0.155989 0.071314 0.000000
O O16 0.500000 0.361072 0.250000
O O17 0.547764 0.333774 0.000000
O O18 0.709463 0.318068 0.500000
O O19 0.345281 0.075908 0.500000
O O20 0.352353 0.000000 0.750000
O O21 0.043271 0.924030 0.500000
O O22 0.000000 0.885425 0.750000
O O23 0.049761 0.000000 0.750000
#
# Coordination Sequence:
#
# PCOD9393458 Si02
#       8
#     8   8   8   8   8   8   8   8
#     4   9  17  29  42  58  80 106 134 166 205 247
#     4  10  20  32  47  66  88 110 135 162 189 222
#     4   9  17  31  48  64  82 106 134 164 196 234
#     4   9  17  26  36  52  75 102 135 174 215 251
#     4  10  20  33  49  69  89 111 135 161 192 229
#     4   8  15  28  45  61  80 105 131 158 192 233
#     4  11  20  29  42  61  83 106 133 166 203 243
#     4   9  15  23  34  47  65  93 130 172 212 251
#
# _framework density 13.911033
#
# number of rings (size 3 to 8) (size 9 to 14) (size 15 to 20)
#    0.000    2.625    0.000    4.125    0.000    6.750 
#    0.000    1.250    0.000    0.375    0.000    2.625 
#    0.000    0.000    0.000    0.000    0.000    0.625 
#
# Total GULP energy -356460.756038 kJ/mol
# GULP energy per Si atom -5569.699313 kJ/mol
# Density = 1.387937 g / cm^3
# Si number density = 13.911033 Si / 1000 Ang^3
#
#
#
# Elastic Constant Matrix: (Units=GPa)
#
#
# Indices 1 2 3 4 5 6 
#
# 1 56.2626 34.2132 16.7846 0.0000 0.0000 0.0000
# 2 34.2132 96.1852 37.7381 0.0000 0.0000 0.0000
# 3 16.7846 37.7381 52.2608 0.0000 0.0000 0.0000
# 4 0.0000 0.0000 0.0000 18.8446 0.0000 0.0000
# 5 0.0000 0.0000 0.0000 0.0000 2.4713 0.0000
# 6 0.0000 0.0000 0.0000 0.0000 0.0000 9.6831
#
#
#
# Elastic Compliance Matrix: (Units=1/GPa)
#
#
# Indices 1 2 3 4 5 6 
#
# 1 0.022836 -0.007319 -0.002049 0.000000 0.000000 0.000000
# 2 -0.007319 0.016852 -0.009819 0.000000 0.000000 0.000000
# 3 -0.002049 -0.009819 0.026883 0.000000 0.000000 0.000000
# 4 0.000000 0.000000 0.000000 0.053066 0.000000 0.000000
# 5 0.000000 0.000000 0.000000 0.000000 0.404647 0.000000
# 6 0.000000 0.000000 0.000000 0.000000 0.000000 0.103273
#
#
# Mechanical properties :
#
#
# Convention : Reuss Voigt Hill
#
# Bulk Modulus (GPa) = 35.46364 42.46449 38.96407
# Shear Modulus (GPa) = 7.40380 13.93130 10.66755
#
# Velocity S-wave (km/s) = 2.30950 3.16801 2.77219
# Velocity P-wave (km/s) = 5.71492 6.63127 6.19007
#
# Compressibility (1/GPa) = 0.02819790
#
# Stress axis : x y z
#
# Youngs Moduli (GPa) = 43.79127 59.33938 37.19805
#
# Poissons Ratio (x) = 0.43428 0.07623
# Poissons Ratio (y) = 0.32049 0.36524
# Poissons Ratio (z) = 0.08974 0.58263
#
# Static dielectric constant tensor:
#      x y z
#    x 1.480050 0.000000 0.000000 
#    y 0.000000 1.441210 0.000000 
#    z 0.000000 0.000000 1.467360 
# 
# From -- ./inp_files/6796.got.cif
#   From: 2010.05.17/outbox.cif.g08.bks.cpg/sg49_4_cif.got.tgz:6796.got - 2010.06.03 21:02:19.
