data_PCOD9393089
_publ_section_title
;
Structure prediction by ZEFSAII (Michael W. Deem and Ramdas Pophale) SiO2 
 PCOD9393089
Probable space group: P C C M
;
_chemical_formula_sum "Si O2"
_cell_formula_units_Z 56
_cell_length_a 15.680251
_cell_length_b 20.378691
_cell_length_c 8.845960
_cell_angle_alpha 90.000000
_cell_angle_beta 90.000000
_cell_angle_gamma 90.000000
_cell_volume 2826.664507
_symmetry_space_group_name_H-M "P C C M"
_symmetry_group_IT_number 49
_symmetry_cell_setting 'orthorhombic'
loop_
_space_group_symop_operation_xyz
x,y,z
-x,-y,z
x,-y,1/2-z
-x,y,1/2-z
-x,-y,-z
x,y,-z
-x,y,1/2+z
x,-y,1/2+z
loop_
_atom_site_type_symbol
_atom_site_label
_atom_site_fract_x
_atom_site_fract_y
_atom_site_fract_z
Si Si1 0.411962 0.326311 0.819270
Si Si2 0.269334 0.933463 0.820326
Si Si3 0.912173 0.616527 0.679199
Si Si4 0.735109 0.568702 0.819239
Si Si5 0.863707 0.749831 0.175853
Si Si6 0.316680 0.788980 0.818623
Si Si7 0.912063 0.900154 0.175127
O O1 0.500000 0.351856 0.750000
O O2 0.333194 0.374610 0.782931
O O3 0.391445 0.255917 0.745351
O O4 0.417910 0.320742 0.000000
O O5 0.319435 0.866447 0.782331
O O6 0.172930 0.924091 0.758735
O O7 0.305087 0.000000 0.750000
O O8 0.265911 0.939292 0.000000
O O9 0.912690 0.608541 0.500000
O O10 0.827391 0.585081 0.749788
O O11 0.905479 0.693437 0.724181
O O12 0.000000 0.590519 0.750000
O O13 0.705597 0.500000 0.750000
O O14 0.742370 0.564264 0.000000
O O15 0.769023 0.762310 0.238944
O O16 0.908434 0.820582 0.182021
O O17 0.860693 0.728359 0.000000
O O18 0.309646 0.782022 0.000000
O O19 0.000000 0.922081 0.250000
O O20 0.908164 0.919861 0.000000
#
# Coordination Sequence:
#
# PCOD9393089 Si02
#       7
#     8   8   8   8   8   8   8
#     4  11  24  42  69 100 132 164 205 254 309 374
#     4  10  21  36  55  81 113 154 201 248 302 369
#     4  12  24  38  60  88 123 167 214 265 313 368
#     4  11  25  45  67  94 129 169 211 258 312 371
#     4  10  19  33  54  82 116 155 202 254 311 367
#     4  10  20  36  61  90 122 159 202 250 307 366
#     4  10  20  32  48  72 107 149 197 254 308 364
#
# _framework density 19.811337000000002
#
# number of rings (size 3 to 8) (size 9 to 14) (size 15 to 20)
#    0.000    1.429    1.429    4.286    0.000    7.143 
#    0.000    4.286    0.000    0.429    0.000    3.000 
#    0.000    0.000    0.000    0.000    0.000    0.000 
#
# Total GULP energy -313122.225011 kJ/mol
# GULP energy per Si atom -5591.468304 kJ/mol
# Density = 1.976625 g / cm^3
# Si number density = 19.811337 Si / 1000 Ang^3
#
#
#
# Elastic Constant Matrix: (Units=GPa)
#
#
# Indices 1 2 3 4 5 6 
#
# 1 91.6415 33.7847 49.3127 0.0000 0.0000 0.0000
# 2 33.7847 107.3492 49.7018 0.0000 0.0000 0.0000
# 3 49.3127 49.7018 105.2803 0.0000 0.0000 0.0000
# 4 0.0000 0.0000 0.0000 25.3964 0.0000 0.0000
# 5 0.0000 0.0000 0.0000 0.0000 29.1493 0.0000
# 6 0.0000 0.0000 0.0000 0.0000 0.0000 -5.4308
#
#
#
# Elastic Compliance Matrix: (Units=1/GPa)
#
#
# Indices 1 2 3 4 5 6 
#
# 1 0.014875 -0.001863 -0.006088 0.000000 0.000000 0.000000
# 2 -0.001863 0.012154 -0.004865 0.000000 0.000000 0.000000
# 3 -0.006088 -0.004865 0.014647 0.000000 0.000000 0.000000
# 4 0.000000 0.000000 0.000000 0.039376 0.000000 0.000000
# 5 0.000000 0.000000 0.000000 0.000000 0.034306 0.000000
# 6 0.000000 0.000000 0.000000 0.000000 0.000000 -0.184135
#
#
# Mechanical properties :
#
#
# Convention : Reuss Voigt Hill
#
# Bulk Modulus (GPa) = 62.32909 63.31882 62.82395
# Shear Modulus (GPa) = -132.28399 21.25444 -55.51478
#
# Velocity S-wave (km/s) = -8.18027 3.27898 -5.29930
# Velocity P-wave (km/s) = 7.59558 6.80925 2.37980
#
# Compressibility (1/GPa) = 0.01604387
#
# Stress axis : x y z
#
# Youngs Moduli (GPa) = 67.22829 82.27558 68.27381
#
# Poissons Ratio (x) = 0.15325 0.41564
# Poissons Ratio (y) = 0.12523 0.33218
# Poissons Ratio (z) = 0.40928 0.40031
#
# Static dielectric constant tensor:
#      x y z
#    x 1.690640 0.000000 0.000000 
#    y 0.000000 1.738050 0.000000 
#    z 0.000000 0.000000 1.658250 
# 
# From -- ./inp_files/4070.got.cif
#   From: 2010.05.17/outbox.cif.g08.bks.cpg/sg49_3_cif.got.tgz:4070.got - 2010.06.03 21:02:19.
