data_PCOD9393873
_publ_section_title
;
Structure prediction by ZEFSAII (Michael W. Deem and Ramdas Pophale) SiO2 
 PCOD9393873
Probable space group: P C C M
;
_chemical_formula_sum "Si O2"
_cell_formula_units_Z 64
_cell_length_a 13.833381
_cell_length_b 13.858357
_cell_length_c 15.733884
_cell_angle_alpha 90.000000
_cell_angle_beta 90.000000
_cell_angle_gamma 90.000000
_cell_volume 3016.310370
_symmetry_space_group_name_H-M "P C C M"
_symmetry_group_IT_number 49
_symmetry_cell_setting 'orthorhombic'
loop_
_space_group_symop_operation_xyz
x,y,z
-x,-y,z
x,-y,1/2-z
-x,y,1/2-z
-x,-y,-z
x,y,-z
-x,y,1/2+z
x,-y,1/2+z
loop_
_atom_site_type_symbol
_atom_site_label
_atom_site_fract_x
_atom_site_fract_y
_atom_site_fract_z
Si Si1 0.895315 0.531623 0.652280
Si Si2 0.118520 0.807260 0.600660
Si Si3 0.285605 0.912302 0.317276
Si Si4 0.615700 0.709472 0.763982
Si Si5 0.410226 0.046427 0.595913
Si Si6 0.745682 0.380581 0.403467
Si Si7 0.091215 0.252149 0.399160
Si Si8 0.696231 0.238762 0.099808
O O1 0.892181 0.500000 0.750000
O O2 0.805777 0.479043 0.607803
O O3 0.894206 0.646024 0.645845
O O4 0.000000 0.500000 0.615985
O O5 0.122362 0.833609 0.500000
O O6 0.178597 0.878348 0.660085
O O7 0.173317 0.704010 0.608459
O O8 0.007287 0.797944 0.627835
O O9 0.347115 0.816215 0.294884
O O10 0.291229 0.000000 0.250000
O O11 0.330113 0.964164 0.399701
O O12 0.500000 0.705783 0.750000
O O13 0.661359 0.638707 0.835199
O O14 0.667487 0.687065 0.673281
O O15 0.439983 0.067461 0.500000
O O16 0.372497 0.149498 0.622262
O O17 0.500000 0.000000 0.644687
O O18 0.708914 0.372534 0.500000
O O19 0.079573 0.271516 0.500000
O O20 0.194143 0.200917 0.388285
O O21 0.686548 0.266869 0.000000
#
# Coordination Sequence:
#
# PCOD9393873 Si02
#       8
#     8   8   8   8   8   8   8   8
#     4  11  21  34  59  98 132 165 205 253 306 372
#     4   9  19  36  57  84 120 166 209 256 311 371
#     4  11  21  34  56  83 117 159 205 260 315 372
#     4  11  23  39  62  89 124 166 213 266 321 373
#     4  10  20  35  57  81 108 148 203 266 318 363
#     4  10  21  38  61  93 133 171 213 262 314 375
#     4  10  20  37  63  88 122 165 203 249 307 372
#     4  10  21  38  59  88 119 156 206 259 315 375
#
# _framework density 21.217974999999999
#
# number of rings (size 3 to 8) (size 9 to 14) (size 15 to 20)
#    0.000    1.750    2.500    2.250    0.000    1.500 
#    0.000    0.625    2.750    6.375    0.000    5.250 
#    0.000    0.000    0.000    0.000    0.000    0.000 
#
# Total GULP energy -356954.564716 kJ/mol
# GULP energy per Si atom -5577.415074 kJ/mol
# Density = 2.116968 g / cm^3
# Si number density = 21.217975 Si / 1000 Ang^3
#
#
#
# Elastic Constant Matrix: (Units=GPa)
#
#
# Indices 1 2 3 4 5 6 
#
# 1 150.2067 21.3381 56.4306 0.0000 0.0000 0.0000
# 2 21.3381 36.9051 7.3822 0.0000 0.0000 0.0000
# 3 56.4306 7.3822 80.8363 0.0000 0.0000 0.0000
# 4 0.0000 0.0000 0.0000 14.6467 0.0000 0.0000
# 5 0.0000 0.0000 0.0000 0.0000 19.5460 0.0000
# 6 0.0000 0.0000 0.0000 0.0000 0.0000 28.0313
#
#
#
# Elastic Compliance Matrix: (Units=1/GPa)
#
#
# Indices 1 2 3 4 5 6 
#
# 1 0.009654 -0.004313 -0.006346 0.000000 0.000000 0.000000
# 2 -0.004313 0.029527 0.000314 0.000000 0.000000 0.000000
# 3 -0.006346 0.000314 0.016772 0.000000 0.000000 0.000000
# 4 0.000000 0.000000 0.000000 0.068275 0.000000 0.000000
# 5 0.000000 0.000000 0.000000 0.000000 0.051161 0.000000
# 6 0.000000 0.000000 0.000000 0.000000 0.000000 0.035674
#
#
# Mechanical properties :
#
#
# Convention : Reuss Voigt Hill
#
# Bulk Modulus (GPa) = 28.35682 48.69443 38.52562
# Shear Modulus (GPa) = 20.53335 24.63129 22.58232
#
# Velocity S-wave (km/s) = 3.11422 3.41085 3.26590
# Velocity P-wave (km/s) = 5.13076 6.20575 5.69368
#
# Compressibility (1/GPa) = 0.03526489
#
# Stress axis : x y z
#
# Youngs Moduli (GPa) = 103.58338 33.86707 59.62417
#
# Poissons Ratio (x) = 0.14605 0.37835
# Poissons Ratio (y) = 0.44671 -0.01872
# Poissons Ratio (z) = 0.65729 -0.01064
#
# Static dielectric constant tensor:
#      x y z
#    x 1.824670 0.000000 0.000000 
#    y 0.000000 1.798280 0.000000 
#    z 0.000000 0.000000 1.817360 
# 
# From -- ./inp_files/17290.got.cif
#   From: 2010.05.17/outbox.cif.g08.bks.cpg/sg49_9_cif.got.tgz:17290.got - 2010.06.03 21:02:19.
