data_PCOD9393070
_publ_section_title
;
Structure prediction by ZEFSAII (Michael W. Deem and Ramdas Pophale) SiO2 
 PCOD9393070
Probable space group: P C C M
;
_chemical_formula_sum "Si O2"
_cell_formula_units_Z 58
_cell_length_a 26.757672
_cell_length_b 13.464022
_cell_length_c 9.354926
_cell_angle_alpha 90.000000
_cell_angle_beta 90.000000
_cell_angle_gamma 90.000000
_cell_volume 3370.260690
_symmetry_space_group_name_H-M "P C C M"
_symmetry_group_IT_number 49
_symmetry_cell_setting 'orthorhombic'
loop_
_space_group_symop_operation_xyz
x,y,z
-x,-y,z
x,-y,1/2-z
-x,y,1/2-z
-x,-y,-z
x,y,-z
-x,y,1/2+z
x,-y,1/2+z
loop_
_atom_site_type_symbol
_atom_site_label
_atom_site_fract_x
_atom_site_fract_y
_atom_site_fract_z
Si Si1 0.159814 0.403110 0.658528
Si Si2 0.000000 0.500000 0.250000
Si Si3 0.546591 0.393487 0.330169
Si Si4 0.076382 0.100772 0.167287
Si Si5 0.928616 0.679377 0.836840
Si Si6 0.195901 0.898106 0.670242
Si Si7 0.660215 0.392757 0.329206
Si Si8 0.256928 0.731006 0.835515
O O1 0.165790 0.500000 0.750000
O O2 0.143275 0.429738 0.500000
O O3 0.116664 0.339353 0.730351
O O4 0.212354 0.348653 0.654413
O O5 0.035658 0.418182 0.172396
O O6 0.549744 0.500000 0.250000
O O7 0.500000 0.341473 0.250000
O O8 0.536493 0.403817 0.500000
O O9 0.602980 0.354047 0.315506
O O10 0.052124 0.208940 0.198053
O O11 0.136139 0.117639 0.192186
O O12 0.061674 0.000000 0.250000
O O13 0.068883 0.080095 0.000000
O O14 0.910458 0.685813 0.000000
O O15 0.204034 0.901894 0.500000
O O16 0.231033 0.817690 0.744835
O O17 0.207424 0.000000 0.750000
O O18 0.664086 0.500000 0.250000
O O19 0.670652 0.403936 0.500000
O O20 0.697725 0.318370 0.250473
O O21 0.270054 0.758803 0.000000
#
# Coordination Sequence:
#
# PCOD9393070 Si02
#       8
#     8   2   8   8   8   8   8   8
#     4  11  23  36  54  78 107 140 178 216 255 312
#     4  12  26  40  66  90 114 148 182 226 272 320
#     4   9  16  26  42  63  89 127 176 224 271 316
#     4   9  19  36  60  86 111 140 174 218 265 318
#     4  11  23  41  61  85 113 141 177 219 268 317
#     4  10  19  33  54  79 107 137 170 215 260 316
#     4  10  20  32  46  68 101 141 182 225 269 318
#     4  11  22  34  50  76 106 141 178 216 264 319
#
# _framework density 17.209351000000002
#
# number of rings (size 3 to 8) (size 9 to 14) (size 15 to 20)
#    0.000    1.793    2.069    3.103    0.000    6.069 
#    0.000    0.345    0.000    1.655    0.000    0.000 
#    0.000    0.552    0.000    5.793    0.000    3.172 
#
# Total GULP energy -323128.215155 kJ/mol
# GULP energy per Si atom -5571.176123 kJ/mol
# Density = 1.717018 g / cm^3
# Si number density = 17.209351 Si / 1000 Ang^3
#
#
#
# Elastic Constant Matrix: (Units=GPa)
#
#
# Indices 1 2 3 4 5 6 
#
# 1 92.1598 32.6748 65.5971 0.0000 0.0000 0.0000
# 2 32.6748 122.5649 61.5666 0.0000 0.0000 0.0000
# 3 65.5971 61.5666 140.8607 0.0000 0.0000 0.0000
# 4 0.0000 0.0000 0.0000 21.4201 0.0000 0.0000
# 5 0.0000 0.0000 0.0000 0.0000 21.7398 0.0000
# 6 0.0000 0.0000 0.0000 0.0000 0.0000 -27.1127
#
#
#
# Elastic Compliance Matrix: (Units=1/GPa)
#
#
# Indices 1 2 3 4 5 6 
#
# 1 0.016275 -0.000681 -0.007281 0.000000 0.000000 0.000000
# 2 -0.000681 0.010483 -0.004264 0.000000 0.000000 0.000000
# 3 -0.007281 -0.004264 0.012354 0.000000 0.000000 0.000000
# 4 0.000000 0.000000 0.000000 0.046685 0.000000 0.000000
# 5 0.000000 0.000000 0.000000 0.000000 0.045999 0.000000
# 6 0.000000 0.000000 0.000000 0.000000 0.000000 -0.036883
#
#
# Mechanical properties :
#
#
# Convention : Reuss Voigt Hill
#
# Bulk Modulus (GPa) = 68.22437 75.02913 71.62675
# Shear Modulus (GPa) = 40.24090 16.25924 28.25007
#
# Velocity S-wave (km/s) = 4.84086 3.07708 4.05600
# Velocity P-wave (km/s) = 8.42467 7.50447 7.97785
#
# Compressibility (1/GPa) = 0.01465752
#
# Stress axis : x y z
#
# Youngs Moduli (GPa) = 61.44443 95.39549 80.94617
#
# Poissons Ratio (x) = 0.06499 0.58939
# Poissons Ratio (y) = 0.04186 0.34519
# Poissons Ratio (z) = 0.44739 0.40681
#
# Static dielectric constant tensor:
#      x y z
#    x 1.633830 0.000000 0.000000 
#    y 0.000000 1.602220 0.000000 
#    z 0.000000 0.000000 1.590410 
# 
# From -- ./inp_files/3081.got.cif
#   From: 2010.05.17/outbox.cif.g08.bks.cpg/sg49_2_cif.got.tgz:3081.got - 2010.06.03 21:02:19.
