data_PCOD9393505
_publ_section_title
;
Structure prediction by ZEFSAII (Michael W. Deem and Ramdas Pophale) SiO2 
 PCOD9393505
Probable space group: P C C M
;
_chemical_formula_sum "Si O2"
_cell_formula_units_Z 56
_cell_length_a 20.656779
_cell_length_b 15.744236
_cell_length_c 8.623521
_cell_angle_alpha 90.000000
_cell_angle_beta 90.000000
_cell_angle_gamma 90.000000
_cell_volume 2804.586373
_symmetry_space_group_name_H-M "P C C M"
_symmetry_group_IT_number 49
_symmetry_cell_setting 'orthorhombic'
loop_
_space_group_symop_operation_xyz
x,y,z
-x,-y,z
x,-y,1/2-z
-x,y,1/2-z
-x,-y,-z
x,y,-z
-x,y,1/2+z
x,-y,1/2+z
loop_
_atom_site_type_symbol
_atom_site_label
_atom_site_fract_x
_atom_site_fract_y
_atom_site_fract_z
Si Si1 0.931112 0.767634 0.814272
Si Si2 0.567066 0.774864 0.314295
Si Si3 0.289564 0.183995 0.313651
Si Si4 0.173345 0.910309 0.686090
Si Si5 0.606685 0.413065 0.185887
Si Si6 0.115781 0.411003 0.684111
Si Si7 0.745311 0.366727 0.315192
O O1 0.874812 0.833615 0.768441
O O2 0.917357 0.673486 0.750499
O O3 0.000000 0.797117 0.750000
O O4 0.932373 0.763721 0.000000
O O5 0.500000 0.809983 0.250000
O O6 0.563788 0.775012 0.500000
O O7 0.634414 0.820589 0.270641
O O8 0.574667 0.675937 0.263473
O O9 0.285876 0.195414 0.500000
O O10 0.243558 0.108663 0.259379
O O11 0.261484 0.267828 0.230380
O O12 0.177831 0.912092 0.500000
O O13 0.149013 0.000000 0.750000
O O14 0.577207 0.500000 0.250000
O O15 0.679846 0.407330 0.249633
O O16 0.607587 0.415161 0.000000
O O17 0.089854 0.500000 0.750000
O O18 0.111011 0.411228 0.500000
O O19 0.190725 0.403039 0.736140
O O20 0.749581 0.376807 0.500000
#
# Coordination Sequence:
#
# PCOD9393505 Si02
#       7
#     8   8   8   8   8   8   8
#     4  11  25  45  67  95 130 169 213 257 311 371
#     4   9  20  35  53  79 112 154 201 248 303 371
#     4  10  20  37  61  89 122 159 202 251 308 365
#     4  11  24  42  69 101 132 164 206 254 309 375
#     4  10  20  33  47  71 106 148 199 254 311 366
#     4  12  24  39  61  88 123 167 213 265 315 366
#     4  11  20  33  54  82 115 154 202 254 311 369
#
# _framework density 19.967293999999999
#
# number of rings (size 3 to 8) (size 9 to 14) (size 15 to 20)
#    0.000    1.429    1.429    5.571    0.000    6.000 
#    0.000    4.286    0.000    0.429    0.000    3.000 
#    0.000    0.000    0.000    0.000    0.000    0.000 
#
# Total GULP energy -313021.229506 kJ/mol
# GULP energy per Si atom -5589.664813 kJ/mol
# Density = 1.992185 g / cm^3
# Si number density = 19.967294 Si / 1000 Ang^3
#
#
#
# Elastic Constant Matrix: (Units=GPa)
#
#
# Indices 1 2 3 4 5 6 
#
# 1 120.4253 36.5135 30.1026 0.0000 0.0000 0.0000
# 2 36.5135 87.9432 30.2157 0.0000 0.0000 0.0000
# 3 30.1026 30.2157 79.2782 0.0000 0.0000 0.0000
# 4 0.0000 0.0000 0.0000 34.6708 0.0000 0.0000
# 5 0.0000 0.0000 0.0000 0.0000 24.4805 0.0000
# 6 0.0000 0.0000 0.0000 0.0000 0.0000 -27.4828
#
#
#
# Elastic Compliance Matrix: (Units=1/GPa)
#
#
# Indices 1 2 3 4 5 6 
#
# 1 0.009922 -0.003251 -0.002528 0.000000 0.000000 0.000000
# 2 -0.003251 0.014149 -0.004159 0.000000 0.000000 0.000000
# 3 -0.002528 -0.004159 0.015159 0.000000 0.000000 0.000000
# 4 0.000000 0.000000 0.000000 0.028843 0.000000 0.000000
# 5 0.000000 0.000000 0.000000 0.000000 0.040849 0.000000
# 6 0.000000 0.000000 0.000000 0.000000 0.000000 -0.036386
#
#
# Mechanical properties :
#
#
# Convention : Reuss Voigt Hill
#
# Bulk Modulus (GPa) = 51.66714 53.47894 52.57304
# Shear Modulus (GPa) = 50.57572 19.05468 34.81520
#
# Velocity S-wave (km/s) = 5.03828 3.09252 4.18019
# Velocity P-wave (km/s) = 7.73161 6.29229 7.04878
#
# Compressibility (1/GPa) = 0.01935466
#
# Stress axis : x y z
#
# Youngs Moduli (GPa) = 100.79094 70.67419 65.96821
#
# Poissons Ratio (x) = 0.22974 0.16679
# Poissons Ratio (y) = 0.32764 0.27433
# Poissons Ratio (z) = 0.25483 0.29390
#
# Static dielectric constant tensor:
#      x y z
#    x 1.860040 0.000000 0.000000 
#    y 0.000000 1.709540 0.000000 
#    z 0.000000 0.000000 1.663620 
# 
# From -- ./inp_files/4090.got.cif
#   From: 2010.05.17/outbox.cif.g08.bks.cpg/sg49_3_cif.got.tgz:4090.got - 2010.06.03 21:02:19.
