data_PCOD9393518
_publ_section_title
;
Structure prediction by ZEFSAII (Michael W. Deem and Ramdas Pophale) SiO2 
 PCOD9393518
Probable space group: P C C M
;
_chemical_formula_sum "Si O2"
_cell_formula_units_Z 64
_cell_length_a 21.049510
_cell_length_b 17.791968
_cell_length_c 8.674220
_cell_angle_alpha 90.000000
_cell_angle_beta 90.000000
_cell_angle_gamma 90.000000
_cell_volume 3248.601288
_symmetry_space_group_name_H-M "P C C M"
_symmetry_group_IT_number 49
_symmetry_cell_setting 'orthorhombic'
loop_
_space_group_symop_operation_xyz
x,y,z
-x,-y,z
x,-y,1/2-z
-x,y,1/2-z
-x,-y,-z
x,y,-z
-x,y,1/2+z
x,-y,1/2+z
loop_
_atom_site_type_symbol
_atom_site_label
_atom_site_fract_x
_atom_site_fract_y
_atom_site_fract_z
Si Si1 0.203526 0.421771 0.184646
Si Si2 0.137581 0.077287 0.323045
Si Si3 0.707825 0.280179 0.313779
Si Si4 0.280576 0.118711 0.675293
Si Si5 0.068596 0.624268 0.816720
Si Si6 0.565199 0.753759 0.185193
Si Si7 0.934564 0.790471 0.181869
Si Si8 0.407168 0.078245 0.820460
O O1 0.229581 0.500000 0.250000
O O2 0.248426 0.351181 0.227800
O O3 0.131916 0.412635 0.248373
O O4 0.200626 0.424273 0.000000
O O5 0.115831 0.086434 0.500000
O O6 0.213734 0.077494 0.323864
O O7 0.117446 0.148311 0.222063
O O8 0.113566 0.000000 0.250000
O O9 0.712721 0.269128 0.500000
O O10 0.729779 0.204888 0.227365
O O11 0.632298 0.286088 0.276600
O O12 0.306342 0.116289 0.500000
O O13 0.331649 0.083765 0.790475
O O14 0.075186 0.711814 0.768670
O O15 0.000000 0.598836 0.750000
O O16 0.067410 0.615919 0.000000
O O17 0.500000 0.720532 0.250000
O O18 0.569948 0.840806 0.242863
O O19 0.561584 0.755770 0.000000
O O20 0.000000 0.822218 0.250000
O O21 0.938766 0.775908 0.000000
O O22 0.429666 0.000000 0.750000
O O23 0.421495 0.076750 0.000000
#
# Coordination Sequence:
#
# PCOD9393518 Si02
#       8
#     8   8   8   8   8   8   8   8
#     4  11  23  40  62  90 122 154 186 226 275 329
#     4  11  23  36  50  73 102 135 178 230 283 336
#     4   9  20  38  59  82 113 149 185 226 277 333
#     4  10  20  33  53  78 104 136 179 225 271 325
#     4  11  22  39  62  89 120 154 192 230 271 326
#     4   9  19  35  54  79 108 144 188 236 284 335
#     4  11  22  38  58  78 102 136 178 225 275 328
#     4  10  20  33  49  72 107 145 184 228 279 332
#
# _framework density 19.700786000000001
#
# number of rings (size 3 to 8) (size 9 to 14) (size 15 to 20)
#    0.000    1.750    0.000    6.375    0.000    9.250 
#    0.000    3.750    0.000    0.375    0.000    2.625 
#    0.000    0.000    0.000    0.000    0.000    0.000 
#
# Total GULP energy -357412.057381 kJ/mol
# GULP energy per Si atom -5584.563397 kJ/mol
# Density = 1.965595 g / cm^3
# Si number density = 19.700786 Si / 1000 Ang^3
#
#
#
# Elastic Constant Matrix: (Units=GPa)
#
#
# Indices 1 2 3 4 5 6 
#
# 1 84.7867 35.4173 22.9881 0.0000 0.0000 0.0000
# 2 35.4173 79.4336 23.2791 0.0000 0.0000 0.0000
# 3 22.9881 23.2791 65.6129 0.0000 0.0000 0.0000
# 4 0.0000 0.0000 0.0000 -18.3798 0.0000 0.0000
# 5 0.0000 0.0000 0.0000 0.0000 27.8768 0.0000
# 6 0.0000 0.0000 0.0000 0.0000 0.0000 0.0457
#
#
#
# Elastic Compliance Matrix: (Units=1/GPa)
#
#
# Indices 1 2 3 4 5 6 
#
# 1 0.015085 -0.005778 -0.003235 0.000000 0.000000 0.000000
# 2 -0.005778 0.016263 -0.003746 0.000000 0.000000 0.000000
# 3 -0.003235 -0.003746 0.017703 0.000000 0.000000 0.000000
# 4 0.000000 0.000000 0.000000 -0.054408 0.000000 0.000000
# 5 0.000000 0.000000 0.000000 0.000000 0.035872 0.000000
# 6 0.000000 0.000000 0.000000 0.000000 0.000000 21.902831
#
#
# Mechanical properties :
#
#
# Convention : Reuss Voigt Hill
#
# Bulk Modulus (GPa) = 42.49204 43.68912 43.09058
# Shear Modulus (GPa) = 0.22762 11.78510 6.00636
#
# Velocity S-wave (km/s) = 0.34028 2.44848 1.74797
# Velocity P-wave (km/s) = 4.66582 5.49708 5.09842
#
# Compressibility (1/GPa) = 0.02353382
#
# Stress axis : x y z
#
# Youngs Moduli (GPa) = 66.29092 61.48902 56.48652
#
# Poissons Ratio (x) = 0.35528 0.18275
# Poissons Ratio (y) = 0.38302 0.21158
# Poissons Ratio (z) = 0.21447 0.23032
#
# Static dielectric constant tensor:
#      x y z
#    x 1.750590 0.000000 0.000000 
#    y 0.000000 1.693720 0.000000 
#    z 0.000000 0.000000 1.679830 
# 
# From -- ./inp_files/5971.got.cif
#   From: 2010.05.17/outbox.cif.g08.bks.cpg/sg49_3_cif.got.tgz:5971.got - 2010.06.03 21:02:19.
