data_PCOD9393810
_publ_section_title
;
Structure prediction by ZEFSAII (Michael W. Deem and Ramdas Pophale) SiO2 
 PCOD9393810
Probable space group: P C C M
;
_chemical_formula_sum "Si O2"
_cell_formula_units_Z 48
_cell_length_a 14.861207
_cell_length_b 19.190761
_cell_length_c 8.602662
_cell_angle_alpha 90.000000
_cell_angle_beta 90.000000
_cell_angle_gamma 90.000000
_cell_volume 2453.460893
_symmetry_space_group_name_H-M "P C C M"
_symmetry_group_IT_number 49
_symmetry_cell_setting 'orthorhombic'
loop_
_space_group_symop_operation_xyz
x,y,z
-x,-y,z
x,-y,1/2-z
-x,y,1/2-z
-x,-y,-z
x,y,-z
-x,y,1/2+z
x,-y,1/2+z
loop_
_atom_site_type_symbol
_atom_site_label
_atom_site_fract_x
_atom_site_fract_y
_atom_site_fract_z
Si Si1 0.848289 0.925249 0.178340
Si Si2 0.901557 0.774705 0.315020
Si Si3 0.598943 0.577892 0.314094
Si Si4 0.737433 0.310038 0.681725
Si Si5 0.593306 0.784973 0.680517
Si Si6 0.369610 0.926753 0.320785
O O1 0.877812 0.854014 0.262203
O O2 0.739426 0.925256 0.179515
O O3 0.877022 0.000000 0.250000
O O4 0.879499 0.921728 0.000000
O O5 0.899783 0.772992 0.500000
O O6 0.830846 0.717324 0.252365
O O7 0.000000 0.758885 0.250000
O O8 0.613892 0.500000 0.250000
O O9 0.500000 0.599625 0.250000
O O10 0.594285 0.577329 0.500000
O O11 0.680788 0.627302 0.259875
O O12 0.747818 0.324197 0.500000
O O13 0.671911 0.244943 0.713370
O O14 0.500000 0.758775 0.750000
O O15 0.604643 0.766007 0.500000
O O16 0.596967 0.867112 0.706100
O O17 0.398778 0.916124 0.500000
O O18 0.397222 0.000000 0.250000
#
# Coordination Sequence:
#
# PCOD9393810 Si02
#       6
#     8   8   8   8   8   8
#     4  10  20  36  59  85 116 153 199 257 318 378
#     4  12  25  42  64  91 122 160 207 259 315 375
#     4  11  22  40  66 101 138 175 212 252 298 354
#     4  12  24  42  64  91 126 164 203 250 305 363
#     4  12  24  38  57  83 115 154 200 248 300 361
#     4  10  20  35  55  78 109 148 194 246 302 361
#
# _framework density 19.5642
#
# number of rings (size 3 to 8) (size 9 to 14) (size 15 to 20)
#    0.000    0.833    1.667    8.000    0.000    2.000 
#    0.000    3.333    0.000    0.500    0.000    3.500 
#    0.000    0.000    0.000    0.000    0.000    0.000 
#
# Total GULP energy -268401.953221 kJ/mol
# GULP energy per Si atom -5591.707359 kJ/mol
# Density = 1.951967 g / cm^3
# Si number density = 19.564200 Si / 1000 Ang^3
#
#
#
# Elastic Constant Matrix: (Units=GPa)
#
#
# Indices 1 2 3 4 5 6 
#
# 1 129.4002 54.7310 57.3114 0.0000 0.0000 0.0000
# 2 54.7310 134.4281 49.8402 0.0000 0.0000 0.0000
# 3 57.3114 49.8402 189.3424 0.0000 0.0000 0.0000
# 4 0.0000 0.0000 0.0000 32.5140 0.0000 0.0000
# 5 0.0000 0.0000 0.0000 0.0000 25.2179 0.0000
# 6 0.0000 0.0000 0.0000 0.0000 0.0000 21.6414
#
#
#
# Elastic Compliance Matrix: (Units=1/GPa)
#
#
# Indices 1 2 3 4 5 6 
#
# 1 0.010091 -0.003298 -0.002186 0.000000 0.000000 0.000000
# 2 -0.003298 0.009321 -0.001455 0.000000 0.000000 0.000000
# 3 -0.002186 -0.001455 0.006326 0.000000 0.000000 0.000000
# 4 0.000000 0.000000 0.000000 0.030756 0.000000 0.000000
# 5 0.000000 0.000000 0.000000 0.000000 0.039654 0.000000
# 6 0.000000 0.000000 0.000000 0.000000 0.000000 0.046208
#
#
# Mechanical properties :
#
#
# Convention : Reuss Voigt Hill
#
# Bulk Modulus (GPa) = 84.32108 86.32620 85.32364
# Shear Modulus (GPa) = 31.21310 35.29388 33.25349
#
# Velocity S-wave (km/s) = 3.99860 4.25196 4.12723
# Velocity P-wave (km/s) = 8.03192 8.26595 8.14977
#
# Compressibility (1/GPa) = 0.01185943
#
# Stress axis : x y z
#
# Youngs Moduli (GPa) = 99.09643 107.28211 158.06997
#
# Poissons Ratio (x) = 0.35381 0.34560
# Poissons Ratio (y) = 0.32681 0.23005
# Poissons Ratio (z) = 0.21666 0.15614
#
# Static dielectric constant tensor:
#      x y z
#    x 1.504530 0.000000 0.000000 
#    y 0.000000 1.703970 0.000000 
#    z 0.000000 0.000000 1.666080 
# 
# From -- ./inp_files/3706.got.cif
#   From: 2010.05.17/outbox.cif.g08.bks.cpg/sg49_2_cif.got.tgz:3706.got - 2010.06.03 21:02:19.
