data_PCOD9393640
_publ_section_title
;
Structure prediction by ZEFSAII (Michael W. Deem and Ramdas Pophale) SiO2 
 PCOD9393640
Probable space group: P C C M
;
_chemical_formula_sum "Si O2"
_cell_formula_units_Z 48
_cell_length_a 16.084793
_cell_length_b 16.525918
_cell_length_c 8.973904
_cell_angle_alpha 90.000000
_cell_angle_beta 90.000000
_cell_angle_gamma 90.000000
_cell_volume 2385.406998
_symmetry_space_group_name_H-M "P C C M"
_symmetry_group_IT_number 49
_symmetry_cell_setting 'orthorhombic'
loop_
_space_group_symop_operation_xyz
x,y,z
-x,-y,z
x,-y,1/2-z
-x,y,1/2-z
-x,-y,-z
x,y,-z
-x,y,1/2+z
x,-y,1/2+z
loop_
_atom_site_type_symbol
_atom_site_label
_atom_site_fract_x
_atom_site_fract_y
_atom_site_fract_z
Si Si1 0.329064 0.258476 0.167437
Si Si2 0.914311 0.391302 0.328290
Si Si3 0.732184 0.584040 0.321299
Si Si4 0.088823 0.072832 0.330102
Si Si5 0.137302 0.213700 0.842567
Si Si6 0.592371 0.084072 0.318951
O O1 0.324424 0.339692 0.267312
O O2 0.231723 0.240335 0.150398
O O3 0.367362 0.172084 0.218476
O O4 0.362703 0.276053 0.000000
O O5 0.908110 0.421038 0.500000
O O6 0.828026 0.408399 0.240782
O O7 0.916783 0.293750 0.335213
O O8 0.000000 0.416699 0.250000
O O9 0.700896 0.500000 0.250000
O O10 0.734513 0.580921 0.500000
O O11 0.079286 0.054318 0.500000
O O12 0.129434 0.157847 0.298957
O O13 0.000000 0.080029 0.250000
O O14 0.136217 0.000000 0.250000
O O15 0.116620 0.169983 0.000000
O O16 0.500000 0.087488 0.250000
O O17 0.591840 0.077151 0.500000
O O18 0.629653 0.000000 0.250000
#
# Coordination Sequence:
#
# PCOD9393640 Si02
#       6
#     8   8   8   8   8   8
#     4   9  20  38  58  82 113 148 185 227 274 327
#     4  10  20  34  52  75 104 138 181 232 285 339
#     4  11  22  37  58  82 111 148 191 238 289 343
#     4  11  21  32  45  61  85 120 165 214 265 319
#     4   9  18  33  50  69  96 129 168 216 268 321
#     4  10  20  36  60  90 124 157 189 226 271 327
#
# _framework density 20.122353
#
# number of rings (size 3 to 8) (size 9 to 14) (size 15 to 20)
#    0.000    2.000    0.000    6.500    0.000    7.000 
#    0.000    3.333    0.000    0.500    0.000    3.500 
#    0.000    0.000    0.000    0.000    0.000    0.000 
#
# Total GULP energy -267349.577440 kJ/mol
# GULP energy per Si atom -5569.782863 kJ/mol
# Density = 2.007655 g / cm^3
# Si number density = 20.122353 Si / 1000 Ang^3
#
#
#
# Elastic Constant Matrix: (Units=GPa)
#
#
# Indices 1 2 3 4 5 6 
#
# 1 34.7776 33.1546 15.8872 0.0000 0.0000 0.0000
# 2 33.1546 158.0520 75.7311 0.0000 0.0000 0.0000
# 3 15.8872 75.7311 153.3122 0.0000 0.0000 0.0000
# 4 0.0000 0.0000 0.0000 32.5360 0.0000 0.0000
# 5 0.0000 0.0000 0.0000 0.0000 12.6469 0.0000
# 6 0.0000 0.0000 0.0000 0.0000 0.0000 28.7574
#
#
#
# Elastic Compliance Matrix: (Units=1/GPa)
#
#
# Indices 1 2 3 4 5 6 
#
# 1 0.035942 -0.007539 0.000000 0.000000 0.000000 0.000000
# 2 -0.007539 0.009870 -0.004094 0.000000 0.000000 0.000000
# 3 0.000000 -0.004094 0.008545 0.000000 0.000000 0.000000
# 4 0.000000 0.000000 0.000000 0.030735 0.000000 0.000000
# 5 0.000000 0.000000 0.000000 0.000000 0.079071 0.000000
# 6 0.000000 0.000000 0.000000 0.000000 0.000000 0.034774
#
#
# Mechanical properties :
#
#
# Convention : Reuss Voigt Hill
#
# Bulk Modulus (GPa) = 32.16549 66.18751 49.17650
# Shear Modulus (GPa) = 21.49907 29.54598 25.52253
#
# Velocity S-wave (km/s) = 3.27221 3.83602 3.56528
# Velocity P-wave (km/s) = 5.50419 7.25148 6.43740
#
# Compressibility (1/GPa) = 0.03108922
#
# Stress axis : x y z
#
# Youngs Moduli (GPa) = 27.82278 101.31313 117.02541
#
# Poissons Ratio (x) = 0.76384 0.00004
# Poissons Ratio (y) = 0.20977 0.47914
# Poissons Ratio (z) = 0.00001 0.41481
#
# Static dielectric constant tensor:
#      x y z
#    x 1.695630 0.000000 0.000000 
#    y 0.000000 1.860640 0.000000 
#    z 0.000000 0.000000 1.759740 
# 
# From -- ./inp_files/4873.got.cif
#   From: 2010.05.17/outbox.cif.g08.bks.cpg/sg49_3_cif.got.tgz:4873.got - 2010.06.03 21:02:19.
