data_PCOD9393763
_publ_section_title
;
Structure prediction by ZEFSAII (Michael W. Deem and Ramdas Pophale) SiO2 
 PCOD9393763
Probable space group: P C C M
;
_chemical_formula_sum "Si O2"
_cell_formula_units_Z 44
_cell_length_a 5.817859
_cell_length_b 13.973828
_cell_length_c 24.229709
_cell_angle_alpha 90.000000
_cell_angle_beta 90.000000
_cell_angle_gamma 90.000000
_cell_volume 1969.821091
_symmetry_space_group_name_H-M "P C C M"
_symmetry_group_IT_number 49
_symmetry_cell_setting 'orthorhombic'
loop_
_space_group_symop_operation_xyz
x,y,z
-x,-y,z
x,-y,1/2-z
-x,y,1/2-z
-x,-y,-z
x,y,-z
-x,y,1/2+z
x,-y,1/2+z
loop_
_atom_site_type_symbol
_atom_site_label
_atom_site_fract_x
_atom_site_fract_y
_atom_site_fract_z
Si Si1 0.574165 0.109363 0.611556
Si Si2 0.558628 0.392817 0.668343
Si Si3 0.244707 0.944522 0.500000
Si Si4 0.166722 0.783026 0.699763
Si Si5 0.134259 0.599372 0.441745
Si Si6 0.803304 0.736444 0.609448
O O1 0.647553 0.145591 0.672807
O O2 0.372683 0.181454 0.593066
O O3 0.500000 0.000000 0.617856
O O4 0.746006 0.110365 0.558788
O O5 0.500000 0.500000 0.687443
O O6 0.705959 0.320224 0.706845
O O7 0.330093 0.339632 0.648246
O O8 0.705996 0.398483 0.611669
O O9 0.500000 0.000000 0.500000
O O10 0.000000 0.000000 0.500000
O O11 0.000000 0.808736 0.750000
O O12 0.996051 0.778404 0.648496
O O13 0.263123 0.608997 0.500000
O O14 0.939010 0.679819 0.437009
O O15 0.000000 0.500000 0.440841
#
# Coordination Sequence:
#
# PCOD9393763 Si02
#       6
#     8   8   4   8   8   8
#     4  10  24  44  70 100 136 188 231 295 370 442
#     4  10  20  39  61  89 133 176 222 281 343 418
#     4  10  24  44  76 106 146 189 248 305 362 456
#     4  10  24  45  69  95 136 175 234 298 353 433
#     4  10  20  34  60  92 130 179 225 279 342 422
#     4  10  22  41  62  93 135 170 227 287 352 422
#
# _framework density 22.337054999999999
#
# number of rings (size 3 to 8) (size 9 to 14) (size 15 to 20)
#    0.000    2.000    1.818    0.000    6.364    4.000 
#   13.091    5.455    0.000    0.000    0.000    0.000 
#    0.000    0.000    0.000    0.000    0.000    0.000 
#
# Total GULP energy -245409.480897 kJ/mol
# GULP energy per Si atom -5577.488202 kJ/mol
# Density = 2.228621 g / cm^3
# Si number density = 22.337055 Si / 1000 Ang^3
#
#
#
# Elastic Constant Matrix: (Units=GPa)
#
#
# Indices 1 2 3 4 5 6 
#
# 1 64.3836 30.8850 17.6813 0.0000 0.0000 0.0000
# 2 30.8850 135.8174 38.2942 0.0000 0.0000 0.0000
# 3 17.6813 38.2942 110.7547 0.0000 0.0000 0.0000
# 4 0.0000 0.0000 0.0000 10.5135 0.0000 0.0000
# 5 0.0000 0.0000 0.0000 0.0000 35.8008 0.0000
# 6 0.0000 0.0000 0.0000 0.0000 0.0000 36.5717
#
#
#
# Elastic Compliance Matrix: (Units=1/GPa)
#
#
# Indices 1 2 3 4 5 6 
#
# 1 0.017682 -0.003573 -0.001587 0.000000 0.000000 0.000000
# 2 -0.003573 0.008880 -0.002500 0.000000 0.000000 0.000000
# 3 -0.001587 -0.002500 0.010147 0.000000 0.000000 0.000000
# 4 0.000000 0.000000 0.000000 0.095115 0.000000 0.000000
# 5 0.000000 0.000000 0.000000 0.000000 0.027932 0.000000
# 6 0.000000 0.000000 0.000000 0.000000 0.000000 0.027344
#
#
# Mechanical properties :
#
#
# Convention : Reuss Voigt Hill
#
# Bulk Modulus (GPa) = 46.75571 53.85298 50.30435
# Shear Modulus (GPa) = 23.86057 31.51690 27.68873
#
# Velocity S-wave (km/s) = 3.27189 3.76036 3.52460
# Velocity P-wave (km/s) = 5.93726 6.55861 6.25565
#
# Compressibility (1/GPa) = 0.02138776
#
# Stress axis : x y z
#
# Youngs Moduli (GPa) = 56.55484 112.60902 98.55384
#
# Poissons Ratio (x) = 0.40239 0.15643
# Poissons Ratio (y) = 0.20209 0.24638
# Poissons Ratio (z) = 0.08977 0.28152
#
# Static dielectric constant tensor:
#      x y z
#    x 1.862470 0.000000 0.000000 
#    y 0.000000 1.910400 0.000000 
#    z 0.000000 0.000000 1.861540 
# 
# From -- ./inp_files/23885.got.cif
#   From: 2010.05.17/outbox.cif.g08.bks.cpg/sg49_12_cif.got.tgz:23885.got - 2010.06.03 21:02:19.
