data_PCOD9393812
_publ_section_title
;
Structure prediction by ZEFSAII (Michael W. Deem and Ramdas Pophale) SiO2 
 PCOD9393812
Probable space group: P C C M
;
_chemical_formula_sum "Si O2"
_cell_formula_units_Z 40
_cell_length_a 27.658115
_cell_length_b 9.359981
_cell_length_c 8.255594
_cell_angle_alpha 90.000000
_cell_angle_beta 90.000000
_cell_angle_gamma 90.000000
_cell_volume 2137.203476
_symmetry_space_group_name_H-M "P C C M"
_symmetry_group_IT_number 49
_symmetry_cell_setting 'orthorhombic'
loop_
_space_group_symop_operation_xyz
x,y,z
-x,-y,z
x,-y,1/2-z
-x,y,1/2-z
-x,-y,-z
x,y,-z
-x,y,1/2+z
x,-y,1/2+z
loop_
_atom_site_type_symbol
_atom_site_label
_atom_site_fract_x
_atom_site_fract_y
_atom_site_fract_z
Si Si1 0.260166 0.835486 0.195993
Si Si2 0.154848 0.834408 0.804392
Si Si3 0.050827 0.165862 0.693466
Si Si4 0.447326 0.836516 0.193654
Si Si5 0.353908 0.337286 0.304009
O O1 0.207252 0.778211 0.250665
O O2 0.305720 0.744311 0.253859
O O3 0.264936 0.000000 0.250000
O O4 0.260441 0.833894 0.000000
O O5 0.102841 0.772958 0.749235
O O6 0.154880 0.000000 0.750000
O O7 0.154649 0.829558 0.000000
O O8 0.050331 0.166521 0.500000
O O9 0.000000 0.231324 0.750000
O O10 0.050648 0.000000 0.750000
O O11 0.500000 0.784645 0.250000
O O12 0.402363 0.742988 0.253477
O O13 0.441718 0.000000 0.250000
O O14 0.447041 0.835788 0.000000
O O15 0.353671 0.500000 0.250000
O O16 0.353892 0.331988 0.500000
#
# Coordination Sequence:
#
# PCOD9393812 Si02
#       5
#     8   8   8   8   8
#     4   9  17  31  49  69  91 119 155 195 234 277
#     4   8  14  23  36  54  78 107 142 180 221 266
#     4   9  14  19  28  45  71 105 138 171 212 261
#     4  10  20  35  55  79 102 128 160 194 230 273
#     4  10  22  36  51  72  99 128 159 193 234 279
#
# _framework density 18.716048000000001
#
# number of rings (size 3 to 8) (size 9 to 14) (size 15 to 20)
#    0.000    2.800    0.000    3.000    0.000    3.600 
#    0.000    2.000    0.000    0.000    0.000    0.000 
#    0.000    0.800    0.000   10.000    0.000    3.000 
#
# Total GULP energy -222715.433521 kJ/mol
# GULP energy per Si atom -5567.885838 kJ/mol
# Density = 1.867345 g / cm^3
# Si number density = 18.716048 Si / 1000 Ang^3
#
#
#
# Elastic Constant Matrix: (Units=GPa)
#
#
# Indices 1 2 3 4 5 6 
#
# 1 264.0215 75.7845 25.2705 0.0000 0.0000 0.0000
# 2 75.7845 46.1766 3.4234 0.0000 0.0000 0.0000
# 3 25.2705 3.4234 17.8187 0.0000 0.0000 0.0000
# 4 0.0000 0.0000 0.0000 17.9248 0.0000 0.0000
# 5 0.0000 0.0000 0.0000 0.0000 47.9231 0.0000
# 6 0.0000 0.0000 0.0000 0.0000 0.0000 -2.4383
#
#
#
# Elastic Compliance Matrix: (Units=1/GPa)
#
#
# Indices 1 2 3 4 5 6 
#
# 1 0.008499 -0.013244 -0.009509 0.000000 0.000000 0.000000
# 2 -0.013244 0.042606 0.010597 0.000000 0.000000 0.000000
# 3 -0.009509 0.010597 0.067571 0.000000 0.000000 0.000000
# 4 0.000000 0.000000 0.000000 0.055789 0.000000 0.000000
# 5 0.000000 0.000000 0.000000 0.000000 0.020867 0.000000
# 6 0.000000 0.000000 0.000000 0.000000 0.000000 -0.410122
#
#
# Mechanical properties :
#
#
# Convention : Reuss Voigt Hill
#
# Bulk Modulus (GPa) = 10.59729 59.66375 35.13052
# Shear Modulus (GPa) = -31.44185 27.58448 -1.92868
#
# Velocity S-wave (km/s) = -4.10315 3.84323 -1.01624
# Velocity P-wave (km/s) = 4.09553 7.18620 4.17541
#
# Compressibility (1/GPa) = 0.09436378
#
# Stress axis : x y z
#
# Youngs Moduli (GPa) = 117.65750 23.47083 14.79930
#
# Poissons Ratio (x) = 0.31084 0.14073
# Poissons Ratio (y) = 1.55824 -0.15683
# Poissons Ratio (z) = 1.11883 -0.24872
#
# Static dielectric constant tensor:
#      x y z
#    x 1.747230 0.000000 0.000000 
#    y 0.000000 1.246260 0.000000 
#    z 0.000000 0.000000 1.670930 
# 
# From -- ./inp_files/1889.got.cif
#   From: 2010.05.17/outbox.cif.g08.bks.cpg/sg49_1_cif.got.tgz:1889.got - 2010.06.03 21:02:19.
