data_PCOD9393783
_publ_section_title
;
Structure prediction by ZEFSAII (Michael W. Deem and Ramdas Pophale) SiO2 
 PCOD9393783
Probable space group: P C C M
;
_chemical_formula_sum "Si O2"
_cell_formula_units_Z 48
_cell_length_a 9.676677
_cell_length_b 32.046545
_cell_length_c 8.629687
_cell_angle_alpha 90.000000
_cell_angle_beta 90.000000
_cell_angle_gamma 90.000000
_cell_volume 2676.101018
_symmetry_space_group_name_H-M "P C C M"
_symmetry_group_IT_number 49
_symmetry_cell_setting 'orthorhombic'
loop_
_space_group_symop_operation_xyz
x,y,z
-x,-y,z
x,-y,1/2-z
-x,y,1/2-z
-x,-y,-z
x,y,-z
-x,y,1/2+z
x,-y,1/2+z
loop_
_atom_site_type_symbol
_atom_site_label
_atom_site_fract_x
_atom_site_fract_y
_atom_site_fract_z
Si Si1 0.847737 0.119872 0.813477
Si Si2 0.155808 0.365436 0.813153
Si Si3 0.154173 0.784934 0.813608
Si Si4 0.655020 0.956024 0.686396
Si Si5 0.156689 0.542391 0.685300
Si Si6 0.654978 0.287970 0.686323
O O1 0.810055 0.167294 0.767863
O O2 0.743594 0.083841 0.762515
O O3 0.000000 0.111405 0.750000
O O4 0.852136 0.119148 0.000000
O O5 0.211038 0.411732 0.769921
O O6 0.256898 0.328555 0.762482
O O7 0.000000 0.360008 0.750000
O O8 0.146660 0.364347 0.000000
O O9 0.262719 0.752368 0.746233
O O10 0.000000 0.776097 0.750000
O O11 0.151804 0.782162 0.000000
O O12 0.500000 0.952036 0.750000
O O13 0.651704 0.957686 0.500000
O O14 0.711722 0.000000 0.750000
O O15 0.223737 0.500000 0.750000
O O16 0.152714 0.539445 0.500000
O O17 0.000000 0.542917 0.750000
O O18 0.500000 0.289105 0.750000
O O19 0.651358 0.287450 0.500000
#
# Coordination Sequence:
#
# PCOD9393783 Si02
#       6
#     8   8   8   8   8   8
#     4   9  20  36  55  79 107 136 170 209 255 305
#     4   9  19  33  51  74 102 133 168 207 253 304
#     4  10  20  37  58  81 107 137 172 213 258 310
#     4  10  20  35  53  76 104 138 176 214 254 301
#     4   9  15  25  42  68  98 127 159 201 247 295
#     4  11  23  38  54  76 104 137 174 216 261 309
#
# _framework density 17.936543
#
# number of rings (size 3 to 8) (size 9 to 14) (size 15 to 20)
#    0.000    2.333    0.000    3.500    0.000    6.333 
#    0.000    3.333    0.000    0.500    0.000    3.500 
#    0.000    0.000    0.000    0.000    0.000    0.000 
#
# Total GULP energy -267704.791946 kJ/mol
# GULP energy per Si atom -5577.183166 kJ/mol
# Density = 1.789572 g / cm^3
# Si number density = 17.936543 Si / 1000 Ang^3
#
#
#
# Elastic Constant Matrix: (Units=GPa)
#
#
# Indices 1 2 3 4 5 6 
#
# 1 94.8345 106.4346 28.3329 0.0000 0.0000 0.0000
# 2 106.4346 188.5401 45.0574 0.0000 0.0000 0.0000
# 3 28.3329 45.0574 43.8512 0.0000 0.0000 0.0000
# 4 0.0000 0.0000 0.0000 352.4187 0.0000 0.0000
# 5 0.0000 0.0000 0.0000 0.0000 25.8897 0.0000
# 6 0.0000 0.0000 0.0000 0.0000 0.0000 -16.4988
#
#
#
# Elastic Compliance Matrix: (Units=1/GPa)
#
#
# Indices 1 2 3 4 5 6 
#
# 1 0.028989 -0.015758 -0.002538 0.000000 0.000000 0.000000
# 2 -0.015758 0.015596 -0.005844 0.000000 0.000000 0.000000
# 3 -0.002538 -0.005844 0.030449 0.000000 0.000000 0.000000
# 4 0.000000 0.000000 0.000000 0.002838 0.000000 0.000000
# 5 0.000000 0.000000 0.000000 0.000000 0.038625 0.000000
# 6 0.000000 0.000000 0.000000 0.000000 0.000000 -0.060611
#
#
# Mechanical properties :
#
#
# Convention : Reuss Voigt Hill
#
# Bulk Modulus (GPa) = 37.37851 76.31949 56.84900
# Shear Modulus (GPa) = 44.21499 82.18866 63.20183
#
# Velocity S-wave (km/s) = 4.97034 6.77653 5.94246
# Velocity P-wave (km/s) = 7.33646 10.19169 8.87959
#
# Compressibility (1/GPa) = 0.02675334
#
# Stress axis : x y z
#
# Youngs Moduli (GPa) = 34.49641 64.11858 32.84189
#
# Poissons Ratio (x) = 1.01038 0.08337
# Poissons Ratio (y) = 0.54359 0.19192
# Poissons Ratio (z) = 0.08757 0.37469
#
# Static dielectric constant tensor:
#      x y z
#    x 1.565750 0.000000 0.000000 
#    y 0.000000 1.660440 0.000000 
#    z 0.000000 0.000000 1.610640 
# 
# From -- ./inp_files/2107.got.cif
#   From: 2010.05.17/outbox.cif.g08.bks.cpg/sg49_2_cif.got.tgz:2107.got - 2010.06.03 21:02:19.
