data_PCOD9393572
_publ_section_title
;
Structure prediction by ZEFSAII (Michael W. Deem and Ramdas Pophale) SiO2 
 PCOD9393572
Probable space group: P C C M
;
_chemical_formula_sum "Si O2"
_cell_formula_units_Z 40
_cell_length_a 16.561125
_cell_length_b 5.244905
_cell_length_c 25.375893
_cell_angle_alpha 90.000000
_cell_angle_beta 90.000000
_cell_angle_gamma 90.000000
_cell_volume 2204.188823
_symmetry_space_group_name_H-M "P C C M"
_symmetry_group_IT_number 49
_symmetry_cell_setting 'orthorhombic'
loop_
_space_group_symop_operation_xyz
x,y,z
-x,-y,z
x,-y,1/2-z
-x,y,1/2-z
-x,-y,-z
x,y,-z
-x,y,1/2+z
x,-y,1/2+z
loop_
_atom_site_type_symbol
_atom_site_label
_atom_site_fract_x
_atom_site_fract_y
_atom_site_fract_z
Si Si1 0.692433 0.990804 0.185827
Si Si2 0.854593 0.897551 0.619487
Si Si3 0.089960 0.251952 0.726860
Si Si4 0.592006 0.489007 0.813675
Si Si5 0.093672 0.416778 0.061663
O O1 0.649327 0.725079 0.171320
O O2 0.702295 0.000000 0.250000
O O3 0.772926 0.038904 0.151595
O O4 0.632929 0.223081 0.172313
O O5 0.912291 0.779001 0.664951
O O6 0.852717 0.661985 0.578786
O O7 0.887169 0.160248 0.594618
O O8 0.133182 0.500000 0.750000
O O9 0.000000 0.257764 0.750000
O O10 0.128223 0.000000 0.750000
O O11 0.500000 0.500000 0.833486
O O12 0.587746 0.500000 0.750000
O O13 0.000000 0.500000 0.068169
O O14 0.106165 0.359672 0.000000
#
# Coordination Sequence:
#
# PCOD9393572 Si02
#       5
#     8   8   8   8   8
#     4  10  20  33  51  84 121 149 184 224 272 330
#     4  12  23  38  62  81 114 149 184 245 298 332
#     4  10  22  34  50  78 109 145 187 216 259 347
#     4   9  17  31  52  76 114 161 192 214 253 320
#     4  11  26  44  61  80 103 142 203 259 299 336
#
# _framework density 18.147265999999998
#
# number of rings (size 3 to 8) (size 9 to 14) (size 15 to 20)
#    0.000    1.600    0.000    4.800    8.400    6.400 
#    0.000    0.000    0.000    0.000    0.000    0.000 
#    0.000   56.000    0.000    0.000    0.000    0.000 
#
# Total GULP energy -223128.879435 kJ/mol
# GULP energy per Si atom -5578.221986 kJ/mol
# Density = 1.810596 g / cm^3
# Si number density = 18.147266 Si / 1000 Ang^3
#
#
#
# Elastic Constant Matrix: (Units=GPa)
#
#
# Indices 1 2 3 4 5 6 
#
# 1 98.1560 30.5634 37.5431 0.0000 0.0000 0.0000
# 2 30.5634 159.1808 43.9011 0.0000 0.0000 0.0000
# 3 37.5431 43.9011 89.4009 0.0000 0.0000 0.0000
# 4 0.0000 0.0000 0.0000 30.5001 0.0000 0.0000
# 5 0.0000 0.0000 0.0000 0.0000 12.6553 0.0000
# 6 0.0000 0.0000 0.0000 0.0000 0.0000 16.3259
#
#
#
# Elastic Compliance Matrix: (Units=1/GPa)
#
#
# Indices 1 2 3 4 5 6 
#
# 1 0.012297 -0.001084 -0.004632 0.000000 0.000000 0.000000
# 2 -0.001084 0.007362 -0.003160 0.000000 0.000000 0.000000
# 3 -0.004632 -0.003160 0.014682 0.000000 0.000000 0.000000
# 4 0.000000 0.000000 0.000000 0.032787 0.000000 0.000000
# 5 0.000000 0.000000 0.000000 0.000000 0.079018 0.000000
# 6 0.000000 0.000000 0.000000 0.000000 0.000000 0.061252
#
#
# Mechanical properties :
#
#
# Convention : Reuss Voigt Hill
#
# Bulk Modulus (GPa) = 60.27682 63.41699 61.84691
# Shear Modulus (GPa) = 21.67512 27.54494 24.61003
#
# Velocity S-wave (km/s) = 3.45976 3.90019 3.68656
# Velocity P-wave (km/s) = 7.01765 7.43664 7.23018
#
# Compressibility (1/GPa) = 0.01659012
#
# Stress axis : x y z
#
# Youngs Moduli (GPa) = 81.32143 135.83770 68.10877
#
# Poissons Ratio (x) = 0.14720 0.31547
# Poissons Ratio (y) = 0.08812 0.21522
# Poissons Ratio (z) = 0.37667 0.42924
#
# Static dielectric constant tensor:
#      x y z
#    x 1.592630 0.000000 0.000000 
#    y 0.000000 1.685270 0.000000 
#    z 0.000000 0.000000 1.654140 
# 
# From -- ./inp_files/23108.got.cif
#   From: 2010.05.17/outbox.cif.g08.bks.cpg/sg49_12_cif.got.tgz:23108.got - 2010.06.03 21:02:19.
