data_PCOD9393297
_publ_section_title
;
Structure prediction by ZEFSAII (Michael W. Deem and Ramdas Pophale) SiO2 
 PCOD9393297
Probable space group: P C C M
;
_chemical_formula_sum "Si O2"
_cell_formula_units_Z 48
_cell_length_a 15.500073
_cell_length_b 8.777703
_cell_length_c 15.449264
_cell_angle_alpha 90.000000
_cell_angle_beta 90.000000
_cell_angle_gamma 90.000000
_cell_volume 2101.950189
_symmetry_space_group_name_H-M "P C C M"
_symmetry_group_IT_number 49
_symmetry_cell_setting 'orthorhombic'
loop_
_space_group_symop_operation_xyz
x,y,z
-x,-y,z
x,-y,1/2-z
-x,y,1/2-z
-x,-y,-z
x,y,-z
-x,y,1/2+z
x,-y,1/2+z
loop_
_atom_site_type_symbol
_atom_site_label
_atom_site_fract_x
_atom_site_fract_y
_atom_site_fract_z
Si Si1 0.420729 0.385335 0.093121
Si Si2 0.960066 0.661271 0.894414
Si Si3 0.127711 0.181153 0.603685
Si Si4 0.797505 0.852709 0.105128
Si Si5 0.629342 0.168144 0.725881
Si Si6 0.724958 0.403391 0.164168
O O1 0.500000 0.500000 0.093122
O O2 0.435528 0.269266 0.170782
O O3 0.332788 0.483112 0.106492
O O4 0.416471 0.306766 0.000000
O O5 0.865319 0.719614 0.869622
O O6 0.000000 0.500000 0.865721
O O7 0.031306 0.783986 0.865790
O O8 0.957922 0.656670 0.000000
O O9 0.123982 0.175818 0.500000
O O10 0.191050 0.321103 0.626811
O O11 0.162876 0.016995 0.630386
O O12 0.710495 0.840620 0.159261
O O13 0.785743 0.848818 0.000000
O O14 0.662622 0.264899 0.806998
O O15 0.602355 0.000000 0.750000
O O16 0.745339 0.500000 0.250000
#
# Coordination Sequence:
#
# PCOD9393297 Si02
#       6
#     8   8   8   8   8   8
#     4  10  23  45  71  98 129 167 213 262 317 388
#     4   9  19  32  53  86 118 160 223 281 321 369
#     4  10  19  35  58  83 119 166 218 271 322 376
#     4  10  20  36  60  87 123 171 220 268 319 376
#     4  11  22  40  65  97 133 167 207 258 326 392
#     4  10  22  37  61  89 128 169 211 262 323 396
#
# _framework density 22.835937000000001
#
# number of rings (size 3 to 8) (size 9 to 14) (size 15 to 20)
#    0.000    2.000    1.667    1.500    4.667    5.000 
#    0.000    2.500    0.000    2.000    0.000    0.000 
#    0.000    0.000    0.000    0.000    0.000    0.000 
#
# Total GULP energy -268424.322161 kJ/mol
# GULP energy per Si atom -5592.173378 kJ/mol
# Density = 2.278396 g / cm^3
# Si number density = 22.835937 Si / 1000 Ang^3
#
#
#
# Elastic Constant Matrix: (Units=GPa)
#
#
# Indices 1 2 3 4 5 6 
#
# 1 81.9260 13.6525 17.1997 0.0000 0.0000 0.0000
# 2 13.6525 107.6566 11.9903 0.0000 0.0000 0.0000
# 3 17.1997 11.9903 43.7680 0.0000 0.0000 0.0000
# 4 0.0000 0.0000 0.0000 23.7914 0.0000 0.0000
# 5 0.0000 0.0000 0.0000 0.0000 18.8551 0.0000
# 6 0.0000 0.0000 0.0000 0.0000 0.0000 25.2547
#
#
#
# Elastic Compliance Matrix: (Units=1/GPa)
#
#
# Indices 1 2 3 4 5 6 
#
# 1 0.013441 -0.001151 -0.004966 0.000000 0.000000 0.000000
# 2 -0.001151 0.009680 -0.002199 0.000000 0.000000 0.000000
# 3 -0.004966 -0.002199 0.025402 0.000000 0.000000 0.000000
# 4 0.000000 0.000000 0.000000 0.042032 0.000000 0.000000
# 5 0.000000 0.000000 0.000000 0.000000 0.053036 0.000000
# 6 0.000000 0.000000 0.000000 0.000000 0.000000 0.039597
#
#
# Mechanical properties :
#
#
# Convention : Reuss Voigt Hill
#
# Bulk Modulus (GPa) = 31.35961 35.44839 33.40400
# Shear Modulus (GPa) = 23.75856 26.28079 25.01967
#
# Velocity S-wave (km/s) = 3.22903 3.39610 3.31362
# Velocity P-wave (km/s) = 5.25971 5.56190 5.41292
#
# Compressibility (1/GPa) = 0.03188815
#
# Stress axis : x y z
#
# Youngs Moduli (GPa) = 74.40115 103.30842 39.36714
#
# Poissons Ratio (x) = 0.11894 0.19551
# Poissons Ratio (y) = 0.08566 0.08658
# Poissons Ratio (z) = 0.36951 0.22721
#
# Static dielectric constant tensor:
#      x y z
#    x 1.887330 0.000000 0.000000 
#    y 0.000000 1.870680 0.000000 
#    z 0.000000 0.000000 1.852280 
# 
# From -- ./inp_files/16300.got.cif
#   From: 2010.05.17/outbox.cif.g08.bks.cpg/sg49_9_cif.got.tgz:16300.got - 2010.06.03 21:02:19.
