data_PCOD9393151
_publ_section_title
;
Structure prediction by ZEFSAII (Michael W. Deem and Ramdas Pophale) SiO2 
 PCOD9393151
Probable space group: P C C M
;
_chemical_formula_sum "Si O2"
_cell_formula_units_Z 64
_cell_length_a 20.221614
_cell_length_b 21.007989
_cell_length_c 8.778077
_cell_angle_alpha 90.000000
_cell_angle_beta 90.000000
_cell_angle_gamma 90.000000
_cell_volume 3729.062682
_symmetry_space_group_name_H-M "P C C M"
_symmetry_group_IT_number 49
_symmetry_cell_setting 'orthorhombic'
loop_
_space_group_symop_operation_xyz
x,y,z
-x,-y,z
x,-y,1/2-z
-x,y,1/2-z
-x,-y,-z
x,y,-z
-x,y,1/2+z
x,-y,1/2+z
loop_
_atom_site_type_symbol
_atom_site_label
_atom_site_fract_x
_atom_site_fract_y
_atom_site_fract_z
Si Si1 0.930929 0.267225 0.317286
Si Si2 0.289253 0.186883 0.316789
Si Si3 0.569461 0.764122 0.317496
Si Si4 0.293981 0.566108 0.317653
Si Si5 0.212422 0.691976 0.684103
Si Si6 0.788533 0.067648 0.683086
Si Si7 0.570342 0.385626 0.817279
Si Si8 0.069307 0.881737 0.316975
O O1 0.935399 0.268467 0.500000
O O2 0.864719 0.304270 0.271986
O O3 0.923084 0.192755 0.271545
O O4 0.000000 0.290807 0.250000
O O5 0.286271 0.183396 0.500000
O O6 0.365619 0.197421 0.269678
O O7 0.249694 0.248944 0.260450
O O8 0.256305 0.124838 0.244691
O O9 0.500000 0.786545 0.250000
O O10 0.565434 0.766322 0.500000
O O11 0.577954 0.689450 0.275487
O O12 0.268518 0.500000 0.250000
O O13 0.297260 0.562518 0.500000
O O14 0.248263 0.626244 0.275331
O O15 0.367098 0.578562 0.251690
O O16 0.216215 0.699746 0.500000
O O17 0.786444 0.067076 0.500000
O O18 0.864585 0.081892 0.731253
O O19 0.767835 0.000000 0.750000
O O20 0.500000 0.407136 0.750000
O O21 0.569948 0.391155 0.000000
O O22 0.065499 0.883981 0.500000
O O23 0.000000 0.905523 0.250000
#
# Coordination Sequence:
#
# PCOD9393151 Si02
#       8
#     8   8   8   8   8   8   8   8
#     4   9  17  32  52  79 108 136 174 220 269 321
#     4  11  21  35  57  85 111 141 181 226 270 319
#     4   9  19  33  53  82 112 140 175 220 267 318
#     4  11  23  37  55  78 108 147 184 226 276 325
#     4  10  20  36  57  80 108 143 182 224 272 323
#     4  11  23  39  55  78 110 148 186 226 272 323
#     4  10  19  34  53  78 111 145 183 223 264 320
#     4   9  18  32  51  74 107 143 180 220 263 317
#
# _framework density 17.162489000000001
#
# number of rings (size 3 to 8) (size 9 to 14) (size 15 to 20)
#    0.000    2.000    2.500    1.500    0.000    4.000 
#    0.000    2.500    0.000    0.750    0.000    5.250 
#    0.000    0.000    0.000    0.000    0.000    0.000 
#
# Total GULP energy -357272.352878 kJ/mol
# GULP energy per Si atom -5582.380514 kJ/mol
# Density = 1.712343 g / cm^3
# Si number density = 17.162489 Si / 1000 Ang^3
#
#
#
# Elastic Constant Matrix: (Units=GPa)
#
#
# Indices 1 2 3 4 5 6 
#
# 1 136.3273 68.2951 36.6353 0.0000 0.0000 0.0000
# 2 68.2951 114.1411 40.1051 0.0000 0.0000 0.0000
# 3 36.6353 40.1051 33.9746 0.0000 0.0000 0.0000
# 4 0.0000 0.0000 0.0000 28.5734 0.0000 0.0000
# 5 0.0000 0.0000 0.0000 0.0000 27.9902 0.0000
# 6 0.0000 0.0000 0.0000 0.0000 0.0000 19.5336
#
#
#
# Elastic Compliance Matrix: (Units=1/GPa)
#
#
# Indices 1 2 3 4 5 6 
#
# 1 0.011438 -0.004289 -0.007270 0.000000 0.000000 0.000000
# 2 -0.004289 0.016579 -0.014945 0.000000 0.000000 0.000000
# 3 -0.007270 -0.014945 0.054916 0.000000 0.000000 0.000000
# 4 0.000000 0.000000 0.000000 0.034998 0.000000 0.000000
# 5 0.000000 0.000000 0.000000 0.000000 0.035727 0.000000
# 6 0.000000 0.000000 0.000000 0.000000 0.000000 0.051194
#
#
# Mechanical properties :
#
#
# Convention : Reuss Voigt Hill
#
# Bulk Modulus (GPa) = 33.41967 63.83489 48.62728
# Shear Modulus (GPa) = 18.66831 24.51329 21.59080
#
# Velocity S-wave (km/s) = 3.30167 3.78339 3.55071
# Velocity P-wave (km/s) = 5.83519 7.50737 6.72347
#
# Compressibility (1/GPa) = 0.02992249
#
# Stress axis : x y z
#
# Youngs Moduli (GPa) = 87.42972 60.31870 18.20977
#
# Poissons Ratio (x) = 0.25871 0.13239
# Poissons Ratio (y) = 0.37499 0.27215
# Poissons Ratio (z) = 0.63566 0.90147
#
# Static dielectric constant tensor:
#      x y z
#    x 1.581230 0.000000 0.000000 
#    y 0.000000 1.572690 0.000000 
#    z 0.000000 0.000000 1.573660 
# 
# From -- ./inp_files/5339.got.cif
#   From: 2010.05.17/outbox.cif.g08.bks.cpg/sg49_3_cif.got.tgz:5339.got - 2010.06.03 21:02:19.
