data_PCOD9393823
_publ_section_title
;
Structure prediction by ZEFSAII (Michael W. Deem and Ramdas Pophale) SiO2 
 PCOD9393823
Probable space group: P C C M
;
_chemical_formula_sum "Si O2"
_cell_formula_units_Z 64
_cell_length_a 9.382278
_cell_length_b 14.167298
_cell_length_c 21.016325
_cell_angle_alpha 90.000000
_cell_angle_beta 90.000000
_cell_angle_gamma 90.000000
_cell_volume 2793.522039
_symmetry_space_group_name_H-M "P C C M"
_symmetry_group_IT_number 49
_symmetry_cell_setting 'orthorhombic'
loop_
_space_group_symop_operation_xyz
x,y,z
-x,-y,z
x,-y,1/2-z
-x,y,1/2-z
-x,-y,-z
x,y,-z
-x,y,1/2+z
x,-y,1/2+z
loop_
_atom_site_type_symbol
_atom_site_label
_atom_site_fract_x
_atom_site_fract_y
_atom_site_fract_z
Si Si1 0.898022 0.144267 0.928083
Si Si2 0.152963 0.667978 0.855637
Si Si3 0.657629 0.353833 0.267258
Si Si4 0.648112 0.465455 0.930238
Si Si5 0.168915 0.372669 0.888626
Si Si6 0.565589 0.149102 0.684582
Si Si7 0.784722 0.151050 0.425033
Si Si8 0.401719 0.092753 0.569783
O O1 0.868669 0.224014 0.875990
O O2 0.766146 0.073132 0.926799
O O3 0.057166 0.109402 0.919402
O O4 0.897161 0.187424 0.000000
O O5 0.222050 0.653732 0.786792
O O6 0.273796 0.620953 0.898190
O O7 0.997846 0.622798 0.870382
O O8 0.500000 0.392621 0.250000
O O9 0.738849 0.398772 0.326138
O O10 0.621579 0.248176 0.290404
O O11 0.500000 0.500000 0.899331
O O12 0.764950 0.548716 0.933912
O O13 0.604924 0.432448 0.000000
O O14 0.200088 0.265826 0.913819
O O15 0.500000 0.103672 0.750000
O O16 0.691548 0.115917 0.635815
O O17 0.442139 0.153878 0.631288
O O18 0.738709 0.136988 0.500000
O O19 0.423924 0.138380 0.500000
O O20 0.500000 0.000000 0.571181
#
# Coordination Sequence:
#
# PCOD9393823 Si02
#       8
#     8   8   8   8   8   8   8   8
#     4   9  18  34  57  86 117 152 198 248 299 357
#     4  11  21  36  57  80 112 152 196 243 296 357
#     4  10  20  35  55  80 111 146 190 240 293 354
#     4  11  24  39  55  79 111 146 188 243 302 357
#     4  10  21  36  56  82 111 149 196 246 300 357
#     4  10  20  35  56  85 118 154 197 242 295 358
#     4   9  18  34  58  86 117 156 201 250 300 353
#     4  10  21  38  61  90 124 161 202 249 303 366
#
# _framework density 22.910148
#
# number of rings (size 3 to 8) (size 9 to 14) (size 15 to 20)
#    0.000    2.000    0.000    4.125    0.000    3.750 
#    0.000    7.500    0.000    3.000    0.000    7.000 
#    0.000    0.000    0.000    0.000    0.000    0.250 
#
# Total GULP energy -356566.307732 kJ/mol
# GULP energy per Si atom -5571.348558 kJ/mol
# Density = 2.285800 g / cm^3
# Si number density = 22.910148 Si / 1000 Ang^3
#
#
#
# Elastic Constant Matrix: (Units=GPa)
#
#
# Indices 1 2 3 4 5 6 
#
# 1 191.8727 15.0523 55.5270 0.0000 0.0000 0.0000
# 2 15.0523 38.4388 8.0755 0.0000 0.0000 0.0000
# 3 55.5270 8.0755 155.6308 0.0000 0.0000 0.0000
# 4 0.0000 0.0000 0.0000 8.1171 0.0000 0.0000
# 5 0.0000 0.0000 0.0000 0.0000 17.0076 0.0000
# 6 0.0000 0.0000 0.0000 0.0000 0.0000 35.9815
#
#
#
# Elastic Compliance Matrix: (Units=1/GPa)
#
#
# Indices 1 2 3 4 5 6 
#
# 1 0.005947 -0.001904 -0.002023 0.000000 0.000000 0.000000
# 2 -0.001904 0.026911 -0.000717 0.000000 0.000000 0.000000
# 3 -0.002023 -0.000717 0.007184 0.000000 0.000000 0.000000
# 4 0.000000 0.000000 0.000000 0.123197 0.000000 0.000000
# 5 0.000000 0.000000 0.000000 0.000000 0.058797 0.000000
# 6 0.000000 0.000000 0.000000 0.000000 0.000000 0.027792
#
#
# Mechanical properties :
#
#
# Convention : Reuss Voigt Hill
#
# Bulk Modulus (GPa) = 32.51503 60.36132 46.43817
# Shear Modulus (GPa) = 18.56199 32.70708 25.63453
#
# Velocity S-wave (km/s) = 2.84950 3.78249 3.34865
# Velocity P-wave (km/s) = 5.00494 6.74392 5.93843
#
# Compressibility (1/GPa) = 0.03075501
#
# Stress axis : x y z
#
# Youngs Moduli (GPa) = 168.16511 37.15884 139.19026
#
# Poissons Ratio (x) = 0.07074 0.28156
# Poissons Ratio (y) = 0.32013 0.09983
# Poissons Ratio (z) = 0.34018 0.02665
#
# Static dielectric constant tensor:
#      x y z
#    x 1.881640 0.000000 0.000000 
#    y 0.000000 1.927590 0.000000 
#    z 0.000000 0.000000 1.914820 
# 
# From -- ./inp_files/19991.got.cif
#   From: 2010.05.17/outbox.cif.g08.bks.cpg/sg49_10_cif.got.tgz:19991.got - 2010.06.03 21:02:19.
