data_PCOD9393277
_publ_section_title
;
Structure prediction by ZEFSAII (Michael W. Deem and Ramdas Pophale) SiO2 
 PCOD9393277
Probable space group: P C C M
;
_chemical_formula_sum "Si O2"
_cell_formula_units_Z 64
_cell_length_a 14.447361
_cell_length_b 13.851756
_cell_length_c 16.641071
_cell_angle_alpha 90.000000
_cell_angle_beta 90.000000
_cell_angle_gamma 90.000000
_cell_volume 3330.233085
_symmetry_space_group_name_H-M "P C C M"
_symmetry_group_IT_number 49
_symmetry_cell_setting 'orthorhombic'
loop_
_space_group_symop_operation_xyz
x,y,z
-x,-y,z
x,-y,1/2-z
-x,y,1/2-z
-x,-y,-z
x,y,-z
-x,y,1/2+z
x,-y,1/2+z
loop_
_atom_site_type_symbol
_atom_site_label
_atom_site_fract_x
_atom_site_fract_y
_atom_site_fract_z
Si Si1 0.457539 0.895414 0.596063
Si Si2 0.624414 0.248005 0.092607
Si Si3 0.929906 0.240710 0.818654
Si Si4 0.050306 0.401720 0.095570
Si Si5 0.207958 0.312658 0.186201
Si Si6 0.782332 0.101888 0.145121
Si Si7 0.391210 0.615029 0.238002
Si Si8 0.255302 0.890260 0.336973
O O1 0.439196 0.895350 0.500000
O O2 0.531572 0.812036 0.612937
O O3 0.363179 0.882139 0.643402
O O4 0.500000 0.000000 0.616452
O O5 0.706146 0.169475 0.103639
O O6 0.633844 0.338490 0.151724
O O7 0.620699 0.278178 0.000000
O O8 0.848580 0.296863 0.769647
O O9 0.880627 0.153609 0.864198
O O10 0.000000 0.203812 0.750000
O O11 0.987033 0.313800 0.873217
O O12 0.150196 0.390128 0.136486
O O13 0.000000 0.500000 0.120815
O O14 0.058386 0.400332 0.000000
O O15 0.314190 0.338433 0.203498
O O16 0.205899 0.209640 0.140417
O O17 0.759021 0.103947 0.240742
O O18 0.778868 0.989477 0.122986
O O19 0.381948 0.500000 0.250000
O O20 0.500000 0.638064 0.250000
#
# Coordination Sequence:
#
# PCOD9393277 Si02
#       8
#     8   8   8   8   8   8   8   8
#     4  10  20  33  53  87 129 172 214 264 316 369
#     4  11  22  38  60  90 129 167 214 267 321 375
#     4   9  19  37  59  85 118 154 202 251 315 379
#     4  10  23  41  64  95 120 153 210 274 334 389
#     4  10  21  39  63  92 122 164 207 261 324 379
#     4  10  20  34  55  92 121 165 206 256 310 381
#     4  11  24  43  65  93 128 171 221 266 312 386
#     4  10  19  35  56  86 129 164 219 253 311 380
#
# _framework density 19.217873000000001
#
# number of rings (size 3 to 8) (size 9 to 14) (size 15 to 20)
#    0.000    1.875    3.750    0.750    1.750    2.750 
#    0.000   13.125    0.000    0.750    0.000    0.000 
#    0.000    0.000    0.000    0.000    0.000    0.000 
#
# Total GULP energy -357052.424704 kJ/mol
# GULP energy per Si atom -5578.944136 kJ/mol
# Density = 1.917413 g / cm^3
# Si number density = 19.217873 Si / 1000 Ang^3
#
#
#
# Elastic Constant Matrix: (Units=GPa)
#
#
# Indices 1 2 3 4 5 6 
#
# 1 109.1423 45.9000 17.4800 0.0000 0.0000 0.0000
# 2 45.9000 113.6628 47.5087 0.0000 0.0000 0.0000
# 3 17.4800 47.5087 32.1347 0.0000 0.0000 0.0000
# 4 0.0000 0.0000 0.0000 18.0903 0.0000 0.0000
# 5 0.0000 0.0000 0.0000 0.0000 0.4847 0.0000
# 6 0.0000 0.0000 0.0000 0.0000 0.0000 33.4712
#
#
#
# Elastic Compliance Matrix: (Units=1/GPa)
#
#
# Indices 1 2 3 4 5 6 
#
# 1 0.011066 -0.005111 0.001537 0.000000 0.000000 0.000000
# 2 -0.005111 0.025389 -0.034756 0.000000 0.000000 0.000000
# 3 0.001537 -0.034756 0.081667 0.000000 0.000000 0.000000
# 4 0.000000 0.000000 0.000000 0.055278 0.000000 0.000000
# 5 0.000000 0.000000 0.000000 0.000000 2.063254 0.000000
# 6 0.000000 0.000000 0.000000 0.000000 0.000000 0.029876
#
#
# Mechanical properties :
#
#
# Convention : Reuss Voigt Hill
#
# Bulk Modulus (GPa) = 24.11847 52.96858 38.54352
# Shear Modulus (GPa) = 2.12133 20.01264 11.06699
#
# Velocity S-wave (km/s) = 1.05177 3.23051 2.40233
# Velocity P-wave (km/s) = 3.74863 6.44491 5.27205
#
# Compressibility (1/GPa) = 0.04146200
#
# Stress axis : x y z
#
# Youngs Moduli (GPa) = 90.36981 39.38699 12.24490
#
# Poissons Ratio (x) = 0.20131 -0.01882
# Poissons Ratio (y) = 0.46188 0.42558
# Poissons Ratio (z) = -0.13890 1.36892
#
# Static dielectric constant tensor:
#      x y z
#    x 1.672360 0.000000 0.000000 
#    y 0.000000 1.698320 0.000000 
#    z 0.000000 0.000000 1.657410 
# 
# From -- ./inp_files/17946.got.cif
#   From: 2010.05.17/outbox.cif.g08.bks.cpg/sg49_9_cif.got.tgz:17946.got - 2010.06.03 21:02:19.
