data_PCOD9393467
_publ_section_title
;
Structure prediction by ZEFSAII (Michael W. Deem and Ramdas Pophale) SiO2 
 PCOD9393467
Probable space group: P C C M
;
_chemical_formula_sum "Si O2"
_cell_formula_units_Z 48
_cell_length_a 18.764403
_cell_length_b 13.128838
_cell_length_c 9.380350
_cell_angle_alpha 90.000000
_cell_angle_beta 90.000000
_cell_angle_gamma 90.000000
_cell_volume 2310.894315
_symmetry_space_group_name_H-M "P C C M"
_symmetry_group_IT_number 49
_symmetry_cell_setting 'orthorhombic'
loop_
_space_group_symop_operation_xyz
x,y,z
-x,-y,z
x,-y,1/2-z
-x,y,1/2-z
-x,-y,-z
x,y,-z
-x,y,1/2+z
x,-y,1/2+z
loop_
_atom_site_type_symbol
_atom_site_label
_atom_site_fract_x
_atom_site_fract_y
_atom_site_fract_z
Si Si1 0.213460 0.174685 0.829479
Si Si2 0.273607 0.602396 0.331142
Si Si3 0.074995 0.831740 0.165462
Si Si4 0.074055 0.408742 0.335147
Si Si5 0.431093 0.681499 0.330624
Si Si6 0.372427 0.900068 0.670134
O O1 0.230441 0.294268 0.795468
O O2 0.145449 0.129547 0.747072
O O3 0.288528 0.119774 0.798007
O O4 0.200485 0.169773 0.000000
O O5 0.256149 0.500000 0.250000
O O6 0.264830 0.587326 0.500000
O O7 0.356849 0.625501 0.301384
O O8 0.092389 0.710245 0.163681
O O9 0.000000 0.848757 0.250000
O O10 0.068606 0.864911 0.000000
O O11 0.112516 0.500000 0.250000
O O12 0.069291 0.439964 0.500000
O O13 0.000000 0.402765 0.250000
O O14 0.500000 0.641760 0.250000
O O15 0.442970 0.678052 0.500000
O O16 0.415353 0.798812 0.288820
O O17 0.378122 0.911614 0.500000
O O18 0.397370 0.000000 0.750000
#
# Coordination Sequence:
#
# PCOD9393467 Si02
#       6
#     8   8   8   8   8   8
#     4   9  19  36  54  73 102 137 172 215 264 314
#     4   9  19  35  53  74 104 143 184 222 260 304
#     4  10  20  32  48  71  97 128 167 211 262 317
#     4   9  16  25  37  55  81 113 150 191 235 285
#     4   9  19  35  53  78 112 145 177 215 259 306
#     4   9  19  36  57  80 106 137 172 211 260 315
#
# _framework density 20.771179
#
# number of rings (size 3 to 8) (size 9 to 14) (size 15 to 20)
#    0.000    2.833    0.000    3.500    0.000    6.000 
#    0.000   10.000    0.000    0.500    0.000    3.500 
#    0.000    0.000    0.000    0.000    0.000    0.000 
#
# Total GULP energy -267542.456586 kJ/mol
# GULP energy per Si atom -5573.801179 kJ/mol
# Density = 2.072390 g / cm^3
# Si number density = 20.771179 Si / 1000 Ang^3
#
#
#
# Elastic Constant Matrix: (Units=GPa)
#
#
# Indices 1 2 3 4 5 6 
#
# 1 126.8105 -5.1015 62.6595 0.0000 0.0000 0.0000
# 2 -5.1015 52.3058 13.3976 0.0000 0.0000 0.0000
# 3 62.6595 13.3976 71.8597 0.0000 0.0000 0.0000
# 4 0.0000 0.0000 0.0000 15.6131 0.0000 0.0000
# 5 0.0000 0.0000 0.0000 0.0000 80.7047 0.0000
# 6 0.0000 0.0000 0.0000 0.0000 0.0000 -12.4040
#
#
#
# Elastic Compliance Matrix: (Units=1/GPa)
#
#
# Indices 1 2 3 4 5 6 
#
# 1 0.015034 0.005066 -0.014053 0.000000 0.000000 0.000000
# 2 0.005066 0.021784 -0.008479 0.000000 0.000000 0.000000
# 3 -0.014053 -0.008479 0.027751 0.000000 0.000000 0.000000
# 4 0.000000 0.000000 0.000000 0.064049 0.000000 0.000000
# 5 0.000000 0.000000 0.000000 0.000000 0.012391 0.000000
# 6 0.000000 0.000000 0.000000 0.000000 0.000000 -0.080619
#
#
# Mechanical properties :
#
#
# Convention : Reuss Voigt Hill
#
# Bulk Modulus (GPa) = 33.74248 43.65412 38.69830
# Shear Modulus (GPa) = 47.52849 28.78413 38.15631
#
# Velocity S-wave (km/s) = 4.78870 3.72664 4.29065
# Velocity P-wave (km/s) = 6.84512 6.29121 6.57400
#
# Compressibility (1/GPa) = 0.02963623
#
# Stress axis : x y z
#
# Youngs Moduli (GPa) = 66.51767 45.90490 36.03490
#
# Poissons Ratio (x) = -0.23255 0.50641
# Poissons Ratio (y) = -0.33697 0.30553
# Poissons Ratio (z) = 0.93479 0.38922
#
# Static dielectric constant tensor:
#      x y z
#    x 1.755850 0.000000 0.000000 
#    y 0.000000 1.754280 0.000000 
#    z 0.000000 0.000000 1.709070 
# 
# From -- ./inp_files/4882.got.cif
#   From: 2010.05.17/outbox.cif.g08.bks.cpg/sg49_3_cif.got.tgz:4882.got - 2010.06.03 21:02:19.
