data_PCOD9393678
_publ_section_title
;
Structure prediction by ZEFSAII (Michael W. Deem and Ramdas Pophale) SiO2 
 PCOD9393678
Probable space group: P C C M
;
_chemical_formula_sum "Si O2"
_cell_formula_units_Z 56
_cell_length_a 23.081084
_cell_length_b 15.121793
_cell_length_c 8.655341
_cell_angle_alpha 90.000000
_cell_angle_beta 90.000000
_cell_angle_gamma 90.000000
_cell_volume 3020.950944
_symmetry_space_group_name_H-M "P C C M"
_symmetry_group_IT_number 49
_symmetry_cell_setting 'orthorhombic'
loop_
_space_group_symop_operation_xyz
x,y,z
-x,-y,z
x,-y,1/2-z
-x,y,1/2-z
-x,-y,-z
x,y,-z
-x,y,1/2+z
x,-y,1/2+z
loop_
_atom_site_type_symbol
_atom_site_label
_atom_site_fract_x
_atom_site_fract_y
_atom_site_fract_z
Si Si1 0.288588 0.095901 0.183917
Si Si2 0.665268 0.730612 0.313391
Si Si3 0.160476 0.902807 0.185062
Si Si4 0.236520 0.405221 0.685295
Si Si5 0.899116 0.404367 0.185665
Si Si6 0.435829 0.595448 0.185153
Si Si7 0.939157 0.778094 0.184051
O O1 0.330844 0.174046 0.236156
O O2 0.225115 0.117109 0.254378
O O3 0.305396 0.000000 0.250000
O O4 0.283890 0.090836 0.000000
O O5 0.667177 0.740487 0.500000
O O6 0.721337 0.673044 0.263851
O O7 0.609268 0.672191 0.273259
O O8 0.114178 0.832839 0.246036
O O9 0.145604 0.000000 0.250000
O O10 0.161047 0.903602 0.000000
O O11 0.255522 0.500000 0.750000
O O12 0.239482 0.409148 0.500000
O O13 0.169181 0.392346 0.727036
O O14 0.917086 0.500000 0.250000
O O15 0.932210 0.323058 0.261205
O O16 0.904710 0.402177 0.000000
O O17 0.416676 0.500000 0.250000
O O18 0.500000 0.612410 0.250000
O O19 0.438340 0.589304 0.000000
O O20 0.000000 0.812760 0.250000
O O21 0.938572 0.783474 0.000000
#
# Coordination Sequence:
#
# PCOD9393678 Si02
#       7
#     8   8   8   8   8   8   8
#     4  11  22  37  59  86 114 146 181 224 274 330
#     4  10  20  34  53  80 112 148 186 230 279 329
#     4  11  22  40  63  87 115 146 179 221 273 332
#     4   9  18  31  50  76 108 139 172 215 267 323
#     4  10  20  36  56  79 107 143 180 223 275 330
#     4  10  20  34  54  79 114 156 198 239 280 325
#     4  12  25  41  59  82 108 140 183 229 277 331
#
# _framework density 18.537210000000002
#
# number of rings (size 3 to 8) (size 9 to 14) (size 15 to 20)
#    0.000    1.571    0.000    7.286    0.000    4.000 
#    0.000    2.857    0.000    0.429    0.000    3.000 
#    0.000    0.000    0.000    0.000    0.000    0.000 
#
# Total GULP energy -313075.990286 kJ/mol
# GULP energy per Si atom -5590.642684 kJ/mol
# Density = 1.849502 g / cm^3
# Si number density = 18.537210 Si / 1000 Ang^3
#
#
#
# Elastic Constant Matrix: (Units=GPa)
#
#
# Indices 1 2 3 4 5 6 
#
# 1 67.1197 69.3289 44.8329 0.0000 0.0000 0.0000
# 2 69.3289 134.6343 57.8041 0.0000 0.0000 0.0000
# 3 44.8329 57.8041 118.7523 0.0000 0.0000 0.0000
# 4 0.0000 0.0000 0.0000 32.8974 0.0000 0.0000
# 5 0.0000 0.0000 0.0000 0.0000 23.0276 0.0000
# 6 0.0000 0.0000 0.0000 0.0000 0.0000 -75.9880
#
#
#
# Elastic Compliance Matrix: (Units=1/GPa)
#
#
# Indices 1 2 3 4 5 6 
#
# 1 0.034480 -0.015381 -0.005531 0.000000 0.000000 0.000000
# 2 -0.015381 0.016251 -0.002104 0.000000 0.000000 0.000000
# 3 -0.005531 -0.002104 0.011533 0.000000 0.000000 0.000000
# 4 0.000000 0.000000 0.000000 0.030397 0.000000 0.000000
# 5 0.000000 0.000000 0.000000 0.000000 0.043426 0.000000
# 6 0.000000 0.000000 0.000000 0.000000 0.000000 -0.013160
#
#
# Mechanical properties :
#
#
# Convention : Reuss Voigt Hill
#
# Bulk Modulus (GPa) = 61.59952 73.82644 67.71298
# Shear Modulus (GPa) = 28.67500 5.89010 17.28255
#
# Velocity S-wave (km/s) = 3.93732 1.78447 3.05670
# Velocity P-wave (km/s) = 7.34658 6.64517 7.00466
#
# Compressibility (1/GPa) = 0.01623389
#
# Stress axis : x y z
#
# Youngs Moduli (GPa) = 29.00248 61.53535 86.70915
#
# Poissons Ratio (x) = 0.94645 0.47955
# Poissons Ratio (y) = 0.44608 0.18240
# Poissons Ratio (z) = 0.16040 0.12945
#
# Static dielectric constant tensor:
#      x y z
#    x 1.641360 0.000000 0.000000 
#    y 0.000000 1.636290 0.000000 
#    z 0.000000 0.000000 1.617680 
# 
# From -- ./inp_files/4080.got.cif
#   From: 2010.05.17/outbox.cif.g08.bks.cpg/sg49_3_cif.got.tgz:4080.got - 2010.06.03 21:02:19.
