data_PCOD9393665
_publ_section_title
;
Structure prediction by ZEFSAII (Michael W. Deem and Ramdas Pophale) SiO2 
 PCOD9393665
Probable space group: P C C M
;
_chemical_formula_sum "Si O2"
_cell_formula_units_Z 56
_cell_length_a 23.046031
_cell_length_b 15.278720
_cell_length_c 8.635115
_cell_angle_alpha 90.000000
_cell_angle_beta 90.000000
_cell_angle_gamma 90.000000
_cell_volume 3040.543629
_symmetry_space_group_name_H-M "P C C M"
_symmetry_group_IT_number 49
_symmetry_cell_setting 'orthorhombic'
loop_
_space_group_symop_operation_xyz
x,y,z
-x,-y,z
x,-y,1/2-z
-x,y,1/2-z
-x,-y,-z
x,y,-z
-x,y,1/2+z
x,-y,1/2+z
loop_
_atom_site_type_symbol
_atom_site_label
_atom_site_fract_x
_atom_site_fract_y
_atom_site_fract_z
Si Si1 0.209046 0.406057 0.685761
Si Si2 0.830413 0.219640 0.812553
Si Si3 0.733269 0.906915 0.814836
Si Si4 0.439400 0.726182 0.315554
Si Si5 0.064055 0.095452 0.685695
Si Si6 0.396994 0.906223 0.814969
Si Si7 0.344043 0.595513 0.813872
O O1 0.190526 0.500000 0.750000
O O2 0.207794 0.411195 0.500000
O O3 0.172483 0.321282 0.733959
O O4 0.276543 0.390648 0.731089
O O5 0.776533 0.168610 0.738163
O O6 0.888898 0.168323 0.769790
O O7 0.824416 0.215373 0.000000
O O8 0.669667 0.894916 0.741163
O O9 0.755659 0.000000 0.750000
O O10 0.728184 0.910744 0.000000
O O11 0.500000 0.690272 0.250000
O O12 0.440327 0.726896 0.500000
O O13 0.431428 0.824298 0.251998
O O14 0.385879 0.668494 0.255455
O O15 0.061441 0.090341 0.500000
O O16 0.000000 0.114683 0.750000
O O17 0.081381 0.000000 0.750000
O O18 0.417001 0.000000 0.750000
O O19 0.399121 0.906710 0.000000
O O20 0.360767 0.500000 0.750000
O O21 0.347760 0.596948 0.000000
#
# Coordination Sequence:
#
# PCOD9393665 Si02
#       7
#     8   8   8   8   8   8   8
#     4   9  19  35  56  81 110 139 173 216 267 321
#     4  10  20  34  53  79 110 145 181 225 274 323
#     4  11  21  33  52  80 111 143 177 218 267 324
#     4  12  25  41  59  82 108 139 181 226 272 327
#     4  10  20  34  53  76 108 147 188 228 271 318
#     4  11  22  39  59  80 108 143 180 222 271 324
#     4  10  20  37  60  85 112 144 176 218 273 331
#
# _framework density 18.417759
#
# number of rings (size 3 to 8) (size 9 to 14) (size 15 to 20)
#    0.000    1.571    0.000    7.286    0.000    5.143 
#    0.000    2.857    0.000    0.429    0.000    3.000 
#    0.000    0.000    0.000    0.000    0.000    0.000 
#
# Total GULP energy -313022.349554 kJ/mol
# GULP energy per Si atom -5589.684813 kJ/mol
# Density = 1.837584 g / cm^3
# Si number density = 18.417759 Si / 1000 Ang^3
#
#
#
# Elastic Constant Matrix: (Units=GPa)
#
#
# Indices 1 2 3 4 5 6 
#
# 1 62.4375 62.8229 27.7013 0.0000 0.0000 0.0000
# 2 62.8229 143.6907 41.4237 0.0000 0.0000 0.0000
# 3 27.7013 41.4237 97.3772 0.0000 0.0000 0.0000
# 4 0.0000 0.0000 0.0000 31.5510 0.0000 0.0000
# 5 0.0000 0.0000 0.0000 0.0000 22.2769 0.0000
# 6 0.0000 0.0000 0.0000 0.0000 0.0000 214.2894
#
#
#
# Elastic Compliance Matrix: (Units=1/GPa)
#
#
# Indices 1 2 3 4 5 6 
#
# 1 0.029504 -0.011945 -0.003312 0.000000 0.000000 0.000000
# 2 -0.011945 0.012768 -0.002033 0.000000 0.000000 0.000000
# 3 -0.003312 -0.002033 0.012077 0.000000 0.000000 0.000000
# 4 0.000000 0.000000 0.000000 0.031695 0.000000 0.000000
# 5 0.000000 0.000000 0.000000 0.000000 0.044889 0.000000
# 6 0.000000 0.000000 0.000000 0.000000 0.000000 0.004667
#
#
# Mechanical properties :
#
#
# Convention : Reuss Voigt Hill
#
# Bulk Modulus (GPa) = 50.58612 63.04457 56.81534
# Shear Modulus (GPa) = 28.28566 65.06062 46.67314
#
# Velocity S-wave (km/s) = 3.92316 5.94993 5.03948
# Velocity P-wave (km/s) = 6.93160 9.02811 8.04841
#
# Compressibility (1/GPa) = 0.01976827
#
# Stress axis : x y z
#
# Youngs Moduli (GPa) = 33.89411 78.32165 82.80530
#
# Poissons Ratio (x) = 0.93551 0.27424
# Poissons Ratio (y) = 0.40485 0.16838
# Poissons Ratio (z) = 0.11225 0.15926
#
# Static dielectric constant tensor:
#      x y z
#    x 1.627830 0.000000 0.000000 
#    y 0.000000 1.649150 0.000000 
#    z 0.000000 0.000000 1.616780 
# 
# From -- ./inp_files/5767.got.cif
#   From: 2010.05.17/outbox.cif.g08.bks.cpg/sg49_3_cif.got.tgz:5767.got - 2010.06.03 21:02:19.
