data_PCOD9393829
_publ_section_title
;
Structure prediction by ZEFSAII (Michael W. Deem and Ramdas Pophale) SiO2 
 PCOD9393829
Probable space group: P C C M
;
_chemical_formula_sum "Si O2"
_cell_formula_units_Z 48
_cell_length_a 9.251583
_cell_length_b 32.033617
_cell_length_c 8.662905
_cell_angle_alpha 90.000000
_cell_angle_beta 90.000000
_cell_angle_gamma 90.000000
_cell_volume 2567.352962
_symmetry_space_group_name_H-M "P C C M"
_symmetry_group_IT_number 49
_symmetry_cell_setting 'orthorhombic'
loop_
_space_group_symop_operation_xyz
x,y,z
-x,-y,z
x,-y,1/2-z
-x,y,1/2-z
-x,-y,-z
x,y,-z
-x,y,1/2+z
x,-y,1/2+z
loop_
_atom_site_type_symbol
_atom_site_label
_atom_site_fract_x
_atom_site_fract_y
_atom_site_fract_z
Si Si1 0.663360 0.457844 0.815920
Si Si2 0.663641 0.365163 0.185728
Si Si3 0.661853 0.791453 0.685891
Si Si4 0.839232 0.126116 0.814099
Si Si5 0.161658 0.712871 0.684571
Si Si6 0.661820 0.955412 0.685765
O O1 0.734088 0.500000 0.750000
O O2 0.500000 0.457064 0.750000
O O3 0.722047 0.411847 0.776691
O O4 0.656674 0.461399 0.000000
O O5 0.500000 0.361695 0.250000
O O6 0.760632 0.329192 0.257906
O O7 0.659154 0.361050 0.000000
O O8 0.500000 0.791545 0.750000
O O9 0.658816 0.789127 0.500000
O O10 0.743826 0.833977 0.732489
O O11 0.748071 0.752011 0.751585
O O12 0.762006 0.083127 0.765793
O O13 0.000000 0.129329 0.750000
O O14 0.845597 0.126056 0.000000
O O15 0.158940 0.714025 0.500000
O O16 0.000000 0.714807 0.750000
O O17 0.500000 0.948974 0.750000
O O18 0.655748 0.957135 0.500000
O O19 0.713533 0.000000 0.750000
#
# Coordination Sequence:
#
# PCOD9393829 Si02
#       6
#     8   8   8   8   8   8
#     4   9  16  26  45  73 107 142 180 225 274 323
#     4  10  20  35  55  82 113 148 188 231 277 330
#     4  11  23  41  63  88 115 147 186 230 278 332
#     4  10  23  39  58  84 116 151 189 230 279 334
#     4  12  25  41  60  83 112 147 184 229 280 335
#     4  10  20  36  57  84 113 148 191 235 281 331
#
# _framework density 18.696300000000001
#
# number of rings (size 3 to 8) (size 9 to 14) (size 15 to 20)
#    0.000    1.667    0.000    6.000    0.000    6.333 
#    0.000    1.667    0.000    0.500    0.000    3.500 
#    0.000    0.000    0.000    0.000    0.000    0.000 
#
# Total GULP energy -268141.679507 kJ/mol
# GULP energy per Si atom -5586.284990 kJ/mol
# Density = 1.865375 g / cm^3
# Si number density = 18.696300 Si / 1000 Ang^3
#
#
#
# Elastic Constant Matrix: (Units=GPa)
#
#
# Indices 1 2 3 4 5 6 
#
# 1 131.2243 111.9241 48.5777 0.0000 0.0000 0.0000
# 2 111.9241 223.1326 74.6519 0.0000 0.0000 0.0000
# 3 48.5777 74.6519 91.4978 0.0000 0.0000 0.0000
# 4 0.0000 0.0000 0.0000 29.6923 0.0000 0.0000
# 5 0.0000 0.0000 0.0000 0.0000 32.3821 0.0000
# 6 0.0000 0.0000 0.0000 0.0000 0.0000 -38.4664
#
#
#
# Elastic Compliance Matrix: (Units=1/GPa)
#
#
# Indices 1 2 3 4 5 6 
#
# 1 0.013658 -0.006086 -0.002285 0.000000 0.000000 0.000000
# 2 -0.006086 0.008876 -0.004011 0.000000 0.000000 0.000000
# 3 -0.002285 -0.004011 0.015415 0.000000 0.000000 0.000000
# 4 0.000000 0.000000 0.000000 0.033679 0.000000 0.000000
# 5 0.000000 0.000000 0.000000 0.000000 0.030881 0.000000
# 6 0.000000 0.000000 0.000000 0.000000 0.000000 -0.025997
#
#
# Mechanical properties :
#
#
# Convention : Reuss Voigt Hill
#
# Bulk Modulus (GPa) = 75.84915 101.79580 88.82247
# Shear Modulus (GPa) = 47.31638 18.76834 33.04236
#
# Velocity S-wave (km/s) = 5.03615 3.17180 4.20851
# Velocity P-wave (km/s) = 8.62985 8.24494 8.43959
#
# Compressibility (1/GPa) = 0.01318406
#
# Stress axis : x y z
#
# Youngs Moduli (GPa) = 73.21983 112.65950 64.87161
#
# Poissons Ratio (x) = 0.68565 0.14826
# Poissons Ratio (y) = 0.44562 0.26019
# Poissons Ratio (z) = 0.16734 0.45187
#
# Static dielectric constant tensor:
#      x y z
#    x 1.599610 0.000000 0.000000 
#    y 0.000000 1.669930 0.000000 
#    z 0.000000 0.000000 1.630170 
# 
# From -- ./inp_files/2099.got.cif
#   From: 2010.05.17/outbox.cif.g08.bks.cpg/sg49_2_cif.got.tgz:2099.got - 2010.06.03 21:02:19.
