data_PCOD9393964
_publ_section_title
;
Structure prediction by ZEFSAII (Michael W. Deem and Ramdas Pophale) SiO2 
 PCOD9393964
Probable space group: P C C M
;
_chemical_formula_sum "Si O2"
_cell_formula_units_Z 48
_cell_length_a 31.246611
_cell_length_b 9.576407
_cell_length_c 8.700504
_cell_angle_alpha 90.000000
_cell_angle_beta 90.000000
_cell_angle_gamma 90.000000
_cell_volume 2603.454112
_symmetry_space_group_name_H-M "P C C M"
_symmetry_group_IT_number 49
_symmetry_cell_setting 'orthorhombic'
loop_
_space_group_symop_operation_xyz
x,y,z
-x,-y,z
x,-y,1/2-z
-x,y,1/2-z
-x,-y,-z
x,y,-z
-x,y,1/2+z
x,-y,1/2+z
loop_
_atom_site_type_symbol
_atom_site_label
_atom_site_fract_x
_atom_site_fract_y
_atom_site_fract_z
Si Si1 0.781807 0.155091 0.183854
Si Si2 0.546770 0.653502 0.184981
Si Si3 0.707304 0.344244 0.684592
Si Si4 0.626329 0.844513 0.814842
Si Si5 0.880856 0.845514 0.684000
Si Si6 0.955293 0.343965 0.683473
O O1 0.749446 0.265579 0.255767
O O2 0.831342 0.191428 0.218508
O O3 0.773421 0.000000 0.250000
O O4 0.776664 0.151181 0.000000
O O5 0.557800 0.500000 0.250000
O O6 0.500000 0.689954 0.250000
O O7 0.582759 0.764980 0.230474
O O8 0.544882 0.645592 0.000000
O O9 0.704251 0.500000 0.750000
O O10 0.707917 0.350606 0.500000
O O11 0.666560 0.250604 0.733132
O O12 0.628994 0.000000 0.750000
O O13 0.626947 0.852492 0.000000
O O14 0.886094 0.845223 0.500000
O O15 0.914871 0.743620 0.760440
O O16 0.887830 0.000000 0.750000
O O17 0.951421 0.500000 0.750000
O O18 0.957557 0.348581 0.500000
O O19 0.000000 0.285138 0.750000
#
# Coordination Sequence:
#
# PCOD9393964 Si02
#       6
#     8   8   8   8   8   8
#     4  10  21  38  60  85 115 149 185 229 279 333
#     4  10  20  36  57  83 112 145 185 227 276 329
#     4  11  23  39  59  84 113 147 188 232 280 333
#     4  10  23  39  57  82 112 147 186 229 278 332
#     4  10  21  38  59  85 115 148 187 230 279 332
#     4  11  22  38  59  83 113 149 189 233 282 334
#
# _framework density 18.437045000000001
#
# number of rings (size 3 to 8) (size 9 to 14) (size 15 to 20)
#    0.000    1.667    0.000    5.500    0.000    7.333 
#    0.000    3.333    0.000    0.000    0.000    0.000 
#    0.000    0.000    0.000    0.000    0.000    0.000 
#
# Total GULP energy -268266.661601 kJ/mol
# GULP energy per Si atom -5588.888783 kJ/mol
# Density = 1.839508 g / cm^3
# Si number density = 18.437045 Si / 1000 Ang^3
#
#
#
# Elastic Constant Matrix: (Units=GPa)
#
#
# Indices 1 2 3 4 5 6 
#
# 1 148.2858 123.5472 68.8855 0.0000 0.0000 0.0000
# 2 123.5472 151.1189 61.3764 0.0000 0.0000 0.0000
# 3 68.8855 61.3764 92.7604 0.0000 0.0000 0.0000
# 4 0.0000 0.0000 0.0000 38.1407 0.0000 0.0000
# 5 0.0000 0.0000 0.0000 0.0000 29.8636 0.0000
# 6 0.0000 0.0000 0.0000 0.0000 0.0000 51.7298
#
#
#
# Elastic Compliance Matrix: (Units=1/GPa)
#
#
# Indices 1 2 3 4 5 6 
#
# 1 0.023741 -0.016750 -0.006548 0.000000 0.000000 0.000000
# 2 -0.016750 0.020867 -0.001368 0.000000 0.000000 0.000000
# 3 -0.006548 -0.001368 0.016548 0.000000 0.000000 0.000000
# 4 0.000000 0.000000 0.000000 0.026219 0.000000 0.000000
# 5 0.000000 0.000000 0.000000 0.000000 0.033486 0.000000
# 6 0.000000 0.000000 0.000000 0.000000 0.000000 0.019331
#
#
# Mechanical properties :
#
#
# Convention : Reuss Voigt Hill
#
# Bulk Modulus (GPa) = 84.56950 99.97592 92.27271
# Shear Modulus (GPa) = 25.84443 33.17056 29.50749
#
# Velocity S-wave (km/s) = 3.74808 4.24621 4.00490
# Velocity P-wave (km/s) = 8.04361 8.85346 8.45823
#
# Compressibility (1/GPa) = 0.01182459
#
# Stress axis : x y z
#
# Youngs Moduli (GPa) = 42.12065 47.92206 60.43064
#
# Poissons Ratio (x) = 0.80272 0.39567
# Poissons Ratio (y) = 0.70554 0.08267
# Poissons Ratio (z) = 0.27579 0.06555
#
# Static dielectric constant tensor:
#      x y z
#    x 1.633820 0.000000 0.000000 
#    y 0.000000 1.584100 0.000000 
#    z 0.000000 0.000000 1.618160 
# 
# From -- ./inp_files/2039.got.cif
#   From: 2010.05.17/outbox.cif.g08.bks.cpg/sg49_2_cif.got.tgz:2039.got - 2010.06.03 21:02:19.
