data_PCOD9393904
_publ_section_title
;
Structure prediction by ZEFSAII (Michael W. Deem and Ramdas Pophale) SiO2 
 PCOD9393904
Probable space group: P C C M
;
_chemical_formula_sum "Si O2"
_cell_formula_units_Z 64
_cell_length_a 16.738473
_cell_length_b 10.581280
_cell_length_c 18.496264
_cell_angle_alpha 90.000000
_cell_angle_beta 90.000000
_cell_angle_gamma 90.000000
_cell_volume 3275.955988
_symmetry_space_group_name_H-M "P C C M"
_symmetry_group_IT_number 49
_symmetry_cell_setting 'orthorhombic'
loop_
_space_group_symop_operation_xyz
x,y,z
-x,-y,z
x,-y,1/2-z
-x,y,1/2-z
-x,-y,-z
x,y,-z
-x,y,1/2+z
x,-y,1/2+z
loop_
_atom_site_type_symbol
_atom_site_label
_atom_site_fract_x
_atom_site_fract_y
_atom_site_fract_z
Si Si1 0.533662 0.314155 0.673582
Si Si2 0.751368 0.702539 0.414986
Si Si3 0.095340 0.352718 0.333936
Si Si4 0.344126 0.457279 0.082628
Si Si5 0.088083 0.651216 0.661109
Si Si6 0.770416 0.211508 0.417442
Si Si7 0.409346 0.147156 0.415197
Si Si8 0.354163 0.925862 0.323984
O O1 0.500000 0.355540 0.750000
O O2 0.580704 0.422265 0.630993
O O3 0.466608 0.248199 0.623596
O O4 0.597285 0.202284 0.691027
O O5 0.769961 0.687200 0.500000
O O6 0.832990 0.720614 0.372054
O O7 0.708391 0.573298 0.389283
O O8 0.682477 0.806259 0.407807
O O9 0.102536 0.501982 0.353888
O O10 0.101530 0.337717 0.247400
O O11 0.004589 0.317843 0.354244
O O12 0.288439 0.333300 0.080675
O O13 0.368460 0.487853 0.000000
O O14 0.147851 0.738297 0.616739
O O15 0.779701 0.166758 0.500000
O O16 0.725692 0.110908 0.367098
O O17 0.429072 0.138319 0.500000
O O18 0.408835 0.013216 0.375288
O O19 0.339281 0.000000 0.250000
#
# Coordination Sequence:
#
# PCOD9393904 Si02
#       8
#     8   8   8   8   8   8   8   8
#     4  11  22  38  59  83 113 143 194 250 290 340
#     4  10  21  37  57  83 118 154 191 233 281 351
#     4   9  18  33  54  85 125 155 185 230 283 343
#     4   9  19  36  56  82 117 153 186 231 292 347
#     4   9  18  32  55  88 121 154 188 230 282 340
#     4  10  20  35  58  89 118 150 194 241 290 347
#     4  11  24  39  58  82 111 154 197 238 292 344
#     4  11  23  39  61  84 113 146 193 253 296 337
#
# _framework density 19.536282
#
# number of rings (size 3 to 8) (size 9 to 14) (size 15 to 20)
#    0.000    2.000    2.500    1.875    1.750    3.000 
#    0.000    3.750    0.000    0.750    0.000    2.625 
#    0.000    0.000    0.000    0.000    0.000    0.000 
#
# Total GULP energy -357610.095611 kJ/mol
# GULP energy per Si atom -5587.657744 kJ/mol
# Density = 1.949182 g / cm^3
# Si number density = 19.536282 Si / 1000 Ang^3
#
#
#
# Elastic Constant Matrix: (Units=GPa)
#
#
# Indices 1 2 3 4 5 6 
#
# 1 128.0386 20.7115 69.6210 0.0000 0.0000 0.0000
# 2 20.7115 39.3306 28.0760 0.0000 0.0000 0.0000
# 3 69.6210 28.0760 105.3128 0.0000 0.0000 0.0000
# 4 0.0000 0.0000 0.0000 18.1313 0.0000 0.0000
# 5 0.0000 0.0000 0.0000 0.0000 36.9802 0.0000
# 6 0.0000 0.0000 0.0000 0.0000 0.0000 20.4403
#
#
#
# Elastic Compliance Matrix: (Units=1/GPa)
#
#
# Indices 1 2 3 4 5 6 
#
# 1 0.012215 -0.000825 -0.007855 0.000000 0.000000 0.000000
# 2 -0.000825 0.031457 -0.007841 0.000000 0.000000 0.000000
# 3 -0.007855 -0.007841 0.016779 0.000000 0.000000 0.000000
# 4 0.000000 0.000000 0.000000 0.055153 0.000000 0.000000
# 5 0.000000 0.000000 0.000000 0.000000 0.027041 0.000000
# 6 0.000000 0.000000 0.000000 0.000000 0.000000 0.048923
#
#
# Mechanical properties :
#
#
# Convention : Reuss Voigt Hill
#
# Bulk Modulus (GPa) = 36.48483 56.61100 46.54792
# Shear Modulus (GPa) = 21.39067 25.39528 23.39298
#
# Velocity S-wave (km/s) = 3.31255 3.60933 3.46412
# Velocity P-wave (km/s) = 5.77465 6.81248 6.31492
#
# Compressibility (1/GPa) = 0.02740865
#
# Stress axis : x y z
#
# Youngs Moduli (GPa) = 81.86775 31.78922 59.59891
#
# Poissons Ratio (x) = 0.02623 0.46816
# Poissons Ratio (y) = 0.06754 0.46732
# Poissons Ratio (z) = 0.64308 0.24926
#
# Static dielectric constant tensor:
#      x y z
#    x 1.676170 0.000000 0.000000 
#    y 0.000000 1.690170 0.000000 
#    z 0.000000 0.000000 1.669830 
# 
# From -- ./inp_files/18219.got.cif
#   From: 2010.05.17/outbox.cif.g08.bks.cpg/sg49_10_cif.got.tgz:18219.got - 2010.06.03 21:02:19.
