data_PCOD9393173
_publ_section_title
;
Structure prediction by ZEFSAII (Michael W. Deem and Ramdas Pophale) SiO2 
 PCOD9393173
Probable space group: P C C M
;
_chemical_formula_sum "Si O2"
_cell_formula_units_Z 64
_cell_length_a 14.652282
_cell_length_b 32.222369
_cell_length_c 8.716274
_cell_angle_alpha 90.000000
_cell_angle_beta 90.000000
_cell_angle_gamma 90.000000
_cell_volume 4115.225228
_symmetry_space_group_name_H-M "P C C M"
_symmetry_group_IT_number 49
_symmetry_cell_setting 'orthorhombic'
loop_
_space_group_symop_operation_xyz
x,y,z
-x,-y,z
x,-y,1/2-z
-x,y,1/2-z
-x,-y,-z
x,y,-z
-x,y,1/2+z
x,-y,1/2+z
loop_
_atom_site_type_symbol
_atom_site_label
_atom_site_fract_x
_atom_site_fract_y
_atom_site_fract_z
Si Si1 0.602863 0.218665 0.316859
Si Si2 0.708318 0.543988 0.184332
Si Si3 0.902348 0.325949 0.684096
Si Si4 0.603133 0.041993 0.816552
Si Si5 0.283907 0.704973 0.816217
Si Si6 0.602959 0.867243 0.315833
Si Si7 0.398946 0.377605 0.316198
Si Si8 0.096420 0.576536 0.316048
O O1 0.500000 0.223266 0.250000
O O2 0.597185 0.218279 0.500000
O O3 0.664306 0.256313 0.258067
O O4 0.642146 0.174586 0.257015
O O5 0.677336 0.500000 0.250000
O O6 0.648195 0.581784 0.246156
O O7 0.813310 0.552337 0.234470
O O8 0.705401 0.543713 0.000000
O O9 0.901811 0.323330 0.500000
O O10 0.818021 0.301031 0.753599
O O11 0.891767 0.374847 0.727258
O O12 0.000000 0.312426 0.750000
O O13 0.500000 0.042940 0.750000
O O14 0.644309 0.087355 0.778754
O O15 0.646792 0.000000 0.750000
O O16 0.597842 0.038615 0.000000
O O17 0.339234 0.662922 0.777205
O O18 0.283242 0.709386 0.000000
O O19 0.500000 0.868550 0.250000
O O20 0.599719 0.863090 0.500000
O O21 0.500000 0.372726 0.250000
O O22 0.402490 0.381305 0.500000
O O23 0.091518 0.574634 0.500000
O O24 0.000000 0.561670 0.250000
#
# Coordination Sequence:
#
# PCOD9393173 Si02
#       8
#     8   8   8   8   8   8   8   8
#     4  11  21  32  47  67  93 126 162 202 245 289
#     4  11  23  40  58  79 104 130 159 192 229 273
#     4  10  19  34  55  80 105 130 157 188 229 274
#     4   9  15  21  32  49  71 102 143 192 241 286
#     4  11  22  36  55  78 101 127 158 194 236 282
#     4   9  16  26  38  54  79 112 151 196 243 288
#     4  11  24  40  59  79  99 126 158 195 235 276
#     4   9  19  34  55  79 105 132 155 186 223 267
#
# _framework density 15.552002999999999
#
# number of rings (size 3 to 8) (size 9 to 14) (size 15 to 20)
#    0.000    1.875    1.250    4.875    0.000    6.000 
#    0.000    2.500    0.000    0.000    0.000    0.000 
#    0.000    0.000    0.000    0.000    0.000    0.625 
#
# Total GULP energy -357076.013551 kJ/mol
# GULP energy per Si atom -5579.312712 kJ/mol
# Density = 1.551661 g / cm^3
# Si number density = 15.552003 Si / 1000 Ang^3
#
#
#
# Elastic Constant Matrix: (Units=GPa)
#
#
# Indices 1 2 3 4 5 6 
#
# 1 78.9342 49.3755 33.7134 0.0000 0.0000 0.0000
# 2 49.3755 143.6207 58.6267 0.0000 0.0000 0.0000
# 3 33.7134 58.6267 72.7481 0.0000 0.0000 0.0000
# 4 0.0000 0.0000 0.0000 26.8436 0.0000 0.0000
# 5 0.0000 0.0000 0.0000 0.0000 22.9702 0.0000
# 6 0.0000 0.0000 0.0000 0.0000 0.0000 0.1980
#
#
#
# Elastic Compliance Matrix: (Units=1/GPa)
#
#
# Indices 1 2 3 4 5 6 
#
# 1 0.017184 -0.003959 -0.004773 0.000000 0.000000 0.000000
# 2 -0.003959 0.011289 -0.007262 0.000000 0.000000 0.000000
# 3 -0.004773 -0.007262 0.021810 0.000000 0.000000 0.000000
# 4 0.000000 0.000000 0.000000 0.037253 0.000000 0.000000
# 5 0.000000 0.000000 0.000000 0.000000 0.043535 0.000000
# 6 0.000000 0.000000 0.000000 0.000000 0.000000 5.051504
#
#
# Mechanical properties :
#
#
# Convention : Reuss Voigt Hill
#
# Bulk Modulus (GPa) = 54.66251 64.30377 59.48314
# Shear Modulus (GPa) = 0.95773 20.24151 10.59962
#
# Velocity S-wave (km/s) = 0.78560 3.61160 2.61350
# Velocity P-wave (km/s) = 6.00395 7.67000 6.88753
#
# Compressibility (1/GPa) = 0.01829407
#
# Stress axis : x y z
#
# Youngs Moduli (GPa) = 58.19377 88.58540 45.84957
#
# Poissons Ratio (x) = 0.35075 0.21882
# Poissons Ratio (y) = 0.23042 0.33298
# Poissons Ratio (z) = 0.27774 0.64334
#
# Static dielectric constant tensor:
#      x y z
#    x 1.494010 0.000000 0.000000 
#    y 0.000000 1.553960 0.000000 
#    z 0.000000 0.000000 1.519950 
# 
# From -- ./inp_files/4536.got.cif
#   From: 2010.05.17/outbox.cif.g08.bks.cpg/sg49_3_cif.got.tgz:4536.got - 2010.06.03 21:02:19.
