data_PCOD9393279
_publ_section_title
;
Structure prediction by ZEFSAII (Michael W. Deem and Ramdas Pophale) SiO2 
 PCOD9393279
Probable space group: P C C M
;
_chemical_formula_sum "Si O2"
_cell_formula_units_Z 64
_cell_length_a 12.935603
_cell_length_b 15.075199
_cell_length_c 15.085793
_cell_angle_alpha 90.000000
_cell_angle_beta 90.000000
_cell_angle_gamma 90.000000
_cell_volume 2941.832059
_symmetry_space_group_name_H-M "P C C M"
_symmetry_group_IT_number 49
_symmetry_cell_setting 'orthorhombic'
loop_
_space_group_symop_operation_xyz
x,y,z
-x,-y,z
x,-y,1/2-z
-x,y,1/2-z
-x,-y,-z
x,y,-z
-x,y,1/2+z
x,-y,1/2+z
loop_
_atom_site_type_symbol
_atom_site_label
_atom_site_fract_x
_atom_site_fract_y
_atom_site_fract_z
Si Si1 0.610875 0.795645 0.133802
Si Si2 0.119424 0.485821 0.357811
Si Si3 0.892471 0.959293 0.892234
Si Si4 0.789916 0.336420 0.632455
Si Si5 0.671308 0.999381 0.604138
Si Si6 0.813845 0.707185 0.660737
Si Si7 0.612857 0.188948 0.844732
Si Si8 0.021915 0.221161 0.100948
O O1 0.696060 0.725632 0.099521
O O2 0.637581 0.898145 0.111759
O O3 0.491844 0.777886 0.108926
O O4 0.610939 0.790666 0.240399
O O5 0.115721 0.500000 0.250000
O O6 0.202922 0.559480 0.387893
O O7 0.157167 0.387342 0.382540
O O8 0.000000 0.500000 0.387202
O O9 0.788586 0.003746 0.859926
O O10 0.903049 0.857155 0.866994
O O11 0.886999 0.964269 0.000000
O O12 0.000000 0.000000 0.863203
O O13 0.790947 0.319503 0.738058
O O14 0.902119 0.303646 0.600741
O O15 0.668894 0.977909 0.500000
O O16 0.612196 0.918295 0.648648
O O17 0.718252 0.763987 0.622713
O O18 0.919035 0.763995 0.655987
O O19 0.988996 0.199646 0.000000
#
# Coordination Sequence:
#
# PCOD9393279 Si02
#       8
#     8   8   8   8   8   8   8   8
#     4  10  21  38  56  77 109 143 182 225 269 311
#     4   9  16  30  55  82 106 137 176 219 265 318
#     4   9  18  31  47  70 103 137 168 210 263 309
#     4  10  19  35  57  78 106 141 181 218 265 321
#     4  11  21  35  56  80 106 142 186 222 261 318
#     4  10  20  35  56  79 108 142 181 217 266 326
#     4  10  22  37  55  78 108 145 180 226 271 309
#     4  11  20  32  52  78 111 142 172 218 269 316
#
# _framework density 21.75515
#
# number of rings (size 3 to 8) (size 9 to 14) (size 15 to 20)
#    0.000    2.000    2.500    1.875    0.000    3.500 
#    0.000    1.875    0.000    3.750    0.000    0.000 
#    0.000    4.000    0.000    0.000    0.000    0.000 
#
# Total GULP energy -357088.351084 kJ/mol
# GULP energy per Si atom -5579.505486 kJ/mol
# Density = 2.170563 g / cm^3
# Si number density = 21.755150 Si / 1000 Ang^3
#
#
#
# Elastic Constant Matrix: (Units=GPa)
#
#
# Indices 1 2 3 4 5 6 
#
# 1 145.4442 42.5932 6.9871 0.0000 0.0000 0.0000
# 2 42.5932 86.7959 3.5280 0.0000 0.0000 0.0000
# 3 6.9871 3.5280 48.6537 0.0000 0.0000 0.0000
# 4 0.0000 0.0000 0.0000 -7.5706 0.0000 0.0000
# 5 0.0000 0.0000 0.0000 0.0000 -8.5619 0.0000
# 6 0.0000 0.0000 0.0000 0.0000 0.0000 19.8887
#
#
#
# Elastic Compliance Matrix: (Units=1/GPa)
#
#
# Indices 1 2 3 4 5 6 
#
# 1 0.008066 -0.003923 -0.000874 0.000000 0.000000 0.000000
# 2 -0.003923 0.013463 -0.000413 0.000000 0.000000 0.000000
# 3 -0.000874 -0.000413 0.020709 0.000000 0.000000 0.000000
# 4 0.000000 0.000000 0.000000 -0.132090 0.000000 0.000000
# 5 0.000000 0.000000 0.000000 0.000000 -0.116797 0.000000
# 6 0.000000 0.000000 0.000000 0.000000 0.000000 0.050280
#
#
# Mechanical properties :
#
#
# Convention : Reuss Voigt Hill
#
# Bulk Modulus (GPa) = 31.42784 43.01228 37.22006
# Shear Modulus (GPa) = -36.94311 15.93695 -10.50308
#
# Velocity S-wave (km/s) = -4.12531 2.70952 -2.19962
# Velocity P-wave (km/s) = 2.86590 5.44083 3.27027
#
# Compressibility (1/GPa) = 0.03181892
#
# Stress axis : x y z
#
# Youngs Moduli (GPa) = 123.97302 74.27708 48.28852
#
# Poissons Ratio (x) = 0.29138 0.04220
# Poissons Ratio (y) = 0.48632 0.01994
# Poissons Ratio (z) = 0.10834 0.03067
#
# Static dielectric constant tensor:
#      x y z
#    x 1.803220 0.000000 0.000000 
#    y 0.000000 1.878730 0.000000 
#    z 0.000000 0.000000 1.847220 
# 
# From -- ./inp_files/17272.got.cif
#   From: 2010.05.17/outbox.cif.g08.bks.cpg/sg49_9_cif.got.tgz:17272.got - 2010.06.03 21:02:19.
