data_PCOD9393586
_publ_section_title
;
Structure prediction by ZEFSAII (Michael W. Deem and Ramdas Pophale) SiO2 
 PCOD9393586
Probable space group: P C C M
;
_chemical_formula_sum "Si O2"
_cell_formula_units_Z 64
_cell_length_a 19.527587
_cell_length_b 10.096429
_cell_length_c 15.620775
_cell_angle_alpha 90.000000
_cell_angle_beta 90.000000
_cell_angle_gamma 90.000000
_cell_volume 3079.774749
_symmetry_space_group_name_H-M "P C C M"
_symmetry_group_IT_number 49
_symmetry_cell_setting 'orthorhombic'
loop_
_space_group_symop_operation_xyz
x,y,z
-x,-y,z
x,-y,1/2-z
-x,y,1/2-z
-x,-y,-z
x,y,-z
-x,y,1/2+z
x,-y,1/2+z
loop_
_atom_site_type_symbol
_atom_site_label
_atom_site_fract_x
_atom_site_fract_y
_atom_site_fract_z
Si Si1 0.840553 0.269097 0.369828
Si Si2 0.922291 0.007935 0.402187
Si Si3 0.076853 0.521269 0.853774
Si Si4 0.309562 0.352508 0.099369
Si Si5 0.840163 0.771036 0.667049
Si Si6 0.420918 0.148141 0.895174
Si Si7 0.421858 0.847355 0.895707
Si Si8 0.301476 0.654140 0.103571
O O1 0.873264 0.410737 0.391009
O O2 0.762145 0.274211 0.398635
O O3 0.838904 0.251674 0.267976
O O4 0.890163 0.153959 0.402244
O O5 0.926023 0.959432 0.500000
O O6 0.869089 0.914918 0.353129
O O7 0.000000 0.000000 0.366824
O O8 0.076665 0.500000 0.750000
O O9 0.105874 0.665827 0.871305
O O10 0.000000 0.500000 0.883986
O O11 0.368364 0.258663 0.137286
O O12 0.300936 0.501397 0.135503
O O13 0.328460 0.372649 0.000000
O O14 0.765901 0.733019 0.632199
O O15 0.499403 0.176009 0.869880
O O16 0.402972 0.997504 0.868961
O O17 0.418908 0.148236 0.000000
O O18 0.368250 0.736212 0.867847
O O19 0.421259 0.846769 0.000000
O O20 0.300769 0.651550 0.000000
#
# Coordination Sequence:
#
# PCOD9393586 Si02
#       8
#     8   8   8   8   8   8   8   8
#     4  11  22  38  59  84 115 151 191 233 279 339
#     4  11  25  43  61  85 116 147 184 235 291 342
#     4   9  18  34  57  81 106 141 186 232 273 319
#     4  10  20  33  52  81 116 150 187 235 286 335
#     4  11  22  38  59  84 115 151 191 233 279 339
#     4   8  15  29  50  77 108 145 190 236 282 332
#     4   8  15  29  50  77 108 145 190 236 282 332
#     4  10  20  33  52  81 116 150 187 235 286 335
#
# _framework density 20.780739000000001
#
# number of rings (size 3 to 8) (size 9 to 14) (size 15 to 20)
#    0.000    2.250    1.250    2.625    1.750    2.500 
#    0.000    2.500    0.000    3.750    0.000    3.500 
#    0.000    0.000    0.000    0.000    0.000    0.000 
#
# Total GULP energy -357313.420632 kJ/mol
# GULP energy per Si atom -5583.022197 kJ/mol
# Density = 2.073344 g / cm^3
# Si number density = 20.780739 Si / 1000 Ang^3
#
#
#
# Elastic Constant Matrix: (Units=GPa)
#
#
# Indices 1 2 3 4 5 6 
#
# 1 132.4127 53.7577 4.0965 0.0000 0.0000 0.0000
# 2 53.7577 90.9989 6.7105 0.0000 0.0000 0.0000
# 3 4.0965 6.7105 37.1174 0.0000 0.0000 0.0000
# 4 0.0000 0.0000 0.0000 8.2411 0.0000 0.0000
# 5 0.0000 0.0000 0.0000 0.0000 20.6883 0.0000
# 6 0.0000 0.0000 0.0000 0.0000 0.0000 40.2811
#
#
#
# Elastic Compliance Matrix: (Units=1/GPa)
#
#
# Indices 1 2 3 4 5 6 
#
# 1 0.009935 -0.005866 -0.000036 0.000000 0.000000 0.000000
# 2 -0.005866 0.014602 -0.001992 0.000000 0.000000 0.000000
# 3 -0.000036 -0.001992 0.027306 0.000000 0.000000 0.000000
# 4 0.000000 0.000000 0.000000 0.121343 0.000000 0.000000
# 5 0.000000 0.000000 0.000000 0.000000 0.048336 0.000000
# 6 0.000000 0.000000 0.000000 0.000000 0.000000 0.024826
#
#
# Mechanical properties :
#
#
# Convention : Reuss Voigt Hill
#
# Bulk Modulus (GPa) = 27.73704 43.29538 35.51621
# Shear Modulus (GPa) = 18.23794 26.90641 22.57217
#
# Velocity S-wave (km/s) = 2.96571 3.60220 3.29934
# Velocity P-wave (km/s) = 5.01036 6.17906 5.62514
#
# Compressibility (1/GPa) = 0.03605288
#
# Stress axis : x y z
#
# Youngs Moduli (GPa) = 100.65473 68.48532 36.62242
#
# Poissons Ratio (x) = 0.40176 0.00131
# Poissons Ratio (y) = 0.59048 0.07297
# Poissons Ratio (z) = 0.00361 0.13645
#
# Static dielectric constant tensor:
#      x y z
#    x 1.716540 0.000000 0.000000 
#    y 0.000000 1.723880 0.000000 
#    z 0.000000 0.000000 1.770590 
# 
# From -- ./inp_files/18293.got.cif
#   From: 2010.05.17/outbox.cif.g08.bks.cpg/sg49_10_cif.got.tgz:18293.got - 2010.06.03 21:02:19.
