data_PCOD9393130
_publ_section_title
;
Structure prediction by ZEFSAII (Michael W. Deem and Ramdas Pophale) SiO2 
 PCOD9393130
Probable space group: P C C M
;
_chemical_formula_sum "Si O2"
_cell_formula_units_Z 34
_cell_length_a 8.227834
_cell_length_b 8.319914
_cell_length_c 22.135238
_cell_angle_alpha 90.000000
_cell_angle_beta 90.000000
_cell_angle_gamma 90.000000
_cell_volume 1515.264868
_symmetry_space_group_name_H-M "P C C M"
_symmetry_group_IT_number 49
_symmetry_cell_setting 'orthorhombic'
loop_
_space_group_symop_operation_xyz
x,y,z
-x,-y,z
x,-y,1/2-z
-x,y,1/2-z
-x,-y,-z
x,y,-z
-x,y,1/2+z
x,-y,1/2+z
loop_
_atom_site_type_symbol
_atom_site_label
_atom_site_fract_x
_atom_site_fract_y
_atom_site_fract_z
Si Si1 0.500000 0.000000 0.109720
Si Si2 0.000000 0.000000 0.332862
Si Si3 0.794379 0.814646 0.067381
Si Si4 0.283092 0.241369 0.678221
Si Si5 0.809370 0.458063 0.933425
Si Si6 0.500000 0.500000 0.750000
O O1 0.358272 0.069777 0.069311
O O2 0.572762 0.131512 0.154155
O O3 0.864326 0.881034 0.301434
O O4 0.095498 0.879349 0.378230
O O5 0.732839 0.633097 0.078297
O O6 0.871552 0.817468 0.000000
O O7 0.219800 0.334517 0.619147
O O8 0.370683 0.376409 0.718703
O O9 0.000000 0.500000 0.934906
O O10 0.758813 0.399929 0.000000
#
# Coordination Sequence:
#
# PCOD9393130 Si02
#       6
#     4   4   8   8   8   2
#     4  10  23  39  64  94 140 178 223 291 346 422
#     4  10  21  38  68  99 134 172 225 291 336 414
#     4  10  19  33  58  99 142 182 219 267 339 415
#     4  11  24  46  73  99 139 179 238 285 354 414
#     4  10  20  37  67 103 140 177 222 279 339 415
#     4  12  28  50  80  96 136 192 240 306 352 424
#
# _framework density 22.438320000000001
#
# number of rings (size 3 to 8) (size 9 to 14) (size 15 to 20)
#    0.000    1.647    2.353    2.118    0.000    5.176 
#    0.000    3.529    5.176    0.000    0.000    0.000 
#    0.000    0.000    0.000    0.000    0.000    0.000 
#
# Total GULP energy -189643.829177 kJ/mol
# GULP energy per Si atom -5577.759682 kJ/mol
# Density = 2.238725 g / cm^3
# Si number density = 22.438320 Si / 1000 Ang^3
#
#
#
# Elastic Constant Matrix: (Units=GPa)
#
#
# Indices 1 2 3 4 5 6 
#
# 1 75.4138 40.1265 50.2599 0.0000 0.0000 0.0000
# 2 40.1265 146.0838 77.6257 0.0000 0.0000 0.0000
# 3 50.2599 77.6257 69.3759 0.0000 0.0000 0.0000
# 4 0.0000 0.0000 0.0000 -206.5711 0.0000 0.0000
# 5 0.0000 0.0000 0.0000 0.0000 30.8190 0.0000
# 6 0.0000 0.0000 0.0000 0.0000 0.0000 44.7062
#
#
#
# Elastic Compliance Matrix: (Units=1/GPa)
#
#
# Indices 1 2 3 4 5 6 
#
# 1 0.028884 0.007857 -0.029716 0.000000 0.000000 0.000000
# 2 0.007857 0.019021 -0.026975 0.000000 0.000000 0.000000
# 3 -0.029716 -0.026975 0.066125 0.000000 0.000000 0.000000
# 4 0.000000 0.000000 0.000000 -0.004841 0.000000 0.000000
# 5 0.000000 0.000000 0.000000 0.000000 0.032447 0.000000
# 6 0.000000 0.000000 0.000000 0.000000 0.000000 0.022368
#
#
# Mechanical properties :
#
#
# Convention : Reuss Voigt Hill
#
# Bulk Modulus (GPa) = 61.11969 69.65531 65.38750
# Shear Modulus (GPa) = 18.71760 -18.01843 0.34959
#
# Velocity S-wave (km/s) = 2.89135 -2.83684 0.39514
# Velocity P-wave (km/s) = 6.20038 4.51445 5.42332
#
# Compressibility (1/GPa) = 0.01636134
#
# Stress axis : x y z
#
# Youngs Moduli (GPa) = 34.62070 52.57317 15.12288
#
# Poissons Ratio (x) = -0.41305 0.44940
# Poissons Ratio (y) = -0.27200 0.40794
# Poissons Ratio (z) = 1.02880 1.41815
#
# Static dielectric constant tensor:
#      x y z
#    x 1.871460 0.000000 0.000000 
#    y 0.000000 2.240440 0.000000 
#    z 0.000000 0.000000 1.862820 
# 
# From -- ./inp_files/19465.got.cif
#   From: 2010.05.17/outbox.cif.g08.bks.cpg/sg49_10_cif.got.tgz:19465.got - 2010.06.03 21:02:19.
