data_PCOD9393676
_publ_section_title
;
Structure prediction by ZEFSAII (Michael W. Deem and Ramdas Pophale) SiO2 
 PCOD9393676
Probable space group: P C C M
;
_chemical_formula_sum "Si O2"
_cell_formula_units_Z 42
_cell_length_a 10.054490
_cell_length_b 26.494650
_cell_length_c 9.039581
_cell_angle_alpha 90.000000
_cell_angle_beta 90.000000
_cell_angle_gamma 90.000000
_cell_volume 2408.055732
_symmetry_space_group_name_H-M "P C C M"
_symmetry_group_IT_number 49
_symmetry_cell_setting 'orthorhombic'
loop_
_space_group_symop_operation_xyz
x,y,z
-x,-y,z
x,-y,1/2-z
-x,y,1/2-z
-x,-y,-z
x,y,-z
-x,y,1/2+z
x,-y,1/2+z
loop_
_atom_site_type_symbol
_atom_site_label
_atom_site_fract_x
_atom_site_fract_y
_atom_site_fract_z
Si Si1 0.146926 0.337307 0.677269
Si Si2 0.646209 0.260535 0.322656
Si Si3 0.742185 0.951389 0.664781
Si Si4 0.356059 0.145067 0.824481
Si Si5 0.146221 0.548893 0.823971
Si Si6 0.000000 0.000000 0.750000
O O1 0.135954 0.329965 0.500000
O O2 0.248386 0.298216 0.750099
O O3 0.199928 0.394742 0.701820
O O4 0.000000 0.332968 0.750000
O O5 0.500000 0.266755 0.250000
O O6 0.637178 0.267945 0.500000
O O7 0.690434 0.202384 0.295812
O O8 0.687418 0.946438 0.500000
O O9 0.727002 0.900143 0.754622
O O10 0.681422 0.000000 0.750000
O O11 0.898027 0.965740 0.659664
O O12 0.500000 0.140960 0.750000
O O13 0.365765 0.138486 0.000000
O O14 0.214178 0.500000 0.750000
O O15 0.000000 0.550985 0.750000
O O16 0.135264 0.541153 0.000000
#
# Coordination Sequence:
#
# PCOD9393676 Si02
#       6
#     8   8   8   8   8   2
#     4  10  20  34  53  80 112 144 182 228 273 323
#     4  10  21  38  59  81 107 144 183 225 274 329
#     4  10  20  35  56  78 104 136 169 207 252 303
#     4  10  21  37  57  80 105 132 172 216 259 310
#     4   9  16  26  44  71 103 139 177 218 267 318
#     4   8  22  36  56  76 106 136 174 202 252 308
#
# _framework density 17.441457
#
# number of rings (size 3 to 8) (size 9 to 14) (size 15 to 20)
#    0.571    1.714    0.000    3.714    0.000    4.952 
#    1.714    1.905    0.000    0.571    0.000    4.000 
#    0.000    0.000    0.000    0.000    0.000    0.000 
#
# Total GULP energy -233853.936792 kJ/mol
# GULP energy per Si atom -5567.950876 kJ/mol
# Density = 1.740176 g / cm^3
# Si number density = 17.441457 Si / 1000 Ang^3
#
#
#
# Elastic Constant Matrix: (Units=GPa)
#
#
# Indices 1 2 3 4 5 6 
#
# 1 50.4968 68.6327 37.8857 0.0000 0.0000 0.0000
# 2 68.6327 177.0752 98.6315 0.0000 0.0000 0.0000
# 3 37.8857 98.6315 131.3518 0.0000 0.0000 0.0000
# 4 0.0000 0.0000 0.0000 29.9231 0.0000 0.0000
# 5 0.0000 0.0000 0.0000 0.0000 24.3907 0.0000
# 6 0.0000 0.0000 0.0000 0.0000 0.0000 48.8033
#
#
#
# Elastic Compliance Matrix: (Units=1/GPa)
#
#
# Indices 1 2 3 4 5 6 
#
# 1 0.041852 -0.016326 0.000188 0.000000 0.000000 0.000000
# 2 -0.016326 0.016076 -0.007363 0.000000 0.000000 0.000000
# 3 0.000188 -0.007363 0.013088 0.000000 0.000000 0.000000
# 4 0.000000 0.000000 0.000000 0.033419 0.000000 0.000000
# 5 0.000000 0.000000 0.000000 0.000000 0.040999 0.000000
# 6 0.000000 0.000000 0.000000 0.000000 0.000000 0.020490
#
#
# Mechanical properties :
#
#
# Convention : Reuss Voigt Hill
#
# Bulk Modulus (GPa) = 41.64259 85.46930 63.55594
# Shear Modulus (GPa) = 22.63161 30.87500 26.75330
#
# Velocity S-wave (km/s) = 3.60610 4.21195 3.92074
# Velocity P-wave (km/s) = 6.42386 8.53018 7.55083
#
# Compressibility (1/GPa) = 0.02401388
#
# Stress axis : x y z
#
# Youngs Moduli (GPa) = 23.89391 62.20422 76.40878
#
# Poissons Ratio (x) = 1.01554 -0.01435
# Poissons Ratio (y) = 0.39009 0.56257
# Poissons Ratio (z) = -0.00449 0.45798
#
# Static dielectric constant tensor:
#      x y z
#    x 1.575030 0.000000 0.000000 
#    y 0.000000 1.629700 0.000000 
#    z 0.000000 0.000000 1.606110 
# 
# From -- ./inp_files/2831.got.cif
#   From: 2010.05.17/outbox.cif.g08.bks.cpg/sg49_2_cif.got.tgz:2831.got - 2010.06.03 21:02:19.
