data_PCOD9393145
_publ_section_title
;
Structure prediction by ZEFSAII (Michael W. Deem and Ramdas Pophale) SiO2 
 PCOD9393145
Probable space group: P C C M
;
_chemical_formula_sum "Si O2"
_cell_formula_units_Z 56
_cell_length_a 9.630725
_cell_length_b 17.275692
_cell_length_c 14.237616
_cell_angle_alpha 90.000000
_cell_angle_beta 90.000000
_cell_angle_gamma 90.000000
_cell_volume 2368.818085
_symmetry_space_group_name_H-M "P C C M"
_symmetry_group_IT_number 49
_symmetry_cell_setting 'orthorhombic'
loop_
_space_group_symop_operation_xyz
x,y,z
-x,-y,z
x,-y,1/2-z
-x,y,1/2-z
-x,-y,-z
x,y,-z
-x,y,1/2+z
x,-y,1/2+z
loop_
_atom_site_type_symbol
_atom_site_label
_atom_site_fract_x
_atom_site_fract_y
_atom_site_fract_z
Si Si1 0.596493 0.563789 0.603340
Si Si2 0.852579 0.470195 0.644107
Si Si3 0.797329 0.857737 0.608431
Si Si4 0.888374 0.859897 0.885194
Si Si5 0.348433 0.022963 0.107834
Si Si6 0.745064 0.297377 0.612965
Si Si7 0.428463 0.733886 0.885205
O O1 0.500000 0.500000 0.651413
O O2 0.530997 0.578925 0.500000
O O3 0.737831 0.519796 0.593321
O O4 0.621218 0.648126 0.644012
O O5 0.846068 0.500000 0.750000
O O6 0.807595 0.380343 0.642317
O O7 0.000000 0.500000 0.607873
O O8 0.819494 0.831080 0.500000
O O9 0.681428 0.798410 0.648505
O O10 0.952661 0.868739 0.647783
O O11 0.731131 0.942138 0.605532
O O12 0.762199 0.915572 0.850185
O O13 0.846976 0.772331 0.863161
O O14 0.889023 0.871937 0.000000
O O15 0.500000 0.000000 0.147332
O O16 0.377303 0.050732 0.000000
O O17 0.737186 0.301793 0.500000
O O18 0.590371 0.270255 0.644384
O O19 0.429865 0.742415 0.000000
#
# Coordination Sequence:
#
# PCOD9393145 Si02
#       7
#     8   8   8   8   8   8   8
#     4  10  19  35  57  80 103 133 177 226 274 322
#     4  11  25  40  53  74 106 142 178 220 277 331
#     4   9  16  25  39  64  99 136 174 216 262 317
#     4   9  17  26  41  67  97 134 178 220 262 312
#     4   9  15  24  38  59  95 142 178 208 258 317
#     4  10  19  34  53  74 101 135 180 229 273 321
#     4   9  17  29  46  71 100 130 170 220 266 312
#
# _framework density 23.640481999999999
#
# number of rings (size 3 to 8) (size 9 to 14) (size 15 to 20)
#    0.000    2.429    1.429    1.714    2.000    6.571 
#    0.000    0.000    0.000    0.000    0.000    0.000 
#    0.000    1.143    0.286    4.143    2.286    5.571 
#
# Total GULP energy -312314.471650 kJ/mol
# GULP energy per Si atom -5577.044137 kJ/mol
# Density = 2.358667 g / cm^3
# Si number density = 23.640482 Si / 1000 Ang^3
#
#
#
# Elastic Constant Matrix: (Units=GPa)
#
#
# Indices 1 2 3 4 5 6 
#
# 1 216.6672 71.2826 13.7167 0.0000 0.0000 0.0000
# 2 71.2826 134.6468 1.3160 0.0000 0.0000 0.0000
# 3 13.7167 1.3160 68.7031 0.0000 0.0000 0.0000
# 4 0.0000 0.0000 0.0000 -4.2475 0.0000 0.0000
# 5 0.0000 0.0000 0.0000 0.0000 13.5503 0.0000
# 6 0.0000 0.0000 0.0000 0.0000 0.0000 33.5587
#
#
#
# Elastic Compliance Matrix: (Units=1/GPa)
#
#
# Indices 1 2 3 4 5 6 
#
# 1 0.005667 -0.002990 -0.001074 0.000000 0.000000 0.000000
# 2 -0.002990 0.009005 0.000424 0.000000 0.000000 0.000000
# 3 -0.001074 0.000424 0.014762 0.000000 0.000000 0.000000
# 4 0.000000 0.000000 0.000000 -0.235434 0.000000 0.000000
# 5 0.000000 0.000000 0.000000 0.000000 0.073799 0.000000
# 6 0.000000 0.000000 0.000000 0.000000 0.000000 0.029798
#
#
# Mechanical properties :
#
#
# Convention : Reuss Voigt Hill
#
# Bulk Modulus (GPa) = 45.13593 65.84975 55.49284
# Shear Modulus (GPa) = -56.98759 30.81909 -13.08425
#
# Velocity S-wave (km/s) = -4.91511 3.61454 -2.35514
# Velocity P-wave (km/s) = 3.61620 6.73312 4.01609
#
# Compressibility (1/GPa) = 0.02215530
#
# Stress axis : x y z
#
# Youngs Moduli (GPa) = 176.46197 111.04445 67.74287
#
# Poissons Ratio (x) = 0.33198 0.07277
# Poissons Ratio (y) = 0.52755 -0.02875
# Poissons Ratio (z) = 0.18955 -0.04712
#
# Static dielectric constant tensor:
#      x y z
#    x 1.579730 0.000000 0.000000 
#    y 0.000000 1.828080 0.000000 
#    z 0.000000 0.000000 2.011520 
# 
# From -- ./inp_files/19901.got.cif
#   From: 2010.05.17/outbox.cif.g08.bks.cpg/sg49_10_cif.got.tgz:19901.got - 2010.06.03 21:02:19.
