data_PCOD9393794
_publ_section_title
;
Structure prediction by ZEFSAII (Michael W. Deem and Ramdas Pophale) SiO2 
 PCOD9393794
Probable space group: P C C M
;
_chemical_formula_sum "Si O2"
_cell_formula_units_Z 64
_cell_length_a 19.714954
_cell_length_b 12.571126
_cell_length_c 14.070799
_cell_angle_alpha 90.000000
_cell_angle_beta 90.000000
_cell_angle_gamma 90.000000
_cell_volume 3487.295157
_symmetry_space_group_name_H-M "P C C M"
_symmetry_group_IT_number 49
_symmetry_cell_setting 'orthorhombic'
loop_
_space_group_symop_operation_xyz
x,y,z
-x,-y,z
x,-y,1/2-z
-x,y,1/2-z
-x,-y,-z
x,y,-z
-x,y,1/2+z
x,-y,1/2+z
loop_
_atom_site_type_symbol
_atom_site_label
_atom_site_fract_x
_atom_site_fract_y
_atom_site_fract_z
Si Si1 0.398942 0.622626 0.773985
Si Si2 0.921778 0.872396 0.250796
Si Si3 0.800554 0.194800 0.614618
Si Si4 0.493744 0.293846 0.890383
Si Si5 0.563056 0.068940 0.114290
Si Si6 0.816888 0.208470 0.887918
Si Si7 0.285073 0.982377 0.114758
Si Si8 0.245720 0.371616 0.743817
O O1 0.393784 0.500000 0.750000
O O2 0.447436 0.622886 0.865747
O O3 0.435017 0.684218 0.686144
O O4 0.322456 0.659640 0.785604
O O5 0.872468 0.830665 0.166214
O O6 0.887639 0.832630 0.347668
O O7 0.000000 0.838386 0.250000
O O8 0.919496 0.000000 0.250000
O O9 0.806030 0.200459 0.500000
O O10 0.750123 0.095147 0.639041
O O11 0.772540 0.304350 0.661023
O O12 0.536719 0.187477 0.868860
O O13 0.471399 0.292898 0.000000
O O14 0.500000 0.000000 0.148379
O O15 0.637836 0.037422 0.148846
O O16 0.566524 0.055738 0.000000
O O17 0.800381 0.319117 0.837073
O O18 0.762487 0.117144 0.858153
O O19 0.815039 0.217959 0.000000
O O20 0.287311 0.981536 0.000000
O O21 0.239233 0.500000 0.750000
#
# Coordination Sequence:
#
# PCOD9393794 Si02
#       8
#     8   8   8   8   8   8   8   8
#     4  10  22  38  53  76 106 135 187 252 298 345
#     4  10  20  35  58  94 132 161 190 229 280 346
#     4  10  21  37  60  88 123 161 195 240 297 355
#     4  10  20  35  54  73 101 143 183 229 297 361
#     4   9  18  30  47  74 105 137 181 230 273 332
#     4  10  20  37  61  87 117 158 195 235 289 352
#     4   9  17  31  53  82 112 147 190 234 288 353
#     4  10  23  39  57  83 113 151 203 259 302 345
#
# _framework density 18.352332000000001
#
# number of rings (size 3 to 8) (size 9 to 14) (size 15 to 20)
#    0.000    2.250    1.250    1.500    1.750    4.000 
#    0.000    5.000    0.000    6.000    0.000    7.000 
#    0.000    0.000    0.000    0.000    0.000    0.000 
#
# Total GULP energy -356649.458361 kJ/mol
# GULP energy per Si atom -5572.647787 kJ/mol
# Density = 1.831056 g / cm^3
# Si number density = 18.352332 Si / 1000 Ang^3
#
#
#
# Elastic Constant Matrix: (Units=GPa)
#
#
# Indices 1 2 3 4 5 6 
#
# 1 110.5077 27.4984 5.4852 0.0000 0.0000 0.0000
# 2 27.4984 72.0155 15.4571 0.0000 0.0000 0.0000
# 3 5.4852 15.4571 93.6211 0.0000 0.0000 0.0000
# 4 0.0000 0.0000 0.0000 20.9580 0.0000 0.0000
# 5 0.0000 0.0000 0.0000 0.0000 92.1094 0.0000
# 6 0.0000 0.0000 0.0000 0.0000 0.0000 19.7051
#
#
#
# Elastic Compliance Matrix: (Units=1/GPa)
#
#
# Indices 1 2 3 4 5 6 
#
# 1 0.009999 -0.003828 0.000046 0.000000 0.000000 0.000000
# 2 -0.003828 0.015862 -0.002395 0.000000 0.000000 0.000000
# 3 0.000046 -0.002395 0.011074 0.000000 0.000000 0.000000
# 4 0.000000 0.000000 0.000000 0.047714 0.000000 0.000000
# 5 0.000000 0.000000 0.000000 0.000000 0.010857 0.000000
# 6 0.000000 0.000000 0.000000 0.000000 0.000000 0.050748
#
#
# Mechanical properties :
#
#
# Convention : Reuss Voigt Hill
#
# Bulk Modulus (GPa) = 40.67996 41.44729 41.06362
# Shear Modulus (GPa) = 29.97577 41.73474 35.85525
#
# Velocity S-wave (km/s) = 4.04586 4.77391 4.42488
# Velocity P-wave (km/s) = 6.63623 7.28150 6.96634
#
# Compressibility (1/GPa) = 0.02458213
#
# Stress axis : x y z
#
# Youngs Moduli (GPa) = 100.00574 63.04548 90.30167
#
# Poissons Ratio (x) = 0.24134 -0.00417
# Poissons Ratio (y) = 0.38283 0.21623
# Poissons Ratio (z) = -0.00462 0.15096
#
# Static dielectric constant tensor:
#      x y z
#    x 1.577090 0.000000 0.000000 
#    y 0.000000 1.553710 0.000000 
#    z 0.000000 0.000000 1.656470 
# 
# From -- ./inp_files/14211.got.cif
#   From: 2010.05.17/outbox.cif.g08.bks.cpg/sg49_8_cif.got.tgz:14211.got - 2010.06.03 21:02:19.
