data_PCOD9393965
_publ_section_title
;
Structure prediction by ZEFSAII (Michael W. Deem and Ramdas Pophale) SiO2 
 PCOD9393965
Probable space group: P C C M
;
_chemical_formula_sum "Si O2"
_cell_formula_units_Z 40
_cell_length_a 26.310358
_cell_length_b 9.330092
_cell_length_c 8.685566
_cell_angle_alpha 90.000000
_cell_angle_beta 90.000000
_cell_angle_gamma 90.000000
_cell_volume 2132.115898
_symmetry_space_group_name_H-M "P C C M"
_symmetry_group_IT_number 49
_symmetry_cell_setting 'orthorhombic'
loop_
_space_group_symop_operation_xyz
x,y,z
-x,-y,z
x,-y,1/2-z
-x,y,1/2-z
-x,-y,-z
x,y,-z
-x,y,1/2+z
x,-y,1/2+z
loop_
_atom_site_type_symbol
_atom_site_label
_atom_site_fract_x
_atom_site_fract_y
_atom_site_fract_z
Si Si1 0.554602 0.658972 0.684500
Si Si2 0.653661 0.840088 0.684889
Si Si3 0.847169 0.840624 0.185456
Si Si4 0.945463 0.340182 0.685307
Si Si5 0.252158 0.339733 0.185177
O O1 0.564896 0.500000 0.750000
O O2 0.500000 0.705496 0.750000
O O3 0.551476 0.649875 0.500000
O O4 0.600267 0.764844 0.726647
O O5 0.657532 0.843360 0.500000
O O6 0.699379 0.745791 0.752025
O O7 0.656281 0.000000 0.750000
O O8 0.899424 0.762870 0.232476
O O9 0.798888 0.744910 0.232611
O O10 0.843402 0.000000 0.250000
O O11 0.846904 0.847720 0.000000
O O12 0.936427 0.500000 0.750000
O O13 0.947704 0.346994 0.500000
O O14 0.000000 0.291827 0.750000
O O15 0.251593 0.500000 0.250000
O O16 0.254100 0.344486 0.000000
#
# Coordination Sequence:
#
# PCOD9393965 Si02
#       5
#     8   8   8   8   8
#     4  10  21  37  59  85 114 149 191 235 282 334
#     4  11  24  40  59  86 118 153 190 235 287 340
#     4  10  23  39  57  83 115 149 187 231 282 336
#     4  10  20  36  57  83 112 146 188 232 278 331
#     4  11  23  40  62  87 114 149 191 235 283 339
#
# _framework density 18.760705000000002
#
# number of rings (size 3 to 8) (size 9 to 14) (size 15 to 20)
#    0.000    1.600    0.000    5.400    0.000   10.400 
#    0.000    4.000    0.000    0.000    0.000    0.000 
#    0.000    0.000    0.000    0.000    0.000    0.000 
#
# Total GULP energy -223632.020013 kJ/mol
# GULP energy per Si atom -5590.800500 kJ/mol
# Density = 1.871801 g / cm^3
# Si number density = 18.760705 Si / 1000 Ang^3
#
#
#
# Elastic Constant Matrix: (Units=GPa)
#
#
# Indices 1 2 3 4 5 6 
#
# 1 196.7882 141.8299 62.1334 0.0000 0.0000 0.0000
# 2 141.8299 177.5301 52.8924 0.0000 0.0000 0.0000
# 3 62.1334 52.8924 56.9114 0.0000 0.0000 0.0000
# 4 0.0000 0.0000 0.0000 33.3400 0.0000 0.0000
# 5 0.0000 0.0000 0.0000 0.0000 31.8072 0.0000
# 6 0.0000 0.0000 0.0000 0.0000 0.0000 -740.2803
#
#
#
# Elastic Compliance Matrix: (Units=1/GPa)
#
#
# Indices 1 2 3 4 5 6 
#
# 1 0.013536 -0.008866 -0.006538 0.000000 0.000000 0.000000
# 2 -0.008866 0.013597 -0.002957 0.000000 0.000000 0.000000
# 3 -0.006538 -0.002957 0.027457 0.000000 0.000000 0.000000
# 4 0.000000 0.000000 0.000000 0.029994 0.000000 0.000000
# 5 0.000000 0.000000 0.000000 0.000000 0.031439 0.000000
# 6 0.000000 0.000000 0.000000 0.000000 0.000000 -0.001351
#
#
# Mechanical properties :
#
#
# Convention : Reuss Voigt Hill
#
# Bulk Modulus (GPa) = 55.96650 104.99344 80.47997
# Shear Modulus (GPa) = 31.77607 -123.40168 -45.81280
#
# Velocity S-wave (km/s) = 4.11999 -8.11908 -4.94698
# Velocity P-wave (km/s) = 7.24769 5.63973 3.21888
#
# Compressibility (1/GPa) = 0.01786783
#
# Stress axis : x y z
#
# Youngs Moduli (GPa) = 73.87847 73.54570 36.41996
#
# Poissons Ratio (x) = 0.65205 0.23811
# Poissons Ratio (y) = 0.65500 0.10771
# Poissons Ratio (z) = 0.48301 0.21750
#
# Static dielectric constant tensor:
#      x y z
#    x 1.641890 0.000000 0.000000 
#    y 0.000000 1.603230 0.000000 
#    z 0.000000 0.000000 1.634370 
# 
# From -- ./inp_files/1668.got.cif
#   From: 2010.05.17/outbox.cif.g08.bks.cpg/sg49_1_cif.got.tgz:1668.got - 2010.06.03 21:02:19.
