data_PCOD9393479
_publ_section_title
;
Structure prediction by ZEFSAII (Michael W. Deem and Ramdas Pophale) SiO2 
 PCOD9393479
Probable space group: P C C M
;
_chemical_formula_sum "Si O2"
_cell_formula_units_Z 58
_cell_length_a 24.342510
_cell_length_b 15.074067
_cell_length_c 9.048848
_cell_angle_alpha 90.000000
_cell_angle_beta 90.000000
_cell_angle_gamma 90.000000
_cell_volume 3320.389956
_symmetry_space_group_name_H-M "P C C M"
_symmetry_group_IT_number 49
_symmetry_cell_setting 'orthorhombic'
loop_
_space_group_symop_operation_xyz
x,y,z
-x,-y,z
x,-y,1/2-z
-x,y,1/2-z
-x,-y,-z
x,y,-z
-x,y,1/2+z
x,-y,1/2+z
loop_
_atom_site_type_symbol
_atom_site_label
_atom_site_fract_x
_atom_site_fract_y
_atom_site_fract_z
Si Si1 0.400699 0.904962 0.322817
Si Si2 0.000000 0.000000 0.750000
Si Si3 0.228837 0.405767 0.178206
Si Si4 0.445155 0.269859 0.324119
Si Si5 0.107833 0.086083 0.334585
Si Si6 0.272368 0.906326 0.323699
Si Si7 0.346104 0.405964 0.676996
Si Si8 0.824670 0.774817 0.822956
O O1 0.408138 0.908489 0.500000
O O2 0.434031 0.825117 0.250613
O O3 0.336076 0.885893 0.290609
O O4 0.413910 0.000000 0.250000
O O5 0.957191 0.063408 0.834463
O O6 0.213926 0.500000 0.250000
O O7 0.288434 0.381382 0.245732
O O8 0.186547 0.327172 0.214722
O O9 0.233200 0.412726 0.000000
O O10 0.500000 0.308135 0.250000
O O11 0.452211 0.260295 0.500000
O O12 0.392983 0.333321 0.297442
O O13 0.128887 0.088854 0.500000
O O14 0.124609 0.174880 0.251149
O O15 0.131583 0.000000 0.250000
O O16 0.268068 0.915627 0.500000
O O17 0.229490 0.831000 0.277747
O O18 0.259688 0.000000 0.250000
O O19 0.362102 0.500000 0.750000
O O20 0.338210 0.416164 0.500000
O O21 0.830008 0.781162 0.000000
#
# Coordination Sequence:
#
# PCOD9393479 Si02
#       8
#     8   2   8   8   8   8   8   8
#     4  10  20  36  56  75 100 134 171 210 257 311
#     4   8  22  36  54  76 112 152 194 228 268 300
#     4  10  20  35  55  79 108 142 177 218 264 317
#     4  11  24  39  55  77 101 128 167 214 264 315
#     4  10  20  33  52  76 108 147 186 225 264 306
#     4   9  18  31  47  71 102 135 166 203 251 307
#     4  10  21  37  58  81 105 135 170 211 261 323
#     4  10  20  32  49  76 109 142 179 219 264 311
#
# _framework density 17.467827
#
# number of rings (size 3 to 8) (size 9 to 14) (size 15 to 20)
#    0.414    1.655    0.000    4.345    0.000    7.172 
#    0.000    2.759    0.000    0.000    0.000    0.483 
#    0.000    3.310    0.000    0.000    0.000    0.000 
#
# Total GULP energy -323499.977455 kJ/mol
# GULP energy per Si atom -5577.585818 kJ/mol
# Density = 1.742807 g / cm^3
# Si number density = 17.467827 Si / 1000 Ang^3
#
#
#
# Elastic Constant Matrix: (Units=GPa)
#
#
# Indices 1 2 3 4 5 6 
#
# 1 64.6738 54.2985 36.9744 0.0000 0.0000 0.0000
# 2 54.2985 103.8607 51.1976 0.0000 0.0000 0.0000
# 3 36.9744 51.1976 75.7962 0.0000 0.0000 0.0000
# 4 0.0000 0.0000 0.0000 19.6185 0.0000 0.0000
# 5 0.0000 0.0000 0.0000 0.0000 12.5276 0.0000
# 6 0.0000 0.0000 0.0000 0.0000 0.0000 15.1558
#
#
#
# Elastic Compliance Matrix: (Units=1/GPa)
#
#
# Indices 1 2 3 4 5 6 
#
# 1 0.029218 -0.012367 -0.005899 0.000000 0.000000 0.000000
# 2 -0.012367 0.019669 -0.007253 0.000000 0.000000 0.000000
# 3 -0.005899 -0.007253 0.020970 0.000000 0.000000 0.000000
# 4 0.000000 0.000000 0.000000 0.050972 0.000000 0.000000
# 5 0.000000 0.000000 0.000000 0.000000 0.079824 0.000000
# 6 0.000000 0.000000 0.000000 0.000000 0.000000 0.065981
#
#
# Mechanical properties :
#
#
# Convention : Reuss Voigt Hill
#
# Bulk Modulus (GPa) = 53.13946 58.80798 55.97372
# Shear Modulus (GPa) = 15.43464 16.25106 15.84285
#
# Velocity S-wave (km/s) = 2.97577 3.05346 3.01487
# Velocity P-wave (km/s) = 6.50341 6.79493 6.65077
#
# Compressibility (1/GPa) = 0.01881841
#
# Stress axis : x y z
#
# Youngs Moduli (GPa) = 34.22541 50.84110 47.68673
#
# Poissons Ratio (x) = 0.62876 0.28132
# Poissons Ratio (y) = 0.42327 0.34587
# Poissons Ratio (z) = 0.20191 0.36875
#
# Static dielectric constant tensor:
#      x y z
#    x 1.612050 0.000000 0.000000 
#    y 0.000000 1.582400 0.000000 
#    z 0.000000 0.000000 1.587590 
# 
# From -- ./inp_files/6460.got.cif
#   From: 2010.05.17/outbox.cif.g08.bks.cpg/sg49_4_cif.got.tgz:6460.got - 2010.06.03 21:02:19.
