data_PCOD9393149
_publ_section_title
;
Structure prediction by ZEFSAII (Michael W. Deem and Ramdas Pophale) SiO2 
 PCOD9393149
Probable space group: P C C M
;
_chemical_formula_sum "Si O2"
_cell_formula_units_Z 58
_cell_length_a 13.355129
_cell_length_b 26.517999
_cell_length_c 8.949451
_cell_angle_alpha 90.000000
_cell_angle_beta 90.000000
_cell_angle_gamma 90.000000
_cell_volume 3169.459683
_symmetry_space_group_name_H-M "P C C M"
_symmetry_group_IT_number 49
_symmetry_cell_setting 'orthorhombic'
loop_
_space_group_symop_operation_xyz
x,y,z
-x,-y,z
x,-y,1/2-z
-x,y,1/2-z
-x,-y,-z
x,y,-z
-x,y,1/2+z
x,-y,1/2+z
loop_
_atom_site_type_symbol
_atom_site_label
_atom_site_fract_x
_atom_site_fract_y
_atom_site_fract_z
Si Si1 0.000000 0.000000 0.250000
Si Si2 0.104971 0.805625 0.320613
Si Si3 0.896628 0.602560 0.177227
Si Si4 0.400351 0.652674 0.176869
Si Si5 0.314148 0.553654 0.679716
Si Si6 0.785964 0.296341 0.678676
Si Si7 0.171043 0.915068 0.322564
Si Si8 0.602620 0.944006 0.818190
O O1 0.914376 0.958267 0.199015
O O2 0.094960 0.808471 0.500000
O O3 0.180652 0.760250 0.288915
O O4 0.135269 0.860950 0.262258
O O5 0.000000 0.791395 0.250000
O O6 0.800288 0.569279 0.220193
O O7 0.869477 0.660944 0.212629
O O8 0.000000 0.586960 0.250000
O O9 0.906749 0.598836 0.000000
O O10 0.500000 0.674039 0.250000
O O11 0.380063 0.598275 0.251679
O O12 0.308586 0.687402 0.225719
O O13 0.408209 0.647824 0.000000
O O14 0.339029 0.500000 0.750000
O O15 0.323031 0.553146 0.500000
O O16 0.764705 0.301140 0.500000
O O17 0.179981 0.910285 0.500000
O O18 0.286045 0.924667 0.272177
O O19 0.500000 0.919788 0.750000
O O20 0.602650 0.000000 0.750000
O O21 0.595829 0.944380 0.000000
#
# Coordination Sequence:
#
# PCOD9393149 Si02
#       8
#     2   8   8   8   8   8   8   8
#     4  12  18  36  54  78 120 156 202 230 292 344
#     4  10  20  36  56  82 115 150 185 229 281 336
#     4   9  18  31  49  74 103 139 180 222 269 324
#     4  11  22  38  61  85 110 142 184 230 282 339
#     4  10  21  37  54  79 114 149 189 233 280 329
#     4   9  19  36  56  78 108 142 179 227 279 330
#     4  10  21  34  53  81 115 153 191 235 287 343
#     4  10  19  34  53  76 102 136 181 227 275 325
#
# _framework density 18.299648999999999
#
# number of rings (size 3 to 8) (size 9 to 14) (size 15 to 20)
#    0.000    2.069    1.379    3.931    0.000    3.862 
#    0.000    4.828    0.000    1.655    0.000    0.000 
#    0.000    0.000    0.000    0.000    0.000    0.000 
#
# Total GULP energy -322968.560244 kJ/mol
# GULP energy per Si atom -5568.423452 kJ/mol
# Density = 1.825800 g / cm^3
# Si number density = 18.299649 Si / 1000 Ang^3
#
#
#
# Elastic Constant Matrix: (Units=GPa)
#
#
# Indices 1 2 3 4 5 6 
#
# 1 106.0905 9.4346 40.8667 0.0000 0.0000 0.0000
# 2 9.4346 77.3249 31.4595 0.0000 0.0000 0.0000
# 3 40.8667 31.4595 52.2982 0.0000 0.0000 0.0000
# 4 0.0000 0.0000 0.0000 19.8403 0.0000 0.0000
# 5 0.0000 0.0000 0.0000 0.0000 23.8058 0.0000
# 6 0.0000 0.0000 0.0000 0.0000 0.0000 -7.5758
#
#
#
# Elastic Compliance Matrix: (Units=1/GPa)
#
#
# Indices 1 2 3 4 5 6 
#
# 1 0.014239 0.003694 -0.013349 0.000000 0.000000 0.000000
# 2 0.003694 0.018081 -0.013763 0.000000 0.000000 0.000000
# 3 -0.013349 -0.013763 0.037831 0.000000 0.000000 0.000000
# 4 0.000000 0.000000 0.000000 0.050402 0.000000 0.000000
# 5 0.000000 0.000000 0.000000 0.000000 0.042006 0.000000
# 6 0.000000 0.000000 0.000000 0.000000 0.000000 -0.131999
#
#
# Mechanical properties :
#
#
# Convention : Reuss Voigt Hill
#
# Bulk Modulus (GPa) = 42.88978 44.35948 43.62463
# Shear Modulus (GPa) = 58.70661 17.47759 38.09210
#
# Velocity S-wave (km/s) = 5.67013 3.09379 4.56738
# Velocity P-wave (km/s) = 8.14589 6.08730 7.19065
#
# Compressibility (1/GPa) = 0.02331558
#
# Stress axis : x y z
#
# Youngs Moduli (GPa) = 70.22721 55.30623 26.43334
#
# Poissons Ratio (x) = -0.20428 0.35285
# Poissons Ratio (y) = -0.25939 0.36380
# Poissons Ratio (z) = 0.93745 0.76117
#
# Static dielectric constant tensor:
#      x y z
#    x 1.708080 0.000000 0.000000 
#    y 0.000000 1.634580 0.000000 
#    z 0.000000 0.000000 1.599170 
# 
# From -- ./inp_files/3013.got.cif
#   From: 2010.05.17/outbox.cif.g08.bks.cpg/sg49_2_cif.got.tgz:3013.got - 2010.06.03 21:02:19.
