data_PCOD9393701
_publ_section_title
;
Structure prediction by ZEFSAII (Michael W. Deem and Ramdas Pophale) SiO2 
 PCOD9393701
Probable space group: P C C M
;
_chemical_formula_sum "Si O2"
_cell_formula_units_Z 48
_cell_length_a 9.243801
_cell_length_b 31.855558
_cell_length_c 8.807358
_cell_angle_alpha 90.000000
_cell_angle_beta 90.000000
_cell_angle_gamma 90.000000
_cell_volume 2593.471346
_symmetry_space_group_name_H-M "P C C M"
_symmetry_group_IT_number 49
_symmetry_cell_setting 'orthorhombic'
loop_
_space_group_symop_operation_xyz
x,y,z
-x,-y,z
x,-y,1/2-z
-x,y,1/2-z
-x,-y,-z
x,y,-z
-x,y,1/2+z
x,-y,1/2+z
loop_
_atom_site_type_symbol
_atom_site_label
_atom_site_fract_x
_atom_site_fract_y
_atom_site_fract_z
Si Si1 0.662136 0.458157 0.818793
Si Si2 0.661920 0.364805 0.182097
Si Si3 0.659989 0.795745 0.818110
Si Si4 0.840087 0.127269 0.818002
Si Si5 0.159438 0.711840 0.681731
Si Si6 0.659403 0.955599 0.681846
O O1 0.733644 0.500000 0.750000
O O2 0.500000 0.456985 0.750000
O O3 0.721629 0.411779 0.783417
O O4 0.653525 0.462617 0.000000
O O5 0.500000 0.361324 0.250000
O O6 0.760999 0.328722 0.250667
O O7 0.652884 0.360769 0.000000
O O8 0.500000 0.793633 0.750000
O O9 0.744561 0.835263 0.749712
O O10 0.747150 0.753230 0.781421
O O11 0.652123 0.799771 0.000000
O O12 0.764173 0.082917 0.780850
O O13 0.000000 0.129120 0.750000
O O14 0.846009 0.131294 0.000000
O O15 0.151006 0.708197 0.500000
O O16 0.000000 0.715924 0.750000
O O17 0.500000 0.947514 0.750000
O O18 0.647793 0.959118 0.500000
O O19 0.709910 0.000000 0.750000
#
# Coordination Sequence:
#
# PCOD9393701 Si02
#       6
#     8   8   8   8   8   8
#     4   9  16  26  44  72 105 140 178 223 273 323
#     4  10  20  34  54  81 112 146 186 230 277 330
#     4  11  24  41  63  89 116 148 187 231 279 333
#     4  11  24  40  60  87 119 155 193 235 285 339
#     4  11  24  40  59  83 112 147 185 228 279 334
#     4  10  21  37  59  86 115 151 194 239 286 336
#
# _framework density 18.508012000000001
#
# number of rings (size 3 to 8) (size 9 to 14) (size 15 to 20)
#    0.000    1.667    0.000    5.500    0.000   11.667 
#    0.000    1.667    0.000    0.500    0.000    3.500 
#    0.000    0.000    0.000    0.000    0.000    0.000 
#
# Total GULP energy -268161.332986 kJ/mol
# GULP energy per Si atom -5586.694437 kJ/mol
# Density = 1.846589 g / cm^3
# Si number density = 18.508012 Si / 1000 Ang^3
#
#
#
# Elastic Constant Matrix: (Units=GPa)
#
#
# Indices 1 2 3 4 5 6 
#
# 1 135.1067 113.6104 62.3839 0.0000 0.0000 0.0000
# 2 113.6104 208.8383 94.3477 0.0000 0.0000 0.0000
# 3 62.3839 94.3477 82.1741 0.0000 0.0000 0.0000
# 4 0.0000 0.0000 0.0000 33.0329 0.0000 0.0000
# 5 0.0000 0.0000 0.0000 0.0000 31.5907 0.0000
# 6 0.0000 0.0000 0.0000 0.0000 0.0000 -31.5220
#
#
#
# Elastic Compliance Matrix: (Units=1/GPa)
#
#
# Indices 1 2 3 4 5 6 
#
# 1 0.014243 -0.005949 -0.003982 0.000000 0.000000 0.000000
# 2 -0.005949 0.012434 -0.009759 0.000000 0.000000 0.000000
# 3 -0.003982 -0.009759 0.026398 0.000000 0.000000 0.000000
# 4 0.000000 0.000000 0.000000 0.030273 0.000000 0.000000
# 5 0.000000 0.000000 0.000000 0.000000 0.031655 0.000000
# 6 0.000000 0.000000 0.000000 0.000000 0.000000 -0.031724
#
#
# Mechanical properties :
#
#
# Convention : Reuss Voigt Hill
#
# Bulk Modulus (GPa) = 73.03113 107.42256 90.22684
# Shear Modulus (GPa) = 39.30061 17.00547 28.15304
#
# Velocity S-wave (km/s) = 4.61308 3.03449 3.90439
# Velocity P-wave (km/s) = 8.24129 8.39313 8.31755
#
# Compressibility (1/GPa) = 0.01369279
#
# Stress axis : x y z
#
# Youngs Moduli (GPa) = 70.20985 80.42493 37.88220
#
# Poissons Ratio (x) = 0.47847 0.15085
# Poissons Ratio (y) = 0.41770 0.36971
# Poissons Ratio (z) = 0.27959 0.78490
#
# Static dielectric constant tensor:
#      x y z
#    x 1.593870 0.000000 0.000000 
#    y 0.000000 1.654840 0.000000 
#    z 0.000000 0.000000 1.618170 
# 
# From -- ./inp_files/2046.got.cif
#   From: 2010.05.17/outbox.cif.g08.bks.cpg/sg49_2_cif.got.tgz:2046.got - 2010.06.03 21:02:19.
