data_PCOD9393204
_publ_section_title
;
Structure prediction by ZEFSAII (Michael W. Deem and Ramdas Pophale) SiO2 
 PCOD9393204
Probable space group: P C C M
;
_chemical_formula_sum "Si O2"
_cell_formula_units_Z 40
_cell_length_a 8.816111
_cell_length_b 14.909934
_cell_length_c 15.196690
_cell_angle_alpha 90.000000
_cell_angle_beta 90.000000
_cell_angle_gamma 90.000000
_cell_volume 1997.568932
_symmetry_space_group_name_H-M "P C C M"
_symmetry_group_IT_number 49
_symmetry_cell_setting 'orthorhombic'
loop_
_space_group_symop_operation_xyz
x,y,z
-x,-y,z
x,-y,1/2-z
-x,y,1/2-z
-x,-y,-z
x,y,-z
-x,y,1/2+z
x,-y,1/2+z
loop_
_atom_site_type_symbol
_atom_site_label
_atom_site_fract_x
_atom_site_fract_y
_atom_site_fract_z
Si Si1 0.801680 0.576996 0.402628
Si Si2 0.331617 0.766717 0.895639
Si Si3 0.819517 0.106154 0.749465
Si Si4 0.111021 0.393152 0.164993
Si Si5 0.694132 0.772383 0.896576
O O1 0.741702 0.556443 0.500000
O O2 0.719361 0.666115 0.369030
O O3 0.799783 0.486812 0.345385
O O4 0.979035 0.603084 0.407750
O O5 0.255128 0.839242 0.830941
O O6 0.512840 0.769785 0.888469
O O7 0.290973 0.778865 0.000000
O O8 0.753526 0.144050 0.658732
O O9 0.000000 0.122342 0.750000
O O10 0.791482 0.000000 0.750000
O O11 0.223730 0.312404 0.148360
O O12 0.000000 0.385929 0.250000
O O13 0.732493 0.774961 0.000000
#
# Coordination Sequence:
#
# PCOD9393204 Si02
#       5
#     8   8   8   8   8
#     4  10  19  34  56  84 118 159 202 249 299 355
#     4  10  23  41  64  93 126 162 204 254 313 374
#     4  11  25  44  66  91 120 158 205 257 312 372
#     4  11  21  34  56  86 121 162 207 250 296 353
#     4  11  23  40  63  93 126 164 205 252 311 375
#
# _framework density 20.024341
#
# number of rings (size 3 to 8) (size 9 to 14) (size 15 to 20)
#    0.000    1.400    0.000    7.200    0.000    6.400 
#    0.000    7.000    0.000    7.200    0.000    0.000 
#    0.000    0.000    0.000    0.000    0.000    0.000 
#
# Total GULP energy -223283.443137 kJ/mol
# GULP energy per Si atom -5582.086078 kJ/mol
# Density = 1.997876 g / cm^3
# Si number density = 20.024341 Si / 1000 Ang^3
#
#
#
# Elastic Constant Matrix: (Units=GPa)
#
#
# Indices 1 2 3 4 5 6 
#
# 1 83.5916 87.0089 60.8646 0.0000 0.0000 0.0000
# 2 87.0089 161.7164 91.1909 0.0000 0.0000 0.0000
# 3 60.8646 91.1909 165.3210 0.0000 0.0000 0.0000
# 4 0.0000 0.0000 0.0000 20.8066 0.0000 0.0000
# 5 0.0000 0.0000 0.0000 0.0000 30.8692 0.0000
# 6 0.0000 0.0000 0.0000 0.0000 0.0000 -98.3876
#
#
#
# Elastic Compliance Matrix: (Units=1/GPa)
#
#
# Indices 1 2 3 4 5 6 
#
# 1 0.028125 -0.013489 -0.002914 0.000000 0.000000 0.000000
# 2 -0.013489 0.015445 -0.003553 0.000000 0.000000 0.000000
# 3 -0.002914 -0.003553 0.009082 0.000000 0.000000 0.000000
# 4 0.000000 0.000000 0.000000 0.048062 0.000000 0.000000
# 5 0.000000 0.000000 0.000000 0.000000 0.032395 0.000000
# 6 0.000000 0.000000 0.000000 0.000000 0.000000 -0.010164
#
#
# Mechanical properties :
#
#
# Convention : Reuss Voigt Hill
#
# Bulk Modulus (GPa) = 78.49891 98.75087 88.62489
# Shear Modulus (GPa) = 29.92161 2.09529 16.00845
#
# Velocity S-wave (km/s) = 3.86976 1.02403 2.83052
# Velocity P-wave (km/s) = 7.69764 7.12886 7.41870
#
# Compressibility (1/GPa) = 0.01273903
#
# Stress axis : x y z
#
# Youngs Moduli (GPa) = 35.55525 64.74614 110.11249
#
# Poissons Ratio (x) = 0.87337 0.32087
# Poissons Ratio (y) = 0.47961 0.39126
# Poissons Ratio (z) = 0.10361 0.23006
#
# Static dielectric constant tensor:
#      x y z
#    x 1.682240 0.000000 0.000000 
#    y 0.000000 1.708530 0.000000 
#    z 0.000000 0.000000 1.793650 
# 
# From -- ./inp_files/11598.got.cif
#   From: 2010.05.17/outbox.cif.g08.bks.cpg/sg49_6_cif.got.tgz:11598.got - 2010.06.03 21:02:19.
