data_PCOD9393508
_publ_section_title
;
Structure prediction by ZEFSAII (Michael W. Deem and Ramdas Pophale) SiO2 
 PCOD9393508
Probable space group: P C C M
;
_chemical_formula_sum "Si O2"
_cell_formula_units_Z 64
_cell_length_a 20.434129
_cell_length_b 20.123850
_cell_length_c 8.872908
_cell_angle_alpha 90.000000
_cell_angle_beta 90.000000
_cell_angle_gamma 90.000000
_cell_volume 3648.658195
_symmetry_space_group_name_H-M "P C C M"
_symmetry_group_IT_number 49
_symmetry_cell_setting 'orthorhombic'
loop_
_space_group_symop_operation_xyz
x,y,z
-x,-y,z
x,-y,1/2-z
-x,y,1/2-z
-x,-y,-z
x,y,-z
-x,y,1/2+z
x,-y,1/2+z
loop_
_atom_site_type_symbol
_atom_site_label
_atom_site_fract_x
_atom_site_fract_y
_atom_site_fract_z
Si Si1 0.708007 0.068384 0.818605
Si Si2 0.248655 0.703636 0.678870
Si Si3 0.395951 0.752226 0.673107
Si Si4 0.072024 0.070371 0.681516
Si Si5 0.432325 0.400148 0.175803
Si Si6 0.816604 0.824439 0.319097
Si Si7 0.707492 0.431504 0.820387
Si Si8 0.433212 0.885413 0.822074
O O1 0.755109 0.128828 0.776750
O O2 0.633843 0.081359 0.765499
O O3 0.732597 0.000000 0.750000
O O4 0.708061 0.064238 0.000000
O O5 0.243165 0.693413 0.500000
O O6 0.319566 0.738252 0.706186
O O7 0.194030 0.754006 0.739537
O O8 0.253531 0.632836 0.760918
O O9 0.402237 0.776064 0.500000
O O10 0.429366 0.680309 0.682972
O O11 0.424768 0.807546 0.781878
O O12 0.068839 0.064188 0.500000
O O13 0.119763 0.131653 0.718476
O O14 0.000000 0.081073 0.750000
O O15 0.095991 0.000000 0.750000
O O16 0.500000 0.422367 0.250000
O O17 0.367374 0.423599 0.261639
O O18 0.428297 0.419454 0.000000
O O19 0.815307 0.814840 0.500000
O O20 0.733101 0.500000 0.750000
O O21 0.707997 0.433802 0.000000
O O22 0.500000 0.910593 0.750000
O O23 0.436647 0.893831 0.000000
#
# Coordination Sequence:
#
# PCOD9393508 Si02
#       8
#     8   8   8   8   8   8   8   8
#     4  10  22  37  52  71  95 127 168 215 267 320
#     4  10  20  34  55  81 105 133 172 218 264 317
#     4   9  18  32  49  70  94 121 158 205 260 318
#     4  10  20  34  55  82 119 158 194 229 267 319
#     4  10  20  33  48  71  97 125 167 211 263 328
#     4  10  20  36  56  81 109 141 181 223 266 314
#     4  11  22  37  55  74 102 137 171 216 269 325
#     4  11  22  34  49  66  89 120 160 212 267 325
#
# _framework density 17.540693999999998
#
# number of rings (size 3 to 8) (size 9 to 14) (size 15 to 20)
#    0.000    1.875    1.250    4.500    0.000    6.500 
#    0.000    2.500    0.000    0.000    0.000    0.000 
#    0.000    0.500    0.000    5.250    0.000    2.875 
#
# Total GULP energy -357482.872624 kJ/mol
# GULP energy per Si atom -5585.669885 kJ/mol
# Density = 1.750077 g / cm^3
# Si number density = 17.540694 Si / 1000 Ang^3
#
#
#
# Elastic Constant Matrix: (Units=GPa)
#
#
# Indices 1 2 3 4 5 6 
#
# 1 71.8576 42.0116 36.5680 0.0000 0.0000 0.0000
# 2 42.0116 113.6167 52.3487 0.0000 0.0000 0.0000
# 3 36.5680 52.3487 74.1456 0.0000 0.0000 0.0000
# 4 0.0000 0.0000 0.0000 27.1700 0.0000 0.0000
# 5 0.0000 0.0000 0.0000 0.0000 19.5549 0.0000
# 6 0.0000 0.0000 0.0000 0.0000 0.0000 54.9946
#
#
#
# Elastic Compliance Matrix: (Units=1/GPa)
#
#
# Indices 1 2 3 4 5 6 
#
# 1 0.019841 -0.004191 -0.006826 0.000000 0.000000 0.000000
# 2 -0.004191 0.013930 -0.007768 0.000000 0.000000 0.000000
# 3 -0.006826 -0.007768 0.022338 0.000000 0.000000 0.000000
# 4 0.000000 0.000000 0.000000 0.036805 0.000000 0.000000
# 5 0.000000 0.000000 0.000000 0.000000 0.051138 0.000000
# 6 0.000000 0.000000 0.000000 0.000000 0.000000 0.018184
#
#
# Mechanical properties :
#
#
# Convention : Reuss Voigt Hill
#
# Bulk Modulus (GPa) = 53.94295 57.94184 55.94240
# Shear Modulus (GPa) = 24.27341 28.92333 26.59837
#
# Velocity S-wave (km/s) = 3.72403 4.06510 3.89830
# Velocity P-wave (km/s) = 7.02218 7.42549 7.22665
#
# Compressibility (1/GPa) = 0.01853810
#
# Stress axis : x y z
#
# Youngs Moduli (GPa) = 50.40167 71.78495 44.76656
#
# Poissons Ratio (x) = 0.30087 0.30558
# Poissons Ratio (y) = 0.21125 0.34776
# Poissons Ratio (z) = 0.34405 0.55764
#
# Static dielectric constant tensor:
#      x y z
#    x 1.594200 0.000000 0.000000 
#    y 0.000000 1.608060 0.000000 
#    z 0.000000 0.000000 1.589810 
# 
# From -- ./inp_files/6110.got.cif
#   From: 2010.05.17/outbox.cif.g08.bks.cpg/sg49_4_cif.got.tgz:6110.got - 2010.06.03 21:02:19.
