data_PCOD9393902
_publ_section_title
;
Structure prediction by ZEFSAII (Michael W. Deem and Ramdas Pophale) SiO2 
 PCOD9393902
Probable space group: P C C M
;
_chemical_formula_sum "Si O2"
_cell_formula_units_Z 48
_cell_length_a 9.918806
_cell_length_b 14.107896
_cell_length_c 14.486265
_cell_angle_alpha 90.000000
_cell_angle_beta 90.000000
_cell_angle_gamma 90.000000
_cell_volume 2027.113524
_symmetry_space_group_name_H-M "P C C M"
_symmetry_group_IT_number 49
_symmetry_cell_setting 'orthorhombic'
loop_
_space_group_symop_operation_xyz
x,y,z
-x,-y,z
x,-y,1/2-z
-x,y,1/2-z
-x,-y,-z
x,y,-z
-x,y,1/2+z
x,-y,1/2+z
loop_
_atom_site_type_symbol
_atom_site_label
_atom_site_fract_x
_atom_site_fract_y
_atom_site_fract_z
Si Si1 0.090564 0.081437 0.843305
Si Si2 0.236233 0.653378 0.113221
Si Si3 0.945823 0.704334 0.108500
Si Si4 0.510105 0.714618 0.108871
Si Si5 0.715661 0.437208 0.613261
Si Si6 0.590900 0.080761 0.657101
O O1 0.092052 0.186116 0.884726
O O2 0.250013 0.054210 0.834604
O O3 0.000000 0.093433 0.750000
O O4 0.000000 0.000000 0.892621
O O5 0.358510 0.719275 0.146066
O O6 0.267560 0.545593 0.140804
O O7 0.093661 0.688591 0.148827
O O8 0.230621 0.656216 0.000000
O O9 0.839160 0.628588 0.144624
O O10 0.953228 0.681474 0.000000
O O11 0.586144 0.621963 0.145227
O O12 0.586004 0.813361 0.117995
O O13 0.498326 0.697342 0.000000
O O14 0.712376 0.439029 0.500000
O O15 0.500000 0.091520 0.750000
O O16 0.500000 0.000000 0.606612
#
# Coordination Sequence:
#
# PCOD9393902 Si02
#       6
#     8   8   8   8   8   8
#     4  11  24  41  62  82 109 148 187 230 281 341
#     4   9  18  30  54  87 118 152 185 225 272 329
#     4  10  20  35  58  88 117 146 186 234 279 322
#     4  10  20  35  58  88 117 146 186 234 279 322
#     4   9  16  32  54  83 118 150 187 225 274 329
#     4  11  24  41  62  82 109 148 187 230 281 341
#
# _framework density 23.678989000000001
#
# number of rings (size 3 to 8) (size 9 to 14) (size 15 to 20)
#    0.000    2.000    1.667    3.000    4.667    4.667 
#    0.000    0.000    0.000    6.000    0.000    0.000 
#    0.000    0.000    0.000    0.000    0.000    0.000 
#
# Total GULP energy -267773.338009 kJ/mol
# GULP energy per Si atom -5578.611209 kJ/mol
# Density = 2.362509 g / cm^3
# Si number density = 23.678989 Si / 1000 Ang^3
#
#
#
# Elastic Constant Matrix: (Units=GPa)
#
#
# Indices 1 2 3 4 5 6 
#
# 1 218.9092 54.5968 9.8010 0.0000 0.0000 0.0000
# 2 54.5968 111.5410 -12.8714 0.0000 0.0000 0.0000
# 3 9.8010 -12.8714 44.0609 0.0000 0.0000 0.0000
# 4 0.0000 0.0000 0.0000 32.7311 0.0000 0.0000
# 5 0.0000 0.0000 0.0000 0.0000 9.3155 0.0000
# 6 0.0000 0.0000 0.0000 0.0000 0.0000 47.3733
#
#
#
# Elastic Compliance Matrix: (Units=1/GPa)
#
#
# Indices 1 2 3 4 5 6 
#
# 1 0.005374 -0.002865 -0.002032 0.000000 0.000000 0.000000
# 2 -0.002865 0.010805 0.003794 0.000000 0.000000 0.000000
# 3 -0.002032 0.003794 0.024256 0.000000 0.000000 0.000000
# 4 0.000000 0.000000 0.000000 0.030552 0.000000 0.000000
# 5 0.000000 0.000000 0.000000 0.000000 0.107348 0.000000
# 6 0.000000 0.000000 0.000000 0.000000 0.000000 0.021109
#
#
# Mechanical properties :
#
#
# Convention : Reuss Voigt Hill
#
# Bulk Modulus (GPa) = 26.15834 53.06265 39.61049
# Shear Modulus (GPa) = 23.32165 39.41631 31.36898
#
# Velocity S-wave (km/s) = 3.14173 4.08439 3.64367
# Velocity P-wave (km/s) = 4.92257 6.68587 5.87080
#
# Compressibility (1/GPa) = 0.03822873
#
# Stress axis : x y z
#
# Youngs Moduli (GPa) = 186.09616 92.54698 41.22668
#
# Poissons Ratio (x) = 0.26512 0.08378
# Poissons Ratio (y) = 0.53312 -0.15640
# Poissons Ratio (z) = 0.37818 -0.35110
#
# Static dielectric constant tensor:
#      x y z
#    x 1.930110 0.000000 0.000000 
#    y 0.000000 1.865690 0.000000 
#    z 0.000000 0.000000 1.981480 
# 
# From -- ./inp_files/22365.got.cif
#   From: 2010.05.17/outbox.cif.g08.bks.cpg/sg49_12_cif.got.tgz:22365.got - 2010.06.03 21:02:19.
