data_PCOD9393793
_publ_section_title
;
Structure prediction by ZEFSAII (Michael W. Deem and Ramdas Pophale) SiO2 
 PCOD9393793
Probable space group: P C C M
;
_chemical_formula_sum "Si O2"
_cell_formula_units_Z 34
_cell_length_a 23.487765
_cell_length_b 7.668075
_cell_length_c 8.957182
_cell_angle_alpha 90.000000
_cell_angle_beta 90.000000
_cell_angle_gamma 90.000000
_cell_volume 1613.241716
_symmetry_space_group_name_H-M "P C C M"
_symmetry_group_IT_number 49
_symmetry_cell_setting 'orthorhombic'
loop_
_space_group_symop_operation_xyz
x,y,z
-x,-y,z
x,-y,1/2-z
-x,y,1/2-z
-x,-y,-z
x,y,-z
-x,y,1/2+z
x,-y,1/2+z
loop_
_atom_site_type_symbol
_atom_site_label
_atom_site_fract_x
_atom_site_fract_y
_atom_site_fract_z
Si Si1 0.181782 0.312049 0.178931
Si Si2 0.944029 0.191301 0.319930
Si Si3 0.418836 0.823974 0.827517
Si Si4 0.500000 0.500000 0.250000
Si Si5 0.304641 0.693673 0.679617
O O1 0.187333 0.500000 0.250000
O O2 0.119092 0.251758 0.225265
O O3 0.242485 0.223512 0.217541
O O4 0.180312 0.320218 0.000000
O O5 0.948758 0.190585 0.500000
O O6 0.000000 0.283375 0.250000
O O7 0.945327 0.000000 0.250000
O O8 0.456842 0.645388 0.820892
O O9 0.359077 0.788018 0.746459
O O10 0.441945 0.000000 0.750000
O O11 0.409803 0.863961 0.000000
O O12 0.306185 0.500000 0.750000
O O13 0.309322 0.682513 0.500000
#
# Coordination Sequence:
#
# PCOD9393793 Si02
#       5
#     8   8   8   2   8
#     4   9  20  36  57  86 119 156 200 249 304 368
#     4  10  20  35  53  77 110 151 199 250 306 366
#     4  12  27  46  71 103 137 176 222 270 323 387
#     4  12  28  48  76 100 138 176 222 264 330 378
#     4  10  20  39  65  93 127 167 210 260 321 382
#
# _framework density 21.075576999999999
#
# number of rings (size 3 to 8) (size 9 to 14) (size 15 to 20)
#    0.000    1.647    1.176    3.529    0.000    8.000 
#    0.000    4.706    0.000    0.000    0.000    0.000 
#    0.000    0.000    0.000    0.000    0.000    0.000 
#
# Total GULP energy -189278.651508 kJ/mol
# GULP energy per Si atom -5567.019162 kJ/mol
# Density = 2.102761 g / cm^3
# Si number density = 21.075577 Si / 1000 Ang^3
#
#
#
# Elastic Constant Matrix: (Units=GPa)
#
#
# Indices 1 2 3 4 5 6 
#
# 1 234.9611 56.1282 66.8375 0.0000 0.0000 0.0000
# 2 56.1282 96.4302 29.9860 0.0000 0.0000 0.0000
# 3 66.8375 29.9860 86.2219 0.0000 0.0000 0.0000
# 4 0.0000 0.0000 0.0000 17.6080 0.0000 0.0000
# 5 0.0000 0.0000 0.0000 0.0000 -154.3000 0.0000
# 6 0.0000 0.0000 0.0000 0.0000 0.0000 61.0222
#
#
#
# Elastic Compliance Matrix: (Units=1/GPa)
#
#
# Indices 1 2 3 4 5 6 
#
# 1 0.005862 -0.002242 -0.003765 0.000000 0.000000 0.000000
# 2 -0.002242 0.012485 -0.002604 0.000000 0.000000 0.000000
# 3 -0.003765 -0.002604 0.015422 0.000000 0.000000 0.000000
# 4 0.000000 0.000000 0.000000 0.056792 0.000000 0.000000
# 5 0.000000 0.000000 0.000000 0.000000 -0.006481 0.000000
# 6 0.000000 0.000000 0.000000 0.000000 0.000000 0.016387
#
#
# Mechanical properties :
#
#
# Convention : Reuss Voigt Hill
#
# Bulk Modulus (GPa) = 60.43076 80.39074 70.41075
# Shear Modulus (GPa) = 40.58254 2.51014 21.54634
#
# Velocity S-wave (km/s) = 4.39289 1.09252 3.20087
# Velocity P-wave (km/s) = 7.38008 6.31018 6.86600
#
# Compressibility (1/GPa) = 0.01654786
#
# Stress axis : x y z
#
# Youngs Moduli (GPa) = 170.57665 80.09769 64.84175
#
# Poissons Ratio (x) = 0.17955 0.24412
# Poissons Ratio (y) = 0.38236 0.16887
# Poissons Ratio (z) = 0.64220 0.20860
#
# Static dielectric constant tensor:
#      x y z
#    x 1.914910 0.000000 0.000000 
#    y 0.000000 1.769820 0.000000 
#    z 0.000000 0.000000 1.704310 
# 
# From -- ./inp_files/1536.got.cif
#   From: 2010.05.17/outbox.cif.g08.bks.cpg/sg49_1_cif.got.tgz:1536.got - 2010.06.03 21:02:19.
