data_PCOD9393316
_publ_section_title
;
Structure prediction by ZEFSAII (Michael W. Deem and Ramdas Pophale) SiO2 
 PCOD9393316
Probable space group: P C C M
;
_chemical_formula_sum "Si O2"
_cell_formula_units_Z 64
_cell_length_a 8.646507
_cell_length_b 15.302291
_cell_length_c 23.416723
_cell_angle_alpha 90.000000
_cell_angle_beta 90.000000
_cell_angle_gamma 90.000000
_cell_volume 3098.298613
_symmetry_space_group_name_H-M "P C C M"
_symmetry_group_IT_number 49
_symmetry_cell_setting 'orthorhombic'
loop_
_space_group_symop_operation_xyz
x,y,z
-x,-y,z
x,-y,1/2-z
-x,y,1/2-z
-x,-y,-z
x,y,-z
-x,y,1/2+z
x,-y,1/2+z
loop_
_atom_site_type_symbol
_atom_site_label
_atom_site_fract_x
_atom_site_fract_y
_atom_site_fract_z
Si Si1 0.219644 0.353286 0.136934
Si Si2 0.185577 0.483645 0.436436
Si Si3 0.847640 0.960016 0.934894
Si Si4 0.184581 0.278350 0.745890
Si Si5 0.857819 0.303390 0.117117
Si Si6 0.693685 0.130528 0.096885
Si Si7 0.678615 0.905989 0.268691
Si Si8 0.643608 0.199518 0.432337
O O1 0.242650 0.449539 0.111683
O O2 0.245772 0.341196 0.204376
O O3 0.325607 0.286800 0.102295
O O4 0.041270 0.322480 0.124238
O O5 0.246284 0.502935 0.500000
O O6 0.208707 0.383039 0.419706
O O7 0.000000 0.500000 0.438266
O O8 0.733312 0.042091 0.935740
O O9 0.761978 0.875772 0.910564
O O10 0.890757 0.935641 0.000000
O O11 0.000000 0.000000 0.905343
O O12 0.218496 0.303585 0.680401
O O13 0.240872 0.179712 0.756836
O O14 0.000000 0.279416 0.750000
O O15 0.819155 0.208558 0.090938
O O16 0.688429 0.103861 0.163316
O O17 0.529079 0.166565 0.077867
O O18 0.500000 0.903623 0.250000
O O19 0.743676 0.000000 0.250000
O O20 0.668363 0.212579 0.500000
#
# Coordination Sequence:
#
# PCOD9393316 Si02
#       8
#     8   8   8   8   8   8   8   8
#     4  10  19  35  60  81 114 149 188 240 282 342
#     4   9  18  33  56  85 113 147 191 235 283 340
#     4  10  22  38  56  80 109 144 186 229 277 337
#     4   9  19  35  54  82 113 144 188 236 284 333
#     4   9  20  37  55  84 114 149 190 233 287 338
#     4  11  22  37  56  80 112 148 188 234 281 343
#     4  10  22  35  52  78 106 149 191 228 279 339
#     4  11  23  36  56  83 113 149 190 236 287 340
#
# _framework density 20.656497999999999
#
# number of rings (size 3 to 8) (size 9 to 14) (size 15 to 20)
#    0.000    2.125    0.000    2.625    5.250    3.250 
#    0.000    3.125    0.000    1.500    0.000    2.625 
#    0.000    0.000    0.000    0.000    0.000    0.000 
#
# Total GULP energy -357296.271139 kJ/mol
# GULP energy per Si atom -5582.754237 kJ/mol
# Density = 2.060948 g / cm^3
# Si number density = 20.656498 Si / 1000 Ang^3
#
#
#
# Elastic Constant Matrix: (Units=GPa)
#
#
# Indices 1 2 3 4 5 6 
#
# 1 17.5118 -18.0087 -9.9397 0.0000 0.0000 0.0000
# 2 -18.0087 65.3765 16.1273 0.0000 0.0000 0.0000
# 3 -9.9397 16.1273 70.8054 0.0000 0.0000 0.0000
# 4 0.0000 0.0000 0.0000 35.3711 0.0000 0.0000
# 5 0.0000 0.0000 0.0000 0.0000 29.9688 0.0000
# 6 0.0000 0.0000 0.0000 0.0000 0.0000 14.7148
#
#
#
# Elastic Compliance Matrix: (Units=1/GPa)
#
#
# Indices 1 2 3 4 5 6 
#
# 1 0.082652 0.021090 0.006799 0.000000 0.000000 0.000000
# 2 0.021090 0.021588 -0.001956 0.000000 0.000000 0.000000
# 3 0.006799 -0.001956 0.015523 0.000000 0.000000 0.000000
# 4 0.000000 0.000000 0.000000 0.028272 0.000000 0.000000
# 5 0.000000 0.000000 0.000000 0.000000 0.033368 0.000000
# 6 0.000000 0.000000 0.000000 0.000000 0.000000 0.067959
#
#
# Mechanical properties :
#
#
# Convention : Reuss Voigt Hill
#
# Bulk Modulus (GPa) = 5.82651 14.45018 10.13834
# Shear Modulus (GPa) = 19.63046 27.04527 23.33786
#
# Velocity S-wave (km/s) = 3.08608 3.62233 3.36491
# Velocity P-wave (km/s) = 3.94022 4.95032 4.47387
#
# Compressibility (1/GPa) = 0.17162926
#
# Stress axis : x y z
#
# Youngs Moduli (GPa) = 12.09890 46.32163 64.41931
#
# Poissons Ratio (x) = -0.97693 -0.43799
# Poissons Ratio (y) = -0.25517 0.12603
# Poissons Ratio (z) = -0.08226 0.09063
#
# Static dielectric constant tensor:
#      x y z
#    x 1.753470 0.000000 0.000000 
#    y 0.000000 1.712660 0.000000 
#    z 0.000000 0.000000 1.759000 
# 
# From -- ./inp_files/22573.got.cif
#   From: 2010.05.17/outbox.cif.g08.bks.cpg/sg49_12_cif.got.tgz:22573.got - 2010.06.03 21:02:19.
