data_PCOD9393981
_publ_section_title
;
Structure prediction by ZEFSAII (Michael W. Deem and Ramdas Pophale) SiO2 
 PCOD9393981
Probable space group: P C C M
;
_chemical_formula_sum "Si O2"
_cell_formula_units_Z 64
_cell_length_a 8.909425
_cell_length_b 16.658587
_cell_length_c 21.878809
_cell_angle_alpha 90.000000
_cell_angle_beta 90.000000
_cell_angle_gamma 90.000000
_cell_volume 3247.218514
_symmetry_space_group_name_H-M "P C C M"
_symmetry_group_IT_number 49
_symmetry_cell_setting 'orthorhombic'
loop_
_space_group_symop_operation_xyz
x,y,z
-x,-y,z
x,-y,1/2-z
-x,y,1/2-z
-x,-y,-z
x,y,-z
-x,y,1/2+z
x,-y,1/2+z
loop_
_atom_site_type_symbol
_atom_site_label
_atom_site_fract_x
_atom_site_fract_y
_atom_site_fract_z
Si Si1 0.884337 0.246859 0.430528
Si Si2 0.436336 0.680202 0.864886
Si Si3 0.208289 0.180646 0.603880
Si Si4 0.676430 0.522461 0.683285
Si Si5 0.174827 0.905643 0.765625
Si Si6 0.289710 0.591422 0.570684
Si Si7 0.530569 0.906539 0.435659
Si Si8 0.644768 0.187260 0.665915
O O1 0.844610 0.224072 0.500000
O O2 0.840820 0.341226 0.425806
O O3 0.781628 0.206771 0.379327
O O4 0.053018 0.218242 0.418337
O O5 0.325712 0.745220 0.894050
O O6 0.332389 0.616808 0.829908
O O7 0.550417 0.634600 0.911635
O O8 0.551269 0.731328 0.823064
O O9 0.190068 0.132385 0.667309
O O10 0.294145 0.114536 0.564229
O O11 0.500000 0.500000 0.685881
O O12 0.741722 0.500000 0.750000
O O13 0.736088 0.474416 0.623932
O O14 0.289644 0.855177 0.724550
O O15 0.000000 0.892876 0.750000
O O16 0.204515 0.000000 0.750000
O O17 0.297369 0.562387 0.500000
O O18 0.466962 0.873380 0.500000
O O19 0.460083 0.869651 0.374847
O O20 0.500000 0.000000 0.434257
#
# Coordination Sequence:
#
# PCOD9393981 Si02
#       8
#     8   8   8   8   8   8   8   8
#     4  10  20  36  58  84 114 156 200 244 299 363
#     4   9  21  34  57  85 113 147 193 242 298 358
#     4  11  22  38  58  85 117 154 197 251 307 358
#     4   9  18  34  55  85 117 150 194 249 293 355
#     4  11  23  39  59  84 117 154 202 256 306 371
#     4   9  19  36  59  86 119 159 202 249 304 367
#     4  10  21  37  57  83 114 147 188 242 301 361
#     4  10  20  38  58  81 114 151 194 240 298 360
#
# _framework density 19.709175999999999
#
# number of rings (size 3 to 8) (size 9 to 14) (size 15 to 20)
#    0.000    2.125    1.250    1.500    0.000   12.750 
#    0.000    3.750    0.000    5.250    0.000    0.000 
#    0.000    0.000    0.000    0.000    0.000    0.000 
#
# Total GULP energy -356511.897517 kJ/mol
# GULP energy per Si atom -5570.498399 kJ/mol
# Density = 1.966432 g / cm^3
# Si number density = 19.709176 Si / 1000 Ang^3
#
#
#
# Elastic Constant Matrix: (Units=GPa)
#
#
# Indices 1 2 3 4 5 6 
#
# 1 87.3013 40.3468 28.8144 0.0000 0.0000 0.0000
# 2 40.3468 89.6578 57.8465 0.0000 0.0000 0.0000
# 3 28.8144 57.8465 145.6114 0.0000 0.0000 0.0000
# 4 0.0000 0.0000 0.0000 26.0260 0.0000 0.0000
# 5 0.0000 0.0000 0.0000 0.0000 29.8734 0.0000
# 6 0.0000 0.0000 0.0000 0.0000 0.0000 15.9481
#
#
#
# Elastic Compliance Matrix: (Units=1/GPa)
#
#
# Indices 1 2 3 4 5 6 
#
# 1 0.014477 -0.006275 -0.000372 0.000000 0.000000 0.000000
# 2 -0.006275 0.017717 -0.005797 0.000000 0.000000 0.000000
# 3 -0.000372 -0.005797 0.009244 0.000000 0.000000 0.000000
# 4 0.000000 0.000000 0.000000 0.038423 0.000000 0.000000
# 5 0.000000 0.000000 0.000000 0.000000 0.033475 0.000000
# 6 0.000000 0.000000 0.000000 0.000000 0.000000 0.062704
#
#
# Mechanical properties :
#
#
# Convention : Reuss Voigt Hill
#
# Bulk Modulus (GPa) = 60.41823 64.06511 62.24167
# Shear Modulus (GPa) = 24.21958 27.40702 25.81330
#
# Velocity S-wave (km/s) = 3.50930 3.73308 3.62292
# Velocity P-wave (km/s) = 6.86598 7.15241 7.01066
#
# Compressibility (1/GPa) = 0.01655130
#
# Stress axis : x y z
#
# Youngs Moduli (GPa) = 69.07338 56.44196 108.17729
#
# Poissons Ratio (x) = 0.35417 0.04025
# Poissons Ratio (y) = 0.43343 0.62708
# Poissons Ratio (z) = 0.02570 0.32718
#
# Static dielectric constant tensor:
#      x y z
#    x 1.692300 0.000000 0.000000 
#    y 0.000000 1.796280 0.000000 
#    z 0.000000 0.000000 1.704320 
# 
# From -- ./inp_files/20011.got.cif
#   From: 2010.05.17/outbox.cif.g08.bks.cpg/sg49_11_cif.got.tgz:20011.got - 2010.06.03 21:02:19.
