data_PCOD9393451
_publ_section_title
;
Structure prediction by ZEFSAII (Michael W. Deem and Ramdas Pophale) SiO2 
 PCOD9393451
Probable space group: P C C M
;
_chemical_formula_sum "Si O2"
_cell_formula_units_Z 64
_cell_length_a 14.651913
_cell_length_b 31.743941
_cell_length_c 8.715927
_cell_angle_alpha 90.000000
_cell_angle_beta 90.000000
_cell_angle_gamma 90.000000
_cell_volume 4053.860116
_symmetry_space_group_name_H-M "P C C M"
_symmetry_group_IT_number 49
_symmetry_cell_setting 'orthorhombic'
loop_
_space_group_symop_operation_xyz
x,y,z
-x,-y,z
x,-y,1/2-z
-x,y,1/2-z
-x,-y,-z
x,y,-z
-x,y,1/2+z
x,-y,1/2+z
loop_
_atom_site_type_symbol
_atom_site_label
_atom_site_fract_x
_atom_site_fract_y
_atom_site_fract_z
Si Si1 0.900646 0.046451 0.183710
Si Si2 0.102770 0.363898 0.684085
Si Si3 0.401427 0.844258 0.183809
Si Si4 0.898395 0.203759 0.315293
Si Si5 0.782655 0.121090 0.315614
Si Si6 0.102692 0.542388 0.816930
Si Si7 0.401572 0.255012 0.683397
Si Si8 0.784426 0.286473 0.315762
O O1 0.827299 0.080104 0.240705
O O2 0.000000 0.058978 0.250000
O O3 0.881159 0.000000 0.250000
O O4 0.905017 0.044890 0.000000
O O5 0.097891 0.360244 0.500000
O O6 0.139309 0.411067 0.721421
O O7 0.166041 0.327728 0.752127
O O8 0.000000 0.359776 0.750000
O O9 0.500000 0.856523 0.250000
O O10 0.319229 0.870125 0.257650
O O11 0.387919 0.794616 0.222659
O O12 0.400694 0.848257 0.000000
O O13 0.903340 0.204232 0.500000
O O14 0.843370 0.161825 0.269996
O O15 0.842986 0.245362 0.266531
O O16 0.000000 0.203758 0.250000
O O17 0.784299 0.117629 0.500000
O O18 0.147455 0.500000 0.750000
O O19 0.000000 0.543245 0.750000
O O20 0.098266 0.538509 0.000000
O O21 0.500000 0.267462 0.750000
O O22 0.402360 0.258728 0.500000
O O23 0.317495 0.280500 0.753123
O O24 0.782980 0.287493 0.500000
#
# Coordination Sequence:
#
# PCOD9393451 Si02
#       8
#     8   8   8   8   8   8   8   8
#     4  11  22  38  58  82 108 138 173 209 253 301
#     4  10  20  32  45  66  95 132 171 209 251 300
#     4  10  20  34  54  79 104 134 168 209 254 300
#     4  10  22  34  47  68  98 133 169 205 243 286
#     4  11  21  36  55  78 106 136 170 212 252 297
#     4   9  16  26  42  62  87 118 160 207 252 296
#     4  10  20  34  53  74  98 129 166 210 254 298
#     4  11  21  34  49  69  97 134 171 207 248 298
#
# _framework density 15.787421999999999
#
# number of rings (size 3 to 8) (size 9 to 14) (size 15 to 20)
#    0.000    1.750    1.250    4.875    0.000    6.500 
#    0.000    0.000    0.000    0.375    0.000    2.625 
#    0.000    0.500    0.000    5.250    0.000    2.875 
#
# Total GULP energy -357277.766115 kJ/mol
# GULP energy per Si atom -5582.465096 kJ/mol
# Density = 1.575149 g / cm^3
# Si number density = 15.787422 Si / 1000 Ang^3
#
#
#
# Elastic Constant Matrix: (Units=GPa)
#
#
# Indices 1 2 3 4 5 6 
#
# 1 127.9551 75.5875 47.3805 0.0000 0.0000 0.0000
# 2 75.5875 106.4454 50.1314 0.0000 0.0000 0.0000
# 3 47.3805 50.1314 74.3659 0.0000 0.0000 0.0000
# 4 0.0000 0.0000 0.0000 26.3232 0.0000 0.0000
# 5 0.0000 0.0000 0.0000 0.0000 29.6802 0.0000
# 6 0.0000 0.0000 0.0000 0.0000 0.0000 6.9769
#
#
#
# Elastic Compliance Matrix: (Units=1/GPa)
#
#
# Indices 1 2 3 4 5 6 
#
# 1 0.013977 -0.008397 -0.003245 0.000000 0.000000 0.000000
# 2 -0.008397 0.018809 -0.007330 0.000000 0.000000 0.000000
# 3 -0.003245 -0.007330 0.020455 0.000000 0.000000 0.000000
# 4 0.000000 0.000000 0.000000 0.037989 0.000000 0.000000
# 5 0.000000 0.000000 0.000000 0.000000 0.033693 0.000000
# 6 0.000000 0.000000 0.000000 0.000000 0.000000 0.143330
#
#
# Mechanical properties :
#
#
# Convention : Reuss Voigt Hill
#
# Bulk Modulus (GPa) = 65.36365 72.77391 69.06878
# Shear Modulus (GPa) = 16.06191 21.64053 18.85122
#
# Velocity S-wave (km/s) = 3.19311 3.70637 3.45927
# Velocity P-wave (km/s) = 7.42205 8.03197 7.73302
#
# Compressibility (1/GPa) = 0.01529902
#
# Stress axis : x y z
#
# Youngs Moduli (GPa) = 71.54501 53.16498 48.88730
#
# Poissons Ratio (x) = 0.44644 0.15862
# Poissons Ratio (y) = 0.60078 0.35832
# Poissons Ratio (z) = 0.23213 0.38968
#
# Static dielectric constant tensor:
#      x y z
#    x 1.495440 0.000000 0.000000 
#    y 0.000000 1.539740 0.000000 
#    z 0.000000 0.000000 1.526990 
# 
# From -- ./inp_files/3094.got.cif
#   From: 2010.05.17/outbox.cif.g08.bks.cpg/sg49_2_cif.got.tgz:3094.got - 2010.06.03 21:02:19.
