data_PCOD9393041
_publ_section_title
;
Structure prediction by ZEFSAII (Michael W. Deem and Ramdas Pophale) SiO2 
 PCOD9393041
Probable space group: P C C M
;
_chemical_formula_sum "Si O2"
_cell_formula_units_Z 48
_cell_length_a 10.282476
_cell_length_b 11.951256
_cell_length_c 14.778848
_cell_angle_alpha 90.000000
_cell_angle_beta 90.000000
_cell_angle_gamma 90.000000
_cell_volume 1816.150507
_symmetry_space_group_name_H-M "P C C M"
_symmetry_group_IT_number 49
_symmetry_cell_setting 'orthorhombic'
loop_
_space_group_symop_operation_xyz
x,y,z
-x,-y,z
x,-y,1/2-z
-x,y,1/2-z
-x,-y,-z
x,y,-z
-x,y,1/2+z
x,-y,1/2+z
loop_
_atom_site_type_symbol
_atom_site_label
_atom_site_fract_x
_atom_site_fract_y
_atom_site_fract_z
Si Si1 0.457596 0.730719 0.648646
Si Si2 0.105448 0.097161 0.610155
Si Si3 0.898799 0.356942 0.111149
Si Si4 0.825179 0.687266 0.891081
Si Si5 0.368415 0.553219 0.897236
Si Si6 0.279184 0.083720 0.108193
O O1 0.500000 0.500000 0.645226
O O2 0.500000 0.723634 0.750000
O O3 0.576557 0.680787 0.594319
O O4 0.414962 0.856823 0.627223
O O5 0.094538 0.105293 0.500000
O O6 0.110501 0.226078 0.639091
O O7 0.239090 0.037051 0.641540
O O8 0.000000 0.000000 0.635152
O O9 0.774531 0.427603 0.144032
O O10 0.048452 0.379926 0.139062
O O11 0.893087 0.366042 0.000000
O O12 0.677015 0.658955 0.865819
O O13 0.823775 0.818455 0.862863
O O14 0.831471 0.686917 0.000000
O O15 0.355412 0.509647 0.000000
O O16 0.267878 0.078130 0.000000
#
# Coordination Sequence:
#
# PCOD9393041 Si02
#       6
#     8   8   8   8   8   8
#     4  10  19  33  53  75 103 146 186 222 275 338
#     4   9  12  20  44  79 111 140 178 228 277 322
#     4   9  16  28  51  83 112 142 187 236 282 340
#     4   8  14  28  51  78 111 145 182 228 278 330
#     4  10  21  37  55  77 107 139 176 230 292 346
#     4   8  14  25  47  75 109 144 178 224 279 327
#
# _framework density 26.429528999999999
#
# number of rings (size 3 to 8) (size 9 to 14) (size 15 to 20)
#    1.000    2.000    1.667    1.000    0.000    0.333 
#    0.000    2.500    0.000   10.000    0.000    3.500 
#    0.000    0.000    0.000    0.000    0.000    7.333 
#
# Total GULP energy -267441.476220 kJ/mol
# GULP energy per Si atom -5571.697421 kJ/mol
# Density = 2.636937 g / cm^3
# Si number density = 26.429529 Si / 1000 Ang^3
#
#
#
# Elastic Constant Matrix: (Units=GPa)
#
#
# Indices 1 2 3 4 5 6 
#
# 1 169.8818 61.0830 -9.3151 0.0000 0.0000 0.0000
# 2 61.0830 90.4126 -2.7519 0.0000 0.0000 0.0000
# 3 -9.3151 -2.7519 42.1925 0.0000 0.0000 0.0000
# 4 0.0000 0.0000 0.0000 3.8970 0.0000 0.0000
# 5 0.0000 0.0000 0.0000 0.0000 -183.7898 0.0000
# 6 0.0000 0.0000 0.0000 0.0000 0.0000 20.0213
#
#
#
# Elastic Compliance Matrix: (Units=1/GPa)
#
#
# Indices 1 2 3 4 5 6 
#
# 1 0.007856 -0.005265 0.001391 0.000000 0.000000 0.000000
# 2 -0.005265 0.014611 -0.000209 0.000000 0.000000 0.000000
# 3 0.001391 -0.000209 0.023994 0.000000 0.000000 0.000000
# 4 0.000000 0.000000 0.000000 0.256609 0.000000 0.000000
# 5 0.000000 0.000000 0.000000 0.000000 -0.005441 0.000000
# 6 0.000000 0.000000 0.000000 0.000000 0.000000 0.049947
#
#
# Mechanical properties :
#
#
# Convention : Reuss Voigt Hill
#
# Bulk Modulus (GPa) = 26.11359 44.50210 35.30784
# Shear Modulus (GPa) = 13.56822 -15.07625 -0.75402
#
# Velocity S-wave (km/s) = 2.26823 -2.39096 -0.53471
# Velocity P-wave (km/s) = 4.09411 3.04176 3.60653
#
# Compressibility (1/GPa) = 0.03829424
#
# Stress axis : x y z
#
# Youngs Moduli (GPa) = 127.29374 68.44093 41.67647
#
# Poissons Ratio (x) = 0.36035 -0.05797
# Poissons Ratio (y) = 0.67021 0.00873
# Poissons Ratio (z) = -0.17706 0.01433
#
# Static dielectric constant tensor:
#      x y z
#    x 2.128660 0.000000 0.000000 
#    y 0.000000 2.252460 0.000000 
#    z 0.000000 0.000000 1.868650 
# 
# From -- ./inp_files/17086.got.cif
#   From: 2010.05.17/outbox.cif.g08.bks.cpg/sg49_9_cif.got.tgz:17086.got - 2010.06.03 21:02:19.
