data_PCOD9393380
_publ_section_title
;
Structure prediction by ZEFSAII (Michael W. Deem and Ramdas Pophale) SiO2 
 PCOD9393380
Probable space group: P C C M
;
_chemical_formula_sum "Si O2"
_cell_formula_units_Z 56
_cell_length_a 8.361059
_cell_length_b 15.019320
_cell_length_c 22.935505
_cell_angle_alpha 90.000000
_cell_angle_beta 90.000000
_cell_angle_gamma 90.000000
_cell_volume 2880.181559
_symmetry_space_group_name_H-M "P C C M"
_symmetry_group_IT_number 49
_symmetry_cell_setting 'orthorhombic'
loop_
_space_group_symop_operation_xyz
x,y,z
-x,-y,z
x,-y,1/2-z
-x,y,1/2-z
-x,-y,-z
x,y,-z
-x,y,1/2+z
x,-y,1/2+z
loop_
_atom_site_type_symbol
_atom_site_label
_atom_site_fract_x
_atom_site_fract_y
_atom_site_fract_z
Si Si1 0.000000 0.500000 0.623112
Si Si2 0.158435 0.363414 0.291759
Si Si3 0.935205 0.100200 0.310303
Si Si4 0.853166 0.210936 0.112236
Si Si5 0.547514 0.899409 0.569444
Si Si6 0.885576 0.674260 0.934660
Si Si7 0.500000 0.320947 0.250000
Si Si8 0.665579 0.212695 0.649241
O O1 0.881424 0.554606 0.665531
O O2 0.913318 0.427643 0.582936
O O3 0.177073 0.275749 0.332494
O O4 0.331833 0.372369 0.261215
O O5 0.000000 0.355114 0.250000
O O6 0.754254 0.133559 0.315083
O O7 0.000000 0.139861 0.250000
O O8 0.013978 0.142095 0.366708
O O9 0.000000 0.000000 0.309978
O O10 0.708007 0.148992 0.092295
O O11 0.942410 0.275404 0.066929
O O12 0.554381 0.901101 0.500000
O O13 0.413713 0.834970 0.594605
O O14 0.500000 0.000000 0.588996
O O15 0.784624 0.716190 0.880927
O O16 0.817466 0.683761 0.000000
O O17 0.545256 0.260916 0.306422
#
# Coordination Sequence:
#
# PCOD9393380 Si02
#       8
#     4   8   8   8   8   8   4   8
#     4  10  22  40  64  96 126 160 212 264 328 388
#     4  11  22  40  65  95 132 169 212 267 325 399
#     4  10  20  34  56  85 122 162 203 260 316 372
#     4  10  19  37  59  86 119 160 215 254 315 380
#     4  11  23  39  59  86 125 166 210 263 310 367
#     4  10  21  40  67  90 120 164 212 266 321 387
#     4  12  22  40  68  94 128 174 214 264 325 403
#     4  11  23  39  60  92 124 165 212 258 322 385
#
# _framework density 19.443218999999999
#
# number of rings (size 3 to 8) (size 9 to 14) (size 15 to 20)
#    0.000    1.429    1.429    6.000    0.000    0.000 
#    0.000    5.714    0.000    7.714    0.000    0.000 
#    0.000    0.000    0.000    0.000    0.000    0.000 
#
# Total GULP energy -311826.231372 kJ/mol
# GULP energy per Si atom -5568.325560 kJ/mol
# Density = 1.939897 g / cm^3
# Si number density = 19.443219 Si / 1000 Ang^3
#
#
#
# Elastic Constant Matrix: (Units=GPa)
#
#
# Indices 1 2 3 4 5 6 
#
# 1 96.4845 29.0011 26.7181 0.0000 0.0000 0.0000
# 2 29.0011 104.5127 31.4956 0.0000 0.0000 0.0000
# 3 26.7181 31.4956 78.4968 0.0000 0.0000 0.0000
# 4 0.0000 0.0000 0.0000 13.7980 0.0000 0.0000
# 5 0.0000 0.0000 0.0000 0.0000 27.2005 0.0000
# 6 0.0000 0.0000 0.0000 0.0000 0.0000 35.3169
#
#
#
# Elastic Compliance Matrix: (Units=1/GPa)
#
#
# Indices 1 2 3 4 5 6 
#
# 1 0.011940 -0.002376 -0.003111 0.000000 0.000000 0.000000
# 2 -0.002376 0.011357 -0.003748 0.000000 0.000000 0.000000
# 3 -0.003111 -0.003748 0.015302 0.000000 0.000000 0.000000
# 4 0.000000 0.000000 0.000000 0.072474 0.000000 0.000000
# 5 0.000000 0.000000 0.000000 0.000000 0.036764 0.000000
# 6 0.000000 0.000000 0.000000 0.000000 0.000000 0.028315
#
#
# Mechanical properties :
#
#
# Convention : Reuss Voigt Hill
#
# Bulk Modulus (GPa) = 49.67810 50.43594 50.05702
# Shear Modulus (GPa) = 24.83465 28.08170 26.45818
#
# Velocity S-wave (km/s) = 3.57780 3.80451 3.69289
# Velocity P-wave (km/s) = 6.53248 6.73019 6.63207
#
# Compressibility (1/GPa) = 0.02012959
#
# Stress axis : x y z
#
# Youngs Moduli (GPa) = 83.75302 88.05152 65.35062
#
# Poissons Ratio (x) = 0.20919 0.20329
# Poissons Ratio (y) = 0.19897 0.24495
# Poissons Ratio (z) = 0.26054 0.33003
#
# Static dielectric constant tensor:
#      x y z
#    x 1.758330 0.000000 0.000000 
#    y 0.000000 1.718060 0.000000 
#    z 0.000000 0.000000 1.684770 
# 
# From -- ./inp_files/19935.got.cif
#   From: 2010.05.17/outbox.cif.g08.bks.cpg/sg49_10_cif.got.tgz:19935.got - 2010.06.03 21:02:19.
