data_PCOD9393715
_publ_section_title
;
Structure prediction by ZEFSAII (Michael W. Deem and Ramdas Pophale) SiO2 
 PCOD9393715
Probable space group: P C C M
;
_chemical_formula_sum "Si O2"
_cell_formula_units_Z 48
_cell_length_a 21.020500
_cell_length_b 14.830512
_cell_length_c 8.664796
_cell_angle_alpha 90.000000
_cell_angle_beta 90.000000
_cell_angle_gamma 90.000000
_cell_volume 2701.204901
_symmetry_space_group_name_H-M "P C C M"
_symmetry_group_IT_number 49
_symmetry_cell_setting 'orthorhombic'
loop_
_space_group_symop_operation_xyz
x,y,z
-x,-y,z
x,-y,1/2-z
-x,y,1/2-z
-x,-y,-z
x,y,-z
-x,y,1/2+z
x,-y,1/2+z
loop_
_atom_site_type_symbol
_atom_site_label
_atom_site_fract_x
_atom_site_fract_y
_atom_site_fract_z
Si Si1 0.932539 0.709499 0.185701
Si Si2 0.307220 0.711403 0.686846
Si Si3 0.812312 0.399092 0.815561
Si Si4 0.261690 0.094806 0.185392
Si Si5 0.113065 0.905019 0.685410
Si Si6 0.431187 0.400111 0.814862
O O1 0.874267 0.651789 0.250612
O O2 0.922150 0.814044 0.234577
O O3 0.000000 0.677461 0.250000
O O4 0.931580 0.705781 0.000000
O O5 0.300877 0.707161 0.500000
O O6 0.249839 0.654615 0.758963
O O7 0.298971 0.815641 0.733756
O O8 0.374492 0.667233 0.728803
O O9 0.810095 0.500000 0.750000
O O10 0.814325 0.401152 0.000000
O O11 0.187404 0.104293 0.233066
O O12 0.285769 0.000000 0.250000
O O13 0.262542 0.090629 0.000000
O O14 0.111184 0.909183 0.500000
O O15 0.088661 0.000000 0.750000
O O16 0.417266 0.500000 0.750000
O O17 0.500000 0.372799 0.750000
O O18 0.434614 0.405287 0.000000
#
# Coordination Sequence:
#
# PCOD9393715 Si02
#       6
#     8   8   8   8   8   8
#     4  11  23  41  59  80 110 145 184 230 280 332
#     4  10  20  37  59  84 115 149 184 229 278 323
#     4  12  25  40  60  84 109 142 183 230 278 331
#     4   9  17  32  53  80 111 143 179 223 275 324
#     4   9  18  33  55  78 109 143 176 224 274 328
#     4  10  20  34  55  81 115 152 186 226 273 326
#
# _framework density 17.769848
#
# number of rings (size 3 to 8) (size 9 to 14) (size 15 to 20)
#    0.000    1.833    1.667    3.500    0.000    5.333 
#    0.000    3.333    0.000    0.500    0.000    3.500 
#    0.000    0.000    0.000    0.000    0.000    0.000 
#
# Total GULP energy -268082.006302 kJ/mol
# GULP energy per Si atom -5585.041798 kJ/mol
# Density = 1.772940 g / cm^3
# Si number density = 17.769848 Si / 1000 Ang^3
#
#
#
# Elastic Constant Matrix: (Units=GPa)
#
#
# Indices 1 2 3 4 5 6 
#
# 1 128.9178 84.4803 42.1259 0.0000 0.0000 0.0000
# 2 84.4803 148.8548 41.8201 0.0000 0.0000 0.0000
# 3 42.1259 41.8201 46.7727 0.0000 0.0000 0.0000
# 4 0.0000 0.0000 0.0000 28.6072 0.0000 0.0000
# 5 0.0000 0.0000 0.0000 0.0000 23.9661 0.0000
# 6 0.0000 0.0000 0.0000 0.0000 0.0000 866.1677
#
#
#
# Elastic Compliance Matrix: (Units=1/GPa)
#
#
# Indices 1 2 3 4 5 6 
#
# 1 0.014022 -0.005889 -0.007363 0.000000 0.000000 0.000000
# 2 -0.005889 0.011445 -0.004929 0.000000 0.000000 0.000000
# 3 -0.007363 -0.004929 0.032419 0.000000 0.000000 0.000000
# 4 0.000000 0.000000 0.000000 0.034956 0.000000 0.000000
# 5 0.000000 0.000000 0.000000 0.000000 0.041726 0.000000
# 6 0.000000 0.000000 0.000000 0.000000 0.000000 0.001155
#
#
# Mechanical properties :
#
#
# Convention : Reuss Voigt Hill
#
# Bulk Modulus (GPa) = 46.46233 73.48865 59.97549
# Shear Modulus (GPa) = 27.89230 194.15612 111.02421
#
# Velocity S-wave (km/s) = 3.96617 10.46416 7.91294
# Velocity P-wave (km/s) = 6.86859 13.69102 10.83101
#
# Compressibility (1/GPa) = 0.02152281
#
# Stress axis : x y z
#
# Youngs Moduli (GPa) = 71.31444 87.37285 30.84619
#
# Poissons Ratio (x) = 0.51458 0.22713
# Poissons Ratio (y) = 0.42001 0.15204
# Poissons Ratio (z) = 0.52512 0.43065
#
# Static dielectric constant tensor:
#      x y z
#    x 1.590550 0.000000 0.000000 
#    y 0.000000 1.602560 0.000000 
#    z 0.000000 0.000000 1.598980 
# 
# From -- ./inp_files/3845.got.cif
#   From: 2010.05.17/outbox.cif.g08.bks.cpg/sg49_2_cif.got.tgz:3845.got - 2010.06.03 21:02:19.
