data_PCOD9393771
_publ_section_title
;
Structure prediction by ZEFSAII (Michael W. Deem and Ramdas Pophale) SiO2 
 PCOD9393771
Probable space group: P C C M
;
_chemical_formula_sum "Si O2"
_cell_formula_units_Z 64
_cell_length_a 16.504625
_cell_length_b 23.134042
_cell_length_c 8.467122
_cell_angle_alpha 90.000000
_cell_angle_beta 90.000000
_cell_angle_gamma 90.000000
_cell_volume 3232.905413
_symmetry_space_group_name_H-M "P C C M"
_symmetry_group_IT_number 49
_symmetry_cell_setting 'orthorhombic'
loop_
_space_group_symop_operation_xyz
x,y,z
-x,-y,z
x,-y,1/2-z
-x,y,1/2-z
-x,-y,-z
x,y,-z
-x,y,1/2+z
x,-y,1/2+z
loop_
_atom_site_type_symbol
_atom_site_label
_atom_site_fract_x
_atom_site_fract_y
_atom_site_fract_z
Si Si1 0.888890 0.781659 0.681967
Si Si2 0.589415 0.588666 0.690061
Si Si3 0.083843 0.095526 0.183179
Si Si4 0.702335 0.183364 0.182932
Si Si5 0.770388 0.562007 0.811166
Si Si6 0.255752 0.061283 0.687356
Si Si7 0.585415 0.278101 0.190614
Si Si8 0.911197 0.352029 0.190261
O O1 0.918755 0.788230 0.500000
O O2 0.917641 0.834980 0.788236
O O3 0.793024 0.792756 0.677478
O O4 0.904777 0.716215 0.736332
O O5 0.500000 0.567499 0.750000
O O6 0.588589 0.583340 0.500000
O O7 0.676634 0.565904 0.750372
O O8 0.593731 0.655819 0.742326
O O9 0.161117 0.070278 0.272974
O O10 0.000000 0.072278 0.250000
O O11 0.092706 0.082933 0.000000
O O12 0.702183 0.119289 0.254290
O O13 0.650373 0.233890 0.257223
O O14 0.675242 0.177070 0.000000
O O15 0.801631 0.500000 0.750000
O O16 0.833527 0.611402 0.751595
O O17 0.768671 0.563544 0.000000
O O18 0.264048 0.061911 0.500000
O O19 0.284454 0.000000 0.750000
O O20 0.500000 0.256371 0.250000
O O21 0.589516 0.280287 0.000000
O O22 0.000000 0.372732 0.250000
O O23 0.909301 0.354185 0.000000
#
# Coordination Sequence:
#
# PCOD9393771 Si02
#       8
#     8   8   8   8   8   8   8   8
#     4   9  18  34  56  81 109 141 178 222 274 330
#     4  10  20  37  62  93 126 157 189 229 283 347
#     4  11  21  33  50  74 104 136 171 213 263 319
#     4   8  15  30  52  75 103 140 175 213 265 321
#     4  12  26  44  64  87 116 153 199 246 292 344
#     4  10  20  35  52  71  96 131 177 223 269 319
#     4   9  17  31  53  82 114 144 173 210 261 321
#     4  11  23  40  62  88 118 154 196 243 295 347
#
# _framework density 19.796434999999999
#
# number of rings (size 3 to 8) (size 9 to 14) (size 15 to 20)
#    0.000    2.000    0.000    5.250    0.000    5.250 
#    0.000    6.875    0.000    0.375    0.000    2.625 
#    0.000    0.000    0.000    0.000    0.000    0.000 
#
# Total GULP energy -356851.441082 kJ/mol
# GULP energy per Si atom -5575.803767 kJ/mol
# Density = 1.975138 g / cm^3
# Si number density = 19.796435 Si / 1000 Ang^3
#
#
#
# Elastic Constant Matrix: (Units=GPa)
#
#
# Indices 1 2 3 4 5 6 
#
# 1 67.4694 38.3254 17.5277 0.0000 0.0000 0.0000
# 2 38.3254 105.1635 15.4482 0.0000 0.0000 0.0000
# 3 17.5277 15.4482 58.3303 0.0000 0.0000 0.0000
# 4 0.0000 0.0000 0.0000 24.4204 0.0000 0.0000
# 5 0.0000 0.0000 0.0000 0.0000 25.8291 0.0000
# 6 0.0000 0.0000 0.0000 0.0000 0.0000 3.5778
#
#
#
# Elastic Compliance Matrix: (Units=1/GPa)
#
#
# Indices 1 2 3 4 5 6 
#
# 1 0.019617 -0.006537 -0.004163 0.000000 0.000000 0.000000
# 2 -0.006537 0.012073 -0.001233 0.000000 0.000000 0.000000
# 3 -0.004163 -0.001233 0.018721 0.000000 0.000000 0.000000
# 4 0.000000 0.000000 0.000000 0.040949 0.000000 0.000000
# 5 0.000000 0.000000 0.000000 0.000000 0.038716 0.000000
# 6 0.000000 0.000000 0.000000 0.000000 0.000000 0.279503
#
#
# Mechanical properties :
#
#
# Convention : Reuss Voigt Hill
#
# Bulk Modulus (GPa) = 37.67414 41.50730 39.59072
# Shear Modulus (GPa) = 11.30470 21.40959 16.35714
#
# Velocity S-wave (km/s) = 2.39225 3.29216 2.87760
# Velocity P-wave (km/s) = 5.16745 5.95514 5.57523
#
# Compressibility (1/GPa) = 0.02654341
#
# Stress axis : x y z
#
# Youngs Moduli (GPa) = 50.97722 82.83226 53.41522
#
# Poissons Ratio (x) = 0.54151 0.22238
# Poissons Ratio (y) = 0.33326 0.06585
# Poissons Ratio (z) = 0.21223 0.10212
#
# Static dielectric constant tensor:
#      x y z
#    x 1.703810 0.000000 0.000000 
#    y 0.000000 1.742560 0.000000 
#    z 0.000000 0.000000 1.688230 
# 
# From -- ./inp_files/4346.got.cif
#   From: 2010.05.17/outbox.cif.g08.bks.cpg/sg49_3_cif.got.tgz:4346.got - 2010.06.03 21:02:19.
