data_PCOD9393698
_publ_section_title
;
Structure prediction by ZEFSAII (Michael W. Deem and Ramdas Pophale) SiO2 
 PCOD9393698
Probable space group: P C C M
;
_chemical_formula_sum "Si O2"
_cell_formula_units_Z 64
_cell_length_a 11.364428
_cell_length_b 9.827228
_cell_length_c 31.222758
_cell_angle_alpha 90.000000
_cell_angle_beta 90.000000
_cell_angle_gamma 90.000000
_cell_volume 3486.983374
_symmetry_space_group_name_H-M "P C C M"
_symmetry_group_IT_number 49
_symmetry_cell_setting 'orthorhombic'
loop_
_space_group_symop_operation_xyz
x,y,z
-x,-y,z
x,-y,1/2-z
-x,y,1/2-z
-x,-y,-z
x,y,-z
-x,y,1/2+z
x,-y,1/2+z
loop_
_atom_site_type_symbol
_atom_site_label
_atom_site_fract_x
_atom_site_fract_y
_atom_site_fract_z
Si Si1 0.885602 0.582274 0.949922
Si Si2 0.661871 0.599980 0.894863
Si Si3 0.426684 0.678355 0.130753
Si Si4 0.983429 0.164548 0.201139
Si Si5 0.546253 0.852688 0.202088
Si Si6 0.801121 0.854528 0.629132
Si Si7 0.779681 0.162337 0.658112
Si Si8 0.033570 0.158446 0.451610
O O1 0.758924 0.554847 0.929298
O O2 0.000000 0.500000 0.932447
O O3 0.922938 0.740737 0.946024
O O4 0.877435 0.548372 0.000000
O O5 0.634796 0.468401 0.865606
O O6 0.529988 0.656397 0.904709
O O7 0.723909 0.724025 0.871328
O O8 0.493291 0.734167 0.172625
O O9 0.325008 0.786817 0.122534
O O10 0.866230 0.192561 0.173390
O O11 0.000000 0.212527 0.250000
O O12 0.094630 0.212496 0.173923
O O13 0.000000 0.000000 0.202261
O O14 0.500000 0.837283 0.250000
O O15 0.687202 0.856456 0.197185
O O16 0.500000 0.000000 0.186143
O O17 0.879393 0.818514 0.587914
O O18 0.791427 0.017540 0.634565
O O19 0.080421 0.186986 0.500000
O O20 0.000000 0.000000 0.450207
#
# Coordination Sequence:
#
# PCOD9393698 Si02
#       8
#     8   8   8   8   8   8   8   8
#     4  10  20  36  60  86 110 146 193 239 287 349
#     4  10  21  38  54  77 116 144 184 229 287 336
#     4  10  22  37  54  82 107 151 184 229 278 345
#     4   9  19  30  51  81 108 136 179 237 286 331
#     4  10  20  34  58  82 105 140 194 240 274 326
#     4  11  19  34  57  80 112 146 189 231 288 340
#     4  10  20  34  54  81 108 147 186 228 287 339
#     4  10  20  34  55  86 115 145 186 235 292 346
#
# _framework density 18.353973
#
# number of rings (size 3 to 8) (size 9 to 14) (size 15 to 20)
#    0.000    2.000    1.250    3.375    1.750    1.000 
#    0.000    6.875    0.000    0.750    0.000    5.250 
#    0.000    0.000    0.000    0.000    0.000    0.000 
#
# Total GULP energy -356436.054704 kJ/mol
# GULP energy per Si atom -5569.313355 kJ/mol
# Density = 1.831220 g / cm^3
# Si number density = 18.353973 Si / 1000 Ang^3
#
#
#
# Elastic Constant Matrix: (Units=GPa)
#
#
# Indices 1 2 3 4 5 6 
#
# 1 107.3239 29.4657 41.1043 0.0000 0.0000 0.0000
# 2 29.4657 74.2946 18.2908 0.0000 0.0000 0.0000
# 3 41.1043 18.2908 76.3881 0.0000 0.0000 0.0000
# 4 0.0000 0.0000 0.0000 12.1461 0.0000 0.0000
# 5 0.0000 0.0000 0.0000 0.0000 25.7539 0.0000
# 6 0.0000 0.0000 0.0000 0.0000 0.0000 25.4827
#
#
#
# Elastic Compliance Matrix: (Units=1/GPa)
#
#
# Indices 1 2 3 4 5 6 
#
# 1 0.012547 -0.003522 -0.005908 0.000000 0.000000 0.000000
# 2 -0.003522 0.015292 -0.001766 0.000000 0.000000 0.000000
# 3 -0.005908 -0.001766 0.016693 0.000000 0.000000 0.000000
# 4 0.000000 0.000000 0.000000 0.082331 0.000000 0.000000
# 5 0.000000 0.000000 0.000000 0.000000 0.038829 0.000000
# 6 0.000000 0.000000 0.000000 0.000000 0.000000 0.039242
#
#
# Mechanical properties :
#
#
# Convention : Reuss Voigt Hill
#
# Bulk Modulus (GPa) = 45.16920 48.41424 46.79172
# Shear Modulus (GPa) = 21.30308 23.95292 22.62800
#
# Velocity S-wave (km/s) = 3.41057 3.61647 3.51503
# Velocity P-wave (km/s) = 6.33820 6.62373 6.48254
#
# Compressibility (1/GPa) = 0.02213898
#
# Stress axis : x y z
#
# Youngs Moduli (GPa) = 79.69793 65.39557 59.90410
#
# Poissons Ratio (x) = 0.23031 0.35394
# Poissons Ratio (y) = 0.28068 0.10582
# Poissons Ratio (z) = 0.47089 0.11552
#
# Static dielectric constant tensor:
#      x y z
#    x 1.677740 0.000000 0.000000 
#    y 0.000000 1.648900 0.000000 
#    z 0.000000 0.000000 1.644120 
# 
# From -- ./inp_files/26669.got.cif
#   From: 2010.05.17/outbox.cif.g08.bks.cpg/sg49_14_cif.got.tgz:26669.got - 2010.06.03 21:02:19.
