data_PCOD9393762
_publ_section_title
;
Structure prediction by ZEFSAII (Michael W. Deem and Ramdas Pophale) SiO2 
 PCOD9393762
Probable space group: P C C M
;
_chemical_formula_sum "Si O2"
_cell_formula_units_Z 48
_cell_length_a 15.432195
_cell_length_b 5.649512
_cell_length_c 25.031652
_cell_angle_alpha 90.000000
_cell_angle_beta 90.000000
_cell_angle_gamma 90.000000
_cell_volume 2182.368831
_symmetry_space_group_name_H-M "P C C M"
_symmetry_group_IT_number 49
_symmetry_cell_setting 'orthorhombic'
loop_
_space_group_symop_operation_xyz
x,y,z
-x,-y,z
x,-y,1/2-z
-x,y,1/2-z
-x,-y,-z
x,y,-z
-x,y,1/2+z
x,-y,1/2+z
loop_
_atom_site_type_symbol
_atom_site_label
_atom_site_fract_x
_atom_site_fract_y
_atom_site_fract_z
Si Si1 0.236344 0.349422 0.441081
Si Si2 0.738713 0.252009 0.279930
Si Si3 0.799896 0.935085 0.887075
Si Si4 0.628514 0.271368 0.560172
Si Si5 0.545992 0.750910 0.827699
Si Si6 0.068231 0.319016 0.939950
O O1 0.226735 0.229187 0.500000
O O2 0.331079 0.464264 0.439344
O O3 0.159961 0.542814 0.442820
O O4 0.218591 0.212950 0.386158
O O5 0.757420 0.500000 0.250000
O O6 0.792764 0.217507 0.334330
O O7 0.638777 0.257288 0.298967
O O8 0.751406 0.000000 0.250000
O O9 0.715392 0.873178 0.923798
O O10 0.896280 0.911990 0.911029
O O11 0.599465 0.216272 0.500000
O O12 0.562200 0.241764 0.608155
O O13 0.500000 0.500000 0.815619
O O14 0.500000 0.000000 0.813423
O O15 0.000000 0.500000 0.915090
O O16 0.037774 0.266172 0.000000
#
# Coordination Sequence:
#
# PCOD9393762 Si02
#       6
#     8   8   8   8   8   8
#     4   9  17  31  56  85 119 164 202 239 288 355
#     4  11  26  43  67  90 111 150 207 265 313 362
#     4  10  20  34  60  83 118 153 205 250 303 351
#     4   9  20  35  55  83 121 161 200 238 285 358
#     4  11  25  41  62  88 122 156 194 250 315 376
#     4   9  18  32  53  90 131 161 192 233 291 363
#
# _framework density 21.994448999999999
#
# number of rings (size 3 to 8) (size 9 to 14) (size 15 to 20)
#    0.000    2.167    0.000    3.500   11.667    3.333 
#    0.000    2.500    0.000    0.500    0.000    0.000 
#    0.000    0.000    0.000    0.000    0.000    0.000 
#
# Total GULP energy -267285.591710 kJ/mol
# GULP energy per Si atom -5568.449827 kJ/mol
# Density = 2.194439 g / cm^3
# Si number density = 21.994449 Si / 1000 Ang^3
#
#
#
# Elastic Constant Matrix: (Units=GPa)
#
#
# Indices 1 2 3 4 5 6 
#
# 1 32.5333 1.1816 -9.8251 0.0000 0.0000 0.0000
# 2 1.1816 86.8411 22.8655 0.0000 0.0000 0.0000
# 3 -9.8251 22.8655 72.2314 0.0000 0.0000 0.0000
# 4 0.0000 0.0000 0.0000 24.4893 0.0000 0.0000
# 5 0.0000 0.0000 0.0000 0.0000 17.5320 0.0000
# 6 0.0000 0.0000 0.0000 0.0000 0.0000 20.8716
#
#
#
# Elastic Compliance Matrix: (Units=1/GPa)
#
#
# Indices 1 2 3 4 5 6 
#
# 1 0.032294 -0.001741 0.004944 0.000000 0.000000 0.000000
# 2 -0.001741 0.012656 -0.004243 0.000000 0.000000 0.000000
# 3 0.004944 -0.004243 0.015860 0.000000 0.000000 0.000000
# 4 0.000000 0.000000 0.000000 0.040834 0.000000 0.000000
# 5 0.000000 0.000000 0.000000 0.000000 0.057039 0.000000
# 6 0.000000 0.000000 0.000000 0.000000 0.000000 0.047912
#
#
# Mechanical properties :
#
#
# Convention : Reuss Voigt Hill
#
# Bulk Modulus (GPa) = 17.02727 24.44997 20.73862
# Shear Modulus (GPa) = 21.90554 24.40415 23.15485
#
# Velocity S-wave (km/s) = 3.15930 3.33462 3.24814
# Velocity P-wave (km/s) = 4.58985 5.09576 4.84941
#
# Compressibility (1/GPa) = 0.05872933
#
# Stress axis : x y z
#
# Youngs Moduli (GPa) = 30.96547 79.01245 63.05126
#
# Poissons Ratio (x) = 0.13757 -0.31172
# Poissons Ratio (y) = 0.05391 0.26754
# Poissons Ratio (z) = -0.15309 0.33527
#
# Static dielectric constant tensor:
#      x y z
#    x 1.762600 0.000000 0.000000 
#    y 0.000000 2.043860 0.000000 
#    z 0.000000 0.000000 1.930920 
# 
# From -- ./inp_files/23293.got.cif
#   From: 2010.05.17/outbox.cif.g08.bks.cpg/sg49_12_cif.got.tgz:23293.got - 2010.06.03 21:02:19.
