data_PCOD9393582
_publ_section_title
;
Structure prediction by ZEFSAII (Michael W. Deem and Ramdas Pophale) SiO2 
 PCOD9393582
Probable space group: P C C M
;
_chemical_formula_sum "Si O2"
_cell_formula_units_Z 40
_cell_length_a 9.312910
_cell_length_b 12.942310
_cell_length_c 14.846723
_cell_angle_alpha 90.000000
_cell_angle_beta 90.000000
_cell_angle_gamma 90.000000
_cell_volume 1789.483959
_symmetry_space_group_name_H-M "P C C M"
_symmetry_group_IT_number 49
_symmetry_cell_setting 'orthorhombic'
loop_
_space_group_symop_operation_xyz
x,y,z
-x,-y,z
x,-y,1/2-z
-x,y,1/2-z
-x,-y,-z
x,y,-z
-x,y,1/2+z
x,-y,1/2+z
loop_
_atom_site_type_symbol
_atom_site_label
_atom_site_fract_x
_atom_site_fract_y
_atom_site_fract_z
Si Si1 0.159441 0.021246 0.144514
Si Si2 0.867907 0.641113 0.389866
Si Si3 0.809688 0.586893 0.109841
Si Si4 0.651464 0.216238 0.391220
Si Si5 0.665776 0.177428 0.895257
O O1 0.224196 0.134440 0.131269
O O2 0.152050 0.000000 0.250000
O O3 0.270008 0.936630 0.107970
O O4 0.000000 0.000000 0.106799
O O5 0.871700 0.644884 0.500000
O O6 0.795964 0.532277 0.362600
O O7 0.780002 0.740214 0.356284
O O8 0.034070 0.630632 0.362180
O O9 0.691939 0.668860 0.139716
O O10 0.809431 0.585309 0.000000
O O11 0.648078 0.217151 0.500000
O O12 0.494740 0.182931 0.357277
O O13 0.652099 0.206792 0.000000
#
# Coordination Sequence:
#
# PCOD9393582 Si02
#       5
#     8   8   8   8   8
#     4  11  24  39  54  72  96 131 174 215 256 302
#     4   8  14  26  46  73 104 136 168 202 242 289
#     4   8  14  26  46  73 104 136 168 202 242 289
#     4  10  20  33  52  79 107 134 166 205 251 302
#     4  10  20  33  52  79 107 134 166 205 251 302
#
# _framework density 22.352810999999999
#
# number of rings (size 3 to 8) (size 9 to 14) (size 15 to 20)
#    0.000    2.600    0.000    3.600    0.000    7.200 
#    0.000    4.000    0.000    1.200    0.000    8.400 
#    0.000    0.000    0.000    0.000    0.000    0.000 
#
# Total GULP energy -223370.439196 kJ/mol
# GULP energy per Si atom -5584.260980 kJ/mol
# Density = 2.230194 g / cm^3
# Si number density = 22.352811 Si / 1000 Ang^3
#
#
#
# Elastic Constant Matrix: (Units=GPa)
#
#
# Indices 1 2 3 4 5 6 
#
# 1 58.1088 1.9270 -15.3811 0.0000 0.0000 0.0000
# 2 1.9270 71.4517 -22.2862 0.0000 0.0000 0.0000
# 3 -15.3811 -22.2862 47.9768 0.0000 0.0000 0.0000
# 4 0.0000 0.0000 0.0000 -17.5084 0.0000 0.0000
# 5 0.0000 0.0000 0.0000 0.0000 -504.9946 0.0000
# 6 0.0000 0.0000 0.0000 0.0000 0.0000 50.2803
#
#
#
# Elastic Compliance Matrix: (Units=1/GPa)
#
#
# Indices 1 2 3 4 5 6 
#
# 1 0.018964 0.001619 0.006832 0.000000 0.000000 0.000000
# 2 0.001619 0.016505 0.008186 0.000000 0.000000 0.000000
# 3 0.006832 0.008186 0.026836 0.000000 0.000000 0.000000
# 4 0.000000 0.000000 0.000000 -0.057115 0.000000 0.000000
# 5 0.000000 0.000000 0.000000 0.000000 -0.001980 0.000000
# 6 0.000000 0.000000 0.000000 0.000000 0.000000 0.019888
#
#
# Mechanical properties :
#
#
# Convention : Reuss Voigt Hill
#
# Bulk Modulus (GPa) = 10.46240 11.78408 11.12324
# Shear Modulus (GPa) = 230.59521 -80.22603 75.18459
#
# Velocity S-wave (km/s) = 10.16787 -5.99739 5.80590
# Velocity P-wave (km/s) = 11.93893 6.53261 7.06623
#
# Compressibility (1/GPa) = 0.09558040
#
# Stress axis : x y z
#
# Youngs Moduli (GPa) = 52.73210 60.58736 37.26292
#
# Poissons Ratio (x) = -0.09812 -0.25458
# Poissons Ratio (y) = -0.08540 -0.30504
# Poissons Ratio (z) = -0.36026 -0.49598
#
# Static dielectric constant tensor:
#      x y z
#    x 1.823500 0.000000 0.000000 
#    y 0.000000 1.772180 0.000000 
#    z 0.000000 0.000000 1.946070 
# 
# From -- ./inp_files/15976.got.cif
#   From: 2010.05.17/outbox.cif.g08.bks.cpg/sg49_8_cif.got.tgz:15976.got - 2010.06.03 21:02:19.
