data_PCOD9393044
_publ_section_title
;
Structure prediction by ZEFSAII (Michael W. Deem and Ramdas Pophale) SiO2 
 PCOD9393044
Probable space group: P C C M
;
_chemical_formula_sum "Si O2"
_cell_formula_units_Z 56
_cell_length_a 31.166190
_cell_length_b 5.412887
_cell_length_c 14.556216
_cell_angle_alpha 90.000000
_cell_angle_beta 90.000000
_cell_angle_gamma 90.000000
_cell_volume 2455.620025
_symmetry_space_group_name_H-M "P C C M"
_symmetry_group_IT_number 49
_symmetry_cell_setting 'orthorhombic'
loop_
_space_group_symop_operation_xyz
x,y,z
-x,-y,z
x,-y,1/2-z
-x,y,1/2-z
-x,-y,-z
x,y,-z
-x,y,1/2+z
x,-y,1/2+z
loop_
_atom_site_type_symbol
_atom_site_label
_atom_site_fract_x
_atom_site_fract_y
_atom_site_fract_z
Si Si1 0.113787 0.574052 0.893141
Si Si2 0.257697 0.895894 0.387656
Si Si3 0.158938 0.065771 0.112009
Si Si4 0.548245 0.071369 0.612108
Si Si5 0.305308 0.398086 0.387662
Si Si6 0.951333 0.744917 0.287977
Si Si7 0.595698 0.572559 0.387869
O O1 0.129886 0.302642 0.863237
O O2 0.064052 0.684533 0.889566
O O3 0.140741 0.803706 0.853149
O O4 0.124103 0.563112 0.000000
O O5 0.258384 0.897157 0.500000
O O6 0.208099 0.903107 0.359502
O O7 0.279060 0.639352 0.358195
O O8 0.283794 0.139981 0.358063
O O9 0.158475 0.051968 0.000000
O O10 0.548127 0.081892 0.500000
O O11 0.567807 0.334708 0.642735
O O12 0.500000 0.000000 0.640048
O O13 0.576799 0.837162 0.639911
O O14 0.304784 0.393608 0.500000
O O15 0.354676 0.434253 0.360113
O O16 0.928992 0.500000 0.250000
O O17 0.000000 0.738474 0.250000
O O18 0.935528 0.000000 0.250000
O O19 0.594593 0.567062 0.500000
#
# Coordination Sequence:
#
# PCOD9393044 Si02
#       7
#     8   8   8   8   8   8   8
#     4  10  19  33  53  76 100 129 165 202 238 281
#     4   9  15  23  34  51  75 100 124 155 201 253
#     4   9  17  28  45  69  94 118 149 189 228 270
#     4   9  15  21  27  33  43  62  94 143 198 245
#     4   9  15  21  30  43  63  91 118 147 191 255
#     4  10  21  38  56  77 105 136 166 201 245 290
#     4   9  15  21  27  36  49  69 102 140 184 247
#
# _framework density 22.804829999999999
#
# number of rings (size 3 to 8) (size 9 to 14) (size 15 to 20)
#    0.000    2.714    0.000    3.000    0.000    8.571 
#    0.000    2.857    0.000    0.000    0.000    0.000 
#    0.000    0.000    0.000    0.000    0.000    0.000 
#
# Total GULP energy -311974.887990 kJ/mol
# GULP energy per Si atom -5570.980143 kJ/mol
# Density = 2.275293 g / cm^3
# Si number density = 22.804830 Si / 1000 Ang^3
#
#
#
# Elastic Constant Matrix: (Units=GPa)
#
#
# Indices 1 2 3 4 5 6 
#
# 1 97.6096 43.4323 11.8889 0.0000 0.0000 0.0000
# 2 43.4323 199.4533 23.7727 0.0000 0.0000 0.0000
# 3 11.8889 23.7727 38.8615 0.0000 0.0000 0.0000
# 4 0.0000 0.0000 0.0000 17.3803 0.0000 0.0000
# 5 0.0000 0.0000 0.0000 0.0000 -18.0066 0.0000
# 6 0.0000 0.0000 0.0000 0.0000 0.0000 23.2320
#
#
#
# Elastic Compliance Matrix: (Units=1/GPa)
#
#
# Indices 1 2 3 4 5 6 
#
# 1 0.011507 -0.002250 -0.002144 0.000000 0.000000 0.000000
# 2 -0.002250 0.005848 -0.002889 0.000000 0.000000 0.000000
# 3 -0.002144 -0.002889 0.028156 0.000000 0.000000 0.000000
# 4 0.000000 0.000000 0.000000 0.057536 0.000000 0.000000
# 5 0.000000 0.000000 0.000000 0.000000 -0.055535 0.000000
# 6 0.000000 0.000000 0.000000 0.000000 0.000000 0.043044
#
#
# Mechanical properties :
#
#
# Convention : Reuss Voigt Hill
#
# Bulk Modulus (GPa) = 32.31580 54.90138 43.60859
# Shear Modulus (GPa) = 43.31351 21.64317 32.47834
#
# Velocity S-wave (km/s) = 4.36284 3.08403 3.77793
# Velocity P-wave (km/s) = 6.29130 6.06699 6.18016
#
# Compressibility (1/GPa) = 0.03094461
#
# Stress axis : x y z
#
# Youngs Moduli (GPa) = 86.90138 170.99711 35.51697
#
# Poissons Ratio (x) = 0.38479 0.07614
# Poissons Ratio (y) = 0.19555 0.10261
# Poissons Ratio (z) = 0.18631 0.49401
#
# Static dielectric constant tensor:
#      x y z
#    x 1.843320 0.000000 0.000000 
#    y 0.000000 1.819690 0.000000 
#    z 0.000000 0.000000 1.569620 
# 
# From -- ./inp_files/14601.got.cif
#   From: 2010.05.17/outbox.cif.g08.bks.cpg/sg49_8_cif.got.tgz:14601.got - 2010.06.03 21:02:19.
