data_PCOD9393486
_publ_section_title
;
Structure prediction by ZEFSAII (Michael W. Deem and Ramdas Pophale) SiO2 
 PCOD9393486
Probable space group: P C C M
;
_chemical_formula_sum "Si O2"
_cell_formula_units_Z 58
_cell_length_a 26.162918
_cell_length_b 15.154605
_cell_length_c 8.515052
_cell_angle_alpha 90.000000
_cell_angle_beta 90.000000
_cell_angle_gamma 90.000000
_cell_volume 3376.121795
_symmetry_space_group_name_H-M "P C C M"
_symmetry_group_IT_number 49
_symmetry_cell_setting 'orthorhombic'
loop_
_space_group_symop_operation_xyz
x,y,z
-x,-y,z
x,-y,1/2-z
-x,y,1/2-z
-x,-y,-z
x,y,-z
-x,y,1/2+z
x,-y,1/2+z
loop_
_atom_site_type_symbol
_atom_site_label
_atom_site_fract_x
_atom_site_fract_y
_atom_site_fract_z
Si Si1 0.500000 0.000000 0.250000
Si Si2 0.444650 0.659922 0.315111
Si Si3 0.166071 0.399479 0.811932
Si Si4 0.340891 0.407978 0.686133
Si Si5 0.744795 0.725431 0.310551
Si Si6 0.419486 0.134282 0.188138
Si Si7 0.305512 0.904054 0.189491
Si Si8 0.052302 0.600307 0.687481
O O1 0.543200 0.926376 0.294190
O O2 0.500000 0.636877 0.250000
O O3 0.443481 0.644901 0.500000
O O4 0.398646 0.606723 0.238611
O O5 0.433671 0.763841 0.286543
O O6 0.174368 0.500000 0.750000
O O7 0.207457 0.329243 0.753619
O O8 0.108764 0.367588 0.765195
O O9 0.168042 0.404673 0.000000
O O10 0.320350 0.500000 0.750000
O O11 0.338896 0.409795 0.500000
O O12 0.305668 0.327996 0.742631
O O13 0.747339 0.722263 0.500000
O O14 0.734351 0.826796 0.266216
O O15 0.361006 0.116997 0.235172
O O16 0.427642 0.113615 0.000000
O O17 0.289697 0.000000 0.250000
O O18 0.311142 0.904093 0.000000
O O19 0.052076 0.500000 0.750000
O O20 0.049519 0.599188 0.500000
O O21 0.000000 0.643445 0.750000
#
# Coordination Sequence:
#
# PCOD9393486 Si02
#       8
#     2   8   8   8   8   8   8   8
#     4  12  22  36  56  86 108 128 158 200 256 312
#     4  11  23  39  57  78 101 129 161 200 249 305
#     4  10  20  32  50  77 110 147 189 230 267 311
#     4  11  23  40  58  79 102 131 168 212 257 307
#     4  10  22  38  56  78 106 139 174 217 264 309
#     4  11  23  36  54  79 105 131 159 195 247 307
#     4  11  23  39  58  80 105 133 168 208 256 313
#     4   9  16  26  42  68 102 144 187 226 266 307
#
# _framework density 17.179475
#
# number of rings (size 3 to 8) (size 9 to 14) (size 15 to 20)
#    0.000    1.517    2.759    3.103    0.000    6.345 
#    0.000    1.379    0.000    0.000    0.000    0.000 
#    0.000    0.552    0.000    6.069    0.000    4.414 
#
# Total GULP energy -323397.429580 kJ/mol
# GULP energy per Si atom -5575.817751 kJ/mol
# Density = 1.714037 g / cm^3
# Si number density = 17.179475 Si / 1000 Ang^3
#
#
#
# Elastic Constant Matrix: (Units=GPa)
#
#
# Indices 1 2 3 4 5 6 
#
# 1 133.0224 52.0122 26.4841 0.0000 0.0000 0.0000
# 2 52.0122 82.2932 26.4401 0.0000 0.0000 0.0000
# 3 26.4841 26.4401 35.4136 0.0000 0.0000 0.0000
# 4 0.0000 0.0000 0.0000 19.9380 0.0000 0.0000
# 5 0.0000 0.0000 0.0000 0.0000 23.0216 0.0000
# 6 0.0000 0.0000 0.0000 0.0000 0.0000 3.9565
#
#
#
# Elastic Compliance Matrix: (Units=1/GPa)
#
#
# Indices 1 2 3 4 5 6 
#
# 1 0.010352 -0.005335 -0.003758 0.000000 0.000000 0.000000
# 2 -0.005335 0.018736 -0.009999 0.000000 0.000000 0.000000
# 3 -0.003758 -0.009999 0.038513 0.000000 0.000000 0.000000
# 4 0.000000 0.000000 0.000000 0.050155 0.000000 0.000000
# 5 0.000000 0.000000 0.000000 0.000000 0.043438 0.000000
# 6 0.000000 0.000000 0.000000 0.000000 0.000000 0.252751
#
#
# Mechanical properties :
#
#
# Convention : Reuss Voigt Hill
#
# Bulk Modulus (GPa) = 33.99381 51.17801 42.58591
# Shear Modulus (GPa) = 10.82402 19.10273 14.96337
#
# Velocity S-wave (km/s) = 2.51281 3.33821 2.95448
# Velocity P-wave (km/s) = 5.31501 6.68678 6.03997
#
# Compressibility (1/GPa) = 0.02941712
#
# Stress axis : x y z
#
# Youngs Moduli (GPa) = 96.60068 53.37259 25.96494
#
# Poissons Ratio (x) = 0.28476 0.09758
# Poissons Ratio (y) = 0.51539 0.25961
# Poissons Ratio (z) = 0.36306 0.53365
#
# Static dielectric constant tensor:
#      x y z
#    x 1.586940 0.000000 0.000000 
#    y 0.000000 1.579540 0.000000 
#    z 0.000000 0.000000 1.605880 
# 
# From -- ./inp_files/4258.got.cif
#   From: 2010.05.17/outbox.cif.g08.bks.cpg/sg49_3_cif.got.tgz:4258.got - 2010.06.03 21:02:19.
