data_PCOD9393404
_publ_section_title
;
Structure prediction by ZEFSAII (Michael W. Deem and Ramdas Pophale) SiO2 
 PCOD9393404
Probable space group: P C C M
;
_chemical_formula_sum "Si O2"
_cell_formula_units_Z 56
_cell_length_a 31.219628
_cell_length_b 5.222379
_cell_length_c 15.704042
_cell_angle_alpha 90.000000
_cell_angle_beta 90.000000
_cell_angle_gamma 90.000000
_cell_volume 2560.398466
_symmetry_space_group_name_H-M "P C C M"
_symmetry_group_IT_number 49
_symmetry_cell_setting 'orthorhombic'
loop_
_space_group_symop_operation_xyz
x,y,z
-x,-y,z
x,-y,1/2-z
-x,y,1/2-z
-x,-y,-z
x,y,-z
-x,y,1/2+z
x,-y,1/2+z
loop_
_atom_site_type_symbol
_atom_site_label
_atom_site_fract_x
_atom_site_fract_y
_atom_site_fract_z
Si Si1 0.254997 0.340653 0.103304
Si Si2 0.402091 0.057105 0.598623
Si Si3 0.157506 0.588511 0.654074
Si Si4 0.451488 0.553105 0.350391
Si Si5 0.693060 0.160311 0.103879
Si Si6 0.019110 0.753078 0.153680
Si Si7 0.889663 0.892042 0.402621
O O1 0.207645 0.363804 0.140044
O O2 0.286515 0.570484 0.131173
O O3 0.275326 0.069319 0.126558
O O4 0.251790 0.352019 0.000000
O O5 0.397694 0.983072 0.500000
O O6 0.422602 0.337213 0.606090
O O7 0.354313 0.087449 0.635691
O O8 0.432578 0.837217 0.636839
O O9 0.149484 0.500000 0.750000
O O10 0.143477 0.343225 0.599067
O O11 0.131094 0.846217 0.632417
O O12 0.500000 0.500000 0.380631
O O13 0.450823 0.500000 0.250000
O O14 0.690186 0.172500 0.000000
O O15 0.069752 0.789585 0.151013
O O16 0.000000 0.500000 0.112798
O O17 0.000000 0.751263 0.250000
O O18 0.000000 0.000000 0.109493
O O19 0.903145 0.937973 0.500000
#
# Coordination Sequence:
#
# PCOD9393404 Si02
#       7
#     8   8   8   8   8   8   8
#     4  10  19  38  63  89 124 167 212 255 315 385
#     4  11  22  39  64  95 122 157 218 271 323 385
#     4  12  27  43  68  99 136 175 216 269 327 383
#     4  11  24  41  59  84 126 172 213 260 328 398
#     4   9  19  35  61  90 122 162 204 263 324 384
#     4  10  23  40  67  96 132 170 213 258 320 376
#     4  12  26  45  70 101 134 174 224 269 317 384
#
# _framework density 21.871597999999999
#
# number of rings (size 3 to 8) (size 9 to 14) (size 15 to 20)
#    0.000    1.286    0.000    5.571    6.000    6.857 
#    0.000    4.286    0.000    0.000    0.000    0.000 
#    0.000    0.000    0.000    0.000    0.000    0.000 
#
# Total GULP energy -313053.778906 kJ/mol
# GULP energy per Si atom -5590.246052 kJ/mol
# Density = 2.182182 g / cm^3
# Si number density = 21.871598 Si / 1000 Ang^3
#
#
#
# Elastic Constant Matrix: (Units=GPa)
#
#
# Indices 1 2 3 4 5 6 
#
# 1 99.1610 4.2579 17.7899 0.0000 0.0000 0.0000
# 2 4.2579 119.6181 3.7558 0.0000 0.0000 0.0000
# 3 17.7899 3.7558 61.5377 0.0000 0.0000 0.0000
# 4 0.0000 0.0000 0.0000 12.8807 0.0000 0.0000
# 5 0.0000 0.0000 0.0000 0.0000 28.6314 0.0000
# 6 0.0000 0.0000 0.0000 0.0000 0.0000 377.1991
#
#
#
# Elastic Compliance Matrix: (Units=1/GPa)
#
#
# Indices 1 2 3 4 5 6 
#
# 1 0.010646 -0.000283 -0.003060 0.000000 0.000000 0.000000
# 2 -0.000283 0.008384 -0.000430 0.000000 0.000000 0.000000
# 3 -0.003060 -0.000430 0.017161 0.000000 0.000000 0.000000
# 4 0.000000 0.000000 0.000000 0.077636 0.000000 0.000000
# 5 0.000000 0.000000 0.000000 0.000000 0.034927 0.000000
# 6 0.000000 0.000000 0.000000 0.000000 0.000000 0.002651
#
#
# Mechanical properties :
#
#
# Convention : Reuss Voigt Hill
#
# Bulk Modulus (GPa) = 34.91096 36.88043 35.89570
# Shear Modulus (GPa) = 29.67390 100.70979 65.19185
#
# Velocity S-wave (km/s) = 3.68738 6.79308 5.46547
# Velocity P-wave (km/s) = 5.84170 8.85589 7.50174
#
# Compressibility (1/GPa) = 0.02864430
#
# Stress axis : x y z
#
# Youngs Moduli (GPa) = 93.93386 119.28183 58.27123
#
# Poissons Ratio (x) = 0.03374 0.17833
# Poissons Ratio (y) = 0.02657 0.02505
# Poissons Ratio (z) = 0.28747 0.05128
#
# Static dielectric constant tensor:
#      x y z
#    x 1.828380 0.000000 0.000000 
#    y 0.000000 1.776080 0.000000 
#    z 0.000000 0.000000 1.808010 
# 
# From -- ./inp_files/14629.got.cif
#   From: 2010.05.17/outbox.cif.g08.bks.cpg/sg49_8_cif.got.tgz:14629.got - 2010.06.03 21:02:19.
