data_PCOD9393481
_publ_section_title
;
Structure prediction by ZEFSAII (Michael W. Deem and Ramdas Pophale) SiO2 
 PCOD9393481
Probable space group: P C C M
;
_chemical_formula_sum "Si O2"
_cell_formula_units_Z 58
_cell_length_a 26.339136
_cell_length_b 15.235606
_cell_length_c 8.179702
_cell_angle_alpha 90.000000
_cell_angle_beta 90.000000
_cell_angle_gamma 90.000000
_cell_volume 3282.454688
_symmetry_space_group_name_H-M "P C C M"
_symmetry_group_IT_number 49
_symmetry_cell_setting 'orthorhombic'
loop_
_space_group_symop_operation_xyz
x,y,z
-x,-y,z
x,-y,1/2-z
-x,y,1/2-z
-x,-y,-z
x,y,-z
-x,y,1/2+z
x,-y,1/2+z
loop_
_atom_site_type_symbol
_atom_site_label
_atom_site_fract_x
_atom_site_fract_y
_atom_site_fract_z
Si Si1 0.193252 0.097476 0.696617
Si Si2 0.334641 0.601432 0.695506
Si Si3 0.840908 0.593914 0.303907
Si Si4 0.755906 0.272984 0.802832
Si Si5 0.553331 0.398608 0.305337
Si Si6 0.000000 0.000000 0.250000
Si Si7 0.945271 0.669636 0.303623
Si Si8 0.078347 0.134099 0.192248
O O1 0.188480 0.100783 0.500000
O O2 0.233064 0.173001 0.749003
O O3 0.137347 0.117895 0.768806
O O4 0.208176 0.000000 0.750000
O O5 0.325005 0.500000 0.750000
O O6 0.335113 0.598992 0.500000
O O7 0.292928 0.671921 0.749142
O O8 0.391056 0.631022 0.754301
O O9 0.821119 0.500000 0.250000
O O10 0.840838 0.596598 0.500000
O O11 0.804638 0.671193 0.244832
O O12 0.898344 0.609917 0.247891
O O13 0.755645 0.273024 0.000000
O O14 0.551899 0.500000 0.250000
O O15 0.500000 0.356866 0.250000
O O16 0.553357 0.395562 0.500000
O O17 0.042423 0.927805 0.196698
O O18 0.943826 0.677741 0.500000
O O19 0.935956 0.765767 0.228267
O O20 0.000000 0.636251 0.250000
O O21 0.068194 0.113438 0.000000
#
# Coordination Sequence:
#
# PCOD9393481 Si02
#       8
#     8   8   8   8   8   2   8   8
#     4  11  23  40  59  80 107 133 168 210 257 313
#     4  10  20  32  49  77 110 146 188 231 267 311
#     4  10  22  39  56  76 101 131 166 211 256 303
#     4  10  21  38  56  76 105 140 173 218 265 307
#     4   9  16  26  42  67 102 143 186 226 266 307
#     4  12  26  36  56  86 108 124 158 200 256 312
#     4  11  23  40  57  75 102 127 160 205 251 304
#     4  12  24  37  56  79 104 132 160 196 250 310
#
# _framework density 17.669702000000001
#
# number of rings (size 3 to 8) (size 9 to 14) (size 15 to 20)
#    0.000    1.517    2.759    3.103    0.000    6.897 
#    0.000    1.379    0.000    0.000    0.000    0.000 
#    0.000    0.552    0.000    6.069    0.000    4.414 
#
# Total GULP energy -323372.896346 kJ/mol
# GULP energy per Si atom -5575.394765 kJ/mol
# Density = 1.762948 g / cm^3
# Si number density = 17.669702 Si / 1000 Ang^3
#
#
#
# Elastic Constant Matrix: (Units=GPa)
#
#
# Indices 1 2 3 4 5 6 
#
# 1 142.4967 53.4115 21.9126 0.0000 0.0000 0.0000
# 2 53.4115 83.6824 12.9515 0.0000 0.0000 0.0000
# 3 21.9126 12.9515 47.1059 0.0000 0.0000 0.0000
# 4 0.0000 0.0000 0.0000 -25.3703 0.0000 0.0000
# 5 0.0000 0.0000 0.0000 0.0000 21.9223 0.0000
# 6 0.0000 0.0000 0.0000 0.0000 0.0000 3.4974
#
#
#
# Elastic Compliance Matrix: (Units=1/GPa)
#
#
# Indices 1 2 3 4 5 6 
#
# 1 0.009590 -0.005672 -0.002902 0.000000 0.000000 0.000000
# 2 -0.005672 0.015836 -0.001716 0.000000 0.000000 0.000000
# 3 -0.002902 -0.001716 0.023050 0.000000 0.000000 0.000000
# 4 0.000000 0.000000 0.000000 -0.039416 0.000000 0.000000
# 5 0.000000 0.000000 0.000000 0.000000 0.045616 0.000000
# 6 0.000000 0.000000 0.000000 0.000000 0.000000 0.285927
#
#
# Mechanical properties :
#
#
# Convention : Reuss Voigt Hill
#
# Bulk Modulus (GPa) = 35.84503 49.98180 42.91342
# Shear Modulus (GPa) = 13.49605 12.34384 12.91994
#
# Velocity S-wave (km/s) = 2.76668 2.64595 2.70699
# Velocity P-wave (km/s) = 5.52596 6.13864 5.84034
#
# Compressibility (1/GPa) = 0.02789787
#
# Stress axis : x y z
#
# Youngs Moduli (GPa) = 104.27721 63.14909 43.38360
#
# Poissons Ratio (x) = 0.35817 0.12588
# Poissons Ratio (y) = 0.59144 0.07443
# Poissons Ratio (z) = 0.30257 0.10833
#
# Static dielectric constant tensor:
#      x y z
#    x 1.641740 0.000000 0.000000 
#    y 0.000000 1.587620 0.000000 
#    z 0.000000 0.000000 1.646320 
# 
# From -- ./inp_files/6771.got.cif
#   From: 2010.05.17/outbox.cif.g08.bks.cpg/sg49_4_cif.got.tgz:6771.got - 2010.06.03 21:02:19.
