data_PCOD9393154
_publ_section_title
;
Structure prediction by ZEFSAII (Michael W. Deem and Ramdas Pophale) SiO2 
 PCOD9393154
Probable space group: P C C M
;
_chemical_formula_sum "Si O2"
_cell_formula_units_Z 64
_cell_length_a 14.748524
_cell_length_b 32.666268
_cell_length_c 8.598461
_cell_angle_alpha 90.000000
_cell_angle_beta 90.000000
_cell_angle_gamma 90.000000
_cell_volume 4142.559985
_symmetry_space_group_name_H-M "P C C M"
_symmetry_group_IT_number 49
_symmetry_cell_setting 'orthorhombic'
loop_
_space_group_symop_operation_xyz
x,y,z
-x,-y,z
x,-y,1/2-z
-x,y,1/2-z
-x,-y,-z
x,y,-z
-x,y,1/2+z
x,-y,1/2+z
loop_
_atom_site_type_symbol
_atom_site_label
_atom_site_fract_x
_atom_site_fract_y
_atom_site_fract_z
Si Si1 0.902665 0.671808 0.313750
Si Si2 0.710679 0.543425 0.687492
Si Si3 0.602749 0.869486 0.187506
Si Si4 0.396527 0.957976 0.313468
Si Si5 0.398380 0.375615 0.687045
Si Si6 0.096679 0.424207 0.312977
Si Si7 0.716011 0.700855 0.186718
Si Si8 0.397365 0.220233 0.188097
O O1 0.901764 0.673539 0.500000
O O2 0.892195 0.623706 0.268011
O O3 0.818230 0.696514 0.246801
O O4 0.000000 0.685493 0.250000
O O5 0.678350 0.500000 0.750000
O O6 0.711200 0.542513 0.500000
O O7 0.649181 0.581835 0.735529
O O8 0.814160 0.551872 0.741109
O O9 0.500000 0.869545 0.250000
O O10 0.643874 0.913604 0.234194
O O11 0.639125 0.824900 0.235938
O O12 0.600479 0.869757 0.000000
O O13 0.500000 0.957340 0.250000
O O14 0.399305 0.960341 0.500000
O O15 0.354112 0.000000 0.250000
O O16 0.500000 0.373295 0.750000
O O17 0.398668 0.373992 0.500000
O O18 0.340040 0.337774 0.749613
O O19 0.094022 0.425782 0.500000
O O20 0.000000 0.438942 0.250000
O O21 0.665954 0.742434 0.238789
O O22 0.715619 0.699707 0.000000
O O23 0.500000 0.225178 0.250000
O O24 0.401819 0.221066 0.000000
#
# Coordination Sequence:
#
# PCOD9393154 Si02
#       8
#     8   8   8   8   8   8   8   8
#     4  10  19  34  54  76 101 124 149 181 218 263
#     4  10  22  39  55  73  98 123 150 182 220 262
#     4   8  14  24  35  48  71 104 139 180 225 265
#     4   9  14  19  29  44  64  93 132 177 224 265
#     4  11  23  40  56  73  97 122 153 191 227 267
#     4   9  18  34  53  75  99 123 145 173 211 254
#     4  11  21  33  52  76  97 122 153 185 226 269
#     4   9  18  30  43  62  88 117 153 191 227 269
#
# _framework density 15.449384
#
# number of rings (size 3 to 8) (size 9 to 14) (size 15 to 20)
#    0.000    2.375    1.250    2.250    0.000    5.000 
#    0.000    2.500    0.000    0.000    0.000    0.000 
#    0.000    0.000    0.000    0.000    0.000    0.625 
#
# Total GULP energy -356638.395846 kJ/mol
# GULP energy per Si atom -5572.474935 kJ/mol
# Density = 1.541422 g / cm^3
# Si number density = 15.449384 Si / 1000 Ang^3
#
#
#
# Elastic Constant Matrix: (Units=GPa)
#
#
# Indices 1 2 3 4 5 6 
#
# 1 81.5693 55.0363 18.7342 0.0000 0.0000 0.0000
# 2 55.0363 152.4422 28.1506 0.0000 0.0000 0.0000
# 3 18.7342 28.1506 24.7987 0.0000 0.0000 0.0000
# 4 0.0000 0.0000 0.0000 24.8799 0.0000 0.0000
# 5 0.0000 0.0000 0.0000 0.0000 19.8352 0.0000
# 6 0.0000 0.0000 0.0000 0.0000 0.0000 -53.3613
#
#
#
# Elastic Compliance Matrix: (Units=1/GPa)
#
#
# Indices 1 2 3 4 5 6 
#
# 1 0.017256 -0.004836 -0.007546 0.000000 0.000000 0.000000
# 2 -0.004836 0.009655 -0.007307 0.000000 0.000000 0.000000
# 3 -0.007546 -0.007307 0.054319 0.000000 0.000000 0.000000
# 4 0.000000 0.000000 0.000000 0.040193 0.000000 0.000000
# 5 0.000000 0.000000 0.000000 0.000000 0.050415 0.000000
# 6 0.000000 0.000000 0.000000 0.000000 0.000000 -0.018740
#
#
# Mechanical properties :
#
#
# Convention : Reuss Voigt Hill
#
# Bulk Modulus (GPa) = 23.89324 51.40583 37.64953
# Shear Modulus (GPa) = 24.22160 8.73004 16.47582
#
# Velocity S-wave (km/s) = 3.96385 2.37971 3.26918
# Velocity P-wave (km/s) = 6.03726 6.39505 6.21873
#
# Compressibility (1/GPa) = 0.04185284
#
# Stress axis : x y z
#
# Youngs Moduli (GPa) = 57.95151 103.57079 18.40961
#
# Poissons Ratio (x) = 0.50091 0.13892
# Poissons Ratio (y) = 0.28028 0.13451
# Poissons Ratio (z) = 0.43729 0.75675
#
# Static dielectric constant tensor:
#      x y z
#    x 1.486340 0.000000 0.000000 
#    y 0.000000 1.565380 0.000000 
#    z 0.000000 0.000000 1.523700 
# 
# From -- ./inp_files/4547.got.cif
#   From: 2010.05.17/outbox.cif.g08.bks.cpg/sg49_3_cif.got.tgz:4547.got - 2010.06.03 21:02:19.
