data_PCOD9393091
_publ_section_title
;
Structure prediction by ZEFSAII (Michael W. Deem and Ramdas Pophale) SiO2 
 PCOD9393091
Probable space group: P C C M
;
_chemical_formula_sum "Si O2"
_cell_formula_units_Z 64
_cell_length_a 20.121010
_cell_length_b 21.135970
_cell_length_c 8.645994
_cell_angle_alpha 90.000000
_cell_angle_beta 90.000000
_cell_angle_gamma 90.000000
_cell_volume 3676.942941
_symmetry_space_group_name_H-M "P C C M"
_symmetry_group_IT_number 49
_symmetry_cell_setting 'orthorhombic'
loop_
_space_group_symop_operation_xyz
x,y,z
-x,-y,z
x,-y,1/2-z
-x,y,1/2-z
-x,-y,-z
x,y,-z
-x,y,1/2+z
x,-y,1/2+z
loop_
_atom_site_type_symbol
_atom_site_label
_atom_site_fract_x
_atom_site_fract_y
_atom_site_fract_z
Si Si1 0.070725 0.264223 0.684930
Si Si2 0.292886 0.190469 0.813422
Si Si3 0.570598 0.763257 0.315049
Si Si4 0.286616 0.432423 0.313934
Si Si5 0.205910 0.686530 0.686027
Si Si6 0.789048 0.932567 0.813655
Si Si7 0.429766 0.384604 0.685750
Si Si8 0.929799 0.878487 0.185962
O O1 0.068946 0.262022 0.500000
O O2 0.132750 0.304528 0.744556
O O3 0.078941 0.192828 0.750476
O O4 0.000000 0.287429 0.750000
O O5 0.366330 0.199163 0.747501
O O6 0.248929 0.251499 0.768062
O O7 0.256375 0.126309 0.762539
O O8 0.295980 0.190067 0.000000
O O9 0.500000 0.785882 0.250000
O O10 0.569658 0.765062 0.500000
O O11 0.577639 0.689248 0.266517
O O12 0.264551 0.500000 0.250000
O O13 0.284391 0.431463 0.500000
O O14 0.242612 0.375354 0.248745
O O15 0.363330 0.420426 0.264004
O O16 0.202385 0.684954 0.500000
O O17 0.865224 0.918083 0.766626
O O18 0.767337 0.000000 0.750000
O O19 0.787655 0.933845 0.000000
O O20 0.500000 0.408486 0.750000
O O21 0.432852 0.386393 0.500000
O O22 0.000000 0.902926 0.250000
O O23 0.932568 0.875476 0.000000
#
# Coordination Sequence:
#
# PCOD9393091 Si02
#       8
#     8   8   8   8   8   8   8   8
#     4  11  21  34  56  85 115 146 184 231 279 331
#     4  10  20  36  57  81 111 145 183 230 280 330
#     4  10  19  33  54  83 112 142 181 227 277 330
#     4  11  23  39  55  81 114 150 193 233 279 333
#     4  11  21  37  60  84 112 147 186 233 284 329
#     4  10  22  38  54  77 111 148 188 230 279 335
#     4   9  19  33  51  76 110 146 186 227 268 325
#     4  10  19  34  52  77 111 148 189 229 273 328
#
# _framework density 17.405764000000001
#
# number of rings (size 3 to 8) (size 9 to 14) (size 15 to 20)
#    0.000    1.750    2.500    3.375    0.000    4.000 
#    0.000    2.500    0.000    0.750    0.000    5.250 
#    0.000    0.000    0.000    0.000    0.000    0.000 
#
# Total GULP energy -357443.224551 kJ/mol
# GULP energy per Si atom -5585.050384 kJ/mol
# Density = 1.736615 g / cm^3
# Si number density = 17.405764 Si / 1000 Ang^3
#
#
#
# Elastic Constant Matrix: (Units=GPa)
#
#
# Indices 1 2 3 4 5 6 
#
# 1 135.1928 69.0714 36.9319 0.0000 0.0000 0.0000
# 2 69.0714 115.6568 32.1754 0.0000 0.0000 0.0000
# 3 36.9319 32.1754 52.1668 0.0000 0.0000 0.0000
# 4 0.0000 0.0000 0.0000 22.5501 0.0000 0.0000
# 5 0.0000 0.0000 0.0000 0.0000 31.8413 0.0000
# 6 0.0000 0.0000 0.0000 0.0000 0.0000 22.4266
#
#
#
# Elastic Compliance Matrix: (Units=1/GPa)
#
#
# Indices 1 2 3 4 5 6 
#
# 1 0.011537 -0.005574 -0.004730 0.000000 0.000000 0.000000
# 2 -0.005574 0.013130 -0.004152 0.000000 0.000000 0.000000
# 3 -0.004730 -0.004152 0.025079 0.000000 0.000000 0.000000
# 4 0.000000 0.000000 0.000000 0.044346 0.000000 0.000000
# 5 0.000000 0.000000 0.000000 0.000000 0.031406 0.000000
# 6 0.000000 0.000000 0.000000 0.000000 0.000000 0.044590
#
#
# Mechanical properties :
#
#
# Convention : Reuss Voigt Hill
#
# Bulk Modulus (GPa) = 47.99880 64.37487 56.18684
# Shear Modulus (GPa) = 24.27852 26.35279 25.31565
#
# Velocity S-wave (km/s) = 3.73883 3.89527 3.81785
# Velocity P-wave (km/s) = 6.80255 7.56941 7.19620
#
# Compressibility (1/GPa) = 0.02083385
#
# Stress axis : x y z
#
# Youngs Moduli (GPa) = 86.67973 76.15949 39.87458
#
# Poissons Ratio (x) = 0.42452 0.18859
# Poissons Ratio (y) = 0.48316 0.16557
# Poissons Ratio (z) = 0.40995 0.31624
#
# Static dielectric constant tensor:
#      x y z
#    x 1.589440 0.000000 0.000000 
#    y 0.000000 1.578470 0.000000 
#    z 0.000000 0.000000 1.584180 
# 
# From -- ./inp_files/5340.got.cif
#   From: 2010.05.17/outbox.cif.g08.bks.cpg/sg49_3_cif.got.tgz:5340.got - 2010.06.03 21:02:19.
