data_PCOD9393119
_publ_section_title
;
Structure prediction by ZEFSAII (Michael W. Deem and Ramdas Pophale) SiO2 
 PCOD9393119
Probable space group: P C C M
;
_chemical_formula_sum "Si O2"
_cell_formula_units_Z 40
_cell_length_a 10.628357
_cell_length_b 8.717640
_cell_length_c 19.994716
_cell_angle_alpha 90.000000
_cell_angle_beta 90.000000
_cell_angle_gamma 90.000000
_cell_volume 1852.594218
_symmetry_space_group_name_H-M "P C C M"
_symmetry_group_IT_number 49
_symmetry_cell_setting 'orthorhombic'
loop_
_space_group_symop_operation_xyz
x,y,z
-x,-y,z
x,-y,1/2-z
-x,y,1/2-z
-x,-y,-z
x,y,-z
-x,y,1/2+z
x,-y,1/2+z
loop_
_atom_site_type_symbol
_atom_site_label
_atom_site_fract_x
_atom_site_fract_y
_atom_site_fract_z
Si Si1 0.131570 0.348618 0.786866
Si Si2 0.732211 0.197076 0.923872
Si Si3 0.800649 0.537154 0.074990
Si Si4 0.297486 0.057146 0.182219
Si Si5 0.562864 0.251914 0.575088
O O1 0.192507 0.500000 0.750000
O O2 0.122803 0.389733 0.864990
O O3 0.204484 0.188379 0.789424
O O4 0.000000 0.329165 0.750000
O O5 0.807595 0.354866 0.917953
O O6 0.587056 0.255728 0.918975
O O7 0.759687 0.076925 0.864899
O O8 0.749612 0.135946 0.000000
O O9 0.654870 0.599805 0.081619
O O10 0.840671 0.580700 0.000000
O O11 0.391399 0.138765 0.131779
O O12 0.359132 0.000000 0.250000
O O13 0.588137 0.192578 0.500000
#
# Coordination Sequence:
#
# PCOD9393119 Si02
#       5
#     8   8   8   8   8
#     4  10  22  42  62  79 104 145 198 253 311 361
#     4  10  19  33  56  89 126 157 185 226 284 346
#     4   9  18  35  61  89 116 150 195 239 279 340
#     4  11  22  34  53  82 116 153 194 239 288 345
#     4   9  18  33  54  83 122 164 195 221 266 336
#
# _framework density 21.591345
#
# number of rings (size 3 to 8) (size 9 to 14) (size 15 to 20)
#    0.000    2.200    0.000    3.000    0.000    6.800 
#    0.000    3.000    0.000    6.000    0.000   21.000 
#    0.000    0.000    0.000    0.000    0.000    0.000 
#
# Total GULP energy -223074.986417 kJ/mol
# GULP energy per Si atom -5576.874660 kJ/mol
# Density = 2.154220 g / cm^3
# Si number density = 21.591345 Si / 1000 Ang^3
#
#
#
# Elastic Constant Matrix: (Units=GPa)
#
#
# Indices 1 2 3 4 5 6 
#
# 1 62.5246 26.0766 42.1687 0.0000 0.0000 0.0000
# 2 26.0766 105.4947 77.9049 0.0000 0.0000 0.0000
# 3 42.1687 77.9049 192.7331 0.0000 0.0000 0.0000
# 4 0.0000 0.0000 0.0000 39.2296 0.0000 0.0000
# 5 0.0000 0.0000 0.0000 0.0000 51.9051 0.0000
# 6 0.0000 0.0000 0.0000 0.0000 0.0000 12.6282
#
#
#
# Elastic Compliance Matrix: (Units=1/GPa)
#
#
# Indices 1 2 3 4 5 6 
#
# 1 0.019158 -0.002338 -0.003247 0.000000 0.000000 0.000000
# 2 -0.002338 0.013798 -0.005066 0.000000 0.000000 0.000000
# 3 -0.003247 -0.005066 0.007946 0.000000 0.000000 0.000000
# 4 0.000000 0.000000 0.000000 0.025491 0.000000 0.000000
# 5 0.000000 0.000000 0.000000 0.000000 0.019266 0.000000
# 6 0.000000 0.000000 0.000000 0.000000 0.000000 0.079188
#
#
# Mechanical properties :
#
#
# Convention : Reuss Voigt Hill
#
# Bulk Modulus (GPa) = 51.01529 72.56142 61.78835
# Shear Modulus (GPa) = 25.94940 35.05939 30.50439
#
# Velocity S-wave (km/s) = 3.47052 4.03398 3.76281
# Velocity P-wave (km/s) = 6.30383 7.44157 6.89620
#
# Compressibility (1/GPa) = 0.01960197
#
# Stress axis : x y z
#
# Youngs Moduli (GPa) = 52.19619 72.47428 125.84160
#
# Poissons Ratio (x) = 0.16945 0.40856
# Poissons Ratio (y) = 0.12204 0.63748
# Poissons Ratio (z) = 0.16946 0.36714
#
# Static dielectric constant tensor:
#      x y z
#    x 1.810980 0.000000 0.000000 
#    y 0.000000 1.833190 0.000000 
#    z 0.000000 0.000000 1.764950 
# 
# From -- ./inp_files/15959.got.cif
#   From: 2010.05.17/outbox.cif.g08.bks.cpg/sg49_8_cif.got.tgz:15959.got - 2010.06.03 21:02:19.
