data_PCOD9393209
_publ_section_title
;
Structure prediction by ZEFSAII (Michael W. Deem and Ramdas Pophale) SiO2 
 PCOD9393209
Probable space group: P C C M
;
_chemical_formula_sum "Si O2"
_cell_formula_units_Z 48
_cell_length_a 30.572310
_cell_length_b 9.027465
_cell_length_c 9.297674
_cell_angle_alpha 90.000000
_cell_angle_beta 90.000000
_cell_angle_gamma 90.000000
_cell_volume 2566.069310
_symmetry_space_group_name_H-M "P C C M"
_symmetry_group_IT_number 49
_symmetry_cell_setting 'orthorhombic'
loop_
_space_group_symop_operation_xyz
x,y,z
-x,-y,z
x,-y,1/2-z
-x,y,1/2-z
-x,-y,-z
x,y,-z
-x,y,1/2+z
x,-y,1/2+z
loop_
_atom_site_type_symbol
_atom_site_label
_atom_site_fract_x
_atom_site_fract_y
_atom_site_fract_z
Si Si1 0.455736 0.662381 0.676919
Si Si2 0.040165 0.802515 0.000000
Si Si3 0.186077 0.846239 0.833393
Si Si4 0.377166 0.161992 0.675657
Si Si5 0.281267 0.157902 0.671431
Si Si6 0.063299 0.143860 0.000000
Si Si7 0.099214 0.324159 0.264612
O O1 0.452612 0.500000 0.750000
O O2 0.500000 0.727587 0.750000
O O3 0.457672 0.658018 0.500000
O O4 0.414402 0.749725 0.739800
O O5 0.058886 0.713020 0.132506
O O6 0.988321 0.818160 0.000000
O O7 0.062836 0.965476 0.000000
O O8 0.233497 0.776781 0.791686
O O9 0.145958 0.735224 0.816852
O O10 0.178794 0.000000 0.750000
O O11 0.188760 0.887635 0.000000
O O12 0.384100 0.155912 0.500000
O O13 0.328422 0.229249 0.703740
O O14 0.376937 0.000000 0.750000
O O15 0.282262 0.134754 0.500000
O O16 0.280981 0.000000 0.750000
O O17 0.087399 0.221034 0.869092
O O18 0.101430 0.500000 0.250000
#
# Coordination Sequence:
#
# PCOD9393209 Si02
#       7
#     8   4   8   8   8   4   8
#     4  11  22  38  58  81 112 152 199 246 297 359
#     4  11  23  45  63  89 109 153 195 243 278 351
#     4  10  20  37  61  86 114 152 198 237 280 342
#     4  10  19  34  56  85 118 150 191 242 298 349
#     4   8  16  31  54  82 112 147 189 237 282 333
#     4  11  25  41  67  85 115 147 199 237 286 343
#     4  12  25  39  59  88 123 152 186 237 299 350
#
# _framework density 18.705653000000002
#
# number of rings (size 3 to 8) (size 9 to 14) (size 15 to 20)
#    0.000    1.667    0.833    5.000    1.167    4.333 
#    0.000    2.500    0.000    0.000    0.000    0.000 
#    0.000    0.000    0.000    0.000    0.000    0.000 
#
# Total GULP energy -267289.670073 kJ/mol
# GULP energy per Si atom -5568.534793 kJ/mol
# Density = 1.866308 g / cm^3
# Si number density = 18.705653 Si / 1000 Ang^3
#
#
#
# Elastic Constant Matrix: (Units=GPa)
#
#
# Indices 1 2 3 4 5 6 
#
# 1 128.0710 43.5662 22.9051 0.0000 0.0000 0.0000
# 2 43.5662 71.3607 10.5836 0.0000 0.0000 0.0000
# 3 22.9051 10.5836 85.8452 0.0000 0.0000 0.0000
# 4 0.0000 0.0000 0.0000 23.2284 0.0000 0.0000
# 5 0.0000 0.0000 0.0000 0.0000 1.7699 0.0000
# 6 0.0000 0.0000 0.0000 0.0000 0.0000 186.5627
#
#
#
# Elastic Compliance Matrix: (Units=1/GPa)
#
#
# Indices 1 2 3 4 5 6 
#
# 1 0.010177 -0.005918 -0.001986 0.000000 0.000000 0.000000
# 2 -0.005918 0.017716 -0.000605 0.000000 0.000000 0.000000
# 3 -0.001986 -0.000605 0.012253 0.000000 0.000000 0.000000
# 4 0.000000 0.000000 0.000000 0.043051 0.000000 0.000000
# 5 0.000000 0.000000 0.000000 0.000000 0.565012 0.000000
# 6 0.000000 0.000000 0.000000 0.000000 0.000000 0.005360
#
#
# Mechanical properties :
#
#
# Convention : Reuss Voigt Hill
#
# Bulk Modulus (GPa) = 43.23769 48.82074 46.02921
# Shear Modulus (GPa) = 7.37141 56.19366 31.78253
#
# Velocity S-wave (km/s) = 1.98728 5.48691 4.12647
# Velocity P-wave (km/s) = 5.33204 8.14234 6.88217
#
# Compressibility (1/GPa) = 0.02312797
#
# Stress axis : x y z
#
# Youngs Moduli (GPa) = 98.26512 56.44537 81.61080
#
# Poissons Ratio (x) = 0.33406 0.16205
# Poissons Ratio (y) = 0.58157 0.04938
# Poissons Ratio (z) = 0.19512 0.03415
#
# Static dielectric constant tensor:
#      x y z
#    x 1.700610 0.000000 0.000000 
#    y 0.000000 1.623220 0.000000 
#    z 0.000000 0.000000 1.634810 
# 
# From -- ./inp_files/6910.got.cif
#   From: 2010.05.17/outbox.cif.g08.bks.cpg/sg49_4_cif.got.tgz:6910.got - 2010.06.03 21:02:19.
