data_PCOD9393335
_publ_section_title
;
Structure prediction by ZEFSAII (Michael W. Deem and Ramdas Pophale) SiO2 
 PCOD9393335
Probable space group: P C C M
;
_chemical_formula_sum "Si O2"
_cell_formula_units_Z 48
_cell_length_a 14.110032
_cell_length_b 9.615447
_cell_length_c 15.788575
_cell_angle_alpha 90.000000
_cell_angle_beta 90.000000
_cell_angle_gamma 90.000000
_cell_volume 2142.103306
_symmetry_space_group_name_H-M "P C C M"
_symmetry_group_IT_number 49
_symmetry_cell_setting 'orthorhombic'
loop_
_space_group_symop_operation_xyz
x,y,z
-x,-y,z
x,-y,1/2-z
-x,y,1/2-z
-x,-y,-z
x,y,-z
-x,y,1/2+z
x,-y,1/2+z
loop_
_atom_site_type_symbol
_atom_site_label
_atom_site_fract_x
_atom_site_fract_y
_atom_site_fract_z
Si Si1 0.772253 0.545397 0.843238
Si Si2 0.634238 0.344809 0.900433
Si Si3 0.935819 0.620055 0.595228
Si Si4 0.528561 0.849521 0.151579
Si Si5 0.808943 0.852493 0.603462
Si Si6 0.253008 0.844726 0.397560
O O1 0.801706 0.500000 0.750000
O O2 0.665227 0.488632 0.856310
O O3 0.834812 0.457400 0.908205
O O4 0.790982 0.705220 0.860311
O O5 0.532353 0.277359 0.885012
O O6 0.712574 0.229343 0.870768
O O7 0.643921 0.365673 0.000000
O O8 0.974446 0.644524 0.500000
O O9 0.902497 0.767927 0.632760
O O10 0.000000 0.500000 0.636941
O O11 0.500000 0.851826 0.250000
O O12 0.639645 0.840531 0.135888
O O13 0.500000 0.000000 0.113692
O O14 0.811634 0.849182 0.500000
O O15 0.797545 0.012326 0.628689
O O16 0.253878 0.837900 0.500000
#
# Coordination Sequence:
#
# PCOD9393335 Si02
#       6
#     8   8   8   8   8   8
#     4  11  23  38  55  83 117 153 191 249 317 372
#     4  10  19  36  56  75 106 152 203 239 287 356
#     4   9  18  37  63  87 113 151 195 234 287 368
#     4  11  22  34  52  83 118 156 197 249 306 367
#     4   8  16  31  55  84 111 144 190 243 289 343
#     4  11  21  36  58  85 117 155 206 258 307 354
#
# _framework density 22.407883000000002
#
# number of rings (size 3 to 8) (size 9 to 14) (size 15 to 20)
#    0.000    2.000    1.667    4.000    0.000    1.667 
#    0.000    4.167    0.000    4.000    0.000    4.667 
#    0.000    0.000    0.000    0.000    0.000    0.333 
#
# Total GULP energy -267757.688473 kJ/mol
# GULP energy per Si atom -5578.285177 kJ/mol
# Density = 2.235688 g / cm^3
# Si number density = 22.407883 Si / 1000 Ang^3
#
#
#
# Elastic Constant Matrix: (Units=GPa)
#
#
# Indices 1 2 3 4 5 6 
#
# 1 52.1236 39.0874 9.7891 0.0000 0.0000 0.0000
# 2 39.0874 175.7998 23.1591 0.0000 0.0000 0.0000
# 3 9.7891 23.1591 74.4356 0.0000 0.0000 0.0000
# 4 0.0000 0.0000 0.0000 -19.0196 0.0000 0.0000
# 5 0.0000 0.0000 0.0000 0.0000 6.8355 0.0000
# 6 0.0000 0.0000 0.0000 0.0000 0.0000 52.0563
#
#
#
# Elastic Compliance Matrix: (Units=1/GPa)
#
#
# Indices 1 2 3 4 5 6 
#
# 1 0.023185 -0.004956 -0.001507 0.000000 0.000000 0.000000
# 2 -0.004956 0.006991 -0.001523 0.000000 0.000000 0.000000
# 3 -0.001507 -0.001523 0.014107 0.000000 0.000000 0.000000
# 4 0.000000 0.000000 0.000000 -0.052577 0.000000 0.000000
# 5 0.000000 0.000000 0.000000 0.000000 0.146296 0.000000
# 6 0.000000 0.000000 0.000000 0.000000 0.000000 0.019210
#
#
# Mechanical properties :
#
#
# Convention : Reuss Voigt Hill
#
# Bulk Modulus (GPa) = 35.32426 49.60334 42.46380
# Shear Modulus (GPa) = 27.37913 23.32933 25.35423
#
# Velocity S-wave (km/s) = 3.49929 3.23014 3.36741
# Velocity P-wave (km/s) = 5.66791 6.00803 5.84044
#
# Compressibility (1/GPa) = 0.02830916
#
# Stress axis : x y z
#
# Youngs Moduli (GPa) = 43.13128 143.04159 70.88908
#
# Poissons Ratio (x) = 0.70898 0.10683
# Poissons Ratio (y) = 0.21378 0.10798
# Poissons Ratio (z) = 0.06500 0.21789
#
# Static dielectric constant tensor:
#      x y z
#    x 1.865190 0.000000 0.000000 
#    y 0.000000 1.933450 0.000000 
#    z 0.000000 0.000000 2.100170 
# 
# From -- ./inp_files/17722.got.cif
#   From: 2010.05.17/outbox.cif.g08.bks.cpg/sg49_9_cif.got.tgz:17722.got - 2010.06.03 21:02:19.
