data_PCOD9393238
_publ_section_title
;
Structure prediction by ZEFSAII (Michael W. Deem and Ramdas Pophale) SiO2 
 PCOD9393238
Probable space group: P C C M
;
_chemical_formula_sum "Si O2"
_cell_formula_units_Z 32
_cell_length_a 5.255536
_cell_length_b 17.721671
_cell_length_c 15.664289
_cell_angle_alpha 90.000000
_cell_angle_beta 90.000000
_cell_angle_gamma 90.000000
_cell_volume 1458.923004
_symmetry_space_group_name_H-M "P C C M"
_symmetry_group_IT_number 49
_symmetry_cell_setting 'orthorhombic'
loop_
_space_group_symop_operation_xyz
x,y,z
-x,-y,z
x,-y,1/2-z
-x,y,1/2-z
-x,-y,-z
x,y,-z
-x,y,1/2+z
x,-y,1/2+z
loop_
_atom_site_type_symbol
_atom_site_label
_atom_site_fract_x
_atom_site_fract_y
_atom_site_fract_z
Si Si1 0.137457 0.790117 0.159699
Si Si2 0.247717 0.455162 0.104298
Si Si3 0.247872 0.033336 0.347609
Si Si4 0.648969 0.286165 0.598424
O O1 0.223367 0.877143 0.153768
O O2 0.397910 0.744067 0.146149
O O3 0.000000 0.778481 0.250000
O O4 0.900544 0.766377 0.100065
O O5 0.500000 0.500000 0.129409
O O6 0.265369 0.368286 0.131615
O O7 0.000000 0.500000 0.134317
O O8 0.237715 0.454289 0.000000
O O9 0.500000 0.000000 0.388070
O O10 0.248666 0.000000 0.250000
O O11 0.000000 0.000000 0.390593
O O12 0.566426 0.294489 0.500000
#
# Coordination Sequence:
#
# PCOD9393238 Si02
#       4
#     8   8   8   8
#     4  12  23  39  65  96 124 164 216 264 312 379
#     4   9  17  33  59  87 116 162 217 251 283 356
#     4  10  19  34  59  89 111 150 208 273 288 343
#     4  11  24  40  62  95 136 166 201 268 331 372
#
# _framework density 21.933989
#
# number of rings (size 3 to 8) (size 9 to 14) (size 15 to 20)
#    0.000    1.500    2.500    4.500    3.500    4.000 
#    0.000    0.000    0.000   26.250    0.000    0.000 
#    0.000    0.000    0.000    0.000    0.000    0.250 
#
# Total GULP energy -178680.682619 kJ/mol
# GULP energy per Si atom -5583.771332 kJ/mol
# Density = 2.188407 g / cm^3
# Si number density = 21.933989 Si / 1000 Ang^3
#
#
#
# Elastic Constant Matrix: (Units=GPa)
#
#
# Indices 1 2 3 4 5 6 
#
# 1 256.3872 115.2210 26.8701 0.0000 0.0000 0.0000
# 2 115.2210 191.3615 33.4913 0.0000 0.0000 0.0000
# 3 26.8701 33.4913 38.0912 0.0000 0.0000 0.0000
# 4 0.0000 0.0000 0.0000 20.0428 0.0000 0.0000
# 5 0.0000 0.0000 0.0000 0.0000 82.6384 0.0000
# 6 0.0000 0.0000 0.0000 0.0000 0.0000 47.3544
#
#
#
# Elastic Compliance Matrix: (Units=1/GPa)
#
#
# Indices 1 2 3 4 5 6 
#
# 1 0.005387 -0.003048 -0.001121 0.000000 0.000000 0.000000
# 2 -0.003048 0.007900 -0.004796 0.000000 0.000000 0.000000
# 3 -0.001121 -0.004796 0.031260 0.000000 0.000000 0.000000
# 4 0.000000 0.000000 0.000000 0.049893 0.000000 0.000000
# 5 0.000000 0.000000 0.000000 0.000000 0.012101 0.000000
# 6 0.000000 0.000000 0.000000 0.000000 0.000000 0.021117
#
#
# Mechanical properties :
#
#
# Convention : Reuss Voigt Hill
#
# Bulk Modulus (GPa) = 37.56761 93.00054 65.28408
# Shear Modulus (GPa) = 32.37043 50.69094 41.53069
#
# Velocity S-wave (km/s) = 3.84580 4.81257 4.35609
# Velocity P-wave (km/s) = 6.07330 8.56583 7.42490
#
# Compressibility (1/GPa) = 0.02661867
#
# Stress axis : x y z
#
# Youngs Moduli (GPa) = 185.61651 126.57918 31.98932
#
# Poissons Ratio (x) = 0.38578 0.03585
# Poissons Ratio (y) = 0.56570 0.15343
# Poissons Ratio (z) = 0.20803 0.60711
#
# Static dielectric constant tensor:
#      x y z
#    x 1.775410 0.000000 0.000000 
#    y 0.000000 0.969720 0.000000 
#    z 0.000000 0.000000 1.853860 
# 
# From -- ./inp_files/10526.got.cif
#   From: 2010.05.17/outbox.cif.g08.bks.cpg/sg49_6_cif.got.tgz:10526.got - 2010.06.03 21:02:19.
