data_PCOD9393083
_publ_section_title
;
Structure prediction by ZEFSAII (Michael W. Deem and Ramdas Pophale) SiO2 
 PCOD9393083
Probable space group: P C C M
;
_chemical_formula_sum "Si O2"
_cell_formula_units_Z 64
_cell_length_a 15.593653
_cell_length_b 25.302889
_cell_length_c 8.721603
_cell_angle_alpha 90.000000
_cell_angle_beta 90.000000
_cell_angle_gamma 90.000000
_cell_volume 3441.234674
_symmetry_space_group_name_H-M "P C C M"
_symmetry_group_IT_number 49
_symmetry_cell_setting 'orthorhombic'
loop_
_space_group_symop_operation_xyz
x,y,z
-x,-y,z
x,-y,1/2-z
-x,y,1/2-z
-x,-y,-z
x,y,-z
-x,y,1/2+z
x,-y,1/2+z
loop_
_atom_site_type_symbol
_atom_site_label
_atom_site_fract_x
_atom_site_fract_y
_atom_site_fract_z
Si Si1 0.091214 0.357446 0.318183
Si Si2 0.590060 0.830001 0.317157
Si Si3 0.412231 0.397695 0.316431
Si Si4 0.626225 0.283773 0.321817
Si Si5 0.230096 0.443306 0.685152
Si Si6 0.907972 0.940845 0.684368
Si Si7 0.826371 0.741428 0.823320
Si Si8 0.226821 0.141604 0.185363
O O1 0.087729 0.361054 0.500000
O O2 0.165453 0.397295 0.262957
O O3 0.115161 0.297824 0.271861
O O4 0.000000 0.372382 0.250000
O O5 0.500000 0.850784 0.250000
O O6 0.590872 0.834169 0.500000
O O7 0.596091 0.768455 0.266533
O O8 0.675644 0.856678 0.247279
O O9 0.500000 0.420647 0.250000
O O10 0.415680 0.396580 0.500000
O O11 0.403210 0.337900 0.254345
O O12 0.326852 0.428581 0.267112
O O13 0.598757 0.280944 0.500000
O O14 0.729538 0.281186 0.318373
O O15 0.205176 0.500000 0.750000
O O16 0.228604 0.444768 0.500000
O O17 0.910822 0.941923 0.500000
O O18 0.831107 0.904299 0.744327
O O19 0.000000 0.921678 0.750000
O O20 0.896694 0.000000 0.750000
O O21 0.816709 0.802019 0.771873
O O22 0.855343 0.741054 0.000000
O O23 0.229079 0.138907 0.000000
#
# Coordination Sequence:
#
# PCOD9393083 Si02
#       8
#     8   8   8   8   8   8   8   8
#     4  11  23  40  61  86 113 144 184 229 282 343
#     4  11  21  34  53  81 119 162 203 246 294 346
#     4  11  22  37  56  83 112 143 184 227 279 339
#     4  10  19  33  54  81 112 150 190 232 282 337
#     4  10  24  43  62  82 108 142 182 232 284 341
#     4  11  22  39  63  91 122 162 206 255 308 355
#     4   9  19  35  57  84 116 152 188 229 283 339
#     4  10  21  38  59  89 124 159 204 250 296 356
#
# _framework density 18.597977
#
# number of rings (size 3 to 8) (size 9 to 14) (size 15 to 20)
#    0.000    1.625    1.250    5.250    0.000    5.500 
#    0.000    2.500    0.000    0.375    0.000    2.625 
#    0.000    0.000    0.000    0.000    0.000    0.000 
#
# Total GULP energy -357568.608875 kJ/mol
# GULP energy per Si atom -5587.009514 kJ/mol
# Density = 1.855565 g / cm^3
# Si number density = 18.597977 Si / 1000 Ang^3
#
#
#
# Elastic Constant Matrix: (Units=GPa)
#
#
# Indices 1 2 3 4 5 6 
#
# 1 123.9097 55.9651 49.7652 0.0000 0.0000 0.0000
# 2 55.9651 73.1697 33.2069 0.0000 0.0000 0.0000
# 3 49.7652 33.2069 95.5058 0.0000 0.0000 0.0000
# 4 0.0000 0.0000 0.0000 25.4368 0.0000 0.0000
# 5 0.0000 0.0000 0.0000 0.0000 33.4938 0.0000
# 6 0.0000 0.0000 0.0000 0.0000 0.0000 1.9997
#
#
#
# Elastic Compliance Matrix: (Units=1/GPa)
#
#
# Indices 1 2 3 4 5 6 
#
# 1 0.013564 -0.008510 -0.004109 0.000000 0.000000 0.000000
# 2 -0.008510 0.021567 -0.003064 0.000000 0.000000 0.000000
# 3 -0.004109 -0.003064 0.013677 0.000000 0.000000 0.000000
# 4 0.000000 0.000000 0.000000 0.039313 0.000000 0.000000
# 5 0.000000 0.000000 0.000000 0.000000 0.029856 0.000000
# 6 0.000000 0.000000 0.000000 0.000000 0.000000 0.500076
#
#
# Mechanical properties :
#
#
# Convention : Reuss Voigt Hill
#
# Bulk Modulus (GPa) = 57.33530 63.38441 60.35985
# Shear Modulus (GPa) = 7.63086 22.42926 15.03006
#
# Velocity S-wave (km/s) = 2.02780 3.47653 2.84589
# Velocity P-wave (km/s) = 6.03145 7.09016 6.58212
#
# Compressibility (1/GPa) = 0.01744126
#
# Stress axis : x y z
#
# Youngs Moduli (GPa) = 73.72248 46.36790 73.11489
#
# Poissons Ratio (x) = 0.39460 0.30043
# Poissons Ratio (y) = 0.62739 0.22404
# Poissons Ratio (z) = 0.30293 0.14208
#
# Static dielectric constant tensor:
#      x y z
#    x 1.660650 0.000000 0.000000 
#    y 0.000000 1.613180 0.000000 
#    z 0.000000 0.000000 1.626390 
# 
# From -- ./inp_files/4410.got.cif
#   From: 2010.05.17/outbox.cif.g08.bks.cpg/sg49_3_cif.got.tgz:4410.got - 2010.06.03 21:02:19.
