data_PCOD9393034
_publ_section_title
;
Structure prediction by ZEFSAII (Michael W. Deem and Ramdas Pophale) SiO2 
 PCOD9393034
Probable space group: P C C M
;
_chemical_formula_sum "Si O2"
_cell_formula_units_Z 64
_cell_length_a 8.839715
_cell_length_b 20.903520
_cell_length_c 14.744615
_cell_angle_alpha 90.000000
_cell_angle_beta 90.000000
_cell_angle_gamma 90.000000
_cell_volume 2724.527053
_symmetry_space_group_name_H-M "P C C M"
_symmetry_group_IT_number 49
_symmetry_cell_setting 'orthorhombic'
loop_
_space_group_symop_operation_xyz
x,y,z
-x,-y,z
x,-y,1/2-z
-x,y,1/2-z
-x,-y,-z
x,y,-z
-x,y,1/2+z
x,-y,1/2+z
loop_
_atom_site_type_symbol
_atom_site_label
_atom_site_fract_x
_atom_site_fract_y
_atom_site_fract_z
Si Si1 0.318078 0.349523 0.389593
Si Si2 0.131899 0.772195 0.889778
Si Si3 0.357682 0.405087 0.111269
Si Si4 0.613124 0.058955 0.904017
Si Si5 0.166933 0.898634 0.230840
Si Si6 0.835759 0.476435 0.110689
Si Si7 0.594555 0.170600 0.658847
Si Si8 0.191867 0.282913 0.892944
O O1 0.322432 0.346658 0.500000
O O2 0.259220 0.279768 0.361597
O O3 0.479754 0.377579 0.360083
O O4 0.198604 0.404017 0.362959
O O5 0.155247 0.838010 0.837732
O O6 0.966656 0.745878 0.861058
O O7 0.135878 0.779622 0.000000
O O8 0.297241 0.474578 0.139207
O O9 0.236928 0.352192 0.143039
O O10 0.362250 0.406308 0.000000
O O11 0.727115 0.053166 0.822075
O O12 0.517398 0.124824 0.896770
O O13 0.500000 0.000000 0.900955
O O14 0.695701 0.058488 0.000000
O O15 0.259663 0.872680 0.316414
O O16 0.000000 0.921242 0.250000
O O17 0.000000 0.500000 0.140266
O O18 0.835735 0.477519 0.000000
O O19 0.500000 0.184400 0.750000
O O20 0.666599 0.234809 0.619410
O O21 0.169529 0.291539 0.000000
#
# Coordination Sequence:
#
# PCOD9393034 Si02
#       8
#     8   8   8   8   8   8   8   8
#     4   9  17  27  43  71 105 146 199 258 318 373
#     4  10  20  34  55  83 120 162 206 259 315 369
#     4   9  17  26  42  69 104 147 196 254 317 378
#     4  10  23  45  71  98 130 169 212 254 303 367
#     4  11  22  40  64  96 132 167 208 255 310 368
#     4   9  15  25  40  62 101 147 191 250 324 387
#     4  10  22  37  60  88 124 164 204 247 307 372
#     4  10  19  33  52  78 115 156 201 253 310 370
#
# _framework density 23.490316
#
# number of rings (size 3 to 8) (size 9 to 14) (size 15 to 20)
#    0.000    2.250    1.250    1.875    3.500    6.750 
#    0.000    1.250    0.000    1.500    0.000    0.875 
#    0.000    0.000    0.000    0.000    0.000    0.000 
#
# Total GULP energy -357940.863417 kJ/mol
# GULP energy per Si atom -5592.825991 kJ/mol
# Density = 2.343685 g / cm^3
# Si number density = 23.490316 Si / 1000 Ang^3
#
#
#
# Elastic Constant Matrix: (Units=GPa)
#
#
# Indices 1 2 3 4 5 6 
#
# 1 98.0022 9.1277 9.5779 0.0000 0.0000 0.0000
# 2 9.1277 77.1648 22.8277 0.0000 0.0000 0.0000
# 3 9.5779 22.8277 47.1200 0.0000 0.0000 0.0000
# 4 0.0000 0.0000 0.0000 21.9729 0.0000 0.0000
# 5 0.0000 0.0000 0.0000 0.0000 6.1544 0.0000
# 6 0.0000 0.0000 0.0000 0.0000 0.0000 21.7091
#
#
#
# Elastic Compliance Matrix: (Units=1/GPa)
#
#
# Indices 1 2 3 4 5 6 
#
# 1 0.010444 -0.000709 -0.001779 0.000000 0.000000 0.000000
# 2 -0.000709 0.015175 -0.007208 0.000000 0.000000 0.000000
# 3 -0.001779 -0.007208 0.025076 0.000000 0.000000 0.000000
# 4 0.000000 0.000000 0.000000 0.045511 0.000000 0.000000
# 5 0.000000 0.000000 0.000000 0.000000 0.162485 0.000000
# 6 0.000000 0.000000 0.000000 0.000000 0.000000 0.046064
#
#
# Mechanical properties :
#
#
# Convention : Reuss Voigt Hill
#
# Bulk Modulus (GPa) = 31.94592 33.92817 32.93704
# Shear Modulus (GPa) = 14.94407 22.01753 18.48080
#
# Velocity S-wave (km/s) = 2.52500 3.06486 2.80793
# Velocity P-wave (km/s) = 4.70425 5.19609 4.95627
#
# Compressibility (1/GPa) = 0.03130290
#
# Stress axis : x y z
#
# Youngs Moduli (GPa) = 95.75066 65.89603 39.87885
#
# Poissons Ratio (x) = 0.04672 0.07096
# Poissons Ratio (y) = 0.06788 0.28744
# Poissons Ratio (z) = 0.17038 0.47496
#
# Static dielectric constant tensor:
#      x y z
#    x 1.878620 0.000000 0.000000 
#    y 0.000000 1.883700 0.000000 
#    z 0.000000 0.000000 1.911550 
# 
# From -- ./inp_files/16577.got.cif
#   From: 2010.05.17/outbox.cif.g08.bks.cpg/sg49_9_cif.got.tgz:16577.got - 2010.06.03 21:02:19.
