data_PCOD9393242
_publ_section_title
;
Structure prediction by ZEFSAII (Michael W. Deem and Ramdas Pophale) SiO2 
 PCOD9393242
Probable space group: P C C M
;
_chemical_formula_sum "Si O2"
_cell_formula_units_Z 64
_cell_length_a 9.186640
_cell_length_b 22.291400
_cell_length_c 16.547323
_cell_angle_alpha 90.000000
_cell_angle_beta 90.000000
_cell_angle_gamma 90.000000
_cell_volume 3388.611553
_symmetry_space_group_name_H-M "P C C M"
_symmetry_group_IT_number 49
_symmetry_cell_setting 'orthorhombic'
loop_
_space_group_symop_operation_xyz
x,y,z
-x,-y,z
x,-y,1/2-z
-x,y,1/2-z
-x,-y,-z
x,y,-z
-x,y,1/2+z
x,-y,1/2+z
loop_
_atom_site_type_symbol
_atom_site_label
_atom_site_fract_x
_atom_site_fract_y
_atom_site_fract_z
Si Si1 0.395058 0.347748 0.326015
Si Si2 0.287791 0.774305 0.096687
Si Si3 0.831388 0.429458 0.733026
Si Si4 0.487809 0.110245 0.407110
Si Si5 0.207733 0.046117 0.632879
Si Si6 0.780384 0.084973 0.319346
Si Si7 0.597115 0.558771 0.905407
Si Si8 0.990586 0.153105 0.090867
O O1 0.500000 0.335484 0.250000
O O2 0.333493 0.286235 0.360457
O O3 0.267821 0.390924 0.293490
O O4 0.490610 0.384973 0.390135
O O5 0.399718 0.828859 0.113047
O O6 0.126212 0.797495 0.118147
O O7 0.288155 0.766119 0.000000
O O8 0.827006 0.500000 0.750000
O O9 0.743140 0.427865 0.647066
O O10 0.000000 0.411032 0.750000
O O11 0.540569 0.113827 0.500000
O O12 0.369164 0.057596 0.399975
O O13 0.617127 0.099096 0.345468
O O14 0.205154 0.069066 0.725708
O O15 0.101804 0.091300 0.587644
O O16 0.173483 0.976039 0.633917
O O17 0.881014 0.139397 0.347514
O O18 0.500000 0.500000 0.878660
O O19 0.630990 0.550852 0.000000
O O20 0.043110 0.166793 0.000000
#
# Coordination Sequence:
#
# PCOD9393242 Si02
#       8
#     8   8   8   8   8   8   8   8
#     4  10  20  35  62  86 112 156 199 237 287 345
#     4   9  20  39  55  76 110 147 191 236 286 340
#     4  10  20  37  58  87 126 158 185 235 291 344
#     4  10  21  36  55  77 105 140 181 235 287 339
#     4  10  21  35  51  77 110 140 175 230 290 349
#     4  11  21  34  54  80 106 139 182 230 289 345
#     4  10  19  34  59  92 122 154 199 241 282 338
#     4  10  21  36  54  75 104 143 183 230 277 335
#
# _framework density 18.886793000000001
#
# number of rings (size 3 to 8) (size 9 to 14) (size 15 to 20)
#    0.000    2.000    1.250    3.375    0.000    7.000 
#    0.000    7.500    0.000    1.500    0.000    0.000 
#    0.000    0.000    0.000    0.000    0.000    0.000 
#
# Total GULP energy -357053.563191 kJ/mol
# GULP energy per Si atom -5578.961925 kJ/mol
# Density = 1.884381 g / cm^3
# Si number density = 18.886793 Si / 1000 Ang^3
#
#
#
# Elastic Constant Matrix: (Units=GPa)
#
#
# Indices 1 2 3 4 5 6 
#
# 1 103.4455 22.1542 32.3033 0.0000 0.0000 0.0000
# 2 22.1542 82.9738 18.2283 0.0000 0.0000 0.0000
# 3 32.3033 18.2283 41.5273 0.0000 0.0000 0.0000
# 4 0.0000 0.0000 0.0000 27.9423 0.0000 0.0000
# 5 0.0000 0.0000 0.0000 0.0000 5.6820 0.0000
# 6 0.0000 0.0000 0.0000 0.0000 0.0000 29.2384
#
#
#
# Elastic Compliance Matrix: (Units=1/GPa)
#
#
# Indices 1 2 3 4 5 6 
#
# 1 0.012908 -0.001373 -0.009438 0.000000 0.000000 0.000000
# 2 -0.001373 0.013484 -0.004851 0.000000 0.000000 0.000000
# 3 -0.009438 -0.004851 0.033552 0.000000 0.000000 0.000000
# 4 0.000000 0.000000 0.000000 0.035788 0.000000 0.000000
# 5 0.000000 0.000000 0.000000 0.000000 0.175995 0.000000
# 6 0.000000 0.000000 0.000000 0.000000 0.000000 0.034202
#
#
# Mechanical properties :
#
#
# Convention : Reuss Voigt Hill
#
# Bulk Modulus (GPa) = 34.94092 41.47981 38.21037
# Shear Modulus (GPa) = 14.41778 22.92325 18.67052
#
# Velocity S-wave (km/s) = 2.76593 3.48763 3.14753
# Velocity P-wave (km/s) = 5.36105 6.18288 5.78657
#
# Compressibility (1/GPa) = 0.02861974
#
# Stress axis : x y z
#
# Youngs Moduli (GPa) = 77.46908 74.16046 29.80466
#
# Poissons Ratio (x) = 0.10183 0.28131
# Poissons Ratio (y) = 0.10637 0.14458
# Poissons Ratio (z) = 0.73119 0.35974
#
# Static dielectric constant tensor:
#      x y z
#    x 1.672170 0.000000 0.000000 
#    y 0.000000 1.628900 0.000000 
#    z 0.000000 0.000000 1.662510 
# 
# From -- ./inp_files/16549.got.cif
#   From: 2010.05.17/outbox.cif.g08.bks.cpg/sg49_9_cif.got.tgz:16549.got - 2010.06.03 21:02:19.
