data_PCOD9393197
_publ_section_title
;
Structure prediction by ZEFSAII (Michael W. Deem and Ramdas Pophale) SiO2 
 PCOD9393197
Probable space group: P C C M
;
_chemical_formula_sum "Si O2"
_cell_formula_units_Z 48
_cell_length_a 8.824184
_cell_length_b 30.254971
_cell_length_c 9.947762
_cell_angle_alpha 90.000000
_cell_angle_beta 90.000000
_cell_angle_gamma 90.000000
_cell_volume 2655.808048
_symmetry_space_group_name_H-M "P C C M"
_symmetry_group_IT_number 49
_symmetry_cell_setting 'orthorhombic'
loop_
_space_group_symop_operation_xyz
x,y,z
-x,-y,z
x,-y,1/2-z
-x,y,1/2-z
-x,-y,-z
x,y,-z
-x,y,1/2+z
x,-y,1/2+z
loop_
_atom_site_type_symbol
_atom_site_label
_atom_site_fract_x
_atom_site_fract_y
_atom_site_fract_z
Si Si1 0.682796 0.609599 0.741412
Si Si2 0.679281 0.454104 0.000000
Si Si3 0.851592 0.301178 0.840876
Si Si4 0.654765 0.041472 0.836254
Si Si5 0.688826 0.445423 0.500000
Si Si6 0.146262 0.129485 0.657034
Si Si7 0.646474 0.785883 0.342620
O O1 0.500000 0.615805 0.750000
O O2 0.723080 0.574354 0.627590
O O3 0.760408 0.655832 0.709099
O O4 0.731962 0.584605 0.875073
O O5 0.741455 0.503818 0.000000
O O6 0.494556 0.452420 0.000000
O O7 0.747834 0.257819 0.825418
O O8 0.000000 0.296513 0.750000
O O9 0.887211 0.305898 0.000000
O O10 0.500000 0.050164 0.750000
O O11 0.760497 0.084162 0.826899
O O12 0.720445 0.000000 0.750000
O O13 0.632613 0.033187 0.000000
O O14 0.102743 0.133647 0.500000
O O15 0.254058 0.170928 0.689639
O O16 0.000000 0.129656 0.750000
O O17 0.500000 0.783841 0.250000
O O18 0.602718 0.788744 0.500000
#
# Coordination Sequence:
#
# PCOD9393197 Si02
#       7
#     8   4   8   8   4   8   8
#     4  10  19  34  56  83 112 143 182 231 276 327
#     4   9  16  32  51  83 117 139 181 231 274 321
#     4  11  24  40  58  81 113 148 185 228 277 334
#     4  10  20  35  56  84 115 155 201 249 294 342
#     4   9  18  28  55  85 109 145 181 225 280 327
#     4  10  22  38  58  85 120 155 194 237 287 345
#     4  10  22  41  63  89 115 144 186 235 284 338
#
# _framework density 18.073595999999998
#
# number of rings (size 3 to 8) (size 9 to 14) (size 15 to 20)
#    0.000    2.000    0.833    3.000    1.167    5.000 
#    0.000    1.667    0.000    3.000    0.000    0.000 
#    0.000    0.000    0.000    0.000    0.000    0.000 
#
# Total GULP energy -267671.506981 kJ/mol
# GULP energy per Si atom -5576.489729 kJ/mol
# Density = 1.803246 g / cm^3
# Si number density = 18.073596 Si / 1000 Ang^3
#
#
#
# Elastic Constant Matrix: (Units=GPa)
#
#
# Indices 1 2 3 4 5 6 
#
# 1 86.8048 68.7080 80.3003 0.0000 0.0000 0.0000
# 2 68.7080 171.4565 94.6280 0.0000 0.0000 0.0000
# 3 80.3003 94.6280 170.6030 0.0000 0.0000 0.0000
# 4 0.0000 0.0000 0.0000 18.4148 0.0000 0.0000
# 5 0.0000 0.0000 0.0000 0.0000 38.4921 0.0000
# 6 0.0000 0.0000 0.0000 0.0000 0.0000 -27.7463
#
#
#
# Elastic Compliance Matrix: (Units=1/GPa)
#
#
# Indices 1 2 3 4 5 6 
#
# 1 0.022676 -0.004607 -0.008118 0.000000 0.000000 0.000000
# 2 -0.004607 0.009341 -0.003013 0.000000 0.000000 0.000000
# 3 -0.008118 -0.003013 0.011354 0.000000 0.000000 0.000000
# 4 0.000000 0.000000 0.000000 0.054304 0.000000 0.000000
# 5 0.000000 0.000000 0.000000 0.000000 0.025979 0.000000
# 6 0.000000 0.000000 0.000000 0.000000 0.000000 -0.036041
#
#
# Mechanical properties :
#
#
# Convention : Reuss Voigt Hill
#
# Bulk Modulus (GPa) = 84.06390 101.79299 92.92845
# Shear Modulus (GPa) = 40.63211 18.18065 29.40638
#
# Velocity S-wave (km/s) = 4.74661 3.17507 4.03803
# Velocity P-wave (km/s) = 8.75519 8.35973 8.55974
#
# Compressibility (1/GPa) = 0.01189571
#
# Stress axis : x y z
#
# Youngs Moduli (GPa) = 44.09899 107.05124 88.07484
#
# Poissons Ratio (x) = 0.49314 0.71502
# Poissons Ratio (y) = 0.20314 0.26538
# Poissons Ratio (z) = 0.35801 0.32256
#
# Static dielectric constant tensor:
#      x y z
#    x 1.625860 0.000000 0.000000 
#    y 0.000000 1.602960 0.000000 
#    z 0.000000 0.000000 1.627020 
# 
# From -- ./inp_files/2140.got.cif
#   From: 2010.05.17/outbox.cif.g08.bks.cpg/sg49_2_cif.got.tgz:2140.got - 2010.06.03 21:02:19.
