data_PCOD9393729
_publ_section_title
;
Structure prediction by ZEFSAII (Michael W. Deem and Ramdas Pophale) SiO2 
 PCOD9393729
Probable space group: P C C M
;
_chemical_formula_sum "Si O2"
_cell_formula_units_Z 64
_cell_length_a 22.662286
_cell_length_b 9.156193
_cell_length_c 16.463213
_cell_angle_alpha 90.000000
_cell_angle_beta 90.000000
_cell_angle_gamma 90.000000
_cell_volume 3416.121051
_symmetry_space_group_name_H-M "P C C M"
_symmetry_group_IT_number 49
_symmetry_cell_setting 'orthorhombic'
loop_
_space_group_symop_operation_xyz
x,y,z
-x,-y,z
x,-y,1/2-z
-x,y,1/2-z
-x,-y,-z
x,y,-z
-x,y,1/2+z
x,-y,1/2+z
loop_
_atom_site_type_symbol
_atom_site_label
_atom_site_fract_x
_atom_site_fract_y
_atom_site_fract_z
Si Si1 0.267599 0.796578 0.593474
Si Si2 0.930432 0.672765 0.758823
Si Si3 0.151567 0.108627 0.327412
Si Si4 0.713355 0.093610 0.833153
Si Si5 0.383192 0.693008 0.096115
Si Si6 0.134775 0.181009 0.905656
Si Si7 0.495745 0.170665 0.847280
Si Si8 0.617446 0.645987 0.098505
O O1 0.263364 0.752869 0.500000
O O2 0.201377 0.781574 0.625702
O O3 0.320293 0.705525 0.631782
O O4 0.286112 0.965355 0.599950
O O5 0.919967 0.500000 0.750000
O O6 0.892639 0.760805 0.691670
O O7 0.909148 0.736434 0.845574
O O8 0.000000 0.700532 0.750000
O O9 0.219894 0.155795 0.334419
O O10 0.149097 0.000000 0.250000
O O11 0.132396 0.995690 0.397604
O O12 0.663971 0.212163 0.853084
O O13 0.704194 0.000000 0.750000
O O14 0.448167 0.755076 0.111299
O O15 0.386489 0.523451 0.120703
O O16 0.368187 0.701427 0.000000
O O17 0.128089 0.221183 0.000000
O O18 0.500000 0.181546 0.750000
O O19 0.435963 0.252485 0.872566
O O20 0.500000 0.000000 0.869229
O O21 0.617348 0.654577 0.000000
#
# Coordination Sequence:
#
# PCOD9393729 Si02
#       8
#     8   8   8   8   8   8   8   8
#     4   9  18  35  59  83 112 148 184 230 285 335
#     4  10  21  38  57  81 119 161 195 229 286 349
#     4   8  17  35  56  83 114 150 190 236 283 334
#     4  10  20  34  56  85 114 144 188 232 274 332
#     4  11  24  39  58  83 113 149 184 227 283 341
#     4   9  18  35  60  88 114 147 195 245 285 330
#     4  11  25  41  59  82 108 143 190 238 281 331
#     4  10  22  40  59  82 113 147 185 225 281 345
#
# _framework density 18.734698999999999
#
# number of rings (size 3 to 8) (size 9 to 14) (size 15 to 20)
#    0.000    2.250    0.000    2.625    3.500    7.750 
#    0.000    3.125    0.000    0.000    0.000    0.000 
#    0.000    0.000    0.000    0.000    0.000    0.000 
#
# Total GULP energy -356910.262470 kJ/mol
# GULP energy per Si atom -5576.722851 kJ/mol
# Density = 1.869206 g / cm^3
# Si number density = 18.734699 Si / 1000 Ang^3
#
#
#
# Elastic Constant Matrix: (Units=GPa)
#
#
# Indices 1 2 3 4 5 6 
#
# 1 148.2499 97.0085 40.5799 0.0000 0.0000 0.0000
# 2 97.0085 120.5225 39.1055 0.0000 0.0000 0.0000
# 3 40.5799 39.1055 58.8439 0.0000 0.0000 0.0000
# 4 0.0000 0.0000 0.0000 28.6789 0.0000 0.0000
# 5 0.0000 0.0000 0.0000 0.0000 26.3851 0.0000
# 6 0.0000 0.0000 0.0000 0.0000 0.0000-1379.1650
#
#
#
# Elastic Compliance Matrix: (Units=1/GPa)
#
#
# Indices 1 2 3 4 5 6 
#
# 1 0.014626 -0.010836 -0.002885 0.000000 0.000000 0.000000
# 2 -0.010836 0.018607 -0.004892 0.000000 0.000000 0.000000
# 3 -0.002885 -0.004892 0.022235 0.000000 0.000000 0.000000
# 4 0.000000 0.000000 0.000000 0.034869 0.000000 0.000000
# 5 0.000000 0.000000 0.000000 0.000000 0.037900 0.000000
# 6 0.000000 0.000000 0.000000 0.000000 0.000000 -0.000725
#
#
# Mechanical properties :
#
#
# Convention : Reuss Voigt Hill
#
# Bulk Modulus (GPa) = 54.82364 75.66712 65.24538
# Shear Modulus (GPa) = 29.27079 -254.75869 -112.74395
#
# Velocity S-wave (km/s) = 3.95699 -11.67379 -7.76594
# Velocity P-wave (km/s) = 7.08546 11.88389 6.74623
#
# Compressibility (1/GPa) = 0.01824031
#
# Stress axis : x y z
#
# Youngs Moduli (GPa) = 68.37208 53.74391 44.97430
#
# Poissons Ratio (x) = 0.58238 0.12975
# Poissons Ratio (y) = 0.74090 0.22003
# Poissons Ratio (z) = 0.19725 0.26294
#
# Static dielectric constant tensor:
#      x y z
#    x 1.645020 0.000000 0.000000 
#    y 0.000000 1.644200 0.000000 
#    z 0.000000 0.000000 1.696570 
# 
# From -- ./inp_files/18298.got.cif
#   From: 2010.05.17/outbox.cif.g08.bks.cpg/sg49_10_cif.got.tgz:18298.got - 2010.06.03 21:02:19.
