data_PCOD9393999
_publ_section_title
;
Structure prediction by ZEFSAII (Michael W. Deem and Ramdas Pophale) SiO2 
 PCOD9393999
Probable space group: P C C M
;
_chemical_formula_sum "Si O2"
_cell_formula_units_Z 40
_cell_length_a 13.024829
_cell_length_b 8.369045
_cell_length_c 14.916945
_cell_angle_alpha 90.000000
_cell_angle_beta 90.000000
_cell_angle_gamma 90.000000
_cell_volume 1626.027258
_symmetry_space_group_name_H-M "P C C M"
_symmetry_group_IT_number 49
_symmetry_cell_setting 'orthorhombic'
loop_
_space_group_symop_operation_xyz
x,y,z
-x,-y,z
x,-y,1/2-z
-x,y,1/2-z
-x,-y,-z
x,y,-z
-x,y,1/2+z
x,-y,1/2+z
loop_
_atom_site_type_symbol
_atom_site_label
_atom_site_fract_x
_atom_site_fract_y
_atom_site_fract_z
Si Si1 0.343157 0.308492 0.400195
Si Si2 0.549311 0.827642 0.892425
Si Si3 0.079828 0.224425 0.891309
Si Si4 0.141412 0.860011 0.108907
Si Si5 0.722743 0.616704 0.832960
O O1 0.353157 0.235687 0.500000
O O2 0.457330 0.290568 0.363728
O O3 0.248198 0.211916 0.356493
O O4 0.312288 0.491611 0.408229
O O5 0.652077 0.772538 0.842750
O O6 0.500000 0.000000 0.872360
O O7 0.570772 0.821519 0.000000
O O8 0.159046 0.341731 0.845340
O O9 0.961070 0.234712 0.863184
O O10 0.119572 0.044696 0.870360
O O11 0.085184 0.243195 0.000000
O O12 0.143596 0.848961 0.000000
O O13 0.702838 0.500000 0.750000
#
# Coordination Sequence:
#
# PCOD9393999 Si02
#       5
#     8   8   8   8   8
#     4  10  20  36  59  87 118 151 198 261 325 382
#     4  10  21  40  67  91 113 154 214 271 318 372
#     4   9  17  35  62  88 118 158 207 258 305 361
#     4   8  16  33  62  94 116 147 203 264 312 361
#     4  12  25  38  54  85 130 168 200 246 317 396
#
# _framework density 24.599834999999999
#
# number of rings (size 3 to 8) (size 9 to 14) (size 15 to 20)
#    0.000    2.200    0.000    4.800    0.000    7.200 
#    0.000   10.000    0.000    2.400    0.000    0.000 
#    0.000    0.000    0.000    0.000    0.000    0.000 
#
# Total GULP energy -223555.692389 kJ/mol
# GULP energy per Si atom -5588.892310 kJ/mol
# Density = 2.454384 g / cm^3
# Si number density = 24.599835 Si / 1000 Ang^3
#
#
#
# Elastic Constant Matrix: (Units=GPa)
#
#
# Indices 1 2 3 4 5 6 
#
# 1 116.0516 16.4963 20.9997 0.0000 0.0000 0.0000
# 2 16.4963 61.7197 14.2869 0.0000 0.0000 0.0000
# 3 20.9997 14.2869 79.7565 0.0000 0.0000 0.0000
# 4 0.0000 0.0000 0.0000 12.6990 0.0000 0.0000
# 5 0.0000 0.0000 0.0000 0.0000 119.4036 0.0000
# 6 0.0000 0.0000 0.0000 0.0000 0.0000 57.6050
#
#
#
# Elastic Compliance Matrix: (Units=1/GPa)
#
#
# Indices 1 2 3 4 5 6 
#
# 1 0.009278 -0.001997 -0.002085 0.000000 0.000000 0.000000
# 2 -0.001997 0.017333 -0.002579 0.000000 0.000000 0.000000
# 3 -0.002085 -0.002579 0.013549 0.000000 0.000000 0.000000
# 4 0.000000 0.000000 0.000000 0.078747 0.000000 0.000000
# 5 0.000000 0.000000 0.000000 0.000000 0.008375 0.000000
# 6 0.000000 0.000000 0.000000 0.000000 0.000000 0.017360
#
#
# Mechanical properties :
#
#
# Convention : Reuss Voigt Hill
#
# Bulk Modulus (GPa) = 37.26113 40.12150 38.69131
# Shear Modulus (GPa) = 29.95628 51.65786 40.80707
#
# Velocity S-wave (km/s) = 3.49340 4.58747 4.07730
# Velocity P-wave (km/s) = 5.60817 6.66370 6.15859
#
# Compressibility (1/GPa) = 0.02683762
#
# Stress axis : x y z
#
# Youngs Moduli (GPa) = 107.78131 57.69318 73.80527
#
# Poissons Ratio (x) = 0.11522 0.15389
# Poissons Ratio (y) = 0.21525 0.19035
# Poissons Ratio (z) = 0.22474 0.14879
#
# Static dielectric constant tensor:
#      x y z
#    x 1.918580 0.000000 0.000000 
#    y 0.000000 1.943010 0.000000 
#    z 0.000000 0.000000 2.176970 
# 
# From -- ./inp_files/16843.got.cif
#   From: 2010.05.17/outbox.cif.g08.bks.cpg/sg49_9_cif.got.tgz:16843.got - 2010.06.03 21:02:19.
