data_PCOD9393329
_publ_section_title
;
Structure prediction by ZEFSAII (Michael W. Deem and Ramdas Pophale) SiO2 
 PCOD9393329
Probable space group: P C C M
;
_chemical_formula_sum "Si O2"
_cell_formula_units_Z 64
_cell_length_a 11.587738
_cell_length_b 18.580990
_cell_length_c 15.555183
_cell_angle_alpha 90.000000
_cell_angle_beta 90.000000
_cell_angle_gamma 90.000000
_cell_volume 3349.212023
_symmetry_space_group_name_H-M "P C C M"
_symmetry_group_IT_number 49
_symmetry_cell_setting 'orthorhombic'
loop_
_space_group_symop_operation_xyz
x,y,z
-x,-y,z
x,-y,1/2-z
-x,y,1/2-z
-x,-y,-z
x,y,-z
-x,y,1/2+z
x,-y,1/2+z
loop_
_atom_site_type_symbol
_atom_site_label
_atom_site_fract_x
_atom_site_fract_y
_atom_site_fract_z
Si Si1 0.637558 0.913970 0.747918
Si Si2 0.322184 0.799990 0.903081
Si Si3 0.835657 0.672287 0.338955
Si Si4 0.455814 0.284392 0.847927
Si Si5 0.932892 0.280094 0.403805
Si Si6 0.740000 0.380575 0.656892
Si Si7 0.132317 0.486216 0.600431
Si Si8 0.741700 0.171423 0.602031
O O1 0.500000 0.897583 0.750000
O O2 0.677831 0.864741 0.666840
O O3 0.707417 0.890745 0.832907
O O4 0.647840 0.000000 0.750000
O O5 0.226937 0.740699 0.879845
O O6 0.439029 0.751745 0.898334
O O7 0.308900 0.827888 0.000000
O O8 0.772838 0.653040 0.249683
O O9 0.835675 0.597121 0.389813
O O10 0.969115 0.695317 0.339267
O O11 0.500000 0.284328 0.750000
O O12 0.392578 0.360919 0.864843
O O13 0.349462 0.231823 0.867962
O O14 0.982718 0.276840 0.500000
O O15 0.830994 0.338978 0.403642
O O16 0.868139 0.205462 0.384051
O O17 0.778328 0.462950 0.650397
O O18 0.135316 0.505584 0.500000
O O19 0.000000 0.500000 0.631237
O O20 0.728263 0.156942 0.500000
#
# Coordination Sequence:
#
# PCOD9393329 Si02
#       8
#     8   8   8   8   8   8   8   8
#     4  11  23  40  61  91 129 155 193 256 305 367
#     4  12  23  39  65  91 125 167 205 248 311 375
#     4  12  23  38  60  91 121 158 207 261 312 366
#     4  11  19  39  59  85 120 158 203 254 301 359
#     4  10  20  34  55  88 119 150 196 250 299 358
#     4  11  22  35  61  83 115 161 209 251 312 373
#     4  11  23  39  57  84 124 158 200 266 322 360
#     4  10  19  35  62  89 120 159 197 242 300 366
#
# _framework density 19.108974
#
# number of rings (size 3 to 8) (size 9 to 14) (size 15 to 20)
#    0.000    1.000    5.000    3.375    0.000    2.500 
#    0.000    1.875    0.000    3.000    0.000    2.625 
#    0.000    0.000    0.000    0.000    0.000    0.000 
#
# Total GULP energy -356782.075094 kJ/mol
# GULP energy per Si atom -5574.719923 kJ/mol
# Density = 1.906548 g / cm^3
# Si number density = 19.108974 Si / 1000 Ang^3
#
#
#
# Elastic Constant Matrix: (Units=GPa)
#
#
# Indices 1 2 3 4 5 6 
#
# 1 58.7152 39.9842 33.2568 0.0000 0.0000 0.0000
# 2 39.9842 121.3610 54.9281 0.0000 0.0000 0.0000
# 3 33.2568 54.9281 96.7849 0.0000 0.0000 0.0000
# 4 0.0000 0.0000 0.0000 14.1582 0.0000 0.0000
# 5 0.0000 0.0000 0.0000 0.0000 -24.0266 0.0000
# 6 0.0000 0.0000 0.0000 0.0000 0.0000 26.0032
#
#
#
# Elastic Compliance Matrix: (Units=1/GPa)
#
#
# Indices 1 2 3 4 5 6 
#
# 1 0.023615 -0.005527 -0.004977 0.000000 0.000000 0.000000
# 2 -0.005527 0.012382 -0.005128 0.000000 0.000000 0.000000
# 3 -0.004977 -0.005128 0.014953 0.000000 0.000000 0.000000
# 4 0.000000 0.000000 0.000000 0.070630 0.000000 0.000000
# 5 0.000000 0.000000 0.000000 0.000000 -0.041621 0.000000
# 6 0.000000 0.000000 0.000000 0.000000 0.000000 0.038457
#
#
# Mechanical properties :
#
#
# Convention : Reuss Voigt Hill
#
# Bulk Modulus (GPa) = 50.80259 59.24436 55.02347
# Shear Modulus (GPa) = 32.00162 13.13977 22.57070
#
# Velocity S-wave (km/s) = 4.09674 2.62510 3.44052
# Velocity P-wave (km/s) = 7.00151 6.34499 6.68132
#
# Compressibility (1/GPa) = 0.01968404
#
# Stress axis : x y z
#
# Youngs Moduli (GPa) = 42.34649 80.76386 66.87802
#
# Poissons Ratio (x) = 0.44642 0.33288
# Poissons Ratio (y) = 0.23407 0.34293
# Poissons Ratio (z) = 0.21078 0.41413
#
# Static dielectric constant tensor:
#      x y z
#    x 1.695730 0.000000 0.000000 
#    y 0.000000 1.701340 0.000000 
#    z 0.000000 0.000000 1.723940 
# 
# From -- ./inp_files/13093.got.cif
#   From: 2010.05.17/outbox.cif.g08.bks.cpg/sg49_7_cif.got.tgz:13093.got - 2010.06.03 21:02:19.
