data_PCOD9393000
_publ_section_title
;
Structure prediction by ZEFSAII (Michael W. Deem and Ramdas Pophale) SiO2 
 PCOD9393000
Probable space group: P C C M
;
_chemical_formula_sum "Si O2"
_cell_formula_units_Z 64
_cell_length_a 16.472165
_cell_length_b 22.921147
_cell_length_c 8.976007
_cell_angle_alpha 90.000000
_cell_angle_beta 90.000000
_cell_angle_gamma 90.000000
_cell_volume 3388.989419
_symmetry_space_group_name_H-M "P C C M"
_symmetry_group_IT_number 49
_symmetry_cell_setting 'orthorhombic'
loop_
_space_group_symop_operation_xyz
x,y,z
-x,-y,z
x,-y,1/2-z
-x,y,1/2-z
-x,-y,-z
x,y,-z
-x,y,1/2+z
x,-y,1/2+z
loop_
_atom_site_type_symbol
_atom_site_label
_atom_site_fract_x
_atom_site_fract_y
_atom_site_fract_z
Si Si1 0.915499 0.345793 0.173784
Si Si2 0.583969 0.820621 0.181509
Si Si3 0.612549 0.439097 0.671197
Si Si4 0.627959 0.311202 0.319264
Si Si5 0.191271 0.440754 0.829329
Si Si6 0.085029 0.064973 0.817769
Si Si7 0.805957 0.729893 0.830208
Si Si8 0.244283 0.135497 0.170737
O O1 0.849005 0.389604 0.237798
O O2 0.880476 0.283685 0.224473
O O3 0.000000 0.358334 0.250000
O O4 0.922915 0.350604 0.000000
O O5 0.500000 0.842694 0.250000
O O6 0.591732 0.751621 0.226052
O O7 0.663876 0.856916 0.233275
O O8 0.583184 0.821613 0.000000
O O9 0.589023 0.500000 0.750000
O O10 0.583858 0.441521 0.500000
O O11 0.594130 0.373908 0.735948
O O12 0.710971 0.438718 0.670547
O O13 0.622812 0.314005 0.500000
O O14 0.723283 0.303065 0.283767
O O15 0.166119 0.500000 0.750000
O O16 0.164310 0.438787 0.000000
O O17 0.168048 0.098338 0.770327
O O18 0.000000 0.089541 0.750000
O O19 0.090841 0.000000 0.750000
O O20 0.080035 0.064544 0.000000
O O21 0.785438 0.797700 0.832751
O O22 0.825122 0.711146 0.000000
O O23 0.255165 0.115018 0.000000
#
# Coordination Sequence:
#
# PCOD9393000 Si02
#       8
#     8   8   8   8   8   8   8   8
#     4  12  24  35  46  63  88 121 158 202 255 313
#     4   9  17  32  54  80 108 141 180 224 270 324
#     4   9  16  27  45  68  89 116 152 198 251 314
#     4   8  14  28  50  69  92 127 160 194 254 321
#     4  10  19  33  50  66  85 112 152 201 255 313
#     4  10  19  34  55  84 116 153 193 232 272 317
#     4   9  16  33  53  69  90 123 164 206 252 310
#     4   8  17  33  57  81 109 149 187 219 268 329
#
# _framework density 18.884685000000001
#
# number of rings (size 3 to 8) (size 9 to 14) (size 15 to 20)
#    0.000    2.625    1.250    3.750    0.000    1.250 
#    0.000    8.125    0.000    0.750    0.000    5.250 
#    0.000    0.000    0.000    0.000    0.000    0.000 
#
# Total GULP energy -356309.209855 kJ/mol
# GULP energy per Si atom -5567.331404 kJ/mol
# Density = 1.884170 g / cm^3
# Si number density = 18.884685 Si / 1000 Ang^3
#
#
#
# Elastic Constant Matrix: (Units=GPa)
#
#
# Indices 1 2 3 4 5 6 
#
# 1 127.7339 48.6035 39.6743 0.0000 0.0000 0.0000
# 2 48.6035 56.9862 10.6711 0.0000 0.0000 0.0000
# 3 39.6743 10.6711 70.4819 0.0000 0.0000 0.0000
# 4 0.0000 0.0000 0.0000 14.8786 0.0000 0.0000
# 5 0.0000 0.0000 0.0000 0.0000 19.3669 0.0000
# 6 0.0000 0.0000 0.0000 0.0000 0.0000 3.0865
#
#
#
# Elastic Compliance Matrix: (Units=1/GPa)
#
#
# Indices 1 2 3 4 5 6 
#
# 1 0.013768 -0.010592 -0.006146 0.000000 0.000000 0.000000
# 2 -0.010592 0.026208 0.001994 0.000000 0.000000 0.000000
# 3 -0.006146 0.001994 0.017346 0.000000 0.000000 0.000000
# 4 0.000000 0.000000 0.000000 0.067211 0.000000 0.000000
# 5 0.000000 0.000000 0.000000 0.000000 0.051635 0.000000
# 6 0.000000 0.000000 0.000000 0.000000 0.000000 0.323987
#
#
# Mechanical properties :
#
#
# Convention : Reuss Voigt Hill
#
# Bulk Modulus (GPa) = 35.92703 50.34443 43.13573
# Shear Modulus (GPa) = 9.27781 17.88329 13.58055
#
# Velocity S-wave (km/s) = 2.21890 3.08063 2.68457
# Velocity P-wave (km/s) = 5.06265 6.27459 5.70092
#
# Compressibility (1/GPa) = 0.02783420
#
# Stress axis : x y z
#
# Youngs Moduli (GPa) = 72.63160 38.15566 57.65030
#
# Poissons Ratio (x) = 0.40414 0.35434
# Poissons Ratio (y) = 0.76930 -0.11496
# Poissons Ratio (z) = 0.44643 -0.07609
#
# Static dielectric constant tensor:
#      x y z
#    x 1.691910 0.000000 0.000000 
#    y 0.000000 1.634940 0.000000 
#    z 0.000000 0.000000 1.663470 
# 
# From -- ./inp_files/4409.got.cif
#   From: 2010.05.17/outbox.cif.g08.bks.cpg/sg49_3_cif.got.tgz:4409.got - 2010.06.03 21:02:19.
