data_PCOD9393828
_publ_section_title
;
Structure prediction by ZEFSAII (Michael W. Deem and Ramdas Pophale) SiO2 
 PCOD9393828
Probable space group: P C C M
;
_chemical_formula_sum "Si O2"
_cell_formula_units_Z 32
_cell_length_a 21.327570
_cell_length_b 9.429702
_cell_length_c 8.633849
_cell_angle_alpha 90.000000
_cell_angle_beta 90.000000
_cell_angle_gamma 90.000000
_cell_volume 1736.376075
_symmetry_space_group_name_H-M "P C C M"
_symmetry_group_IT_number 49
_symmetry_cell_setting 'orthorhombic'
loop_
_space_group_symop_operation_xyz
x,y,z
-x,-y,z
x,-y,1/2-z
-x,y,1/2-z
-x,-y,-z
x,y,-z
-x,y,1/2+z
x,-y,1/2+z
loop_
_atom_site_type_symbol
_atom_site_label
_atom_site_fract_x
_atom_site_fract_y
_atom_site_fract_z
Si Si1 0.317621 0.341491 0.814811
Si Si2 0.063480 0.839501 0.815370
Si Si3 0.797383 0.839316 0.686443
Si Si4 0.568570 0.842221 0.314320
O O1 0.314421 0.500000 0.750000
O O2 0.256633 0.254966 0.760026
O O3 0.378340 0.262957 0.745742
O O4 0.321180 0.342494 0.000000
O O5 0.132517 0.781825 0.775647
O O6 0.000000 0.770285 0.750000
O O7 0.064565 0.000000 0.750000
O O8 0.058368 0.845797 0.000000
O O9 0.790994 0.842553 0.500000
O O10 0.792534 0.000000 0.750000
O O11 0.500000 0.802152 0.250000
O O12 0.567292 0.846170 0.500000
O O13 0.582169 0.000000 0.250000
#
# Coordination Sequence:
#
# PCOD9393828 Si02
#       4
#     8   8   8   8
#     4  12  25  41  59  82 112 149 188 231 279 331
#     4   9  16  26  45  73 107 140 177 223 275 326
#     4  10  20  35  55  82 112 147 187 231 278 330
#     4  11  22  40  64  91 119 149 185 227 273 325
#
# _framework density 18.429188
#
# number of rings (size 3 to 8) (size 9 to 14) (size 15 to 20)
#    0.000    1.500    0.000    8.250    0.000    3.500 
#    0.000    2.500    0.000    0.750    0.000    5.250 
#    0.000    0.000    0.000    0.000    0.000    0.000 
#
# Total GULP energy -178726.927942 kJ/mol
# GULP energy per Si atom -5585.216498 kJ/mol
# Density = 1.838724 g / cm^3
# Si number density = 18.429188 Si / 1000 Ang^3
#
#
#
# Elastic Constant Matrix: (Units=GPa)
#
#
# Indices 1 2 3 4 5 6 
#
# 1 184.7419 104.6494 88.9334 0.0000 0.0000 0.0000
# 2 104.6494 83.0041 53.5611 0.0000 0.0000 0.0000
# 3 88.9334 53.5611 167.1314 0.0000 0.0000 0.0000
# 4 0.0000 0.0000 0.0000 25.6802 0.0000 0.0000
# 5 0.0000 0.0000 0.0000 0.0000 37.1775 0.0000
# 6 0.0000 0.0000 0.0000 0.0000 0.0000 -11.1851
#
#
#
# Elastic Compliance Matrix: (Units=1/GPa)
#
#
# Indices 1 2 3 4 5 6 
#
# 1 0.020265 -0.023438 -0.003272 0.000000 0.000000 0.000000
# 2 -0.023438 0.042296 -0.001083 0.000000 0.000000 0.000000
# 3 -0.003272 -0.001083 0.008072 0.000000 0.000000 0.000000
# 4 0.000000 0.000000 0.000000 0.038941 0.000000 0.000000
# 5 0.000000 0.000000 0.000000 0.000000 0.026898 0.000000
# 6 0.000000 0.000000 0.000000 0.000000 0.000000 -0.089404
#
#
# Mechanical properties :
#
#
# Convention : Reuss Voigt Hill
#
# Bulk Modulus (GPa) = 66.46027 103.24057 84.85042
# Shear Modulus (GPa) = 46.43870 22.85007 34.64439
#
# Velocity S-wave (km/s) = 5.02525 3.52502 4.34044
# Velocity P-wave (km/s) = 8.35534 8.52698 8.44160
#
# Compressibility (1/GPa) = 0.01504658
#
# Stress axis : x y z
#
# Youngs Moduli (GPa) = 49.34660 23.64263 123.89221
#
# Poissons Ratio (x) = 0.55414 0.40538
# Poissons Ratio (y) = 1.15658 0.13419
# Poissons Ratio (z) = 0.16146 0.02561
#
# Static dielectric constant tensor:
#      x y z
#    x 1.670310 0.000000 0.000000 
#    y 0.000000 1.593270 0.000000 
#    z 0.000000 0.000000 1.613690 
# 
# From -- ./inp_files/1397.got.cif
#   From: 2010.05.17/outbox.cif.g08.bks.cpg/sg49_1_cif.got.tgz:1397.got - 2010.06.03 21:02:19.
