data_PCOD9393437
_publ_section_title
;
Structure prediction by ZEFSAII (Michael W. Deem and Ramdas Pophale) SiO2 
 PCOD9393437
Probable space group: P C C M
;
_chemical_formula_sum "Si O2"
_cell_formula_units_Z 56
_cell_length_a 8.265470
_cell_length_b 13.986551
_cell_length_c 24.039039
_cell_angle_alpha 90.000000
_cell_angle_beta 90.000000
_cell_angle_gamma 90.000000
_cell_volume 2779.043145
_symmetry_space_group_name_H-M "P C C M"
_symmetry_group_IT_number 49
_symmetry_cell_setting 'orthorhombic'
loop_
_space_group_symop_operation_xyz
x,y,z
-x,-y,z
x,-y,1/2-z
-x,y,1/2-z
-x,-y,-z
x,y,-z
-x,y,1/2+z
x,-y,1/2+z
loop_
_atom_site_type_symbol
_atom_site_label
_atom_site_fract_x
_atom_site_fract_y
_atom_site_fract_z
Si Si1 0.479215 0.706331 0.934525
Si Si2 0.345874 0.882066 0.433476
Si Si3 0.181650 0.619930 0.876087
Si Si4 0.655898 0.431155 0.353868
Si Si5 0.168850 0.939562 0.064348
Si Si6 0.979742 0.758696 0.933135
Si Si7 0.813625 0.383574 0.752733
O O1 0.505293 0.816002 0.915133
O O2 0.307232 0.661708 0.920228
O O3 0.602543 0.635963 0.903789
O O4 0.507586 0.704813 0.000000
O O5 0.361552 0.896957 0.500000
O O6 0.191018 0.812101 0.425482
O O7 0.299215 0.986613 0.410571
O O8 0.204772 0.506012 0.872068
O O9 0.013573 0.665717 0.895911
O O10 0.237052 0.650400 0.813801
O O11 0.500000 0.500000 0.339929
O O12 0.706086 0.365684 0.301371
O O13 0.113675 0.837185 0.086396
O O14 0.215073 0.921104 0.000000
O O15 0.000000 0.000000 0.062812
O O16 0.995128 0.741053 0.000000
O O17 0.813625 0.500000 0.750000
O O18 0.000000 0.352958 0.750000
#
# Coordination Sequence:
#
# PCOD9393437 Si02
#       7
#     8   8   8   8   8   8   8
#     4  10  20  32  47  72 104 137 168 198 242 309
#     4   8  15  28  45  66  97 135 171 202 235 291
#     4  10  20  31  48  71  98 129 160 209 258 293
#     4   9  20  35  53  70  95 133 170 200 245 301
#     4   7  11  23  43  65  92 130 169 201 236 286
#     4   9  16  27  46  72 101 132 165 202 252 305
#     4   9  19  35  53  71  93 122 168 222 255 279
#
# _framework density 20.15082
#
# number of rings (size 3 to 8) (size 9 to 14) (size 15 to 20)
#    0.000    3.143    0.000    2.143    2.000    9.714 
#    0.000    0.714    0.000    6.000    0.000    1.000 
#    0.000    4.571    0.000    0.000    0.000    0.000 
#
# Total GULP energy -311832.634797 kJ/mol
# GULP energy per Si atom -5568.439907 kJ/mol
# Density = 2.010496 g / cm^3
# Si number density = 20.150820 Si / 1000 Ang^3
#
#
#
# Elastic Constant Matrix: (Units=GPa)
#
#
# Indices 1 2 3 4 5 6 
#
# 1 38.9601 15.4979 16.5432 0.0000 0.0000 0.0000
# 2 15.4979 67.1343 20.2757 0.0000 0.0000 0.0000
# 3 16.5432 20.2757 71.8223 0.0000 0.0000 0.0000
# 4 0.0000 0.0000 0.0000 -3.4891 0.0000 0.0000
# 5 0.0000 0.0000 0.0000 0.0000 19.7464 0.0000
# 6 0.0000 0.0000 0.0000 0.0000 0.0000 35.0721
#
#
#
# Elastic Compliance Matrix: (Units=1/GPa)
#
#
# Indices 1 2 3 4 5 6 
#
# 1 0.030084 -0.005304 -0.005432 0.000000 0.000000 0.000000
# 2 -0.005304 0.017219 -0.003639 0.000000 0.000000 0.000000
# 3 -0.005432 -0.003639 0.016202 0.000000 0.000000 0.000000
# 4 0.000000 0.000000 0.000000 -0.286604 0.000000 0.000000
# 5 0.000000 0.000000 0.000000 0.000000 0.050642 0.000000
# 6 0.000000 0.000000 0.000000 0.000000 0.000000 0.028513
#
#
# Mechanical properties :
#
#
# Convention : Reuss Voigt Hill
#
# Bulk Modulus (GPa) = 28.77389 31.39448 30.08419
# Shear Modulus (GPa) = -48.25834 18.63920 -14.80957
#
# Velocity S-wave (km/s) = -4.89904 3.04466 -2.71391
# Velocity P-wave (km/s) = 4.20601 5.28900 2.26749
#
# Compressibility (1/GPa) = 0.03475373
#
# Stress axis : x y z
#
# Youngs Moduli (GPa) = 33.24053 58.07497 61.72150
#
# Poissons Ratio (x) = 0.30804 0.33527
# Poissons Ratio (y) = 0.17632 0.22462
# Poissons Ratio (z) = 0.18056 0.21135
#
# Static dielectric constant tensor:
#      x y z
#    x 1.870790 0.000000 0.000000 
#    y 0.000000 1.741440 0.000000 
#    z 0.000000 0.000000 1.703220 
# 
# From -- ./inp_files/19864.got.cif
#   From: 2010.05.17/outbox.cif.g08.bks.cpg/sg49_10_cif.got.tgz:19864.got - 2010.06.03 21:02:19.
