data_PCOD9393614
_publ_section_title
;
Structure prediction by ZEFSAII (Michael W. Deem and Ramdas Pophale) SiO2 
 PCOD9393614
Probable space group: P C C M
;
_chemical_formula_sum "Si O2"
_cell_formula_units_Z 64
_cell_length_a 17.784393
_cell_length_b 21.371086
_cell_length_c 8.466914
_cell_angle_alpha 90.000000
_cell_angle_beta 90.000000
_cell_angle_gamma 90.000000
_cell_volume 3218.035179
_symmetry_space_group_name_H-M "P C C M"
_symmetry_group_IT_number 49
_symmetry_cell_setting 'orthorhombic'
loop_
_space_group_symop_operation_xyz
x,y,z
-x,-y,z
x,-y,1/2-z
-x,y,1/2-z
-x,-y,-z
x,y,-z
-x,y,1/2+z
x,-y,1/2+z
loop_
_atom_site_type_symbol
_atom_site_label
_atom_site_fract_x
_atom_site_fract_y
_atom_site_fract_z
Si Si1 0.215105 0.295109 0.690177
Si Si2 0.420047 0.410307 0.682656
Si Si3 0.252225 0.434782 0.690112
Si Si4 0.619685 0.281979 0.682391
Si Si5 0.919466 0.207001 0.690357
Si Si6 0.426116 0.846279 0.813048
Si Si7 0.879727 0.931724 0.186072
Si Si8 0.287361 0.064871 0.686811
O O1 0.222185 0.290565 0.500000
O O2 0.211025 0.369522 0.732196
O O3 0.293176 0.273891 0.769203
O O4 0.147156 0.251296 0.746130
O O5 0.500000 0.431085 0.750000
O O6 0.419728 0.427034 0.500000
O O7 0.339118 0.431375 0.752176
O O8 0.414395 0.335727 0.707416
O O9 0.218790 0.500000 0.750000
O O10 0.255303 0.436077 0.500000
O O11 0.613000 0.301255 0.500000
O O12 0.579555 0.217178 0.714826
O O13 0.916249 0.206846 0.500000
O O14 0.912026 0.134385 0.747799
O O15 0.000000 0.230593 0.750000
O O16 0.500000 0.881254 0.750000
O O17 0.348791 0.882612 0.786210
O O18 0.432058 0.834334 0.000000
O O19 0.790962 0.926210 0.223402
O O20 0.904607 0.000000 0.250000
O O21 0.892843 0.933475 0.000000
O O22 0.270825 0.060884 0.500000
O O23 0.319910 0.000000 0.750000
#
# Coordination Sequence:
#
# PCOD9393614 Si02
#       8
#     8   8   8   8   8   8   8   8
#     4  10  21  39  61  86 116 150 188 232 279 334
#     4  10  20  34  50  74 109 148 188 232 283 336
#     4   9  20  36  56  82 112 148 191 237 286 338
#     4  11  21  34  54  78 104 139 182 228 276 331
#     4  11  24  40  61  91 122 155 189 227 275 330
#     4  11  23  36  50  71  99 135 177 228 286 338
#     4  10  21  37  59  86 116 150 190 228 271 326
#     4  10  21  36  55  75  98 132 175 222 274 327
#
# _framework density 19.887912
#
# number of rings (size 3 to 8) (size 9 to 14) (size 15 to 20)
#    0.000    1.750    0.000    6.000    0.000    9.750 
#    0.000    3.750    0.000    0.375    0.000    2.625 
#    0.000    0.000    0.000    0.000    0.000    0.000 
#
# Total GULP energy -357309.826087 kJ/mol
# GULP energy per Si atom -5582.966033 kJ/mol
# Density = 1.984265 g / cm^3
# Si number density = 19.887912 Si / 1000 Ang^3
#
#
#
# Elastic Constant Matrix: (Units=GPa)
#
#
# Indices 1 2 3 4 5 6 
#
# 1 82.5756 40.2059 7.6385 0.0000 0.0000 0.0000
# 2 40.2059 99.5498 14.7695 0.0000 0.0000 0.0000
# 3 7.6385 14.7695 26.9707 0.0000 0.0000 0.0000
# 4 0.0000 0.0000 0.0000 22.7948 0.0000 0.0000
# 5 0.0000 0.0000 0.0000 0.0000 -14.9264 0.0000
# 6 0.0000 0.0000 0.0000 0.0000 0.0000 -3.9443
#
#
#
# Elastic Compliance Matrix: (Units=1/GPa)
#
#
# Indices 1 2 3 4 5 6 
#
# 1 0.015100 -0.005947 -0.001020 0.000000 0.000000 0.000000
# 2 -0.005947 0.013276 -0.005586 0.000000 0.000000 0.000000
# 3 -0.001020 -0.005586 0.040425 0.000000 0.000000 0.000000
# 4 0.000000 0.000000 0.000000 0.043870 0.000000 0.000000
# 5 0.000000 0.000000 0.000000 0.000000 -0.066996 0.000000
# 6 0.000000 0.000000 0.000000 0.000000 0.000000 -0.253528
#
#
# Mechanical properties :
#
#
# Convention : Reuss Voigt Hill
#
# Bulk Modulus (GPa) = 22.88569 37.14711 30.01640
# Shear Modulus (GPa) = -29.72971 10.55030 -9.58971
#
# Velocity S-wave (km/s) = -3.87054 2.30573 -2.19826
# Velocity P-wave (km/s) = 2.90559 5.08009 2.94660
#
# Compressibility (1/GPa) = 0.04369542
#
# Stress axis : x y z
#
# Youngs Moduli (GPa) = 66.22432 75.32428 24.73723
#
# Poissons Ratio (x) = 0.44798 0.02523
# Poissons Ratio (y) = 0.39386 0.13817
# Poissons Ratio (z) = 0.06753 0.42074
#
# Static dielectric constant tensor:
#      x y z
#    x 1.702520 0.000000 0.000000 
#    y 0.000000 1.811740 0.000000 
#    z 0.000000 0.000000 1.690460 
# 
# From -- ./inp_files/5314.got.cif
#   From: 2010.05.17/outbox.cif.g08.bks.cpg/sg49_3_cif.got.tgz:5314.got - 2010.06.03 21:02:19.
