data_PCOD9393664
_publ_section_title
;
Structure prediction by ZEFSAII (Michael W. Deem and Ramdas Pophale) SiO2 
 PCOD9393664
Probable space group: P C C M
;
_chemical_formula_sum "Si O2"
_cell_formula_units_Z 56
_cell_length_a 20.724974
_cell_length_b 15.546233
_cell_length_c 8.934913
_cell_angle_alpha 90.000000
_cell_angle_beta 90.000000
_cell_angle_gamma 90.000000
_cell_volume 2878.786749
_symmetry_space_group_name_H-M "P C C M"
_symmetry_group_IT_number 49
_symmetry_cell_setting 'orthorhombic'
loop_
_space_group_symop_operation_xyz
x,y,z
-x,-y,z
x,-y,1/2-z
-x,y,1/2-z
-x,-y,-z
x,y,-z
-x,y,1/2+z
x,-y,1/2+z
loop_
_atom_site_type_symbol
_atom_site_label
_atom_site_fract_x
_atom_site_fract_y
_atom_site_fract_z
Si Si1 0.808378 0.093930 0.177985
Si Si2 0.571005 0.240609 0.680794
Si Si3 0.798503 0.405588 0.318759
Si Si4 0.662980 0.903961 0.319607
Si Si5 0.936924 0.849622 0.166893
Si Si6 0.062427 0.354606 0.833499
Si Si7 0.344241 0.404949 0.819762
O O1 0.736461 0.127784 0.212594
O O2 0.870265 0.140168 0.245714
O O3 0.810032 0.000000 0.250000
O O4 0.814522 0.089334 0.000000
O O5 0.500000 0.236793 0.750000
O O6 0.569169 0.234430 0.500000
O O7 0.613384 0.162669 0.747152
O O8 0.604380 0.331959 0.721462
O O9 0.798571 0.500000 0.250000
O O10 0.799741 0.405351 0.500000
O O11 0.866155 0.365737 0.265711
O O12 0.727674 0.370734 0.276692
O O13 0.655273 0.908819 0.500000
O O14 0.656062 0.000000 0.250000
O O15 0.947216 0.747526 0.153601
O O16 0.000000 0.885814 0.250000
O O17 0.930933 0.886644 0.000000
O O18 0.000000 0.390158 0.750000
O O19 0.063448 0.392520 0.000000
O O20 0.354246 0.500000 0.750000
O O21 0.345571 0.414850 0.000000
#
# Coordination Sequence:
#
# PCOD9393664 Si02
#       7
#     8   8   8   8   8   8   8
#     4  10  21  37  57  83 112 144 186 233 283 341
#     4  11  24  41  64  93 124 159 199 242 292 356
#     4   9  18  34  53  77 105 140 185 230 280 335
#     4  10  22  41  64  92 125 159 198 246 296 353
#     4  10  20  34  53  76 107 147 188 237 288 341
#     4   9  19  33  50  72 104 142 183 230 280 335
#     4   9  20  38  61  87 119 157 198 245 295 350
#
# _framework density 19.452639999999999
#
# number of rings (size 3 to 8) (size 9 to 14) (size 15 to 20)
#    0.000    2.286    0.000    1.714    2.000    5.143 
#    0.000    5.714    0.000    0.000    0.000    0.000 
#    0.000    0.000    0.000    0.000    0.000    0.000 
#
# Total GULP energy -312137.324024 kJ/mol
# GULP energy per Si atom -5573.880786 kJ/mol
# Density = 1.940837 g / cm^3
# Si number density = 19.452640 Si / 1000 Ang^3
#
#
#
# Elastic Constant Matrix: (Units=GPa)
#
#
# Indices 1 2 3 4 5 6 
#
# 1 199.1278 65.8432 78.9698 0.0000 0.0000 0.0000
# 2 65.8432 64.1197 31.7397 0.0000 0.0000 0.0000
# 3 78.9698 31.7397 71.2586 0.0000 0.0000 0.0000
# 4 0.0000 0.0000 0.0000 24.7746 0.0000 0.0000
# 5 0.0000 0.0000 0.0000 0.0000 24.7773 0.0000
# 6 0.0000 0.0000 0.0000 0.0000 0.0000 70.6376
#
#
#
# Elastic Compliance Matrix: (Units=1/GPa)
#
#
# Indices 1 2 3 4 5 6 
#
# 1 0.010777 -0.006612 -0.008997 0.000000 0.000000 0.000000
# 2 -0.006612 0.024064 -0.003391 0.000000 0.000000 0.000000
# 3 -0.008997 -0.003391 0.025515 0.000000 0.000000 0.000000
# 4 0.000000 0.000000 0.000000 0.040364 0.000000 0.000000
# 5 0.000000 0.000000 0.000000 0.000000 0.040360 0.000000
# 6 0.000000 0.000000 0.000000 0.000000 0.000000 0.014157
#
#
# Mechanical properties :
#
#
# Convention : Reuss Voigt Hill
#
# Bulk Modulus (GPa) = 44.73356 76.40128 60.56742
# Shear Modulus (GPa) = 24.91422 34.56812 29.74117
#
# Velocity S-wave (km/s) = 3.58266 4.22007 3.91436
# Velocity P-wave (km/s) = 6.33719 7.94393 7.18561
#
# Compressibility (1/GPa) = 0.02235458
#
# Stress axis : x y z
#
# Youngs Moduli (GPa) = 92.79419 41.55520 39.19300
#
# Poissons Ratio (x) = 0.27478 0.35264
# Poissons Ratio (y) = 0.61359 0.13289
# Poissons Ratio (z) = 0.83491 0.14090
#
# Static dielectric constant tensor:
#      x y z
#    x 1.715520 0.000000 0.000000 
#    y 0.000000 1.632500 0.000000 
#    z 0.000000 0.000000 1.671880 
# 
# From -- ./inp_files/4094.got.cif
#   From: 2010.05.17/outbox.cif.g08.bks.cpg/sg49_3_cif.got.tgz:4094.got - 2010.06.03 21:02:19.
