data_PCOD9393302
_publ_section_title
;
Structure prediction by ZEFSAII (Michael W. Deem and Ramdas Pophale) SiO2 
 PCOD9393302
Probable space group: P C C M
;
_chemical_formula_sum "Si O2"
_cell_formula_units_Z 64
_cell_length_a 15.754986
_cell_length_b 24.350134
_cell_length_c 8.778721
_cell_angle_alpha 90.000000
_cell_angle_beta 90.000000
_cell_angle_gamma 90.000000
_cell_volume 3367.833587
_symmetry_space_group_name_H-M "P C C M"
_symmetry_group_IT_number 49
_symmetry_cell_setting 'orthorhombic'
loop_
_space_group_symop_operation_xyz
x,y,z
-x,-y,z
x,-y,1/2-z
-x,y,1/2-z
-x,-y,-z
x,y,-z
-x,y,1/2+z
x,-y,1/2+z
loop_
_atom_site_type_symbol
_atom_site_label
_atom_site_fract_x
_atom_site_fract_y
_atom_site_fract_z
Si Si1 0.090285 0.060691 0.317357
Si Si2 0.088875 0.324499 0.182551
Si Si3 0.591088 0.939385 0.817942
Si Si4 0.256791 0.130660 0.683201
Si Si5 0.352829 0.557993 0.317980
Si Si6 0.587649 0.328293 0.817843
Si Si7 0.151411 0.557330 0.682007
Si Si8 0.246251 0.741139 0.816725
O O1 0.083478 0.056846 0.500000
O O2 0.168454 0.100300 0.278999
O O3 0.000000 0.079659 0.250000
O O4 0.106368 0.000000 0.250000
O O5 0.105898 0.387355 0.235737
O O6 0.166548 0.287764 0.238897
O O7 0.000000 0.305040 0.250000
O O8 0.086129 0.324415 0.000000
O O9 0.500000 0.921871 0.750000
O O10 0.665727 0.899301 0.765697
O O11 0.608476 0.000000 0.750000
O O12 0.585837 0.942773 0.000000
O O13 0.268931 0.126015 0.500000
O O14 0.252319 0.194802 0.722539
O O15 0.382624 0.500000 0.250000
O O16 0.362731 0.558197 0.500000
O O17 0.397364 0.610578 0.246019
O O18 0.251913 0.562599 0.281646
O O19 0.500000 0.306380 0.750000
O O20 0.668048 0.291110 0.773669
O O21 0.582660 0.330188 0.000000
O O22 0.119960 0.500000 0.750000
O O23 0.144152 0.554373 0.500000
O O24 0.236681 0.736851 0.000000
#
# Coordination Sequence:
#
# PCOD9393302 Si02
#       8
#     8   8   8   8   8   8   8   8
#     4  10  20  35  58  86 121 156 191 237 286 341
#     4  11  23  40  61  87 117 154 198 245 298 355
#     4  11  22  38  62  92 126 163 200 244 296 350
#     4  10  22  40  61  88 121 157 200 248 296 351
#     4  10  19  35  58  86 117 148 187 234 292 354
#     4  11  23  39  61  86 114 152 194 240 294 352
#     4   9  19  34  56  84 115 149 185 234 291 353
#     4  10  23  43  63  85 117 156 199 248 298 347
#
# _framework density 19.003315000000001
#
# number of rings (size 3 to 8) (size 9 to 14) (size 15 to 20)
#    0.000    1.750    1.250    3.750    0.000    6.000 
#    0.000    5.000    0.000    0.000    0.000    0.000 
#    0.000    0.000    0.000    0.000    0.000    0.000 
#
# Total GULP energy -357721.370611 kJ/mol
# GULP energy per Si atom -5589.396416 kJ/mol
# Density = 1.896006 g / cm^3
# Si number density = 19.003315 Si / 1000 Ang^3
#
#
#
# Elastic Constant Matrix: (Units=GPa)
#
#
# Indices 1 2 3 4 5 6 
#
# 1 164.6099 100.8987 70.8696 0.0000 0.0000 0.0000
# 2 100.8987 127.1652 56.5757 0.0000 0.0000 0.0000
# 3 70.8696 56.5757 66.5182 0.0000 0.0000 0.0000
# 4 0.0000 0.0000 0.0000 22.0650 0.0000 0.0000
# 5 0.0000 0.0000 0.0000 0.0000 19.1480 0.0000
# 6 0.0000 0.0000 0.0000 0.0000 0.0000 -8.4522
#
#
#
# Elastic Compliance Matrix: (Units=1/GPa)
#
#
# Indices 1 2 3 4 5 6 
#
# 1 0.014657 -0.007532 -0.009209 0.000000 0.000000 0.000000
# 2 -0.007532 0.016522 -0.006027 0.000000 0.000000 0.000000
# 3 -0.009209 -0.006027 0.029972 0.000000 0.000000 0.000000
# 4 0.000000 0.000000 0.000000 0.045321 0.000000 0.000000
# 5 0.000000 0.000000 0.000000 0.000000 0.052225 0.000000
# 6 0.000000 0.000000 0.000000 0.000000 0.000000 -0.118313
#
#
# Mechanical properties :
#
#
# Convention : Reuss Voigt Hill
#
# Bulk Modulus (GPa) = 64.05075 90.55348 77.30212
# Shear Modulus (GPa) = 54.87057 15.21546 35.04302
#
# Velocity S-wave (km/s) = 5.37930 2.83269 4.29890
# Velocity P-wave (km/s) = 8.50651 7.64550 8.08747
#
# Compressibility (1/GPa) = 0.01561262
#
# Stress axis : x y z
#
# Youngs Moduli (GPa) = 68.22844 60.52656 33.36500
#
# Poissons Ratio (x) = 0.45589 0.30726
# Poissons Ratio (y) = 0.51390 0.20110
# Poissons Ratio (z) = 0.62833 0.36482
#
# Static dielectric constant tensor:
#      x y z
#    x 1.660310 0.000000 0.000000 
#    y 0.000000 1.634050 0.000000 
#    z 0.000000 0.000000 1.633420 
# 
# From -- ./inp_files/4342.got.cif
#   From: 2010.05.17/outbox.cif.g08.bks.cpg/sg49_3_cif.got.tgz:4342.got - 2010.06.03 21:02:19.
