data_PCOD9393792
_publ_section_title
;
Structure prediction by ZEFSAII (Michael W. Deem and Ramdas Pophale) SiO2 
 PCOD9393792
Probable space group: P C C M
;
_chemical_formula_sum "Si O2"
_cell_formula_units_Z 48
_cell_length_a 31.287963
_cell_length_b 9.541770
_cell_length_c 8.570903
_cell_angle_alpha 90.000000
_cell_angle_beta 90.000000
_cell_angle_gamma 90.000000
_cell_volume 2558.779209
_symmetry_space_group_name_H-M "P C C M"
_symmetry_group_IT_number 49
_symmetry_cell_setting 'orthorhombic'
loop_
_space_group_symop_operation_xyz
x,y,z
-x,-y,z
x,-y,1/2-z
-x,y,1/2-z
-x,-y,-z
x,y,-z
-x,y,1/2+z
x,-y,1/2+z
loop_
_atom_site_type_symbol
_atom_site_label
_atom_site_fract_x
_atom_site_fract_y
_atom_site_fract_z
Si Si1 0.952114 0.846748 0.313051
Si Si2 0.624415 0.344434 0.312225
Si Si3 0.544988 0.842177 0.812469
Si Si4 0.798627 0.842019 0.313524
Si Si5 0.721605 0.657937 0.188068
Si Si6 0.877014 0.342536 0.313359
O O1 0.952437 0.849542 0.500000
O O2 0.919904 0.729890 0.251068
O O3 0.000000 0.822868 0.250000
O O4 0.938403 0.000000 0.250000
O O5 0.616990 0.500000 0.250000
O O6 0.623561 0.347483 0.500000
O O7 0.586431 0.243729 0.259196
O O8 0.672791 0.303181 0.267179
O O9 0.500000 0.782827 0.750000
O O10 0.548244 0.000000 0.750000
O O11 0.543614 0.844268 0.000000
O O12 0.801462 0.843764 0.500000
O O13 0.755447 0.764465 0.259719
O O14 0.837714 0.751885 0.245247
O O15 0.800055 0.000000 0.250000
O O16 0.729481 0.500000 0.250000
O O17 0.725217 0.657795 0.000000
O O18 0.872674 0.500000 0.250000
O O19 0.877722 0.344558 0.500000
#
# Coordination Sequence:
#
# PCOD9393792 Si02
#       6
#     8   8   8   8   8   8
#     4  11  22  40  64  93 125 162 202 246 295 348
#     4   9  20  36  56  81 111 144 184 227 276 332
#     4  10  20  35  53  77 106 142 183 228 277 332
#     4  12  25  42  62  88 118 153 193 239 288 342
#     4  10  20  38  60  85 115 150 188 232 282 340
#     4  12  25  43  64  90 121 158 199 244 293 347
#
# _framework density 18.758945000000001
#
# number of rings (size 3 to 8) (size 9 to 14) (size 15 to 20)
#    0.000    1.333    0.000    7.500    0.000    3.333 
#    0.000    5.000    0.000    0.000    0.000    0.000 
#    0.000    0.000    0.000    0.000    0.000    0.000 
#
# Total GULP energy -268377.763460 kJ/mol
# GULP energy per Si atom -5591.203405 kJ/mol
# Density = 1.871625 g / cm^3
# Si number density = 18.758945 Si / 1000 Ang^3
#
#
#
# Elastic Constant Matrix: (Units=GPa)
#
#
# Indices 1 2 3 4 5 6 
#
# 1 135.1516 107.8158 60.2392 0.0000 0.0000 0.0000
# 2 107.8158 144.4722 62.3386 0.0000 0.0000 0.0000
# 3 60.2392 62.3386 149.5986 0.0000 0.0000 0.0000
# 4 0.0000 0.0000 0.0000 34.1926 0.0000 0.0000
# 5 0.0000 0.0000 0.0000 0.0000 34.7672 0.0000
# 6 0.0000 0.0000 0.0000 0.0000 0.0000 44.0115
#
#
#
# Elastic Compliance Matrix: (Units=1/GPa)
#
#
# Indices 1 2 3 4 5 6 
#
# 1 0.018812 -0.013131 -0.002103 0.000000 0.000000 0.000000
# 2 -0.013131 0.017605 -0.002049 0.000000 0.000000 0.000000
# 3 -0.002103 -0.002049 0.008385 0.000000 0.000000 0.000000
# 4 0.000000 0.000000 0.000000 0.029246 0.000000 0.000000
# 5 0.000000 0.000000 0.000000 0.000000 0.028763 0.000000
# 6 0.000000 0.000000 0.000000 0.000000 0.000000 0.022721
#
#
# Mechanical properties :
#
#
# Convention : Reuss Voigt Hill
#
# Bulk Modulus (GPa) = 97.69309 98.88996 98.29153
# Shear Modulus (GPa) = 30.57906 35.84951 33.21428
#
# Velocity S-wave (km/s) = 4.04184 4.37631 4.21240
# Velocity P-wave (km/s) = 8.60076 8.85250 8.72754
#
# Compressibility (1/GPa) = 0.01023614
#
# Stress axis : x y z
#
# Youngs Moduli (GPa) = 53.15787 56.80118 119.25945
#
# Poissons Ratio (x) = 0.74588 0.25082
# Poissons Ratio (y) = 0.69803 0.24431
# Poissons Ratio (z) = 0.11180 0.11636
#
# Static dielectric constant tensor:
#      x y z
#    x 1.655100 0.000000 0.000000 
#    y 0.000000 1.608240 0.000000 
#    z 0.000000 0.000000 1.629680 
# 
# From -- ./inp_files/6852.got.cif
#   From: 2010.05.17/outbox.cif.g08.bks.cpg/sg49_4_cif.got.tgz:6852.got - 2010.06.03 21:02:19.
