data_PCOD9393286
_publ_section_title
;
Structure prediction by ZEFSAII (Michael W. Deem and Ramdas Pophale) SiO2 
 PCOD9393286
Probable space group: P C C M
;
_chemical_formula_sum "Si O2"
_cell_formula_units_Z 64
_cell_length_a 16.275411
_cell_length_b 9.991462
_cell_length_c 19.175828
_cell_angle_alpha 90.000000
_cell_angle_beta 90.000000
_cell_angle_gamma 90.000000
_cell_volume 3118.280157
_symmetry_space_group_name_H-M "P C C M"
_symmetry_group_IT_number 49
_symmetry_cell_setting 'orthorhombic'
loop_
_space_group_symop_operation_xyz
x,y,z
-x,-y,z
x,-y,1/2-z
-x,y,1/2-z
-x,-y,-z
x,y,-z
-x,y,1/2+z
x,-y,1/2+z
loop_
_atom_site_type_symbol
_atom_site_label
_atom_site_fract_x
_atom_site_fract_y
_atom_site_fract_z
Si Si1 0.901877 0.507938 0.330882
Si Si2 0.366314 0.727282 0.922635
Si Si3 0.591463 0.351855 0.276165
Si Si4 0.188829 0.715903 0.582086
Si Si5 0.371723 0.409897 0.076593
Si Si6 0.832560 0.243399 0.918156
Si Si7 0.188506 0.009163 0.830729
Si Si8 0.633424 0.893391 0.299178
O O1 0.871831 0.500000 0.250000
O O2 0.870128 0.386461 0.378217
O O3 0.870957 0.640526 0.370630
O O4 0.000000 0.500000 0.328858
O O5 0.380890 0.569448 0.912775
O O6 0.266860 0.740139 0.917532
O O7 0.405654 0.827128 0.867103
O O8 0.391557 0.764565 0.000000
O O9 0.616487 0.500000 0.250000
O O10 0.500000 0.326458 0.250000
O O11 0.585381 0.344321 0.358542
O O12 0.651514 0.239167 0.246635
O O13 0.168384 0.740351 0.500000
O O14 0.277726 0.641332 0.580952
O O15 0.187122 0.850312 0.628622
O O16 0.403818 0.377059 0.000000
O O17 0.851614 0.102818 0.880573
O O18 0.857349 0.249919 0.000000
O O19 0.284084 0.967268 0.823091
O O20 0.156854 0.000000 0.750000
O O21 0.589262 0.000000 0.250000
#
# Coordination Sequence:
#
# PCOD9393286 Si02
#       8
#     8   8   8   8   8   8   8   8
#     4  11  24  40  59  88 124 162 203 251 307 366
#     4   9  17  32  55  86 116 147 191 244 303 357
#     4  11  23  39  58  86 122 157 204 255 308 373
#     4  11  22  38  63  94 123 156 202 259 307 358
#     4  10  19  35  60  90 119 152 198 253 310 359
#     4  10  19  35  57  83 116 155 195 241 297 362
#     4  10  20  35  56  89 121 154 198 249 309 362
#     4  10  20  36  55  84 115 153 198 242 300 359
#
# _framework density 20.524135000000001
#
# number of rings (size 3 to 8) (size 9 to 14) (size 15 to 20)
#    0.000    1.750    2.500    3.000    0.000    3.250 
#    0.000    3.125    0.000    3.750    0.000    3.500 
#    0.000    0.000    0.000    0.000    0.000    0.000 
#
# Total GULP energy -357083.284592 kJ/mol
# GULP energy per Si atom -5579.426322 kJ/mol
# Density = 2.047742 g / cm^3
# Si number density = 20.524135 Si / 1000 Ang^3
#
#
#
# Elastic Constant Matrix: (Units=GPa)
#
#
# Indices 1 2 3 4 5 6 
#
# 1 35.2036 26.8984 37.1463 0.0000 0.0000 0.0000
# 2 26.8984 142.6116 69.8657 0.0000 0.0000 0.0000
# 3 37.1463 69.8657 211.9025 0.0000 0.0000 0.0000
# 4 0.0000 0.0000 0.0000 43.7404 0.0000 0.0000
# 5 0.0000 0.0000 0.0000 0.0000 1.7592 0.0000
# 6 0.0000 0.0000 0.0000 0.0000 0.0000 -4.4786
#
#
#
# Elastic Compliance Matrix: (Units=1/GPa)
#
#
# Indices 1 2 3 4 5 6 
#
# 1 0.037179 -0.004555 -0.005016 0.000000 0.000000 0.000000
# 2 -0.004555 0.008921 -0.002143 0.000000 0.000000 0.000000
# 3 -0.005016 -0.002143 0.006305 0.000000 0.000000 0.000000
# 4 0.000000 0.000000 0.000000 0.022862 0.000000 0.000000
# 5 0.000000 0.000000 0.000000 0.000000 0.568435 0.000000
# 6 0.000000 0.000000 0.000000 0.000000 0.000000 -0.223282
#
#
# Mechanical properties :
#
#
# Convention : Reuss Voigt Hill
#
# Bulk Modulus (GPa) = 34.50927 73.05984 53.78456
# Shear Modulus (GPa) = 11.02520 25.25801 18.14161
#
# Velocity S-wave (km/s) = 2.32023 3.51187 2.97630
# Velocity P-wave (km/s) = 4.90188 7.21932 6.17038
#
# Compressibility (1/GPa) = 0.02897772
#
# Stress axis : x y z
#
# Youngs Moduli (GPa) = 26.89677 112.09513 158.60793
#
# Poissons Ratio (x) = 0.51063 0.79551
# Poissons Ratio (y) = 0.12252 0.33986
# Poissons Ratio (z) = 0.13490 0.24019
#
# Static dielectric constant tensor:
#      x y z
#    x 1.702460 0.000000 0.000000 
#    y 0.000000 1.792150 0.000000 
#    z 0.000000 0.000000 1.783500 
# 
# From -- ./inp_files/21043.got.cif
#   From: 2010.05.17/outbox.cif.g08.bks.cpg/sg49_11_cif.got.tgz:21043.got - 2010.06.03 21:02:19.
