data_PCOD9393779
_publ_section_title
;
Structure prediction by ZEFSAII (Michael W. Deem and Ramdas Pophale) SiO2 
 PCOD9393779
Probable space group: P C C M
;
_chemical_formula_sum "Si O2"
_cell_formula_units_Z 64
_cell_length_a 15.396562
_cell_length_b 22.421448
_cell_length_c 8.737008
_cell_angle_alpha 90.000000
_cell_angle_beta 90.000000
_cell_angle_gamma 90.000000
_cell_volume 3016.130615
_symmetry_space_group_name_H-M "P C C M"
_symmetry_group_IT_number 49
_symmetry_cell_setting 'orthorhombic'
loop_
_space_group_symop_operation_xyz
x,y,z
-x,-y,z
x,-y,1/2-z
-x,y,1/2-z
-x,-y,-z
x,y,-z
-x,y,1/2+z
x,-y,1/2+z
loop_
_atom_site_type_symbol
_atom_site_label
_atom_site_fract_x
_atom_site_fract_y
_atom_site_fract_z
Si Si1 0.149092 0.439692 0.683401
Si Si2 0.647334 0.189771 0.827606
Si Si3 0.145459 0.817230 0.173119
Si Si4 0.347869 0.310477 0.817896
Si Si5 0.597124 0.059966 0.815230
Si Si6 0.653686 0.439571 0.684056
Si Si7 0.847869 0.310127 0.185686
Si Si8 0.096566 0.940154 0.680795
O O1 0.107894 0.500000 0.750000
O O2 0.153073 0.444585 0.500000
O O3 0.247637 0.438467 0.749907
O O4 0.110627 0.374434 0.723515
O O5 0.751448 0.193686 0.836311
O O6 0.613642 0.248875 0.744945
O O7 0.631409 0.124141 0.761565
O O8 0.611711 0.190114 0.000000
O O9 0.109741 0.753266 0.231025
O O10 0.133622 0.876089 0.272086
O O11 0.112527 0.829017 0.000000
O O12 0.385746 0.375130 0.771188
O O13 0.247905 0.311814 0.760055
O O14 0.348352 0.307826 0.000000
O O15 0.500000 0.059196 0.750000
O O16 0.640875 0.000000 0.750000
O O17 0.599291 0.057242 0.000000
O O18 0.612639 0.500000 0.750000
O O19 0.657284 0.443306 0.500000
O O20 0.838999 0.307756 0.000000
O O21 0.094043 0.946468 0.500000
O O22 0.000000 0.938853 0.750000
O O23 0.139738 0.000000 0.750000
#
# Coordination Sequence:
#
# PCOD9393779 Si02
#       8
#     8   8   8   8   8   8   8   8
#     4   9  14  20  31  49  74 110 150 185 221 264
#     4   9  19  33  49  69  96 127 157 188 231 281
#     4   9  17  32  50  70  96 125 156 193 231 274
#     4   9  16  24  37  58  84 113 150 191 229 267
#     4  10  20  35  53  73  95 123 156 191 231 276
#     4   9  15  21  30  48  74 108 147 185 222 265
#     4   8  15  26  39  55  83 120 152 183 228 276
#     4  11  22  37  55  74  95 122 153 188 229 275
#
# _framework density 21.219239999999999
#
# number of rings (size 3 to 8) (size 9 to 14) (size 15 to 20)
#    0.000    2.750    0.000    4.875    0.000    5.500 
#    0.000    1.250    0.000    0.000    0.000    0.000 
#    0.000    1.000    0.000   11.250    0.000   11.000 
#
# Total GULP energy -356379.523051 kJ/mol
# GULP energy per Si atom -5568.430048 kJ/mol
# Density = 2.117094 g / cm^3
# Si number density = 21.219240 Si / 1000 Ang^3
#
#
#
# Elastic Constant Matrix: (Units=GPa)
#
#
# Indices 1 2 3 4 5 6 
#
# 1 22.4395 15.3395 -1.2242 0.0000 0.0000 0.0000
# 2 15.3395 286.9101 76.6201 0.0000 0.0000 0.0000
# 3 -1.2242 76.6201 78.8298 0.0000 0.0000 0.0000
# 4 0.0000 0.0000 0.0000 35.8405 0.0000 0.0000
# 5 0.0000 0.0000 0.0000 0.0000 1.7757 0.0000
# 6 0.0000 0.0000 0.0000 0.0000 0.0000 -166.3475
#
#
#
# Elastic Compliance Matrix: (Units=1/GPa)
#
#
# Indices 1 2 3 4 5 6 
#
# 1 0.047316 -0.003682 0.004313 0.000000 0.000000 0.000000
# 2 -0.003682 0.004994 -0.004911 0.000000 0.000000 0.000000
# 3 0.004313 -0.004911 0.017526 0.000000 0.000000 0.000000
# 4 0.000000 0.000000 0.000000 0.027901 0.000000 0.000000
# 5 0.000000 0.000000 0.000000 0.000000 0.563161 0.000000
# 6 0.000000 0.000000 0.000000 0.000000 0.000000 -0.006012
#
#
# Mechanical properties :
#
#
# Convention : Reuss Voigt Hill
#
# Bulk Modulus (GPa) = 16.31928 63.29447 39.80687
# Shear Modulus (GPa) = 7.31132 -5.91667 0.69733
#
# Velocity S-wave (km/s) = 1.85825 -1.67165 0.57388
# Velocity P-wave (km/s) = 3.50879 5.11544 4.38630
#
# Compressibility (1/GPa) = 0.06127722
#
# Stress axis : x y z
#
# Youngs Moduli (GPa) = 21.13434 200.25152 57.05876
#
# Poissons Ratio (x) = 0.73725 -0.24611
# Poissons Ratio (y) = 0.07781 0.28021
# Poissons Ratio (z) = -0.09116 0.98342
#
# Static dielectric constant tensor:
#      x y z
#    x 1.801260 0.000000 0.000000 
#    y 0.000000 1.911890 0.000000 
#    z 0.000000 0.000000 1.732030 
# 
# From -- ./inp_files/5325.got.cif
#   From: 2010.05.17/outbox.cif.g08.bks.cpg/sg49_3_cif.got.tgz:5325.got - 2010.06.03 21:02:19.
