data_PCOD9393402
_publ_section_title
;
Structure prediction by ZEFSAII (Michael W. Deem and Ramdas Pophale) SiO2 
 PCOD9393402
Probable space group: P C C M
;
_chemical_formula_sum "Si O2"
_cell_formula_units_Z 48
_cell_length_a 8.487066
_cell_length_b 15.103327
_cell_length_c 17.506158
_cell_angle_alpha 90.000000
_cell_angle_beta 90.000000
_cell_angle_gamma 90.000000
_cell_volume 2243.990679
_symmetry_space_group_name_H-M "P C C M"
_symmetry_group_IT_number 49
_symmetry_cell_setting 'orthorhombic'
loop_
_space_group_symop_operation_xyz
x,y,z
-x,-y,z
x,-y,1/2-z
-x,y,1/2-z
-x,-y,-z
x,y,-z
-x,y,1/2+z
x,-y,1/2+z
loop_
_atom_site_type_symbol
_atom_site_label
_atom_site_fract_x
_atom_site_fract_y
_atom_site_fract_z
Si Si1 0.809435 0.008142 0.415316
Si Si2 0.696793 0.345986 0.413681
Si Si3 0.130822 0.183676 0.147184
Si Si4 0.396126 0.669985 0.825485
Si Si5 0.215099 0.151464 0.317652
Si Si6 0.174721 0.538236 0.090211
O O1 0.767254 0.978203 0.500000
O O2 0.735602 0.941340 0.354433
O O3 0.783278 0.112850 0.406830
O O4 0.000000 0.000000 0.405408
O O5 0.743201 0.324105 0.500000
O O6 0.799392 0.281465 0.360528
O O7 0.515708 0.330822 0.395972
O O8 0.722063 0.449797 0.402794
O O9 0.163776 0.142866 0.230203
O O10 0.942329 0.184078 0.137141
O O11 0.500000 0.643401 0.750000
O O12 0.339739 0.770306 0.816990
O O13 0.248354 0.608656 0.850578
O O14 0.000000 0.500000 0.106618
O O15 0.175946 0.567858 0.000000
#
# Coordination Sequence:
#
# PCOD9393402 Si02
#       6
#     8   8   8   8   8   8
#     4   9  18  33  59  93 124 159 208 267 322 374
#     4  11  23  40  63  90 126 169 208 258 322 391
#     4  10  19  38  62  92 122 163 211 268 318 380
#     4  12  24  42  61  92 130 173 210 262 325 398
#     4  10  21  37  61  89 125 164 213 262 322 373
#     4  10  23  44  69  96 124 165 220 276 327 379
#
# _framework density 21.390460999999998
#
# number of rings (size 3 to 8) (size 9 to 14) (size 15 to 20)
#    0.000    1.667    1.667    3.000    0.000    6.667 
#    0.000    1.667    0.000    2.000    0.000    0.000 
#    0.000    0.000    0.000    0.000    0.000    0.000 
#
# Total GULP energy -267753.368688 kJ/mol
# GULP energy per Si atom -5578.195181 kJ/mol
# Density = 2.134178 g / cm^3
# Si number density = 21.390461 Si / 1000 Ang^3
#
#
#
# Elastic Constant Matrix: (Units=GPa)
#
#
# Indices 1 2 3 4 5 6 
#
# 1 45.7500 3.3559 -5.6476 0.0000 0.0000 0.0000
# 2 3.3559 56.2507 22.3108 0.0000 0.0000 0.0000
# 3 -5.6476 22.3108 66.8856 0.0000 0.0000 0.0000
# 4 0.0000 0.0000 0.0000 33.5244 0.0000 0.0000
# 5 0.0000 0.0000 0.0000 0.0000 19.9770 0.0000
# 6 0.0000 0.0000 0.0000 0.0000 0.0000 16.9653
#
#
#
# Elastic Compliance Matrix: (Units=1/GPa)
#
#
# Indices 1 2 3 4 5 6 
#
# 1 0.022366 -0.002401 0.002689 0.000000 0.000000 0.000000
# 2 -0.002401 0.020746 -0.007123 0.000000 0.000000 0.000000
# 3 0.002689 -0.007123 0.017554 0.000000 0.000000 0.000000
# 4 0.000000 0.000000 0.000000 0.029829 0.000000 0.000000
# 5 0.000000 0.000000 0.000000 0.000000 0.050058 0.000000
# 6 0.000000 0.000000 0.000000 0.000000 0.000000 0.058944
#
#
# Mechanical properties :
#
#
# Convention : Reuss Voigt Hill
#
# Bulk Modulus (GPa) = 21.27799 23.21382 22.24590
# Shear Modulus (GPa) = 21.85020 24.01784 22.93402
#
# Velocity S-wave (km/s) = 3.19955 3.35450 3.27794
# Velocity P-wave (km/s) = 4.85988 5.08719 4.97484
#
# Compressibility (1/GPa) = 0.04699692
#
# Stress axis : x y z
#
# Youngs Moduli (GPa) = 44.71064 48.20217 56.96730
#
# Poissons Ratio (x) = 0.11574 -0.15321
# Poissons Ratio (y) = 0.10735 0.40577
# Poissons Ratio (z) = -0.12025 0.34334
#
# Static dielectric constant tensor:
#      x y z
#    x 1.963400 0.000000 0.000000 
#    y 0.000000 1.780260 0.000000 
#    z 0.000000 0.000000 1.807670 
# 
# From -- ./inp_files/16298.got.cif
#   From: 2010.05.17/outbox.cif.g08.bks.cpg/sg49_9_cif.got.tgz:16298.got - 2010.06.03 21:02:19.
