data_PCOD9393340
_publ_section_title
;
Structure prediction by ZEFSAII (Michael W. Deem and Ramdas Pophale) SiO2 
 PCOD9393340
Probable space group: P C C M
;
_chemical_formula_sum "Si O2"
_cell_formula_units_Z 48
_cell_length_a 8.664738
_cell_length_b 15.365261
_cell_length_c 14.780458
_cell_angle_alpha 90.000000
_cell_angle_beta 90.000000
_cell_angle_gamma 90.000000
_cell_volume 1967.810478
_symmetry_space_group_name_H-M "P C C M"
_symmetry_group_IT_number 49
_symmetry_cell_setting 'orthorhombic'
loop_
_space_group_symop_operation_xyz
x,y,z
-x,-y,z
x,-y,1/2-z
-x,y,1/2-z
-x,-y,-z
x,y,-z
-x,y,1/2+z
x,-y,1/2+z
loop_
_atom_site_type_symbol
_atom_site_label
_atom_site_fract_x
_atom_site_fract_y
_atom_site_fract_z
Si Si1 0.674528 0.014731 0.139888
Si Si2 0.824619 0.840348 0.862627
Si Si3 0.616243 0.312266 0.662039
Si Si4 0.831900 0.457305 0.390589
Si Si5 0.836921 0.189565 0.852554
Si Si6 0.313683 0.629287 0.900212
O O1 0.786366 0.937694 0.108189
O O2 0.500000 0.000000 0.109904
O O3 0.673407 0.000000 0.250000
O O4 0.734135 0.109621 0.112148
O O5 0.677915 0.778307 0.877551
O O6 0.840925 0.832976 0.753809
O O7 0.992647 0.810775 0.894548
O O8 0.500000 0.302796 0.750000
O O9 0.770029 0.372613 0.663191
O O10 0.495729 0.358128 0.596670
O O11 0.823735 0.438788 0.500000
O O12 0.720660 0.535782 0.359844
O O13 0.000000 0.500000 0.372832
O O14 0.763105 0.284297 0.860409
O O15 0.244395 0.623774 0.000000
#
# Coordination Sequence:
#
# PCOD9393340 Si02
#       6
#     8   8   8   8   8   8
#     4   9  17  29  55  85 120 155 193 244 302 365
#     4  10  20  34  57  88 122 155 196 252 309 359
#     4  12  23  39  61  91 124 159 203 263 313 365
#     4  10  23  44  66  88 119 166 215 257 314 388
#     4  10  19  36  57  88 120 156 202 247 302 365
#     4  11  23  40  62  86 120 163 202 250 310 377
#
# _framework density 24.392592
#
# number of rings (size 3 to 8) (size 9 to 14) (size 15 to 20)
#    0.000    1.667    1.667    3.500    2.333    4.667 
#    0.000    1.667    0.000    7.500    0.000    0.000 
#    0.000    0.000    0.000    0.000    0.000    0.000 
#
# Total GULP energy -267887.490353 kJ/mol
# GULP energy per Si atom -5580.989382 kJ/mol
# Density = 2.433707 g / cm^3
# Si number density = 24.392592 Si / 1000 Ang^3
#
#
#
# Elastic Constant Matrix: (Units=GPa)
#
#
# Indices 1 2 3 4 5 6 
#
# 1 116.0775 11.9410 -11.2041 0.0000 0.0000 0.0000
# 2 11.9410 99.1299 -6.8681 0.0000 0.0000 0.0000
# 3 -11.2041 -6.8681 70.2585 0.0000 0.0000 0.0000
# 4 0.0000 0.0000 0.0000 -7.7897 0.0000 0.0000
# 5 0.0000 0.0000 0.0000 0.0000 2.1068 0.0000
# 6 0.0000 0.0000 0.0000 0.0000 0.0000 44.9252
#
#
#
# Elastic Compliance Matrix: (Units=1/GPa)
#
#
# Indices 1 2 3 4 5 6 
#
# 1 0.008842 -0.000974 0.001315 0.000000 0.000000 0.000000
# 2 -0.000974 0.010264 0.000848 0.000000 0.000000 0.000000
# 3 0.001315 0.000848 0.014526 0.000000 0.000000 0.000000
# 4 0.000000 0.000000 0.000000 -0.128374 0.000000 0.000000
# 5 0.000000 0.000000 0.000000 0.000000 0.474658 0.000000
# 6 0.000000 0.000000 0.000000 0.000000 0.000000 0.022259
#
#
# Mechanical properties :
#
#
# Convention : Reuss Voigt Hill
#
# Bulk Modulus (GPa) = 27.77060 30.35594 29.06327
# Shear Modulus (GPa) = 12.14182 27.28825 19.71504
#
# Velocity S-wave (km/s) = 2.23349 3.34834 2.84604
# Velocity P-wave (km/s) = 4.24981 5.23644 4.76871
#
# Compressibility (1/GPa) = 0.03600930
#
# Stress axis : x y z
#
# Youngs Moduli (GPa) = 113.09604 97.42934 68.84335
#
# Poissons Ratio (x) = 0.09490 -0.09052
# Poissons Ratio (y) = 0.11016 -0.05838
# Poissons Ratio (z) = -0.14870 -0.08262
#
# Static dielectric constant tensor:
#      x y z
#    x 1.947440 0.000000 0.000000 
#    y 0.000000 1.934760 0.000000 
#    z 0.000000 0.000000 2.111830 
# 
# From -- ./inp_files/16326.got.cif
#   From: 2010.05.17/outbox.cif.g08.bks.cpg/sg49_9_cif.got.tgz:16326.got - 2010.06.03 21:02:19.
