data_PCOD9393666
_publ_section_title
;
Structure prediction by ZEFSAII (Michael W. Deem and Ramdas Pophale) SiO2 
 PCOD9393666
Probable space group: P C C M
;
_chemical_formula_sum "Si O2"
_cell_formula_units_Z 56
_cell_length_a 16.226606
_cell_length_b 10.199813
_cell_length_c 15.212503
_cell_angle_alpha 90.000000
_cell_angle_beta 90.000000
_cell_angle_gamma 90.000000
_cell_volume 2517.796223
_symmetry_space_group_name_H-M "P C C M"
_symmetry_group_IT_number 49
_symmetry_cell_setting 'orthorhombic'
loop_
_space_group_symop_operation_xyz
x,y,z
-x,-y,z
x,-y,1/2-z
-x,y,1/2-z
-x,-y,-z
x,y,-z
-x,y,1/2+z
x,-y,1/2+z
loop_
_atom_site_type_symbol
_atom_site_label
_atom_site_fract_x
_atom_site_fract_y
_atom_site_fract_z
Si Si1 0.169762 0.738861 0.845399
Si Si2 0.275384 0.489752 0.098154
Si Si3 0.557707 0.626843 0.897832
Si Si4 0.997651 0.152581 0.357235
Si Si5 0.272793 0.977845 0.147484
Si Si6 0.551361 0.133514 0.899024
Si Si7 0.182606 0.233743 0.133503
O O1 0.225634 0.612956 0.865247
O O2 0.075195 0.752363 0.876874
O O3 0.211191 0.867859 0.886396
O O4 0.176243 0.752537 0.739694
O O5 0.356565 0.424917 0.143267
O O6 0.212741 0.370013 0.096524
O O7 0.302893 0.529152 0.000000
O O8 0.500000 0.500000 0.897739
O O9 0.505301 0.749523 0.860381
O O10 0.576173 0.665522 0.000000
O O11 0.000000 0.148836 0.250000
O O12 0.910485 0.202075 0.391975
O O13 0.000000 0.000000 0.384806
O O14 0.362309 0.911944 0.141132
O O15 0.256590 0.000000 0.250000
O O16 0.248245 0.119264 0.108706
O O17 0.500000 0.000000 0.899043
O O18 0.569646 0.172680 0.000000
#
# Coordination Sequence:
#
# PCOD9393666 Si02
#       7
#     8   8   8   8   8   8   8
#     4  10  20  36  60  86 111 145 191 238 282 337
#     4  11  23  38  56  82 117 153 192 237 287 338
#     4   9  18  34  55  76 101 141 189 229 263 315
#     4   9  16  33  61  87 110 143 192 235 276 338
#     4  10  20  34  57  87 114 141 180 241 300 342
#     4  10  20  34  53  77 107 145 189 229 269 328
#     4  10  20  36  59  85 116 148 184 235 288 342
#
# _framework density 22.241672000000001
#
# number of rings (size 3 to 8) (size 9 to 14) (size 15 to 20)
#    0.000    2.143    1.429    2.143    0.000    4.286 
#    0.000    3.571    0.000    7.714    0.000    0.000 
#    0.000    0.000    0.000    0.000    0.000    0.000 
#
# Total GULP energy -312209.928344 kJ/mol
# GULP energy per Si atom -5575.177292 kJ/mol
# Density = 2.219105 g / cm^3
# Si number density = 22.241672 Si / 1000 Ang^3
#
#
#
# Elastic Constant Matrix: (Units=GPa)
#
#
# Indices 1 2 3 4 5 6 
#
# 1 135.2983 73.2883 2.2188 0.0000 0.0000 0.0000
# 2 73.2883 155.4543 19.5615 0.0000 0.0000 0.0000
# 3 2.2188 19.5615 34.1703 0.0000 0.0000 0.0000
# 4 0.0000 0.0000 0.0000 67.2766 0.0000 0.0000
# 5 0.0000 0.0000 0.0000 0.0000 59.4170 0.0000
# 6 0.0000 0.0000 0.0000 0.0000 0.0000 46.8125
#
#
#
# Elastic Compliance Matrix: (Units=1/GPa)
#
#
# Indices 1 2 3 4 5 6 
#
# 1 0.010081 -0.005033 0.002226 0.000000 0.000000 0.000000
# 2 -0.005033 0.009445 -0.005080 0.000000 0.000000 0.000000
# 3 0.002226 -0.005080 0.032029 0.000000 0.000000 0.000000
# 4 0.000000 0.000000 0.000000 0.014864 0.000000 0.000000
# 5 0.000000 0.000000 0.000000 0.000000 0.016830 0.000000
# 6 0.000000 0.000000 0.000000 0.000000 0.000000 0.021362
#
#
# Mechanical properties :
#
#
# Convention : Reuss Voigt Hill
#
# Bulk Modulus (GPa) = 27.94724 57.22889 42.58806
# Shear Modulus (GPa) = 37.79015 50.02484 43.90750
#
# Velocity S-wave (km/s) = 4.12645 4.74766 4.44792
# Velocity P-wave (km/s) = 5.94104 7.47262 6.75041
#
# Compressibility (1/GPa) = 0.03578171
#
# Stress axis : x y z
#
# Youngs Moduli (GPa) = 99.20001 105.88037 31.22194
#
# Poissons Ratio (x) = 0.53286 -0.06952
# Poissons Ratio (y) = 0.49924 0.15861
# Poissons Ratio (z) = -0.22087 0.53787
#
# Static dielectric constant tensor:
#      x y z
#    x 1.848440 0.000000 0.000000 
#    y 0.000000 1.749820 0.000000 
#    z 0.000000 0.000000 1.880410 
# 
# From -- ./inp_files/20860.got.cif
#   From: 2010.05.17/outbox.cif.g08.bks.cpg/sg49_11_cif.got.tgz:20860.got - 2010.06.03 21:02:19.
