data_PCOD9393742
_publ_section_title
;
Structure prediction by ZEFSAII (Michael W. Deem and Ramdas Pophale) SiO2 
 PCOD9393742
Probable space group: P C C M
;
_chemical_formula_sum "Si O2"
_cell_formula_units_Z 56
_cell_length_a 15.146528
_cell_length_b 8.994353
_cell_length_c 20.325979
_cell_angle_alpha 90.000000
_cell_angle_beta 90.000000
_cell_angle_gamma 90.000000
_cell_volume 2769.073560
_symmetry_space_group_name_H-M "P C C M"
_symmetry_group_IT_number 49
_symmetry_cell_setting 'orthorhombic'
loop_
_space_group_symop_operation_xyz
x,y,z
-x,-y,z
x,-y,1/2-z
-x,y,1/2-z
-x,-y,-z
x,y,-z
-x,y,1/2+z
x,-y,1/2+z
loop_
_atom_site_type_symbol
_atom_site_label
_atom_site_fract_x
_atom_site_fract_y
_atom_site_fract_z
Si Si1 0.159503 0.186840 0.822933
Si Si2 0.350684 0.187665 0.339392
Si Si3 0.666958 0.349120 0.288624
Si Si4 0.005199 0.819029 0.423663
Si Si5 0.154792 0.173769 0.670007
Si Si6 0.477354 0.650899 0.606410
Si Si7 0.399287 0.943836 0.569163
O O1 0.250469 0.279472 0.828053
O O2 0.088921 0.227898 0.879088
O O3 0.132117 0.212825 0.746077
O O4 0.166383 0.006724 0.829420
O O5 0.361576 0.219542 0.262492
O O6 0.250071 0.238076 0.350394
O O7 0.429530 0.273523 0.375444
O O8 0.358057 0.021309 0.367622
O O9 0.693247 0.500000 0.250000
O O10 0.580630 0.389796 0.329870
O O11 0.007732 0.769507 0.500000
O O12 0.918840 0.777133 0.381498
O O13 0.000000 0.000000 0.425064
O O14 0.500000 0.500000 0.570578
O O15 0.413283 0.769201 0.572833
O O16 0.355106 0.988306 0.500000
O O17 0.500000 0.000000 0.567549
#
# Coordination Sequence:
#
# PCOD9393742 Si02
#       7
#     8   8   8   8   8   8   8
#     4   9  18  32  52  80 118 153 192 241 299 358
#     4  10  20  34  57  83 117 156 194 247 299 354
#     4  11  21  35  56  83 119 154 197 249 301 366
#     4   9  17  31  55  86 117 149 186 236 298 360
#     4   9  17  31  52  84 116 152 190 241 300 360
#     4  11  21  35  57  85 120 157 198 248 305 354
#     4   9  20  37  54  77 111 154 204 247 286 346
#
# _framework density 20.223371
#
# number of rings (size 3 to 8) (size 9 to 14) (size 15 to 20)
#    0.000    2.286    1.429    1.714    0.000    4.286 
#    0.000    8.571    0.000    7.714    0.000    4.000 
#    0.000    0.000    0.000    0.000    0.000    0.000 
#
# Total GULP energy -311786.541187 kJ/mol
# GULP energy per Si atom -5567.616807 kJ/mol
# Density = 2.017734 g / cm^3
# Si number density = 20.223371 Si / 1000 Ang^3
#
#
#
# Elastic Constant Matrix: (Units=GPa)
#
#
# Indices 1 2 3 4 5 6 
#
# 1 113.8437 23.6390 83.9846 0.0000 0.0000 0.0000
# 2 23.6390 73.0326 39.7247 0.0000 0.0000 0.0000
# 3 83.9846 39.7247 123.6225 0.0000 0.0000 0.0000
# 4 0.0000 0.0000 0.0000 -1.1888 0.0000 0.0000
# 5 0.0000 0.0000 0.0000 0.0000 0.3025 0.0000
# 6 0.0000 0.0000 0.0000 0.0000 0.0000 19.2185
#
#
#
# Elastic Compliance Matrix: (Units=1/GPa)
#
#
# Indices 1 2 3 4 5 6 
#
# 1 0.017667 0.000982 -0.012318 0.000000 0.000000 0.000000
# 2 0.000982 0.016647 -0.006016 0.000000 0.000000 0.000000
# 3 -0.012318 -0.006016 0.018391 0.000000 0.000000 0.000000
# 4 0.000000 0.000000 0.000000 -0.841187 0.000000 0.000000
# 5 0.000000 0.000000 0.000000 0.000000 3.305739 0.000000
# 6 0.000000 0.000000 0.000000 0.000000 0.000000 0.052033
#
#
# Mechanical properties :
#
#
# Convention : Reuss Voigt Hill
#
# Bulk Modulus (GPa) = 55.55529 67.24394 61.39961
# Shear Modulus (GPa) = 1.91571 14.54315 8.22943
#
# Velocity S-wave (km/s) = 0.97434 2.68456 2.01943
# Velocity P-wave (km/s) = 5.36621 6.55225 5.98866
#
# Compressibility (1/GPa) = 0.01800009
#
# Stress axis : x y z
#
# Youngs Moduli (GPa) = 56.60159 60.07009 54.37507
#
# Poissons Ratio (x) = -0.05897 0.66979
# Poissons Ratio (y) = -0.05556 0.32714
# Poissons Ratio (z) = 0.69722 0.36140
#
# Static dielectric constant tensor:
#      x y z
#    x 1.716860 0.000000 0.000000 
#    y 0.000000 1.783360 0.000000 
#    z 0.000000 0.000000 1.760570 
# 
# From -- ./inp_files/20832.got.cif
#   From: 2010.05.17/outbox.cif.g08.bks.cpg/sg49_11_cif.got.tgz:20832.got - 2010.06.03 21:02:19.
