data_PCOD9393726
_publ_section_title
;
Structure prediction by ZEFSAII (Michael W. Deem and Ramdas Pophale) SiO2 
 PCOD9393726
Probable space group: P C C M
;
_chemical_formula_sum "Si O2"
_cell_formula_units_Z 56
_cell_length_a 19.044103
_cell_length_b 7.198979
_cell_length_c 17.663923
_cell_angle_alpha 90.000000
_cell_angle_beta 90.000000
_cell_angle_gamma 90.000000
_cell_volume 2421.690239
_symmetry_space_group_name_H-M "P C C M"
_symmetry_group_IT_number 49
_symmetry_cell_setting 'orthorhombic'
loop_
_space_group_symop_operation_xyz
x,y,z
-x,-y,z
x,-y,1/2-z
-x,y,1/2-z
-x,-y,-z
x,y,-z
-x,y,1/2+z
x,-y,1/2+z
loop_
_atom_site_type_symbol
_atom_site_label
_atom_site_fract_x
_atom_site_fract_y
_atom_site_fract_z
Si Si1 0.703785 0.685599 0.914598
Si Si2 0.273857 0.125534 0.412946
Si Si3 0.876961 0.795482 0.412843
Si Si4 0.566705 0.758876 0.159483
Si Si5 0.413020 0.791913 0.164567
Si Si6 0.843213 0.578066 0.836392
Si Si7 0.015186 0.724163 0.664089
O O1 0.624701 0.650677 0.887981
O O2 0.763592 0.625292 0.855999
O O3 0.708103 0.909256 0.916019
O O4 0.717979 0.619474 0.000000
O O5 0.270535 0.192406 0.500000
O O6 0.195973 0.132153 0.376991
O O7 0.335864 0.235152 0.370477
O O8 0.876487 0.850411 0.500000
O O9 0.864707 0.577121 0.397631
O O10 0.954971 0.827898 0.382217
O O11 0.487340 0.717263 0.133598
O O12 0.582561 0.727324 0.248335
O O13 0.576848 0.983597 0.156809
O O14 0.851087 0.500000 0.750000
O O15 0.901343 0.739531 0.848908
O O16 0.000000 0.500000 0.657262
O O17 0.000000 0.773606 0.750000
#
# Coordination Sequence:
#
# PCOD9393726 Si02
#       7
#     8   8   8   8   8   8   8
#     4  10  21  35  52  80 115 144 176 220 273 325
#     4   9  19  34  52  79 113 144 176 220 272 325
#     4  10  20  34  56  81 105 137 179 221 266 322
#     4   8  15  27  47  76 106 140 180 224 261 307
#     4   8  14  27  48  75 107 140 181 222 262 307
#     4  11  21  35  56  79 105 138 180 224 268 314
#     4   9  16  33  53  75 100 129 169 224 260 306
#
# _framework density 23.124343
#
# number of rings (size 3 to 8) (size 9 to 14) (size 15 to 20)
#    0.000    2.714    2.857    1.286    2.000    3.714 
#    0.000    3.571    0.000    4.286    0.000    3.000 
#    0.000    0.000    0.000    0.000    0.000    0.000 
#
# Total GULP energy -312145.328081 kJ/mol
# GULP energy per Si atom -5574.023716 kJ/mol
# Density = 2.307171 g / cm^3
# Si number density = 23.124343 Si / 1000 Ang^3
#
#
#
# Elastic Constant Matrix: (Units=GPa)
#
#
# Indices 1 2 3 4 5 6 
#
# 1 243.5741 19.4341 68.3721 0.0000 0.0000 0.0000
# 2 19.4341 56.4744 -5.7205 0.0000 0.0000 0.0000
# 3 68.3721 -5.7205 44.0164 0.0000 0.0000 0.0000
# 4 0.0000 0.0000 0.0000 -1.6491 0.0000 0.0000
# 5 0.0000 0.0000 0.0000 0.0000 32.7026 0.0000
# 6 0.0000 0.0000 0.0000 0.0000 0.0000 24.6284
#
#
#
# Elastic Compliance Matrix: (Units=1/GPa)
#
#
# Indices 1 2 3 4 5 6 
#
# 1 0.008131 -0.004132 -0.013168 0.000000 0.000000 0.000000
# 2 -0.004132 0.020043 0.009023 0.000000 0.000000 0.000000
# 3 -0.013168 0.009023 0.044346 0.000000 0.000000 0.000000
# 4 0.000000 0.000000 0.000000 -0.606379 0.000000 0.000000
# 5 0.000000 0.000000 0.000000 0.000000 0.030579 0.000000
# 6 0.000000 0.000000 0.000000 0.000000 0.000000 0.040603
#
#
# Mechanical properties :
#
#
# Convention : Reuss Voigt Hill
#
# Bulk Modulus (GPa) = 17.86772 56.47068 37.16920
# Shear Modulus (GPa) = -11.69677 28.60165 8.45244
#
# Velocity S-wave (km/s) = -2.25149 3.52072 1.91394
# Velocity P-wave (km/s) = 0.99230 6.40318 4.58178
#
# Compressibility (1/GPa) = 0.05596685
#
# Stress axis : x y z
#
# Youngs Moduli (GPa) = 122.97874 49.89255 22.55014
#
# Poissons Ratio (x) = 0.20616 0.29694
# Poissons Ratio (y) = 0.50815 -0.20348
# Poissons Ratio (z) = 1.61937 -0.45019
#
# Static dielectric constant tensor:
#      x y z
#    x 1.935980 0.000000 0.000000 
#    y 0.000000 1.958470 0.000000 
#    z 0.000000 0.000000 1.831340 
# 
# From -- ./inp_files/21028.got.cif
#   From: 2010.05.17/outbox.cif.g08.bks.cpg/sg49_11_cif.got.tgz:21028.got - 2010.06.03 21:02:19.
