data_PCOD9393103
_publ_section_title
;
Structure prediction by ZEFSAII (Michael W. Deem and Ramdas Pophale) SiO2 
 PCOD9393103
Probable space group: P C C M
;
_chemical_formula_sum "Si O2"
_cell_formula_units_Z 56
_cell_length_a 23.782974
_cell_length_b 14.906491
_cell_length_c 8.408129
_cell_angle_alpha 90.000000
_cell_angle_beta 90.000000
_cell_angle_gamma 90.000000
_cell_volume 2980.855677
_symmetry_space_group_name_H-M "P C C M"
_symmetry_group_IT_number 49
_symmetry_cell_setting 'orthorhombic'
loop_
_space_group_symop_operation_xyz
x,y,z
-x,-y,z
x,-y,1/2-z
-x,y,1/2-z
-x,-y,-z
x,y,-z
-x,y,1/2+z
x,-y,1/2+z
loop_
_atom_site_type_symbol
_atom_site_label
_atom_site_fract_x
_atom_site_fract_y
_atom_site_fract_z
Si Si1 0.164692 0.714838 0.688976
Si Si2 0.938387 0.399568 0.187937
Si Si3 0.603770 0.407666 0.809181
Si Si4 0.205342 0.093242 0.308849
Si Si5 0.287749 0.670377 0.688473
Si Si6 0.675197 0.142865 0.184450
Si Si7 0.561152 0.210330 0.807961
O O1 0.158422 0.719432 0.500000
O O2 0.110491 0.667565 0.760303
O O3 0.175823 0.815556 0.751800
O O4 0.221828 0.657722 0.722293
O O5 0.926545 0.500000 0.250000
O O6 0.000000 0.372578 0.250000
O O7 0.940986 0.403773 0.000000
O O8 0.576328 0.500000 0.750000
O O9 0.665844 0.402681 0.730532
O O10 0.573505 0.314277 0.760023
O O11 0.607772 0.408385 0.000000
O O12 0.207169 0.094690 0.500000
O O13 0.270000 0.096125 0.242873
O O14 0.179395 0.000000 0.250000
O O15 0.292440 0.693189 0.500000
O O16 0.306535 0.753306 0.798926
O O17 0.612097 0.146403 0.252164
O O18 0.671468 0.115703 0.000000
O O19 0.500000 0.183502 0.750000
O O20 0.563164 0.208511 0.000000
#
# Coordination Sequence:
#
# PCOD9393103 Si02
#       7
#     8   8   8   8   8   8   8
#     4  10  20  35  55  82 113 145 183 225 269 321
#     4  11  22  38  59  83 113 151 193 235 275 315
#     4  10  20  32  44  60  87 120 157 202 255 312
#     4  10  19  33  55  83 113 144 177 218 268 324
#     4   9  17  29  47  69  93 122 159 202 250 303
#     4   8  16  31  48  67  95 127 159 197 247 303
#     4   9  18  31  46  64  85 116 158 205 254 309
#
# _framework density 18.786550999999999
#
# number of rings (size 3 to 8) (size 9 to 14) (size 15 to 20)
#    0.000    2.429    0.000    4.286    0.000    6.000 
#    0.000    1.429    0.000    0.857    0.000    6.000 
#    0.000    0.000    0.000    0.000    0.000    0.000 
#
# Total GULP energy -311986.325011 kJ/mol
# GULP energy per Si atom -5571.184375 kJ/mol
# Density = 1.874379 g / cm^3
# Si number density = 18.786551 Si / 1000 Ang^3
#
#
#
# Elastic Constant Matrix: (Units=GPa)
#
#
# Indices 1 2 3 4 5 6 
#
# 1 135.0290 41.7624 35.9239 0.0000 0.0000 0.0000
# 2 41.7624 48.4412 8.5300 0.0000 0.0000 0.0000
# 3 35.9239 8.5300 65.2130 0.0000 0.0000 0.0000
# 4 0.0000 0.0000 0.0000 13.8416 0.0000 0.0000
# 5 0.0000 0.0000 0.0000 0.0000 29.5322 0.0000
# 6 0.0000 0.0000 0.0000 0.0000 0.0000 13.2166
#
#
#
# Elastic Compliance Matrix: (Units=1/GPa)
#
#
# Indices 1 2 3 4 5 6 
#
# 1 0.011599 -0.009084 -0.005201 0.000000 0.000000 0.000000
# 2 -0.009084 0.028245 0.001310 0.000000 0.000000 0.000000
# 3 -0.005201 0.001310 0.018028 0.000000 0.000000 0.000000
# 4 0.000000 0.000000 0.000000 0.072246 0.000000 0.000000
# 5 0.000000 0.000000 0.000000 0.000000 0.033861 0.000000
# 6 0.000000 0.000000 0.000000 0.000000 0.000000 0.075663
#
#
# Mechanical properties :
#
#
# Convention : Reuss Voigt Hill
#
# Bulk Modulus (GPa) = 31.32780 46.79062 39.05921
# Shear Modulus (GPa) = 18.10060 22.14920 20.12490
#
# Velocity S-wave (km/s) = 3.10738 3.43737 3.27653
# Velocity P-wave (km/s) = 5.43932 6.38079 5.92878
#
# Compressibility (1/GPa) = 0.03192053
#
# Stress axis : x y z
#
# Youngs Moduli (GPa) = 86.21294 35.40506 55.46815
#
# Poissons Ratio (x) = 0.32162 0.28851
# Poissons Ratio (y) = 0.78316 -0.07265
# Poissons Ratio (z) = 0.44843 -0.04637
#
# Static dielectric constant tensor:
#      x y z
#    x 1.697550 0.000000 0.000000 
#    y 0.000000 1.663400 0.000000 
#    z 0.000000 0.000000 1.648470 
# 
# From -- ./inp_files/4035.got.cif
#   From: 2010.05.17/outbox.cif.g08.bks.cpg/sg49_3_cif.got.tgz:4035.got - 2010.06.03 21:02:19.
