data_PCOD9393568
_publ_section_title
;
Structure prediction by ZEFSAII (Michael W. Deem and Ramdas Pophale) SiO2 
 PCOD9393568
Probable space group: P C C M
;
_chemical_formula_sum "Si O2"
_cell_formula_units_Z 32
_cell_length_a 11.624308
_cell_length_b 9.542487
_cell_length_c 13.432187
_cell_angle_alpha 90.000000
_cell_angle_beta 90.000000
_cell_angle_gamma 90.000000
_cell_volume 1489.962764
_symmetry_space_group_name_H-M "P C C M"
_symmetry_group_IT_number 49
_symmetry_cell_setting 'orthorhombic'
loop_
_space_group_symop_operation_xyz
x,y,z
-x,-y,z
x,-y,1/2-z
-x,y,1/2-z
-x,-y,-z
x,y,-z
-x,y,1/2+z
x,-y,1/2+z
loop_
_atom_site_type_symbol
_atom_site_label
_atom_site_fract_x
_atom_site_fract_y
_atom_site_fract_z
Si Si1 0.868416 0.043616 0.883247
Si Si2 0.251974 0.209338 0.769504
Si Si3 0.389190 0.594284 0.611755
Si Si4 0.555641 0.149805 0.108589
O O1 0.784493 0.914907 0.846883
O O2 0.843232 0.180612 0.816159
O O3 0.853860 0.066127 0.000000
O O4 0.000000 0.000000 0.866702
O O5 0.280121 0.359554 0.820739
O O6 0.363911 0.179872 0.701451
O O7 0.500000 0.500000 0.643947
O O8 0.356453 0.544879 0.500000
O O9 0.451319 0.743067 0.604547
O O10 0.500000 0.000000 0.117383
O O11 0.614913 0.161640 0.000000
#
# Coordination Sequence:
#
# PCOD9393568 Si02
#       4
#     8   8   8   8
#     4  10  21  36  55  85 121 152 193 256 320 366
#     4  11  19  31  54  80 110 153 195 235 291 358
#     4  10  22  38  54  78 116 159 199 237 281 344
#     4  10  20  33  51  79 114 151 193 239 288 348
#
# _framework density 21.477046000000001
#
# number of rings (size 3 to 8) (size 9 to 14) (size 15 to 20)
#    0.000    1.750    0.000    6.750    0.000    5.000 
#    0.000    0.000    0.000    3.000    0.000   14.000 
#    0.000   40.000    0.000    0.000    0.000    0.000 
#
# Total GULP energy -178222.050466 kJ/mol
# GULP energy per Si atom -5569.439077 kJ/mol
# Density = 2.142816 g / cm^3
# Si number density = 21.477046 Si / 1000 Ang^3
#
#
#
# Elastic Constant Matrix: (Units=GPa)
#
#
# Indices 1 2 3 4 5 6 
#
# 1 77.3415 -2.1333 37.3942 0.0000 0.0000 0.0000
# 2 -2.1333 63.3202 23.0250 0.0000 0.0000 0.0000
# 3 37.3942 23.0250 194.1134 0.0000 0.0000 0.0000
# 4 0.0000 0.0000 0.0000 19.5844 0.0000 0.0000
# 5 0.0000 0.0000 0.0000 0.0000 43.6589 0.0000
# 6 0.0000 0.0000 0.0000 0.0000 0.0000 37.3367
#
#
#
# Elastic Compliance Matrix: (Units=1/GPa)
#
#
# Indices 1 2 3 4 5 6 
#
# 1 0.014404 0.001562 -0.002960 0.000000 0.000000 0.000000
# 2 0.001562 0.016674 -0.002279 0.000000 0.000000 0.000000
# 3 -0.002960 -0.002279 0.005992 0.000000 0.000000 0.000000
# 4 0.000000 0.000000 0.000000 0.051061 0.000000 0.000000
# 5 0.000000 0.000000 0.000000 0.000000 0.022905 0.000000
# 6 0.000000 0.000000 0.000000 0.000000 0.000000 0.026783
#
#
# Mechanical properties :
#
#
# Convention : Reuss Voigt Hill
#
# Bulk Modulus (GPa) = 33.65198 50.14964 41.90081
# Shear Modulus (GPa) = 32.24175 38.54862 35.39519
#
# Velocity S-wave (km/s) = 3.87876 4.24119 4.06402
# Velocity P-wave (km/s) = 5.98018 6.88365 6.44776
#
# Compressibility (1/GPa) = 0.02971594
#
# Stress axis : x y z
#
# Youngs Moduli (GPa) = 69.42567 59.97381 166.88554
#
# Poissons Ratio (x) = -0.09366 0.49398
# Poissons Ratio (y) = -0.10842 0.38027
# Poissons Ratio (z) = 0.20550 0.13666
#
# Static dielectric constant tensor:
#      x y z
#    x 1.739710 0.000000 0.000000 
#    y 0.000000 1.495850 0.000000 
#    z 0.000000 0.000000 1.957550 
# 
# From -- ./inp_files/12379.got.cif
#   From: 2010.05.17/outbox.cif.g08.bks.cpg/sg49_7_cif.got.tgz:12379.got - 2010.06.03 21:02:19.
