data_PCOD9393252
_publ_section_title
;
Structure prediction by ZEFSAII (Michael W. Deem and Ramdas Pophale) SiO2 
 PCOD9393252
Probable space group: P C C M
;
_chemical_formula_sum "Si O2"
_cell_formula_units_Z 48
_cell_length_a 15.631717
_cell_length_b 9.654305
_cell_length_c 14.124696
_cell_angle_alpha 90.000000
_cell_angle_beta 90.000000
_cell_angle_gamma 90.000000
_cell_volume 2131.605383
_symmetry_space_group_name_H-M "P C C M"
_symmetry_group_IT_number 49
_symmetry_cell_setting 'orthorhombic'
loop_
_space_group_symop_operation_xyz
x,y,z
-x,-y,z
x,-y,1/2-z
-x,y,1/2-z
-x,-y,-z
x,y,-z
-x,y,1/2+z
x,-y,1/2+z
loop_
_atom_site_type_symbol
_atom_site_label
_atom_site_fract_x
_atom_site_fract_y
_atom_site_fract_z
Si Si1 0.915948 0.586165 0.115308
Si Si2 0.774990 0.902619 0.607308
Si Si3 0.250495 0.408366 0.615741
Si Si4 0.921780 0.900683 0.115368
Si Si5 0.442110 0.386901 0.654970
Si Si6 0.585262 0.064309 0.856988
O O1 0.826770 0.511208 0.140840
O O2 0.923698 0.743532 0.150644
O O3 0.000000 0.500000 0.142935
O O4 0.915972 0.588947 0.000000
O O5 0.805998 0.878035 0.500000
O O6 0.771878 0.748239 0.649786
O O7 0.679529 0.962537 0.605147
O O8 0.837324 0.018267 0.646414
O O9 0.258338 0.406381 0.500000
O O10 0.344885 0.443575 0.654601
O O11 0.922455 0.890048 0.000000
O O12 0.000000 0.000000 0.141294
O O13 0.500000 0.500000 0.601451
O O14 0.500000 0.368705 0.750000
O O15 0.428149 0.228283 0.627004
O O16 0.500000 0.000000 0.898793
O O17 0.588746 0.000000 0.750000
#
# Coordination Sequence:
#
# PCOD9393252 Si02
#       6
#     8   8   8   8   8   8
#     4   9  16  27  45  72 108 143 171 204 251 305
#     4   9  18  31  49  74 102 131 168 213 258 301
#     4   9  18  32  50  75 106 138 172 215 261 305
#     4   9  16  27  45  72 105 138 171 205 245 298
#     4  10  20  35  53  73  98 133 176 216 257 313
#     4  10  19  35  53  70  97 131 172 210 257 312
#
# _framework density 22.518239999999999
#
# number of rings (size 3 to 8) (size 9 to 14) (size 15 to 20)
#    0.000    2.667    1.667    1.000    0.000    6.000 
#    0.000    0.000    0.000    0.500    0.000    2.333 
#    0.000    0.000    0.000    0.000    0.000    0.167 
#
# Total GULP energy -267509.335579 kJ/mol
# GULP energy per Si atom -5573.111158 kJ/mol
# Density = 2.246699 g / cm^3
# Si number density = 22.518240 Si / 1000 Ang^3
#
#
#
# Elastic Constant Matrix: (Units=GPa)
#
#
# Indices 1 2 3 4 5 6 
#
# 1 248.9093 139.5079 10.5031 0.0000 0.0000 0.0000
# 2 139.5079 179.8015 16.2747 0.0000 0.0000 0.0000
# 3 10.5031 16.2747 80.9195 0.0000 0.0000 0.0000
# 4 0.0000 0.0000 0.0000 -19.1929 0.0000 0.0000
# 5 0.0000 0.0000 0.0000 0.0000 24.7990 0.0000
# 6 0.0000 0.0000 0.0000 0.0000 0.0000 48.4568
#
#
#
# Elastic Compliance Matrix: (Units=1/GPa)
#
#
# Indices 1 2 3 4 5 6 
#
# 1 0.007112 -0.005535 0.000190 0.000000 0.000000 0.000000
# 2 -0.005535 0.009973 -0.001287 0.000000 0.000000 0.000000
# 3 0.000190 -0.001287 0.012592 0.000000 0.000000 0.000000
# 4 0.000000 0.000000 0.000000 -0.052103 0.000000 0.000000
# 5 0.000000 0.000000 0.000000 0.000000 0.040324 0.000000
# 6 0.000000 0.000000 0.000000 0.000000 0.000000 0.020637
#
#
# Mechanical properties :
#
#
# Convention : Reuss Voigt Hill
#
# Bulk Modulus (GPa) = 60.93037 93.57797 77.25417
# Shear Modulus (GPa) = 87.30335 33.70223 60.50279
#
# Velocity S-wave (km/s) = 6.23332 3.87287 5.18909
# Velocity P-wave (km/s) = 8.88384 7.85147 8.38356
#
# Compressibility (1/GPa) = 0.01641218
#
# Stress axis : x y z
#
# Youngs Moduli (GPa) = 140.60838 100.26967 79.41432
#
# Poissons Ratio (x) = 0.55503 -0.01510
# Poissons Ratio (y) = 0.77832 0.10223
# Poissons Ratio (z) = -0.02674 0.12908
#
# Static dielectric constant tensor:
#      x y z
#    x 1.797340 0.000000 0.000000 
#    y 0.000000 1.852790 0.000000 
#    z 0.000000 0.000000 1.949090 
# 
# From -- ./inp_files/17750.got.cif
#   From: 2010.05.17/outbox.cif.g08.bks.cpg/sg49_9_cif.got.tgz:17750.got - 2010.06.03 21:02:19.
