data_PCOD9393076
_publ_section_title
;
Structure prediction by ZEFSAII (Michael W. Deem and Ramdas Pophale) SiO2 
 PCOD9393076
Probable space group: P C C M
;
_chemical_formula_sum "Si O2"
_cell_formula_units_Z 64
_cell_length_a 22.372608
_cell_length_b 16.339853
_cell_length_c 9.057345
_cell_angle_alpha 90.000000
_cell_angle_beta 90.000000
_cell_angle_gamma 90.000000
_cell_volume 3311.049466
_symmetry_space_group_name_H-M "P C C M"
_symmetry_group_IT_number 49
_symmetry_cell_setting 'orthorhombic'
loop_
_space_group_symop_operation_xyz
x,y,z
-x,-y,z
x,-y,1/2-z
-x,y,1/2-z
-x,-y,-z
x,y,-z
-x,y,1/2+z
x,-y,1/2+z
loop_
_atom_site_type_symbol
_atom_site_label
_atom_site_fract_x
_atom_site_fract_y
_atom_site_fract_z
Si Si1 0.145026 0.413133 0.177820
Si Si2 0.232889 0.082459 0.329733
Si Si3 0.063073 0.272955 0.679876
Si Si4 0.910857 0.085073 0.170838
Si Si5 0.714247 0.390282 0.665948
Si Si6 0.404641 0.420285 0.672972
Si Si7 0.438895 0.237049 0.677331
Si Si8 0.318630 0.200130 0.166632
O O1 0.125520 0.500000 0.250000
O O2 0.112364 0.335249 0.253324
O O3 0.216746 0.406295 0.201714
O O4 0.134801 0.412778 0.000000
O O5 0.250015 0.082137 0.500000
O O6 0.161250 0.087437 0.321485
O O7 0.265142 0.154503 0.246073
O O8 0.251987 0.000000 0.250000
O O9 0.063901 0.276911 0.500000
O O10 0.070743 0.176318 0.723457
O O11 0.000000 0.299259 0.750000
O O12 0.929530 0.000000 0.250000
O O13 0.929474 0.078489 0.000000
O O14 0.701558 0.423236 0.500000
O O15 0.665597 0.418267 0.784359
O O16 0.702032 0.293795 0.658952
O O17 0.430655 0.500000 0.750000
O O18 0.412590 0.426822 0.500000
O O19 0.431058 0.333053 0.721402
O O20 0.500000 0.206570 0.750000
O O21 0.440561 0.231902 0.500000
O O22 0.379873 0.194428 0.741780
O O23 0.327905 0.169996 0.000000
#
# Coordination Sequence:
#
# PCOD9393076 Si02
#       8
#     8   8   8   8   8   8   8   8
#     4  11  23  39  59  84 112 147 189 237 288 339
#     4  10  19  33  54  83 115 145 176 213 260 317
#     4  11  24  42  61  84 113 149 192 237 281 331
#     4   9  20  37  60  89 121 153 185 224 275 333
#     4   9  19  34  54  80 109 139 175 218 271 329
#     4  10  20  32  49  73 103 136 172 215 266 319
#     4  10  21  36  52  72  98 135 180 224 266 313
#     4  10  19  33  54  80 109 142 177 219 268 321
#
# _framework density 19.329218999999998
#
# number of rings (size 3 to 8) (size 9 to 14) (size 15 to 20)
#    0.000    2.000    0.000    3.375    0.000    6.250 
#    0.000    3.750    0.000    0.375    0.000    2.625 
#    0.000    0.000    0.000    0.000    0.000    0.000 
#
# Total GULP energy -357094.670011 kJ/mol
# GULP energy per Si atom -5579.604219 kJ/mol
# Density = 1.928522 g / cm^3
# Si number density = 19.329219 Si / 1000 Ang^3
#
#
#
# Elastic Constant Matrix: (Units=GPa)
#
#
# Indices 1 2 3 4 5 6 
#
# 1 53.2494 20.2816 28.4012 0.0000 0.0000 0.0000
# 2 20.2816 65.5774 29.7106 0.0000 0.0000 0.0000
# 3 28.4012 29.7106 74.7949 0.0000 0.0000 0.0000
# 4 0.0000 0.0000 0.0000 33.9238 0.0000 0.0000
# 5 0.0000 0.0000 0.0000 0.0000 17.3436 0.0000
# 6 0.0000 0.0000 0.0000 0.0000 0.0000 2.6099
#
#
#
# Elastic Compliance Matrix: (Units=1/GPa)
#
#
# Indices 1 2 3 4 5 6 
#
# 1 0.024415 -0.004086 -0.007648 0.000000 0.000000 0.000000
# 2 -0.004086 0.019280 -0.006107 0.000000 0.000000 0.000000
# 3 -0.007648 -0.006107 0.018700 0.000000 0.000000 0.000000
# 4 0.000000 0.000000 0.000000 0.029478 0.000000 0.000000
# 5 0.000000 0.000000 0.000000 0.000000 0.057658 0.000000
# 6 0.000000 0.000000 0.000000 0.000000 0.000000 0.383151
#
#
# Mechanical properties :
#
#
# Convention : Reuss Voigt Hill
#
# Bulk Modulus (GPa) = 37.43504 38.93426 38.18465
# Shear Modulus (GPa) = 8.66150 18.45734 13.55942
#
# Velocity S-wave (km/s) = 2.11914 3.09349 2.65146
# Velocity P-wave (km/s) = 5.03952 5.73986 5.40105
#
# Compressibility (1/GPa) = 0.02671294
#
# Stress axis : x y z
#
# Youngs Moduli (GPa) = 40.95862 51.86813 53.47674
#
# Poissons Ratio (x) = 0.21194 0.40898
# Poissons Ratio (y) = 0.16736 0.32657
# Poissons Ratio (z) = 0.31324 0.31675
#
# Static dielectric constant tensor:
#      x y z
#    x 1.660450 0.000000 0.000000 
#    y 0.000000 1.696290 0.000000 
#    z 0.000000 0.000000 1.682900 
# 
# From -- ./inp_files/6521.got.cif
#   From: 2010.05.17/outbox.cif.g08.bks.cpg/sg49_4_cif.got.tgz:6521.got - 2010.06.03 21:02:19.
