data_PCOD9393989
_publ_section_title
;
Structure prediction by ZEFSAII (Michael W. Deem and Ramdas Pophale) SiO2 
 PCOD9393989
Probable space group: P C C M
;
_chemical_formula_sum "Si O2"
_cell_formula_units_Z 56
_cell_length_a 6.782709
_cell_length_b 12.801418
_cell_length_c 27.927704
_cell_angle_alpha 90.000000
_cell_angle_beta 90.000000
_cell_angle_gamma 90.000000
_cell_volume 2424.914868
_symmetry_space_group_name_H-M "P C C M"
_symmetry_group_IT_number 49
_symmetry_cell_setting 'orthorhombic'
loop_
_space_group_symop_operation_xyz
x,y,z
-x,-y,z
x,-y,1/2-z
-x,y,1/2-z
-x,-y,-z
x,y,-z
-x,y,1/2+z
x,-y,1/2+z
loop_
_atom_site_type_symbol
_atom_site_label
_atom_site_fract_x
_atom_site_fract_y
_atom_site_fract_z
Si Si1 0.996390 0.669482 0.054689
Si Si2 0.977331 0.647222 0.193547
Si Si3 0.839463 0.092789 0.054431
Si Si4 0.442260 0.110784 0.645334
Si Si5 0.670175 0.703748 0.867706
Si Si6 0.690227 0.421220 0.122081
Si Si7 0.058799 0.882415 0.805319
O O1 0.066201 0.790891 0.056668
O O2 0.165474 0.593871 0.076569
O O3 0.803599 0.667305 0.088064
O O4 0.954642 0.642941 0.000000
O O5 0.149698 0.585751 0.165567
O O6 0.982566 0.769059 0.176516
O O7 0.000000 0.635724 0.250000
O O8 0.753269 0.631963 0.175477
O O9 0.675726 0.092791 0.095651
O O10 0.760914 0.079760 0.000000
O O11 0.000000 0.000000 0.061440
O O12 0.643721 0.173087 0.638432
O O13 0.287458 0.143030 0.685848
O O14 0.500000 0.000000 0.664658
O O15 0.437515 0.683828 0.874675
O O16 0.500000 0.500000 0.118737
O O17 0.000000 0.884264 0.750000
O O18 0.000000 0.000000 0.823914
#
# Coordination Sequence:
#
# PCOD9393989 Si02
#       7
#     8   8   8   8   8   8   8
#     4  10  22  41  65  94 132 174 217 273 337 397
#     4  10  22  43  65  91 130 171 211 274 341 395
#     4  10  20  36  58  89 132 173 217 273 326 390
#     4  12  21  34  60  93 128 176 220 261 326 400
#     4  11  22  40  63  94 126 165 219 270 326 391
#     4  11  24  45  67  94 129 170 219 281 333 394
#     4  10  20  38  58  87 130 171 214 270 324 398
#
# _framework density 23.093594
#
# number of rings (size 3 to 8) (size 9 to 14) (size 15 to 20)
#    0.000    1.429    2.857    3.000    0.000    4.571 
#    0.000    8.571    0.000    0.000    0.000    0.000 
#    0.000    0.000    0.000    0.000    0.000    0.000 
#
# Total GULP energy -311805.127702 kJ/mol
# GULP energy per Si atom -5567.948709 kJ/mol
# Density = 2.304103 g / cm^3
# Si number density = 23.093594 Si / 1000 Ang^3
#
#
#
# Elastic Constant Matrix: (Units=GPa)
#
#
# Indices 1 2 3 4 5 6 
#
# 1 142.1015 26.2784 66.8279 0.0000 0.0000 0.0000
# 2 26.2784 109.8247 1.7006 0.0000 0.0000 0.0000
# 3 66.8279 1.7006 143.5301 0.0000 0.0000 0.0000
# 4 0.0000 0.0000 0.0000 -4.8269 0.0000 0.0000
# 5 0.0000 0.0000 0.0000 0.0000 -60.2955 0.0000
# 6 0.0000 0.0000 0.0000 0.0000 0.0000 63.7045
#
#
#
# Elastic Compliance Matrix: (Units=1/GPa)
#
#
# Indices 1 2 3 4 5 6 
#
# 1 0.009517 -0.002209 -0.004405 0.000000 0.000000 0.000000
# 2 -0.002209 0.009620 0.000915 0.000000 0.000000 0.000000
# 3 -0.004405 0.000915 0.009007 0.000000 0.000000 0.000000
# 4 0.000000 0.000000 0.000000 -0.207173 0.000000 0.000000
# 5 0.000000 0.000000 0.000000 0.000000 -0.016585 0.000000
# 6 0.000000 0.000000 0.000000 0.000000 0.000000 0.015697
#
#
# Mechanical properties :
#
#
# Convention : Reuss Voigt Hill
#
# Bulk Modulus (GPa) = 59.71817 65.00780 62.36299
# Shear Modulus (GPa) = -30.68719 19.75971 -5.46374
#
# Velocity S-wave (km/s) = -3.64925 2.92830 -1.53982
# Velocity P-wave (km/s) = 2.85645 6.29635 4.88893
#
# Compressibility (1/GPa) = 0.01674532
#
# Stress axis : x y z
#
# Youngs Moduli (GPa) = 105.07063 103.95189 111.01996
#
# Poissons Ratio (x) = 0.22964 0.48906
# Poissons Ratio (y) = 0.23211 -0.10153
# Poissons Ratio (z) = 0.46285 -0.09507
#
# Static dielectric constant tensor:
#      x y z
#    x 2.015470 0.000000 0.000000 
#    y 0.000000 2.195900 0.000000 
#    z 0.000000 0.000000 1.837960 
# 
# From -- ./inp_files/25818.got.cif
#   From: 2010.05.17/outbox.cif.g08.bks.cpg/sg49_13_cif.got.tgz:25818.got - 2010.06.03 21:02:19.
