data_PCOD9393165
_publ_section_title
;
Structure prediction by ZEFSAII (Michael W. Deem and Ramdas Pophale) SiO2 
 PCOD9393165
Probable space group: P C C M
;
_chemical_formula_sum "Si O2"
_cell_formula_units_Z 42
_cell_length_a 12.834482
_cell_length_b 19.587208
_cell_length_c 8.963367
_cell_angle_alpha 90.000000
_cell_angle_beta 90.000000
_cell_angle_gamma 90.000000
_cell_volume 2253.315786
_symmetry_space_group_name_H-M "P C C M"
_symmetry_group_IT_number 49
_symmetry_cell_setting 'orthorhombic'
loop_
_space_group_symop_operation_xyz
x,y,z
-x,-y,z
x,-y,1/2-z
-x,y,1/2-z
-x,-y,-z
x,y,-z
-x,y,1/2+z
x,-y,1/2+z
loop_
_atom_site_type_symbol
_atom_site_label
_atom_site_fract_x
_atom_site_fract_y
_atom_site_fract_z
Si Si1 0.889745 0.640299 0.822343
Si Si2 0.816478 0.206187 0.323745
Si Si3 0.500000 0.500000 0.750000
Si Si4 0.609453 0.244474 0.825836
Si Si5 0.684486 0.600183 0.336544
Si Si6 0.113925 0.933250 0.177982
O O1 0.869231 0.720827 0.782239
O O2 0.784437 0.599682 0.773230
O O3 0.000000 0.618949 0.750000
O O4 0.898393 0.636281 0.000000
O O5 0.834616 0.194784 0.500000
O O6 0.696257 0.214355 0.282417
O O7 0.848395 0.141065 0.227634
O O8 0.414301 0.450335 0.674749
O O9 0.500000 0.230842 0.750000
O O10 0.633434 0.325257 0.824979
O O11 0.616194 0.222338 0.000000
O O12 0.731931 0.591510 0.500000
O O13 0.000000 0.934202 0.250000
O O14 0.169486 0.000000 0.250000
O O15 0.111670 0.939862 0.000000
#
# Coordination Sequence:
#
# PCOD9393165 Si02
#       6
#     8   8   2   8   8   8
#     4  10  21  37  59  84 115 149 188 234 284 338
#     4  10  20  34  54  82 111 146 186 231 281 334
#     4  12  22  40  62  90 114 148 186 236 278 340
#     4  10  19  34  54  80 111 144 182 230 278 329
#     4  10  22  37  58  85 115 149 186 230 282 336
#     4  11  21  34  52  77 110 148 186 229 275 329
#
# _framework density 18.639198
#
# number of rings (size 3 to 8) (size 9 to 14) (size 15 to 20)
#    0.000    1.714    0.952    4.857    0.000    6.095 
#    0.000    0.476    0.000    2.857    0.000    4.000 
#    0.000    0.000    0.000    0.000    0.000    0.000 
#
# Total GULP energy -233886.985670 kJ/mol
# GULP energy per Si atom -5568.737754 kJ/mol
# Density = 1.859677 g / cm^3
# Si number density = 18.639198 Si / 1000 Ang^3
#
#
#
# Elastic Constant Matrix: (Units=GPa)
#
#
# Indices 1 2 3 4 5 6 
#
# 1 103.1703 19.5162 20.9984 0.0000 0.0000 0.0000
# 2 19.5162 55.7589 29.3812 0.0000 0.0000 0.0000
# 3 20.9984 29.3812 96.8372 0.0000 0.0000 0.0000
# 4 0.0000 0.0000 0.0000 570.5389 0.0000 0.0000
# 5 0.0000 0.0000 0.0000 0.0000 33.1659 0.0000
# 6 0.0000 0.0000 0.0000 0.0000 0.0000 -25.1677
#
#
#
# Elastic Compliance Matrix: (Units=1/GPa)
#
#
# Indices 1 2 3 4 5 6 
#
# 1 0.010534 -0.002956 -0.001387 0.000000 0.000000 0.000000
# 2 -0.002956 0.022177 -0.006088 0.000000 0.000000 0.000000
# 3 -0.001387 -0.006088 0.012474 0.000000 0.000000 0.000000
# 4 0.000000 0.000000 0.000000 0.001753 0.000000 0.000000
# 5 0.000000 0.000000 0.000000 0.000000 0.030151 0.000000
# 6 0.000000 0.000000 0.000000 0.000000 0.000000 -0.039733
#
#
# Mechanical properties :
#
#
# Convention : Reuss Voigt Hill
#
# Bulk Modulus (GPa) = 41.11262 43.95089 42.53176
# Shear Modulus (GPa) = 75.38502 128.09879 101.74191
#
# Velocity S-wave (km/s) = 6.36649 8.29908 7.39618
# Velocity P-wave (km/s) = 8.72627 10.74541 9.78805
#
# Compressibility (1/GPa) = 0.02432343
#
# Stress axis : x y z
#
# Youngs Moduli (GPa) = 94.92824 45.09220 80.16362
#
# Poissons Ratio (x) = 0.13329 0.11122
# Poissons Ratio (y) = 0.28061 0.48801
# Poissons Ratio (z) = 0.13170 0.27450
#
# Static dielectric constant tensor:
#      x y z
#    x 3.503810 0.000000 0.000000 
#    y 0.000000 1.755200 0.000000 
#    z 0.000000 0.000000 1.656220 
# 
# From -- ./inp_files/2807.got.cif
#   From: 2010.05.17/outbox.cif.g08.bks.cpg/sg49_2_cif.got.tgz:2807.got - 2010.06.03 21:02:19.
