data_PCOD9393337
_publ_section_title
;
Structure prediction by ZEFSAII (Michael W. Deem and Ramdas Pophale) SiO2 
 PCOD9393337
Probable space group: P C C M
;
_chemical_formula_sum "Si O2"
_cell_formula_units_Z 38
_cell_length_a 5.917983
_cell_length_b 11.207486
_cell_length_c 27.469355
_cell_angle_alpha 90.000000
_cell_angle_beta 90.000000
_cell_angle_gamma 90.000000
_cell_volume 1821.924518
_symmetry_space_group_name_H-M "P C C M"
_symmetry_group_IT_number 49
_symmetry_cell_setting 'orthorhombic'
loop_
_space_group_symop_operation_xyz
x,y,z
-x,-y,z
x,-y,1/2-z
-x,y,1/2-z
-x,-y,-z
x,y,-z
-x,y,1/2+z
x,-y,1/2+z
loop_
_atom_site_type_symbol
_atom_site_label
_atom_site_fract_x
_atom_site_fract_y
_atom_site_fract_z
Si Si1 0.565320 0.124851 0.413638
Si Si2 0.853998 0.114819 0.318922
Si Si3 0.500000 0.500000 0.121631
Si Si4 0.192993 0.285737 0.636095
Si Si5 0.500000 0.000000 0.750000
Si Si6 0.171103 0.345078 0.055134
O O1 0.751314 0.100384 0.372431
O O2 0.356097 0.181868 0.383972
O O3 0.677995 0.225189 0.446343
O O4 0.500000 0.000000 0.437274
O O5 0.018220 0.230820 0.323971
O O6 0.647877 0.092875 0.282141
O O7 0.000000 0.000000 0.307732
O O8 0.643436 0.397398 0.149852
O O9 0.323794 0.434988 0.086153
O O10 0.046260 0.323988 0.588982
O O11 0.119845 0.380835 0.000000
#
# Coordination Sequence:
#
# PCOD9393337 Si02
#       6
#     8   8   4   8   2   8
#     4  10  19  36  56  80 118 167 199 248 293 368
#     4  11  20  36  59  88 127 159 183 240 304 375
#     4  10  21  38  58  82 114 165 220 257 304 346
#     4  10  21  36  58  82 122 163 203 257 296 355
#     4  12  22  32  60  98 130 154 178 232 316 396
#     4  10  22  35  54  83 118 161 214 270 309 345
#
# _framework density 20.857067000000001
#
# number of rings (size 3 to 8) (size 9 to 14) (size 15 to 20)
#    0.000    1.684    3.158    1.263    0.000    5.474 
#    0.000    1.053    0.000    0.000    0.000    0.000 
#    0.000  983.579    0.000    0.000    0.000    0.000 
#
# Total GULP energy -211825.647050 kJ/mol
# GULP energy per Si atom -5574.359133 kJ/mol
# Density = 2.080960 g / cm^3
# Si number density = 20.857067 Si / 1000 Ang^3
#
#
#
# Elastic Constant Matrix: (Units=GPa)
#
#
# Indices 1 2 3 4 5 6 
#
# 1 93.4395 51.3203 21.2051 0.0000 0.0000 0.0000
# 2 51.3203 145.4276 21.0883 0.0000 0.0000 0.0000
# 3 21.2051 21.0883 65.5165 0.0000 0.0000 0.0000
# 4 0.0000 0.0000 0.0000 -82.7523 0.0000 0.0000
# 5 0.0000 0.0000 0.0000 0.0000 -21.8804 0.0000
# 6 0.0000 0.0000 0.0000 0.0000 0.0000 20.9915
#
#
#
# Elastic Compliance Matrix: (Units=1/GPa)
#
#
# Indices 1 2 3 4 5 6 
#
# 1 0.013832 -0.004439 -0.003048 0.000000 0.000000 0.000000
# 2 -0.004439 0.008638 -0.001343 0.000000 0.000000 0.000000
# 3 -0.003048 -0.001343 0.016682 0.000000 0.000000 0.000000
# 4 0.000000 0.000000 0.000000 -0.012084 0.000000 0.000000
# 5 0.000000 0.000000 0.000000 0.000000 -0.045703 0.000000
# 6 0.000000 0.000000 0.000000 0.000000 0.000000 0.047638
#
#
# Mechanical properties :
#
#
# Convention : Reuss Voigt Hill
#
# Bulk Modulus (GPa) = 46.53199 54.62342 50.57771
# Shear Modulus (GPa) = 92.88858 -2.67692 45.10583
#
# Velocity S-wave (km/s) = 6.68075 -1.13413 4.65544
# Velocity P-wave (km/s) = 9.04811 4.95291 7.29382
#
# Compressibility (1/GPa) = 0.02149059
#
# Stress axis : x y z
#
# Youngs Moduli (GPa) = 72.29611 115.77215 59.94383
#
# Poissons Ratio (x) = 0.51394 0.18271
# Poissons Ratio (y) = 0.32094 0.08053
# Poissons Ratio (z) = 0.22036 0.15554
#
# Static dielectric constant tensor:
#      x y z
#    x 2.001310 0.000000 0.000000 
#    y 0.000000 1.821110 0.000000 
#    z 0.000000 0.000000 1.701540 
# 
# From -- ./inp_files/25677.got.cif
#   From: 2010.05.17/outbox.cif.g08.bks.cpg/sg49_13_cif.got.tgz:25677.got - 2010.06.03 21:02:19.
