data_PCOD9393028
_publ_section_title
;
Structure prediction by ZEFSAII (Michael W. Deem and Ramdas Pophale) SiO2 
 PCOD9393028
Probable space group: P C C M
;
_chemical_formula_sum "Si O2"
_cell_formula_units_Z 64
_cell_length_a 25.249821
_cell_length_b 15.302772
_cell_length_c 8.846567
_cell_angle_alpha 90.000000
_cell_angle_beta 90.000000
_cell_angle_gamma 90.000000
_cell_volume 3418.244962
_symmetry_space_group_name_H-M "P C C M"
_symmetry_group_IT_number 49
_symmetry_cell_setting 'orthorhombic'
loop_
_space_group_symop_operation_xyz
x,y,z
-x,-y,z
x,-y,1/2-z
-x,y,1/2-z
-x,-y,-z
x,y,-z
-x,y,1/2+z
x,-y,1/2+z
loop_
_atom_site_type_symbol
_atom_site_label
_atom_site_fract_x
_atom_site_fract_y
_atom_site_fract_z
Si Si1 0.058208 0.092977 0.818266
Si Si2 0.703193 0.352686 0.323012
Si Si3 0.813318 0.409447 0.180655
Si Si4 0.445632 0.775015 0.180474
Si Si5 0.331428 0.830053 0.819763
Si Si6 0.584088 0.589931 0.824702
Si Si7 0.766155 0.088216 0.679493
Si Si8 0.148203 0.767175 0.318470
O O1 0.097473 0.172824 0.782259
O O2 0.000000 0.108484 0.750000
O O3 0.076756 0.000000 0.750000
O O4 0.055469 0.084725 0.000000
O O5 0.714718 0.333855 0.500000
O O6 0.754059 0.396338 0.247904
O O7 0.689993 0.263982 0.234647
O O8 0.648400 0.406250 0.317850
O O9 0.834266 0.500000 0.250000
O O10 0.846148 0.324760 0.234748
O O11 0.811134 0.414099 0.000000
O O12 0.500000 0.808865 0.250000
O O13 0.393311 0.829980 0.223091
O O14 0.436328 0.676485 0.241232
O O15 0.448851 0.772208 0.000000
O O16 0.293014 0.897981 0.739990
O O17 0.326953 0.837814 0.000000
O O18 0.566072 0.500000 0.750000
O O19 0.568436 0.594207 0.000000
O O20 0.766556 0.081264 0.500000
O O21 0.801395 0.172077 0.721559
O O22 0.788775 0.000000 0.750000
O O23 0.149056 0.752566 0.500000
#
# Coordination Sequence:
#
# PCOD9393028 Si02
#       8
#     8   8   8   8   8   8   8   8
#     4  10  20  36  60  90 125 163 203 247 291 345
#     4  10  19  33  52  75 106 143 185 230 279 335
#     4  12  24  36  55  80 113 156 200 246 291 343
#     4  10  21  36  54  74  98 130 174 223 274 337
#     4  10  20  35  55  80 109 142 181 225 278 337
#     4  10  20  32  48  70  98 132 172 221 276 333
#     4  11  22  36  58  86 120 155 188 229 282 346
#     4  10  22  39  58  85 122 160 199 244 291 340
#
# _framework density 18.723057000000001
#
# number of rings (size 3 to 8) (size 9 to 14) (size 15 to 20)
#    0.000    1.625    1.250    4.500    0.000    5.750 
#    0.000    1.250    0.000    0.750    0.000    5.250 
#    0.000    0.000    0.000    0.000    0.000    0.000 
#
# Total GULP energy -357575.909109 kJ/mol
# GULP energy per Si atom -5587.123580 kJ/mol
# Density = 1.868044 g / cm^3
# Si number density = 18.723057 Si / 1000 Ang^3
#
#
#
# Elastic Constant Matrix: (Units=GPa)
#
#
# Indices 1 2 3 4 5 6 
#
# 1 101.9742 43.7826 39.5753 0.0000 0.0000 0.0000
# 2 43.7826 93.9225 34.4118 0.0000 0.0000 0.0000
# 3 39.5753 34.4118 68.5905 0.0000 0.0000 0.0000
# 4 0.0000 0.0000 0.0000 28.0011 0.0000 0.0000
# 5 0.0000 0.0000 0.0000 0.0000 26.4324 0.0000
# 6 0.0000 0.0000 0.0000 0.0000 0.0000 80.0587
#
#
#
# Elastic Compliance Matrix: (Units=1/GPa)
#
#
# Indices 1 2 3 4 5 6 
#
# 1 0.013953 -0.004355 -0.005865 0.000000 0.000000 0.000000
# 2 -0.004355 0.014404 -0.004714 0.000000 0.000000 0.000000
# 3 -0.005865 -0.004714 0.020328 0.000000 0.000000 0.000000
# 4 0.000000 0.000000 0.000000 0.035713 0.000000 0.000000
# 5 0.000000 0.000000 0.000000 0.000000 0.037832 0.000000
# 6 0.000000 0.000000 0.000000 0.000000 0.000000 0.012491
#
#
# Mechanical properties :
#
#
# Convention : Reuss Voigt Hill
#
# Bulk Modulus (GPa) = 53.14443 55.55853 54.35148
# Shear Modulus (GPa) = 29.26334 36.67961 32.97147
#
# Velocity S-wave (km/s) = 3.95771 4.43093 4.20099
# Velocity P-wave (km/s) = 7.02359 7.47769 7.25419
#
# Compressibility (1/GPa) = 0.01881665
#
# Stress axis : x y z
#
# Youngs Moduli (GPa) = 71.67133 69.42364 49.19216
#
# Poissons Ratio (x) = 0.30235 0.28853
# Poissons Ratio (y) = 0.31214 0.23188
# Poissons Ratio (z) = 0.42038 0.32725
#
# Static dielectric constant tensor:
#      x y z
#    x 1.665750 0.000000 0.000000 
#    y 0.000000 1.803130 0.000000 
#    z 0.000000 0.000000 1.622420 
# 
# From -- ./inp_files/6497.got.cif
#   From: 2010.05.17/outbox.cif.g08.bks.cpg/sg49_4_cif.got.tgz:6497.got - 2010.06.03 21:02:19.
