data_PCOD9393816
_publ_section_title
;
Structure prediction by ZEFSAII (Michael W. Deem and Ramdas Pophale) SiO2 
 PCOD9393816
Probable space group: P C C M
;
_chemical_formula_sum "Si O2"
_cell_formula_units_Z 58
_cell_length_a 14.760713
_cell_length_b 27.674775
_cell_length_c 8.472806
_cell_angle_alpha 90.000000
_cell_angle_beta 90.000000
_cell_angle_gamma 90.000000
_cell_volume 3461.136261
_symmetry_space_group_name_H-M "P C C M"
_symmetry_group_IT_number 49
_symmetry_cell_setting 'orthorhombic'
loop_
_space_group_symop_operation_xyz
x,y,z
-x,-y,z
x,-y,1/2-z
-x,y,1/2-z
-x,-y,-z
x,y,-z
-x,y,1/2+z
x,-y,1/2+z
loop_
_atom_site_type_symbol
_atom_site_label
_atom_site_fract_x
_atom_site_fract_y
_atom_site_fract_z
Si Si1 0.781901 0.357982 0.310821
Si Si2 0.401400 0.789657 0.687945
Si Si3 0.000000 0.000000 0.750000
Si Si4 0.596734 0.319682 0.812175
Si Si5 0.911192 0.907012 0.811866
Si Si6 0.102848 0.737500 0.689708
Si Si7 0.216380 0.170957 0.313280
Si Si8 0.898643 0.553533 0.311468
O O1 0.774505 0.358457 0.500000
O O2 0.682740 0.351071 0.237425
O O3 0.843553 0.311521 0.266373
O O4 0.830905 0.406069 0.251922
O O5 0.500000 0.804872 0.750000
O O6 0.397283 0.793388 0.500000
O O7 0.390322 0.733410 0.736097
O O8 0.319244 0.818676 0.764598
O O9 0.074793 0.042641 0.716304
O O10 0.500000 0.338401 0.750000
O O11 0.592644 0.314118 0.000000
O O12 0.824385 0.876075 0.771544
O O13 0.000000 0.877822 0.750000
O O14 0.917613 0.917016 0.000000
O O15 0.102901 0.741605 0.500000
O O16 0.157143 0.782950 0.759118
O O17 0.000000 0.735952 0.750000
O O18 0.208166 0.165136 0.500000
O O19 0.875266 0.500000 0.250000
O O20 0.899700 0.553422 0.500000
O O21 0.000000 0.564528 0.250000
#
# Coordination Sequence:
#
# PCOD9393816 Si02
#       8
#     8   8   2   8   8   8   8   8
#     4  11  22  37  57  81 110 144 186 231 279 332
#     4  11  21  36  55  78 109 145 187 232 278 330
#     4   8  22  36  62  80 112 144 198 236 284 320
#     4  11  21  35  56  81 110 145 186 229 276 330
#     4  10  20  35  55  79 110 145 185 231 276 324
#     4  11  23  36  51  73 109 148 185 224 271 329
#     4  12  23  35  53  78 110 148 188 227 275 330
#     4  11  22  38  59  83 111 144 186 232 280 332
#
# _framework density 16.757501999999999
#
# number of rings (size 3 to 8) (size 9 to 14) (size 15 to 20)
#    0.414    0.690    1.379    8.483    0.000    2.759 
#    0.000    0.000    0.000    0.414    0.000    3.379 
#    0.000    3.310    0.000    0.000    0.000    0.000 
#
# Total GULP energy -323479.971581 kJ/mol
# GULP energy per Si atom -5577.240889 kJ/mol
# Density = 1.671936 g / cm^3
# Si number density = 16.757502 Si / 1000 Ang^3
#
#
#
# Elastic Constant Matrix: (Units=GPa)
#
#
# Indices 1 2 3 4 5 6 
#
# 1 120.4230 55.8021 12.8755 0.0000 0.0000 0.0000
# 2 55.8021 78.5986 9.9224 0.0000 0.0000 0.0000
# 3 12.8755 9.9224 76.2200 0.0000 0.0000 0.0000
# 4 0.0000 0.0000 0.0000 123.2835 0.0000 0.0000
# 5 0.0000 0.0000 0.0000 0.0000 30.4851 0.0000
# 6 0.0000 0.0000 0.0000 0.0000 0.0000 18.9047
#
#
#
# Elastic Compliance Matrix: (Units=1/GPa)
#
#
# Indices 1 2 3 4 5 6 
#
# 1 0.012445 -0.008713 -0.000968 0.000000 0.000000 0.000000
# 2 -0.008713 0.019036 -0.001006 0.000000 0.000000 0.000000
# 3 -0.000968 -0.001006 0.013414 0.000000 0.000000 0.000000
# 4 0.000000 0.000000 0.000000 0.008111 0.000000 0.000000
# 5 0.000000 0.000000 0.000000 0.000000 0.032803 0.000000
# 6 0.000000 0.000000 0.000000 0.000000 0.000000 0.052897
#
#
# Mechanical properties :
#
#
# Convention : Reuss Voigt Hill
#
# Bulk Modulus (GPa) = 42.51619 48.04907 45.28263
# Shear Modulus (GPa) = 29.77566 47.64410 38.70988
#
# Velocity S-wave (km/s) = 4.21985 5.33790 4.81146
# Velocity P-wave (km/s) = 7.01209 8.16862 7.61235
#
# Compressibility (1/GPa) = 0.02352045
#
# Stress axis : x y z
#
# Youngs Moduli (GPa) = 80.35212 52.53173 74.54667
#
# Poissons Ratio (x) = 0.45773 0.07216
# Poissons Ratio (y) = 0.70014 0.07501
# Poissons Ratio (z) = 0.07778 0.05286
#
# Static dielectric constant tensor:
#      x y z
#    x 1.566290 0.000000 0.000000 
#    y 0.000000 1.547260 0.000000 
#    z 0.000000 0.000000 1.585070 
# 
# From -- ./inp_files/4290.got.cif
#   From: 2010.05.17/outbox.cif.g08.bks.cpg/sg49_3_cif.got.tgz:4290.got - 2010.06.03 21:02:19.
