data_PCOD9393765
_publ_section_title
;
Structure prediction by ZEFSAII (Michael W. Deem and Ramdas Pophale) SiO2 
 PCOD9393765
Probable space group: P C C M
;
_chemical_formula_sum "Si O2"
_cell_formula_units_Z 38
_cell_length_a 7.074625
_cell_length_b 14.025538
_cell_length_c 16.437942
_cell_angle_alpha 90.000000
_cell_angle_beta 90.000000
_cell_angle_gamma 90.000000
_cell_volume 1631.061728
_symmetry_space_group_name_H-M "P C C M"
_symmetry_group_IT_number 49
_symmetry_cell_setting 'orthorhombic'
loop_
_space_group_symop_operation_xyz
x,y,z
-x,-y,z
x,-y,1/2-z
-x,y,1/2-z
-x,-y,-z
x,y,-z
-x,y,1/2+z
x,-y,1/2+z
loop_
_atom_site_type_symbol
_atom_site_label
_atom_site_fract_x
_atom_site_fract_y
_atom_site_fract_z
Si Si1 0.621808 0.275763 0.000000
Si Si2 0.715267 0.670782 0.826508
Si Si3 0.344253 0.101499 0.000000
Si Si4 0.500000 0.500000 0.250000
Si Si5 0.799824 0.697527 0.000000
Si Si6 0.300574 0.757758 0.162050
Si Si7 0.223022 0.020485 0.656838
O O1 0.536737 0.165929 0.000000
O O2 0.745590 0.294076 0.921682
O O3 0.426127 0.332973 0.000000
O O4 0.628734 0.568401 0.804850
O O5 0.529713 0.740141 0.837627
O O6 0.790175 0.713497 0.741954
O O7 0.842088 0.669500 0.906769
O O8 0.314793 0.039898 0.917653
O O9 0.190568 0.186945 0.000000
O O10 0.254109 0.867184 0.151014
O O11 0.286113 0.000000 0.750000
O O12 0.000000 0.000000 0.652045
#
# Coordination Sequence:
#
# PCOD9393765 Si02
#       7
#     4   8   4   2   4   8   8
#     4   8  17  30  45  70  84 119 162 207 243 283
#     4   9  17  31  48  75 100 128 155 201 263 300
#     4  10  20  35  48  68  94 129 178 210 239 286
#     4   8  16  26  48  72 106 128 148 190 252 342
#     4   8  16  30  45  68  98 128 159 196 240 292
#     4   9  17  31  45  65  95 124 159 203 240 291
#     4  11  23  33  44  64  95 134 174 207 240 280
#
# _framework density 23.297709000000001
#
# number of rings (size 3 to 8) (size 9 to 14) (size 15 to 20)
#    0.632    2.316    0.000    2.211    2.947    2.105 
#    0.000    1.053    0.000    0.000    0.000    0.000 
#    0.000  128.000    0.000    0.000    0.000    0.000 
#
# Total GULP energy -211626.053320 kJ/mol
# GULP energy per Si atom -5569.106666 kJ/mol
# Density = 2.324468 g / cm^3
# Si number density = 23.297709 Si / 1000 Ang^3
#
#
#
# Elastic Constant Matrix: (Units=GPa)
#
#
# Indices 1 2 3 4 5 6 
#
# 1 107.3632 14.6337 23.1218 0.0000 0.0000 0.0000
# 2 14.6337 80.0466 13.8360 0.0000 0.0000 0.0000
# 3 23.1218 13.8360 239.9967 0.0000 0.0000 0.0000
# 4 0.0000 0.0000 0.0000 56.4574 0.0000 0.0000
# 5 0.0000 0.0000 0.0000 0.0000 -19.0961 0.0000
# 6 0.0000 0.0000 0.0000 0.0000 0.0000 -26.6950
#
#
#
# Elastic Compliance Matrix: (Units=1/GPa)
#
#
# Indices 1 2 3 4 5 6 
#
# 1 0.009718 -0.001631 -0.000842 0.000000 0.000000 0.000000
# 2 -0.001631 0.012892 -0.000586 0.000000 0.000000 0.000000
# 3 -0.000842 -0.000586 0.004282 0.000000 0.000000 0.000000
# 4 0.000000 0.000000 0.000000 0.017712 0.000000 0.000000
# 5 0.000000 0.000000 0.000000 0.000000 -0.052367 0.000000
# 6 0.000000 0.000000 0.000000 0.000000 0.000000 -0.037460
#
#
# Mechanical properties :
#
#
# Convention : Reuss Voigt Hill
#
# Bulk Modulus (GPa) = 48.13921 58.95438 53.54679
# Shear Modulus (GPa) = -155.37702 27.18760 -64.09471
#
# Velocity S-wave (km/s) = -8.17537 3.41979 -5.25080
# Velocity P-wave (km/s) = 8.27092 6.39946 3.70507
#
# Compressibility (1/GPa) = 0.02077309
#
# Stress axis : x y z
#
# Youngs Moduli (GPa) = 102.90328 77.56624 233.55465
#
# Poissons Ratio (x) = 0.12651 0.19670
# Poissons Ratio (y) = 0.16783 0.13689
# Poissons Ratio (z) = 0.08667 0.04546
#
# Static dielectric constant tensor:
#      x y z
#    x 1.928200 0.000000 0.000000 
#    y 0.000000 1.779590 0.000000 
#    z 0.000000 0.000000 1.967970 
# 
# From -- ./inp_files/16180.got.cif
#   From: 2010.05.17/outbox.cif.g08.bks.cpg/sg49_9_cif.got.tgz:16180.got - 2010.06.03 21:02:19.
