data_PCOD9393833
_publ_section_title
;
Structure prediction by ZEFSAII (Michael W. Deem and Ramdas Pophale) SiO2 
 PCOD9393833
Probable space group: P C C M
;
_chemical_formula_sum "Si O2"
_cell_formula_units_Z 58
_cell_length_a 17.320612
_cell_length_b 18.816877
_cell_length_c 8.784310
_cell_angle_alpha 90.000000
_cell_angle_beta 90.000000
_cell_angle_gamma 90.000000
_cell_volume 2862.980783
_symmetry_space_group_name_H-M "P C C M"
_symmetry_group_IT_number 49
_symmetry_cell_setting 'orthorhombic'
loop_
_space_group_symop_operation_xyz
x,y,z
-x,-y,z
x,-y,1/2-z
-x,y,1/2-z
-x,-y,-z
x,y,-z
-x,y,1/2+z
x,-y,1/2+z
loop_
_atom_site_type_symbol
_atom_site_label
_atom_site_fract_x
_atom_site_fract_y
_atom_site_fract_z
Si Si1 0.786894 0.576695 0.681954
Si Si2 0.080667 0.078718 0.183211
Si Si3 0.620710 0.626204 0.678882
Si Si4 0.586200 0.927352 0.818029
Si Si5 0.500000 0.500000 0.750000
Si Si6 0.645822 0.780638 0.319249
Si Si7 0.804988 0.197119 0.675735
Si Si8 0.083170 0.326921 0.825214
O O1 0.800579 0.500000 0.750000
O O2 0.782648 0.573685 0.500000
O O3 0.703591 0.603030 0.743660
O O4 0.856492 0.625575 0.733941
O O5 0.157103 0.122963 0.224298
O O6 0.000000 0.108819 0.250000
O O7 0.087192 0.000000 0.250000
O O8 0.074945 0.077574 0.000000
O O9 0.631196 0.637836 0.500000
O O10 0.561105 0.560249 0.689909
O O11 0.604411 0.706989 0.736199
O O12 0.500000 0.925410 0.750000
O O13 0.622386 0.852864 0.765591
O O14 0.622905 0.000000 0.750000
O O15 0.584738 0.932279 0.000000
O O16 0.632567 0.790063 0.500000
O O17 0.736959 0.774063 0.281906
O O18 0.776402 0.192562 0.500000
O O19 0.877553 0.249847 0.675071
O O20 0.000000 0.326785 0.750000
O O21 0.078048 0.351499 0.000000
#
# Coordination Sequence:
#
# PCOD9393833 Si02
#       8
#     8   8   8   8   2   8   8   8
#     4  11  22  42  65  92 127 167 209 262 319 382
#     4  10  20  35  55  82 118 158 205 256 312 371
#     4  10  23  41  63  95 134 172 217 264 323 389
#     4  11  23  43  68  97 130 171 215 267 326 389
#     4  12  22  44  68 102 132 176 218 264 326 384
#     4  11  23  41  64  94 130 172 216 266 324 386
#     4  10  22  39  59  87 121 162 212 262 318 380
#     4  11  23  40  63  92 122 163 211 265 326 389
#
# _framework density 20.258606
#
# number of rings (size 3 to 8) (size 9 to 14) (size 15 to 20)
#    0.000    1.379    2.069    4.345    0.966    2.483 
#    0.000    4.828    0.000    0.000    0.000    0.000 
#    0.000    0.000    0.000    0.000    0.000    0.000 
#
# Total GULP energy -323430.297636 kJ/mol
# GULP energy per Si atom -5576.384442 kJ/mol
# Density = 2.021250 g / cm^3
# Si number density = 20.258606 Si / 1000 Ang^3
#
#
#
# Elastic Constant Matrix: (Units=GPa)
#
#
# Indices 1 2 3 4 5 6 
#
# 1 71.2433 27.6188 15.7299 0.0000 0.0000 0.0000
# 2 27.6188 128.3193 34.1039 0.0000 0.0000 0.0000
# 3 15.7299 34.1039 85.1983 0.0000 0.0000 0.0000
# 4 0.0000 0.0000 0.0000 23.1941 0.0000 0.0000
# 5 0.0000 0.0000 0.0000 0.0000 -1.4813 0.0000
# 6 0.0000 0.0000 0.0000 0.0000 0.0000 45.8416
#
#
#
# Elastic Compliance Matrix: (Units=1/GPa)
#
#
# Indices 1 2 3 4 5 6 
#
# 1 0.015534 -0.002889 -0.001712 0.000000 0.000000 0.000000
# 2 -0.002889 0.009258 -0.003173 0.000000 0.000000 0.000000
# 3 -0.001712 -0.003173 0.013323 0.000000 0.000000 0.000000
# 4 0.000000 0.000000 0.000000 0.043115 0.000000 0.000000
# 5 0.000000 0.000000 0.000000 0.000000 -0.675083 0.000000
# 6 0.000000 0.000000 0.000000 0.000000 0.000000 0.021814
#
#
# Mechanical properties :
#
#
# Convention : Reuss Voigt Hill
#
# Bulk Modulus (GPa) = 44.30725 48.85178 46.57951
# Shear Modulus (GPa) = -9.10796 27.33144 9.11174
#
# Velocity S-wave (km/s) = -2.12264 3.67703 2.12308
# Velocity P-wave (km/s) = 3.98884 6.49568 5.39002
#
# Compressibility (1/GPa) = 0.02256967
#
# Stress axis : x y z
#
# Youngs Moduli (GPa) = 64.37434 108.01528 75.05656
#
# Poissons Ratio (x) = 0.31201 0.12848
# Poissons Ratio (y) = 0.18595 0.23812
# Poissons Ratio (z) = 0.11019 0.34268
#
# Static dielectric constant tensor:
#      x y z
#    x 1.728550 0.000000 0.000000 
#    y 0.000000 1.772200 0.000000 
#    z 0.000000 0.000000 1.702650 
# 
# From -- ./inp_files/5090.got.cif
#   From: 2010.05.17/outbox.cif.g08.bks.cpg/sg49_3_cif.got.tgz:5090.got - 2010.06.03 21:02:19.
