data_PCOD9393960
_publ_section_title
;
Structure prediction by ZEFSAII (Michael W. Deem and Ramdas Pophale) SiO2 
 PCOD9393960
Probable space group: P C C M
;
_chemical_formula_sum "Si O2"
_cell_formula_units_Z 64
_cell_length_a 16.158292
_cell_length_b 12.945620
_cell_length_c 13.802909
_cell_angle_alpha 90.000000
_cell_angle_beta 90.000000
_cell_angle_gamma 90.000000
_cell_volume 2887.280194
_symmetry_space_group_name_H-M "P C C M"
_symmetry_group_IT_number 49
_symmetry_cell_setting 'orthorhombic'
loop_
_space_group_symop_operation_xyz
x,y,z
-x,-y,z
x,-y,1/2-z
-x,y,1/2-z
-x,-y,-z
x,y,-z
-x,y,1/2+z
x,-y,1/2+z
loop_
_atom_site_type_symbol
_atom_site_label
_atom_site_fract_x
_atom_site_fract_y
_atom_site_fract_z
Si Si1 0.793921 0.718100 0.885292
Si Si2 0.964040 0.388801 0.382552
Si Si3 0.305922 0.376406 0.382415
Si Si4 0.626402 0.159093 0.808597
Si Si5 0.622819 0.407516 0.386098
Si Si6 0.797814 0.108402 0.776003
Si Si7 0.454465 0.800706 0.612005
Si Si8 0.131797 0.294621 0.615396
O O1 0.873644 0.650590 0.853022
O O2 0.709793 0.652951 0.873959
O O3 0.789639 0.819560 0.819314
O O4 0.801881 0.741719 0.000000
O O5 0.958876 0.390228 0.500000
O O6 0.000000 0.500000 0.355025
O O7 0.039556 0.317009 0.350691
O O8 0.311552 0.367412 0.500000
O O9 0.342047 0.274699 0.332923
O O10 0.357862 0.476609 0.350688
O O11 0.207536 0.372791 0.357282
O O12 0.706796 0.089643 0.822076
O O13 0.598875 0.148401 0.696971
O O14 0.545255 0.151271 0.874338
O O15 0.608099 0.423762 0.500000
O O16 0.552466 0.322626 0.360428
O O17 0.844172 0.181236 0.850835
O O18 0.837201 0.000000 0.750000
O O19 0.427286 0.810444 0.500000
O O20 0.129660 0.301311 0.500000
#
# Coordination Sequence:
#
# PCOD9393960 Si02
#       8
#     8   8   8   8   8   8   8   8
#     4  10  20  37  60  87 119 153 194 245 296 344
#     4   9  17  33  61  94 128 165 198 231 283 349
#     4   9  17  31  53  83 118 156 193 227 276 347
#     4  10  21  37  57  81 110 149 189 238 294 352
#     4   9  17  31  54  82 117 155 186 228 284 346
#     4  11  24  42  62  83 109 149 204 253 305 355
#     4  10  20  36  57  82 117 146 181 236 291 349
#     4   9  19  37  57  85 124 158 196 245 290 340
#
# _framework density 22.166187999999998
#
# number of rings (size 3 to 8) (size 9 to 14) (size 15 to 20)
#    0.000    2.375    1.250    1.125    0.000    5.500 
#    0.000    8.125    0.000    3.000    0.000    0.000 
#    0.000    0.000    0.000    0.000    0.000    0.000 
#
# Total GULP energy -357040.570546 kJ/mol
# GULP energy per Si atom -5578.758915 kJ/mol
# Density = 2.211574 g / cm^3
# Si number density = 22.166188 Si / 1000 Ang^3
#
#
#
# Elastic Constant Matrix: (Units=GPa)
#
#
# Indices 1 2 3 4 5 6 
#
# 1 85.5060 0.1861 10.6767 0.0000 0.0000 0.0000
# 2 0.1861 33.6235 -24.3093 0.0000 0.0000 0.0000
# 3 10.6767 -24.3093 78.8433 0.0000 0.0000 0.0000
# 4 0.0000 0.0000 0.0000 23.4386 0.0000 0.0000
# 5 0.0000 0.0000 0.0000 0.0000 17.3563 0.0000
# 6 0.0000 0.0000 0.0000 0.0000 0.0000 2191.2467
#
#
#
# Elastic Compliance Matrix: (Units=1/GPa)
#
#
# Indices 1 2 3 4 5 6 
#
# 1 0.011962 -0.001592 -0.002111 0.000000 0.000000 0.000000
# 2 -0.001592 0.038485 0.012081 0.000000 0.000000 0.000000
# 3 -0.002111 0.012081 0.016694 0.000000 0.000000 0.000000
# 4 0.000000 0.000000 0.000000 0.042665 0.000000 0.000000
# 5 0.000000 0.000000 0.000000 0.000000 0.057616 0.000000
# 6 0.000000 0.000000 0.000000 0.000000 0.000000 0.000456
#
#
# Mechanical properties :
#
#
# Convention : Reuss Voigt Hill
#
# Bulk Modulus (GPa) = 11.91932 19.00887 15.46409
# Shear Modulus (GPa) = 27.91937 460.50294 244.21116
#
# Velocity S-wave (km/s) = 3.55286 14.42918 10.50771
# Velocity P-wave (km/s) = 4.71374 16.91732 12.41803
#
# Compressibility (1/GPa) = 0.08389743
#
# Stress axis : x y z
#
# Youngs Moduli (GPa) = 83.59727 25.98443 59.90098
#
# Poissons Ratio (x) = 0.04137 0.12644
# Poissons Ratio (y) = 0.13311 -0.72369
# Poissons Ratio (z) = 0.17646 -0.31393
#
# Static dielectric constant tensor:
#      x y z
#    x 1.846470 0.000000 0.000000 
#    y 0.000000 1.853550 0.000000 
#    z 0.000000 0.000000 1.850470 
# 
# From -- ./inp_files/14200.got.cif
#   From: 2010.05.17/outbox.cif.g08.bks.cpg/sg49_8_cif.got.tgz:14200.got - 2010.06.03 21:02:19.
