data_PCOD9393948
_publ_section_title
;
Structure prediction by ZEFSAII (Michael W. Deem and Ramdas Pophale) SiO2 
 PCOD9393948
Probable space group: P C C M
;
_chemical_formula_sum "Si O2"
_cell_formula_units_Z 64
_cell_length_a 26.877026
_cell_length_b 14.405294
_cell_length_c 8.614360
_cell_angle_alpha 90.000000
_cell_angle_beta 90.000000
_cell_angle_gamma 90.000000
_cell_volume 3335.234350
_symmetry_space_group_name_H-M "P C C M"
_symmetry_group_IT_number 49
_symmetry_cell_setting 'orthorhombic'
loop_
_space_group_symop_operation_xyz
x,y,z
-x,-y,z
x,-y,1/2-z
-x,y,1/2-z
-x,-y,-z
x,y,-z
-x,y,1/2+z
x,-y,1/2+z
loop_
_atom_site_type_symbol
_atom_site_label
_atom_site_fract_x
_atom_site_fract_y
_atom_site_fract_z
Si Si1 0.146786 0.895156 0.313504
Si Si2 0.353504 0.216050 0.684807
Si Si3 0.311949 0.395395 0.186976
Si Si4 0.907745 0.604591 0.813070
Si Si5 0.446557 0.103980 0.185386
Si Si6 0.202346 0.395562 0.186507
Si Si7 0.051634 0.213323 0.684232
Si Si8 0.258575 0.105321 0.812988
O O1 0.143509 0.894775 0.500000
O O2 0.100221 0.839569 0.246756
O O3 0.202629 0.859123 0.273368
O O4 0.144436 0.000000 0.250000
O O5 0.355584 0.211200 0.500000
O O6 0.349601 0.322031 0.741739
O O7 0.401467 0.166845 0.757073
O O8 0.304026 0.163107 0.743945
O O9 0.317593 0.500000 0.250000
O O10 0.256318 0.358998 0.233611
O O11 0.314875 0.396224 0.000000
O O12 0.914534 0.500000 0.750000
O O13 0.851892 0.639838 0.766992
O O14 0.943825 0.680548 0.742278
O O15 0.911324 0.603238 0.000000
O O16 0.500000 0.136094 0.250000
O O17 0.438722 0.000000 0.250000
O O18 0.448105 0.100716 0.000000
O O19 0.202461 0.500000 0.250000
O O20 0.202281 0.395637 0.000000
O O21 0.050895 0.210069 0.500000
O O22 0.000000 0.173401 0.750000
O O23 0.261835 0.000000 0.750000
O O24 0.262594 0.105459 0.000000
#
# Coordination Sequence:
#
# PCOD9393948 Si02
#       8
#     8   8   8   8   8   8   8   8
#     4  10  22  42  66  90 118 151 189 237 294 355
#     4  12  24  37  57  89 125 166 210 252 298 353
#     4  10  20  36  55  82 118 161 205 251 302 352
#     4  10  20  37  59  86 116 151 189 235 290 350
#     4  11  22  40  64  92 126 165 207 256 307 361
#     4   8  16  30  51  76 107 143 184 229 280 339
#     4  12  26  43  62  86 113 147 192 241 292 351
#     4  10  21  38  60  88 123 158 193 238 294 356
#
# _framework density 19.189056999999998
#
# number of rings (size 3 to 8) (size 9 to 14) (size 15 to 20)
#    0.000    1.625    0.000    5.625    1.750    3.000 
#    0.000    2.500    0.000    0.375    0.000    2.625 
#    0.000    0.000    0.000    0.000    0.000    0.000 
#
# Total GULP energy -357499.215855 kJ/mol
# GULP energy per Si atom -5585.925248 kJ/mol
# Density = 1.914538 g / cm^3
# Si number density = 19.189057 Si / 1000 Ang^3
#
#
#
# Elastic Constant Matrix: (Units=GPa)
#
#
# Indices 1 2 3 4 5 6 
#
# 1 163.2191 79.4803 71.3731 0.0000 0.0000 0.0000
# 2 79.4803 84.6970 43.2033 0.0000 0.0000 0.0000
# 3 71.3731 43.2033 130.1808 0.0000 0.0000 0.0000
# 4 0.0000 0.0000 0.0000 31.1873 0.0000 0.0000
# 5 0.0000 0.0000 0.0000 0.0000 29.3353 0.0000
# 6 0.0000 0.0000 0.0000 0.0000 0.0000 18.4254
#
#
#
# Elastic Compliance Matrix: (Units=1/GPa)
#
#
# Indices 1 2 3 4 5 6 
#
# 1 0.012524 -0.009932 -0.003571 0.000000 0.000000 0.000000
# 2 -0.009932 0.022088 -0.001885 0.000000 0.000000 0.000000
# 3 -0.003571 -0.001885 0.010265 0.000000 0.000000 0.000000
# 4 0.000000 0.000000 0.000000 0.032064 0.000000 0.000000
# 5 0.000000 0.000000 0.000000 0.000000 0.034089 0.000000
# 6 0.000000 0.000000 0.000000 0.000000 0.000000 0.054273
#
#
# Mechanical properties :
#
#
# Convention : Reuss Voigt Hill
#
# Bulk Modulus (GPa) = 70.90937 85.13450 78.02193
# Shear Modulus (GPa) = 24.90292 28.05894 26.48093
#
# Velocity S-wave (km/s) = 3.60636 3.82807 3.71887
# Velocity P-wave (km/s) = 7.37390 8.00008 7.69336
#
# Compressibility (1/GPa) = 0.01410251
#
# Stress axis : x y z
#
# Youngs Moduli (GPa) = 79.84452 45.27260 97.41878
#
# Poissons Ratio (x) = 0.44963 0.34784
# Poissons Ratio (y) = 0.79298 0.18367
# Poissons Ratio (z) = 0.28509 0.08536
#
# Static dielectric constant tensor:
#      x y z
#    x 1.689310 0.000000 0.000000 
#    y 0.000000 1.656700 0.000000 
#    z 0.000000 0.000000 1.640340 
# 
# From -- ./inp_files/6560.got.cif
#   From: 2010.05.17/outbox.cif.g08.bks.cpg/sg49_4_cif.got.tgz:6560.got - 2010.06.03 21:02:19.
