data_PCOD9393248
_publ_section_title
;
Structure prediction by ZEFSAII (Michael W. Deem and Ramdas Pophale) SiO2 
 PCOD9393248
Probable space group: P C C M
;
_chemical_formula_sum "Si O2"
_cell_formula_units_Z 40
_cell_length_a 7.481342
_cell_length_b 12.020559
_cell_length_c 18.764170
_cell_angle_alpha 90.000000
_cell_angle_beta 90.000000
_cell_angle_gamma 90.000000
_cell_volume 1687.460174
_symmetry_space_group_name_H-M "P C C M"
_symmetry_group_IT_number 49
_symmetry_cell_setting 'orthorhombic'
loop_
_space_group_symop_operation_xyz
x,y,z
-x,-y,z
x,-y,1/2-z
-x,y,1/2-z
-x,-y,-z
x,y,-z
-x,y,1/2+z
x,-y,1/2+z
loop_
_atom_site_type_symbol
_atom_site_label
_atom_site_fract_x
_atom_site_fract_y
_atom_site_fract_z
Si Si1 0.219560 0.996652 0.419632
Si Si2 0.179521 0.241378 0.415660
Si Si3 0.873913 0.829724 0.810650
Si Si4 0.783950 0.511403 0.417978
Si Si5 0.693123 0.608390 0.216033
O O1 0.275572 0.962727 0.500000
O O2 0.252555 0.913821 0.354184
O O3 0.281132 0.123668 0.405973
O O4 0.000000 0.000000 0.421193
O O5 0.135668 0.246646 0.500000
O O6 0.262848 0.360751 0.397943
O O7 0.000869 0.226280 0.370124
O O8 0.779045 0.727227 0.772708
O O9 0.000000 0.882183 0.750000
O O10 0.736937 0.492642 0.500000
O O11 0.692579 0.422976 0.366922
O O12 0.000000 0.500000 0.411641
O O13 0.788919 0.500000 0.250000
O O14 0.500000 0.612400 0.250000
#
# Coordination Sequence:
#
# PCOD9393248 Si02
#       5
#     8   8   8   8   8
#     4   8  16  30  50  85 127 150 180 253 322 355
#     4   9  17  31  54  93 128 146 188 264 324 353
#     4  11  20  31  55  84 115 158 207 248 294 364
#     4  10  19  34  64  97 120 154 215 269 303 361
#     4  11  25  41  55  82 129 170 202 246 319 384
#
# _framework density 23.704263000000001
#
# number of rings (size 3 to 8) (size 9 to 14) (size 15 to 20)
#    0.000    2.200    2.000    3.000    0.000    4.400 
#    0.000    2.000    0.000    3.600    0.000   26.600 
#    0.000   86.400    0.000    0.000    0.000    0.000 
#
# Total GULP energy -223471.709649 kJ/mol
# GULP energy per Si atom -5586.792741 kJ/mol
# Density = 2.365031 g / cm^3
# Si number density = 23.704263 Si / 1000 Ang^3
#
#
#
# Elastic Constant Matrix: (Units=GPa)
#
#
# Indices 1 2 3 4 5 6 
#
# 1 53.6905 27.8243 34.3950 0.0000 0.0000 0.0000
# 2 27.8243 157.8715 59.6236 0.0000 0.0000 0.0000
# 3 34.3950 59.6236 97.2746 0.0000 0.0000 0.0000
# 4 0.0000 0.0000 0.0000 58.9580 0.0000 0.0000
# 5 0.0000 0.0000 0.0000 0.0000 10.8450 0.0000
# 6 0.0000 0.0000 0.0000 0.0000 0.0000 3.9811
#
#
#
# Elastic Compliance Matrix: (Units=1/GPa)
#
#
# Indices 1 2 3 4 5 6 
#
# 1 0.024299 -0.001350 -0.007764 0.000000 0.000000 0.000000
# 2 -0.001350 0.008317 -0.004621 0.000000 0.000000 0.000000
# 3 -0.007764 -0.004621 0.015858 0.000000 0.000000 0.000000
# 4 0.000000 0.000000 0.000000 0.016961 0.000000 0.000000
# 5 0.000000 0.000000 0.000000 0.000000 0.092208 0.000000
# 6 0.000000 0.000000 0.000000 0.000000 0.000000 0.251188
#
#
# Mechanical properties :
#
#
# Convention : Reuss Voigt Hill
#
# Bulk Modulus (GPa) = 47.61041 61.39138 54.50089
# Shear Modulus (GPa) = 11.27898 27.22307 19.25103
#
# Velocity S-wave (km/s) = 2.18370 3.39255 2.85289
# Velocity P-wave (km/s) = 5.14654 6.42658 5.82185
#
# Compressibility (1/GPa) = 0.02100381
#
# Stress axis : x y z
#
# Youngs Moduli (GPa) = 41.15426 120.23119 63.06133
#
# Poissons Ratio (x) = 0.16235 0.48961
# Poissons Ratio (y) = 0.05557 0.29138
# Poissons Ratio (z) = 0.31952 0.55554
#
# Static dielectric constant tensor:
#      x y z
#    x 1.932320 0.000000 0.000000 
#    y 0.000000 1.988000 0.000000 
#    z 0.000000 0.000000 1.934910 
# 
# From -- ./inp_files/15965.got.cif
#   From: 2010.05.17/outbox.cif.g08.bks.cpg/sg49_8_cif.got.tgz:15965.got - 2010.06.03 21:02:19.
