data_PCOD9393703
_publ_section_title
;
Structure prediction by ZEFSAII (Michael W. Deem and Ramdas Pophale) SiO2 
 PCOD9393703
Probable space group: P C C M
;
_chemical_formula_sum "Si O2"
_cell_formula_units_Z 60
_cell_length_a 24.541780
_cell_length_b 4.972375
_cell_length_c 24.103803
_cell_angle_alpha 90.000000
_cell_angle_beta 90.000000
_cell_angle_gamma 90.000000
_cell_volume 2941.409577
_symmetry_space_group_name_H-M "P C C M"
_symmetry_group_IT_number 49
_symmetry_cell_setting 'orthorhombic'
loop_
_space_group_symop_operation_xyz
x,y,z
-x,-y,z
x,-y,1/2-z
-x,y,1/2-z
-x,-y,-z
x,y,-z
-x,y,1/2+z
x,-y,1/2+z
loop_
_atom_site_type_symbol
_atom_site_label
_atom_site_fract_x
_atom_site_fract_y
_atom_site_fract_z
Si Si1 0.244819 0.995341 0.434956
Si Si2 0.777420 0.522086 0.636657
Si Si3 0.040376 0.247374 0.880512
Si Si4 0.870603 0.742022 0.211852
Si Si5 0.040863 0.251797 0.000000
Si Si6 0.337760 0.488422 0.186039
Si Si7 0.640560 0.021975 0.881556
Si Si8 0.537777 0.260728 0.562299
O O1 0.232419 0.014451 0.500000
O O2 0.210670 0.203446 0.396683
O O3 0.308961 0.061981 0.423775
O O4 0.236519 0.698164 0.410396
O O5 0.821545 0.390028 0.676860
O O6 0.724312 0.579219 0.674322
O O7 0.082767 0.194209 0.832220
O O8 0.070427 0.266150 0.940737
O O9 0.000000 0.500000 0.872025
O O10 0.000000 0.000000 0.883732
O O11 0.891665 0.500000 0.250000
O O12 0.856207 0.000000 0.250000
O O13 0.000000 0.500000 0.000000
O O14 0.000000 0.000000 0.000000
O O15 0.352882 0.500000 0.250000
O O16 0.372162 0.691970 0.146997
O O17 0.339777 0.181584 0.166211
O O18 0.591073 0.858028 0.908398
O O19 0.500000 0.500000 0.586885
O O20 0.553449 0.354579 0.500000
O O21 0.500000 0.000000 0.558342
#
# Coordination Sequence:
#
# PCOD9393703 Si02
#       8
#     8   8   8   8   4   8   8   8
#     4  10  20  37  59  85 119 151 189 240 293 356
#     4  10  22  38  57  84 118 152 195 233 296 351
#     4  10  21  39  62  87 116 150 198 243 299 357
#     4  12  25  40  61  86 122 158 197 247 299 360
#     4   8  16  34  58  80 108 144 184 238 282 344
#     4  10  20  35  57  81 106 147 195 242 282 337
#     4  10  20  34  56  83 112 146 188 239 288 340
#     4  10  20  34  54  81 113 147 183 224 280 346
#
# _framework density 20.398384
#
# number of rings (size 3 to 8) (size 9 to 14) (size 15 to 20)
#    0.000    1.867    0.000    4.000    0.000    3.733 
#    2.400    4.000    2.933    6.000    0.000    0.000 
#    0.000    0.000    0.000    0.000    0.000    0.000 
#
# Total GULP energy -334655.306383 kJ/mol
# GULP energy per Si atom -5577.588440 kJ/mol
# Density = 2.035196 g / cm^3
# Si number density = 20.398384 Si / 1000 Ang^3
#
#
#
# Elastic Constant Matrix: (Units=GPa)
#
#
# Indices 1 2 3 4 5 6 
#
# 1 53.5684 1.0634 29.9579 0.0000 0.0000 0.0000
# 2 1.0634 111.5612 11.5269 0.0000 0.0000 0.0000
# 3 29.9579 11.5269 105.6566 0.0000 0.0000 0.0000
# 4 0.0000 0.0000 0.0000 -399.3600 0.0000 0.0000
# 5 0.0000 0.0000 0.0000 0.0000 -1.4224 0.0000
# 6 0.0000 0.0000 0.0000 0.0000 0.0000 24.7571
#
#
#
# Elastic Compliance Matrix: (Units=1/GPa)
#
#
# Indices 1 2 3 4 5 6 
#
# 1 0.022207 0.000444 -0.006345 0.000000 0.000000 0.000000
# 2 0.000444 0.009075 -0.001116 0.000000 0.000000 0.000000
# 3 -0.006345 -0.001116 0.011385 0.000000 0.000000 0.000000
# 4 0.000000 0.000000 0.000000 -0.002504 0.000000 0.000000
# 5 0.000000 0.000000 0.000000 0.000000 -0.703024 0.000000
# 6 0.000000 0.000000 0.000000 0.000000 0.000000 0.040392
#
#
# Mechanical properties :
#
#
# Convention : Reuss Voigt Hill
#
# Bulk Modulus (GPa) = 34.92425 39.54250 37.23338
# Shear Modulus (GPa) = -8.34879 -59.98918 -34.16899
#
# Velocity S-wave (km/s) = -2.02528 -5.42887 -4.09722
# Velocity P-wave (km/s) = 3.41895 4.45754 2.02242
#
# Compressibility (1/GPa) = 0.02863340
#
# Stress axis : x y z
#
# Youngs Moduli (GPa) = 45.03009 110.19578 87.83133
#
# Poissons Ratio (x) = -0.04892 0.55730
# Poissons Ratio (y) = -0.01999 0.09801
# Poissons Ratio (z) = 0.28572 0.12297
#
# Static dielectric constant tensor:
#      x y z
#    x 1.733160 0.000000 0.000000 
#    y 0.000000 1.717760 0.000000 
#    z 0.000000 0.000000 1.766840 
# 
# From -- ./inp_files/21235.got.cif
#   From: 2010.05.17/outbox.cif.g08.bks.cpg/sg49_11_cif.got.tgz:21235.got - 2010.06.03 21:02:19.
