data_PCOD9393224
_publ_section_title
;
Structure prediction by ZEFSAII (Michael W. Deem and Ramdas Pophale) SiO2 
 PCOD9393224
Probable space group: P C C M
;
_chemical_formula_sum "Si O2"
_cell_formula_units_Z 64
_cell_length_a 15.619719
_cell_length_b 11.946194
_cell_length_c 18.259886
_cell_angle_alpha 90.000000
_cell_angle_beta 90.000000
_cell_angle_gamma 90.000000
_cell_volume 3407.225220
_symmetry_space_group_name_H-M "P C C M"
_symmetry_group_IT_number 49
_symmetry_cell_setting 'orthorhombic'
loop_
_space_group_symop_operation_xyz
x,y,z
-x,-y,z
x,-y,1/2-z
-x,y,1/2-z
-x,-y,-z
x,y,-z
-x,y,1/2+z
x,-y,1/2+z
loop_
_atom_site_type_symbol
_atom_site_label
_atom_site_fract_x
_atom_site_fract_y
_atom_site_fract_z
Si Si1 0.811189 0.473645 0.584609
Si Si2 0.752330 0.117967 0.413891
Si Si3 0.110711 0.727111 0.664456
Si Si4 0.020461 0.130578 0.584376
Si Si5 0.640194 0.321068 0.579023
Si Si6 0.225668 0.862546 0.083311
Si Si7 0.229328 0.674147 0.800607
Si Si8 0.412252 0.627679 0.272998
O O1 0.829220 0.511433 0.500000
O O2 0.880993 0.386865 0.616806
O O3 0.726484 0.395812 0.580004
O O4 0.793310 0.569639 0.645323
O O5 0.776232 0.126681 0.500000
O O6 0.824759 0.178544 0.367106
O O7 0.668832 0.194146 0.404558
O O8 0.744461 0.987776 0.397664
O O9 0.150029 0.697627 0.744571
O O10 0.020741 0.786250 0.644473
O O11 0.990156 0.155217 0.500000
O O12 0.122450 0.138956 0.583543
O O13 0.000000 0.000000 0.599533
O O14 0.600512 0.326409 0.500000
O O15 0.581879 0.368096 0.640542
O O16 0.250102 0.774645 0.144384
O O17 0.253825 0.835716 0.000000
O O18 0.316738 0.662370 0.753067
O O19 0.415320 0.500000 0.250000
O O20 0.500000 0.688329 0.250000
#
# Coordination Sequence:
#
# PCOD9393224 Si02
#       8
#     8   8   8   8   8   8   8   8
#     4  10  19  34  58  82 109 153 198 227 274 345
#     4   9  16  31  55  82 108 148 195 232 270 326
#     4  11  19  32  58  87 113 147 191 241 288 333
#     4  10  19  35  57  84 116 148 193 246 286 328
#     4   9  17  33  58  86 112 143 193 236 273 339
#     4  10  22  37  55  81 117 158 196 233 285 342
#     4  12  22  37  54  82 122 153 186 235 295 350
#     4  11  21  38  59  86 118 146 178 237 302 351
#
# _framework density 18.783612999999999
#
# number of rings (size 3 to 8) (size 9 to 14) (size 15 to 20)
#    0.000    1.750    5.000    2.625    0.000    1.000 
#    0.000    3.750    0.000    6.750    0.000    2.625 
#    0.000    0.000    0.000    0.000    0.000    0.000 
#
# Total GULP energy -356394.632973 kJ/mol
# GULP energy per Si atom -5568.666140 kJ/mol
# Density = 1.874086 g / cm^3
# Si number density = 18.783613 Si / 1000 Ang^3
#
#
#
# Elastic Constant Matrix: (Units=GPa)
#
#
# Indices 1 2 3 4 5 6 
#
# 1 29.7028 10.2274 28.7103 0.0000 0.0000 0.0000
# 2 10.2274 87.9634 54.5757 0.0000 0.0000 0.0000
# 3 28.7103 54.5757 90.0579 0.0000 0.0000 0.0000
# 4 0.0000 0.0000 0.0000 25.0007 0.0000 0.0000
# 5 0.0000 0.0000 0.0000 0.0000 38.9286 0.0000
# 6 0.0000 0.0000 0.0000 0.0000 0.0000 9.6829
#
#
#
# Elastic Compliance Matrix: (Units=1/GPa)
#
#
# Indices 1 2 3 4 5 6 
#
# 1 0.050986 0.006661 -0.020291 0.000000 0.000000 0.000000
# 2 0.006661 0.019088 -0.013691 0.000000 0.000000 0.000000
# 3 -0.020291 -0.013691 0.025870 0.000000 0.000000 0.000000
# 4 0.000000 0.000000 0.000000 0.039999 0.000000 0.000000
# 5 0.000000 0.000000 0.000000 0.000000 0.025688 0.000000
# 6 0.000000 0.000000 0.000000 0.000000 0.000000 0.103275
#
#
# Mechanical properties :
#
#
# Convention : Reuss Voigt Hill
#
# Bulk Modulus (GPa) = 24.21177 43.86119 34.03648
# Shear Modulus (GPa) = 15.00073 22.33646 18.66860
#
# Velocity S-wave (km/s) = 2.82903 3.45214 3.15600
# Velocity P-wave (km/s) = 4.85685 6.26827 5.60715
#
# Compressibility (1/GPa) = 0.04130222
#
# Stress axis : x y z
#
# Youngs Moduli (GPa) = 19.61306 52.38763 38.65509
#
# Poissons Ratio (x) = -0.34897 0.78436
# Poissons Ratio (y) = -0.13065 0.52924
# Poissons Ratio (z) = 0.39797 0.71726
#
# Static dielectric constant tensor:
#      x y z
#    x 1.705390 0.000000 0.000000 
#    y 0.000000 1.651210 0.000000 
#    z 0.000000 0.000000 1.710990 
# 
# From -- ./inp_files/17921.got.cif
#   From: 2010.05.17/outbox.cif.g08.bks.cpg/sg49_9_cif.got.tgz:17921.got - 2010.06.03 21:02:19.
