data_PCOD9393002
_publ_section_title
;
Structure prediction by ZEFSAII (Michael W. Deem and Ramdas Pophale) SiO2 
 PCOD9393002
Probable space group: P C C M
;
_chemical_formula_sum "Si O2"
_cell_formula_units_Z 56
_cell_length_a 15.776697
_cell_length_b 21.080166
_cell_length_c 8.632847
_cell_angle_alpha 90.000000
_cell_angle_beta 90.000000
_cell_angle_gamma 90.000000
_cell_volume 2871.072472
_symmetry_space_group_name_H-M "P C C M"
_symmetry_group_IT_number 49
_symmetry_cell_setting 'orthorhombic'
loop_
_space_group_symop_operation_xyz
x,y,z
-x,-y,z
x,-y,1/2-z
-x,y,1/2-z
-x,-y,-z
x,y,-z
-x,y,1/2+z
x,-y,1/2+z
loop_
_atom_site_type_symbol
_atom_site_label
_atom_site_fract_x
_atom_site_fract_y
_atom_site_fract_z
Si Si1 0.410002 0.709210 0.688626
Si Si2 0.387185 0.433760 0.173535
Si Si3 0.719580 0.181953 0.688527
Si Si4 0.815674 0.434705 0.674841
Si Si5 0.089915 0.808665 0.316610
Si Si6 0.083336 0.669341 0.180839
Si Si7 0.593371 0.930652 0.813969
O O1 0.500000 0.735215 0.750000
O O2 0.410085 0.708784 0.500000
O O3 0.404562 0.635817 0.744501
O O4 0.330377 0.753595 0.736726
O O5 0.412626 0.500000 0.250000
O O6 0.285469 0.437256 0.164835
O O7 0.423033 0.432653 0.000000
O O8 0.723655 0.184826 0.500000
O O9 0.816559 0.171176 0.742580
O O10 0.660188 0.123077 0.732103
O O11 0.846584 0.500000 0.750000
O O12 0.848598 0.425579 0.500000
O O13 0.839957 0.376515 0.782823
O O14 0.086983 0.818482 0.500000
O O15 0.090954 0.733975 0.276422
O O16 0.000000 0.833715 0.250000
O O17 0.000000 0.635949 0.250000
O O18 0.074509 0.683256 0.000000
O O19 0.500000 0.915395 0.750000
O O20 0.616606 0.000000 0.750000
O O21 0.589420 0.933113 0.000000
#
# Coordination Sequence:
#
# PCOD9393002 Si02
#       7
#     8   8   8   8   8   8   8
#     4  10  20  35  52  75 103 137 176 219 266 317
#     4   9  19  34  52  69  93 128 169 212 262 316
#     4   9  19  35  57  80 110 147 182 219 271 325
#     4  10  19  33  50  68  89 119 159 209 263 321
#     4  10  19  35  56  79 105 137 175 220 267 317
#     4  11  21  33  48  69  95 126 162 206 260 322
#     4  10  19  34  56  85 118 155 190 225 266 318
#
# _framework density 19.504906999999999
#
# number of rings (size 3 to 8) (size 9 to 14) (size 15 to 20)
#    0.000    2.143    0.000    5.143    0.000    4.000 
#    0.000    9.286    0.000    0.429    0.000    3.000 
#    0.000    0.000    0.000    0.000    0.000    0.000 
#
# Total GULP energy -312203.218195 kJ/mol
# GULP energy per Si atom -5575.057468 kJ/mol
# Density = 1.946051 g / cm^3
# Si number density = 19.504907 Si / 1000 Ang^3
#
#
#
# Elastic Constant Matrix: (Units=GPa)
#
#
# Indices 1 2 3 4 5 6 
#
# 1 127.0189 65.5108 24.4583 0.0000 0.0000 0.0000
# 2 65.5108 91.7455 15.1359 0.0000 0.0000 0.0000
# 3 24.4583 15.1359 36.3170 0.0000 0.0000 0.0000
# 4 0.0000 0.0000 0.0000 8.3110 0.0000 0.0000
# 5 0.0000 0.0000 0.0000 0.0000 145.5178 0.0000
# 6 0.0000 0.0000 0.0000 0.0000 0.0000 20.6876
#
#
#
# Elastic Compliance Matrix: (Units=1/GPa)
#
#
# Indices 1 2 3 4 5 6 
#
# 1 0.013381 -0.008664 -0.005401 0.000000 0.000000 0.000000
# 2 -0.008664 0.017314 -0.001381 0.000000 0.000000 0.000000
# 3 -0.005401 -0.001381 0.031748 0.000000 0.000000 0.000000
# 4 0.000000 0.000000 0.000000 0.120322 0.000000 0.000000
# 5 0.000000 0.000000 0.000000 0.000000 0.006872 0.000000
# 6 0.000000 0.000000 0.000000 0.000000 0.000000 0.048338
#
#
# Mechanical properties :
#
#
# Convention : Reuss Voigt Hill
#
# Bulk Modulus (GPa) = 31.69412 51.69905 41.69658
# Shear Modulus (GPa) = 17.89647 44.90171 31.39909
#
# Velocity S-wave (km/s) = 3.03237 4.80320 4.01659
# Velocity P-wave (km/s) = 5.34275 7.57127 6.55245
#
# Compressibility (1/GPa) = 0.03155160
#
# Stress axis : x y z
#
# Youngs Moduli (GPa) = 74.73133 57.75682 31.49766
#
# Poissons Ratio (x) = 0.50040 0.17012
# Poissons Ratio (y) = 0.64746 0.04350
# Poissons Ratio (z) = 0.40363 0.07977
#
# Static dielectric constant tensor:
#      x y z
#    x 1.758160 0.000000 0.000000 
#    y 0.000000 1.666670 0.000000 
#    z 0.000000 0.000000 1.704790 
# 
# From -- ./inp_files/4032.got.cif
#   From: 2010.05.17/outbox.cif.g08.bks.cpg/sg49_3_cif.got.tgz:4032.got - 2010.06.03 21:02:19.
