data_PCOD9393832
_publ_section_title
;
Structure prediction by ZEFSAII (Michael W. Deem and Ramdas Pophale) SiO2 
 PCOD9393832
Probable space group: P C C M
;
_chemical_formula_sum "Si O2"
_cell_formula_units_Z 56
_cell_length_a 15.668640
_cell_length_b 20.584359
_cell_length_c 8.847737
_cell_angle_alpha 90.000000
_cell_angle_beta 90.000000
_cell_angle_gamma 90.000000
_cell_volume 2853.650978
_symmetry_space_group_name_H-M "P C C M"
_symmetry_group_IT_number 49
_symmetry_cell_setting 'orthorhombic'
loop_
_space_group_symop_operation_xyz
x,y,z
-x,-y,z
x,-y,1/2-z
-x,y,1/2-z
-x,-y,-z
x,y,-z
-x,y,1/2+z
x,-y,1/2+z
loop_
_atom_site_type_symbol
_atom_site_label
_atom_site_fract_x
_atom_site_fract_y
_atom_site_fract_z
Si Si1 0.221384 0.567366 0.682471
Si Si2 0.825175 0.701946 0.679151
Si Si3 0.088885 0.176631 0.181247
Si Si4 0.412801 0.598998 0.675485
Si Si5 0.350800 0.257426 0.822943
Si Si6 0.588260 0.114714 0.319239
Si Si7 0.772951 0.932299 0.181986
O O1 0.188331 0.500000 0.750000
O O2 0.219768 0.567845 0.500000
O O3 0.173911 0.630843 0.745258
O O4 0.321132 0.574432 0.733943
O O5 0.835491 0.697221 0.500000
O O6 0.890788 0.752755 0.750678
O O7 0.732166 0.731170 0.721766
O O8 0.165438 0.127386 0.222829
O O9 0.000000 0.152756 0.250000
O O10 0.084480 0.180204 0.000000
O O11 0.500000 0.576495 0.750000
O O12 0.416347 0.581746 0.500000
O O13 0.406181 0.677391 0.688278
O O14 0.398787 0.191340 0.783982
O O15 0.322625 0.252035 0.000000
O O16 0.500000 0.090713 0.250000
O O17 0.583529 0.108428 0.500000
O O18 0.675680 0.081035 0.266426
O O19 0.803483 0.000000 0.250000
O O20 0.772122 0.935959 0.000000
#
# Coordination Sequence:
#
# PCOD9393832 Si02
#       7
#     8   8   8   8   8   8   8
#     4  10  21  37  55  79 113 156 201 249 302 360
#     4  11  21  35  60  91 119 154 198 244 298 360
#     4  11  23  43  68  96 127 158 196 247 303 365
#     4   9  18  29  45  69 103 146 191 246 303 356
#     4   9  17  33  52  74 111 152 195 248 307 357
#     4  10  20  35  55  82 116 160 206 254 307 357
#     4  10  23  42  63  86 124 166 203 251 307 361
#
# _framework density 19.623985000000001
#
# number of rings (size 3 to 8) (size 9 to 14) (size 15 to 20)
#    0.000    2.000    1.429    3.429    0.000    6.000 
#    0.000    4.286    0.000    0.429    0.000    3.000 
#    0.000    0.000    0.000    0.000    0.000    0.000 
#
# Total GULP energy -312713.464525 kJ/mol
# GULP energy per Si atom -5584.169009 kJ/mol
# Density = 1.957932 g / cm^3
# Si number density = 19.623985 Si / 1000 Ang^3
#
#
#
# Elastic Constant Matrix: (Units=GPa)
#
#
# Indices 1 2 3 4 5 6 
#
# 1 82.5151 32.2518 32.6731 0.0000 0.0000 0.0000
# 2 32.2518 117.0204 37.6791 0.0000 0.0000 0.0000
# 3 32.6731 37.6791 54.9654 0.0000 0.0000 0.0000
# 4 0.0000 0.0000 0.0000 9.8259 0.0000 0.0000
# 5 0.0000 0.0000 0.0000 0.0000 29.0739 0.0000
# 6 0.0000 0.0000 0.0000 0.0000 0.0000 -3.5214
#
#
#
# Elastic Compliance Matrix: (Units=1/GPa)
#
#
# Indices 1 2 3 4 5 6 
#
# 1 0.016122 -0.001742 -0.008389 0.000000 0.000000 0.000000
# 2 -0.001742 0.011154 -0.006611 0.000000 0.000000 0.000000
# 3 -0.008389 -0.006611 0.027712 0.000000 0.000000 0.000000
# 4 0.000000 0.000000 0.000000 0.101772 0.000000 0.000000
# 5 0.000000 0.000000 0.000000 0.000000 0.034395 0.000000
# 6 0.000000 0.000000 0.000000 0.000000 0.000000 -0.283980
#
#
# Mechanical properties :
#
#
# Convention : Reuss Voigt Hill
#
# Bulk Modulus (GPa) = 46.50326 51.07879 48.79102
# Shear Modulus (GPa) = -95.83317 17.20214 -39.31551
#
# Velocity S-wave (km/s) = -6.99577 2.96393 -4.48084
# Velocity P-wave (km/s) = 6.44249 6.14805 1.36148
#
# Compressibility (1/GPa) = 0.02150387
#
# Stress axis : x y z
#
# Youngs Moduli (GPa) = 62.02838 89.65209 36.08600
#
# Poissons Ratio (x) = 0.15619 0.30272
# Poissons Ratio (y) = 0.10806 0.23855
# Poissons Ratio (z) = 0.52035 0.59266
#
# Static dielectric constant tensor:
#      x y z
#    x 1.696320 0.000000 0.000000 
#    y 0.000000 1.691910 0.000000 
#    z 0.000000 0.000000 1.665530 
# 
# From -- ./inp_files/4064.got.cif
#   From: 2010.05.17/outbox.cif.g08.bks.cpg/sg49_3_cif.got.tgz:4064.got - 2010.06.03 21:02:19.
