data_PCOD9393814
_publ_section_title
;
Structure prediction by ZEFSAII (Michael W. Deem and Ramdas Pophale) SiO2 
 PCOD9393814
Probable space group: P C C M
;
_chemical_formula_sum "Si O2"
_cell_formula_units_Z 64
_cell_length_a 26.064792
_cell_length_b 13.025175
_cell_length_c 8.857452
_cell_angle_alpha 90.000000
_cell_angle_beta 90.000000
_cell_angle_gamma 90.000000
_cell_volume 3007.091465
_symmetry_space_group_name_H-M "P C C M"
_symmetry_group_IT_number 49
_symmetry_cell_setting 'orthorhombic'
loop_
_space_group_symop_operation_xyz
x,y,z
-x,-y,z
x,-y,1/2-z
-x,y,1/2-z
-x,-y,-z
x,y,-z
-x,y,1/2+z
x,-y,1/2+z
loop_
_atom_site_type_symbol
_atom_site_label
_atom_site_fract_x
_atom_site_fract_y
_atom_site_fract_z
Si Si1 0.661292 0.604974 0.819681
Si Si2 0.808276 0.832769 0.678953
Si Si3 0.585890 0.896164 0.320497
Si Si4 0.913699 0.104014 0.678785
Si Si5 0.446659 0.333189 0.681366
Si Si6 0.052976 0.330863 0.819085
Si Si7 0.159310 0.398782 0.321650
Si Si8 0.695998 0.183377 0.817358
O O1 0.682431 0.500000 0.750000
O O2 0.603011 0.617129 0.758019
O O3 0.690041 0.705314 0.757963
O O4 0.661798 0.601862 0.000000
O O5 0.816395 0.851716 0.500000
O O6 0.854564 0.882794 0.769705
O O7 0.812246 0.709442 0.702862
O O8 0.750848 0.864559 0.722285
O O9 0.584777 0.907021 0.500000
O O10 0.558484 0.788943 0.283792
O O11 0.645410 0.879648 0.272888
O O12 0.564916 0.000000 0.250000
O O13 0.916333 0.096165 0.500000
O O14 0.940674 0.210303 0.724960
O O15 0.934750 0.000000 0.750000
O O16 0.500000 0.370889 0.750000
O O17 0.444503 0.346427 0.500000
O O18 0.103359 0.384383 0.753201
O O19 0.000000 0.369881 0.750000
O O20 0.052634 0.338869 0.000000
O O21 0.183926 0.500000 0.250000
O O22 0.153815 0.413259 0.500000
O O23 0.694779 0.196447 0.000000
#
# Coordination Sequence:
#
# PCOD9393814 Si02
#       8
#     8   8   8   8   8   8   8   8
#     4  11  22  37  57  81 109 143 180 221 266 317
#     4   9  19  36  57  79 108 143 179 221 269 316
#     4   9  19  34  53  76 107 141 176 218 262 310
#     4  10  21  36  55  79 109 142 179 221 266 317
#     4  10  21  38  57  80 108 140 178 223 270 319
#     4  10  21  37  56  79 106 138 176 220 266 317
#     4  10  20  35  55  79 107 140 176 218 265 317
#     4   9  19  37  56  79 110 143 179 222 268 315
#
# _framework density 21.283023
#
# number of rings (size 3 to 8) (size 9 to 14) (size 15 to 20)
#    0.000    2.250    0.000    3.375    0.000    7.000 
#    0.000    7.500    0.000    0.000    0.000    0.000 
#    0.000    0.000    0.000    0.000    0.000    0.000 
#
# Total GULP energy -357703.708341 kJ/mol
# GULP energy per Si atom -5589.120443 kJ/mol
# Density = 2.123458 g / cm^3
# Si number density = 21.283023 Si / 1000 Ang^3
#
#
#
# Elastic Constant Matrix: (Units=GPa)
#
#
# Indices 1 2 3 4 5 6 
#
# 1 86.4055 -15.4491 13.5725 0.0000 0.0000 0.0000
# 2 -15.4491 94.3949 23.1911 0.0000 0.0000 0.0000
# 3 13.5725 23.1911 37.3923 0.0000 0.0000 0.0000
# 4 0.0000 0.0000 0.0000 32.1360 0.0000 0.0000
# 5 0.0000 0.0000 0.0000 0.0000 31.2341 0.0000
# 6 0.0000 0.0000 0.0000 0.0000 0.0000 -9.7229
#
#
#
# Elastic Compliance Matrix: (Units=1/GPa)
#
#
# Indices 1 2 3 4 5 6 
#
# 1 0.013448 0.004011 -0.007369 0.000000 0.000000 0.000000
# 2 0.004011 0.013695 -0.009950 0.000000 0.000000 0.000000
# 3 -0.007369 -0.009950 0.035589 0.000000 0.000000 0.000000
# 4 0.000000 0.000000 0.000000 0.031118 0.000000 0.000000
# 5 0.000000 0.000000 0.000000 0.000000 0.032016 0.000000
# 6 0.000000 0.000000 0.000000 0.000000 0.000000 -0.102850
#
#
# Mechanical properties :
#
#
# Convention : Reuss Voigt Hill
#
# Bulk Modulus (GPa) = 27.68772 28.98020 28.33396
# Shear Modulus (GPa) = 81.07567 23.85465 52.46516
#
# Velocity S-wave (km/s) = 6.17873 3.35151 4.97038
# Velocity P-wave (km/s) = 7.99624 5.35004 6.80305
#
# Compressibility (1/GPa) = 0.03611709
#
# Stress axis : x y z
#
# Youngs Moduli (GPa) = 74.35961 73.02051 28.09837
#
# Poissons Ratio (x) = -0.29292 0.20707
# Poissons Ratio (y) = -0.29829 0.27957
# Poissons Ratio (z) = 0.54798 0.72653
#
# Static dielectric constant tensor:
#      x y z
#    x 1.759520 0.000000 0.000000 
#    y 0.000000 1.805180 0.000000 
#    z 0.000000 0.000000 1.708560 
# 
# From -- ./inp_files/7011.got.cif
#   From: 2010.05.17/outbox.cif.g08.bks.cpg/sg49_4_cif.got.tgz:7011.got - 2010.06.03 21:02:19.
