data_PCOD9393509
_publ_section_title
;
Structure prediction by ZEFSAII (Michael W. Deem and Ramdas Pophale) SiO2 
 PCOD9393509
Probable space group: P C C M
;
_chemical_formula_sum "Si O2"
_cell_formula_units_Z 64
_cell_length_a 24.967532
_cell_length_b 15.334433
_cell_length_c 8.905802
_cell_angle_alpha 90.000000
_cell_angle_beta 90.000000
_cell_angle_gamma 90.000000
_cell_volume 3409.701596
_symmetry_space_group_name_H-M "P C C M"
_symmetry_group_IT_number 49
_symmetry_cell_setting 'orthorhombic'
loop_
_space_group_symop_operation_xyz
x,y,z
-x,-y,z
x,-y,1/2-z
-x,y,1/2-z
-x,-y,-z
x,y,-z
-x,y,1/2+z
x,-y,1/2+z
loop_
_atom_site_type_symbol
_atom_site_label
_atom_site_fract_x
_atom_site_fract_y
_atom_site_fract_z
Si Si1 0.857007 0.722930 0.679919
Si Si2 0.059034 0.407470 0.819613
Si Si3 0.663195 0.666835 0.175701
Si Si4 0.763617 0.586630 0.322647
Si Si5 0.186010 0.090868 0.678080
Si Si6 0.704546 0.135388 0.670708
Si Si7 0.555120 0.275036 0.179161
Si Si8 0.582080 0.089325 0.676810
O O1 0.867854 0.720995 0.500000
O O2 0.902821 0.670836 0.767013
O O3 0.802388 0.668460 0.704766
O O4 0.846267 0.822580 0.727479
O O5 0.078169 0.500000 0.750000
O O6 0.000000 0.393886 0.750000
O O7 0.056699 0.413902 0.000000
O O8 0.706123 0.603157 0.248540
O O9 0.690373 0.762676 0.187193
O O10 0.606848 0.673351 0.260543
O O11 0.654638 0.648622 0.000000
O O12 0.787769 0.500000 0.250000
O O13 0.758098 0.575413 0.500000
O O14 0.181491 0.085345 0.500000
O O15 0.248361 0.106209 0.720739
O O16 0.168265 0.000000 0.750000
O O17 0.723168 0.119182 0.500000
O O18 0.646875 0.090781 0.689948
O O19 0.500000 0.308899 0.250000
O O20 0.562193 0.175613 0.238747
O O21 0.553219 0.275618 0.000000
O O22 0.568787 0.095312 0.500000
O O23 0.562444 0.000000 0.750000
#
# Coordination Sequence:
#
# PCOD9393509 Si02
#       8
#     8   8   8   8   8   8   8   8
#     4  10  22  39  58  86 124 162 203 248 294 346
#     4  11  22  38  63  92 125 163 203 247 296 352
#     4  10  20  36  57  81 110 144 184 231 282 343
#     4  11  22  37  58  88 122 157 192 232 289 350
#     4  11  22  35  53  79 114 156 201 248 292 344
#     4   9  18  32  51  74 104 142 186 232 280 336
#     4  11  22  37  56  76 100 135 179 229 283 345
#     4  10  20  33  48  72 101 135 177 228 284 343
#
# _framework density 18.769970000000001
#
# number of rings (size 3 to 8) (size 9 to 14) (size 15 to 20)
#    0.000    1.625    1.250    5.625    0.000    6.750 
#    0.000    1.250    0.000    0.750    0.000    5.250 
#    0.000    0.000    0.000    0.000    0.000    0.000 
#
# Total GULP energy -357616.781034 kJ/mol
# GULP energy per Si atom -5587.762204 kJ/mol
# Density = 1.872725 g / cm^3
# Si number density = 18.769970 Si / 1000 Ang^3
#
#
#
# Elastic Constant Matrix: (Units=GPa)
#
#
# Indices 1 2 3 4 5 6 
#
# 1 92.2165 43.6769 63.6566 0.0000 0.0000 0.0000
# 2 43.6769 101.8752 58.8140 0.0000 0.0000 0.0000
# 3 63.6566 58.8140 125.5605 0.0000 0.0000 0.0000
# 4 0.0000 0.0000 0.0000 259.8709 0.0000 0.0000
# 5 0.0000 0.0000 0.0000 0.0000 26.0720 0.0000
# 6 0.0000 0.0000 0.0000 0.0000 0.0000 -1.4772
#
#
#
# Elastic Compliance Matrix: (Units=1/GPa)
#
#
# Indices 1 2 3 4 5 6 
#
# 1 0.017434 -0.003251 -0.007316 0.000000 0.000000 0.000000
# 2 -0.003251 0.014060 -0.004938 0.000000 0.000000 0.000000
# 3 -0.007316 -0.004938 0.013986 0.000000 0.000000 0.000000
# 4 0.000000 0.000000 0.000000 0.003848 0.000000 0.000000
# 5 0.000000 0.000000 0.000000 0.000000 0.038355 0.000000
# 6 0.000000 0.000000 0.000000 0.000000 0.000000 -0.676969
#
#
# Mechanical properties :
#
#
# Convention : Reuss Voigt Hill
#
# Bulk Modulus (GPa) = 69.10271 72.43857 70.77064
# Shear Modulus (GPa) = -9.03420 67.12679 29.04629
#
# Velocity S-wave (km/s) = -2.19626 5.98669 3.93808
# Velocity P-wave (km/s) = 5.51943 9.29860 7.64618
#
# Compressibility (1/GPa) = 0.01447121
#
# Stress axis : x y z
#
# Youngs Moduli (GPa) = 57.35957 71.12158 71.49869
#
# Poissons Ratio (x) = 0.23121 0.52307
# Poissons Ratio (y) = 0.18647 0.35306
# Poissons Ratio (z) = 0.41963 0.35119
#
# Static dielectric constant tensor:
#      x y z
#    x 1.643370 0.000000 0.000000 
#    y 0.000000 1.481020 0.000000 
#    z 0.000000 0.000000 1.627970 
# 
# From -- ./inp_files/6493.got.cif
#   From: 2010.05.17/outbox.cif.g08.bks.cpg/sg49_4_cif.got.tgz:6493.got - 2010.06.03 21:02:19.
