data_PCOD9393656
_publ_section_title
;
Structure prediction by ZEFSAII (Michael W. Deem and Ramdas Pophale) SiO2 
 PCOD9393656
Probable space group: P C C M
;
_chemical_formula_sum "Si O2"
_cell_formula_units_Z 48
_cell_length_a 19.719279
_cell_length_b 5.031822
_cell_length_c 20.971546
_cell_angle_alpha 90.000000
_cell_angle_beta 90.000000
_cell_angle_gamma 90.000000
_cell_volume 2080.878623
_symmetry_space_group_name_H-M "P C C M"
_symmetry_group_IT_number 49
_symmetry_cell_setting 'orthorhombic'
loop_
_space_group_symop_operation_xyz
x,y,z
-x,-y,z
x,-y,1/2-z
-x,y,1/2-z
-x,-y,-z
x,y,-z
-x,y,1/2+z
x,-y,1/2+z
loop_
_atom_site_type_symbol
_atom_site_label
_atom_site_fract_x
_atom_site_fract_y
_atom_site_fract_z
Si Si1 0.049522 0.251134 0.570821
Si Si2 0.273665 0.540503 0.069903
Si Si3 0.594848 0.086484 0.681333
Si Si4 0.570772 0.577740 0.396285
Si Si5 0.748989 0.045025 0.646654
Si Si6 0.123267 0.230711 0.292800
O O1 0.084854 0.237659 0.500000
O O2 0.091343 0.270734 0.636717
O O3 0.000000 0.500000 0.569193
O O4 0.000000 0.000000 0.575263
O O5 0.356141 0.514759 0.072395
O O6 0.259401 0.843965 0.087456
O O7 0.239123 0.341324 0.120414
O O8 0.249638 0.470956 0.000000
O O9 0.573443 0.382656 0.664652
O O10 0.571434 0.000000 0.750000
O O11 0.571084 0.880480 0.626986
O O12 0.676204 0.063033 0.679736
O O13 0.500000 0.500000 0.429214
O O14 0.804887 0.905240 0.689403
O O15 0.126895 0.500000 0.250000
O O16 0.087600 0.000000 0.250000
#
# Coordination Sequence:
#
# PCOD9393656 Si02
#       6
#     8   8   8   8   8   8
#     4  10  23  44  67  95 135 178 217 261 316 373
#     4  10  21  38  59  81 111 154 199 247 305 370
#     4  10  20  34  53  73 105 147 182 232 297 363
#     4  10  21  34  50  77 106 137 187 243 297 362
#     4  10  22  39  57  86 120 151 195 248 305 365
#     4  12  25  41  67 100 131 168 215 265 316 375
#
# _framework density 23.067177999999998
#
# number of rings (size 3 to 8) (size 9 to 14) (size 15 to 20)
#    0.000    1.667    0.000    4.000    0.000    8.333 
#    0.000    1.667    0.000    6.000    0.000    0.000 
#    0.000    0.000    0.000    0.000    0.000    0.000 
#
# Total GULP energy -268007.926763 kJ/mol
# GULP energy per Si atom -5583.498474 kJ/mol
# Density = 2.301468 g / cm^3
# Si number density = 23.067178 Si / 1000 Ang^3
#
#
#
# Elastic Constant Matrix: (Units=GPa)
#
#
# Indices 1 2 3 4 5 6 
#
# 1 85.2133 19.9452 43.2691 0.0000 0.0000 0.0000
# 2 19.9452 111.1834 18.4256 0.0000 0.0000 0.0000
# 3 43.2691 18.4256 147.9808 0.0000 0.0000 0.0000
# 4 0.0000 0.0000 0.0000 13.1800 0.0000 0.0000
# 5 0.0000 0.0000 0.0000 0.0000 2.0049 0.0000
# 6 0.0000 0.0000 0.0000 0.0000 0.0000 24.3526
#
#
#
# Elastic Compliance Matrix: (Units=1/GPa)
#
#
# Indices 1 2 3 4 5 6 
#
# 1 0.014161 -0.001893 -0.003905 0.000000 0.000000 0.000000
# 2 -0.001893 0.009437 -0.000621 0.000000 0.000000 0.000000
# 3 -0.003905 -0.000621 0.007977 0.000000 0.000000 0.000000
# 4 0.000000 0.000000 0.000000 0.075873 0.000000 0.000000
# 5 0.000000 0.000000 0.000000 0.000000 0.498782 0.000000
# 6 0.000000 0.000000 0.000000 0.000000 0.000000 0.041063
#
#
# Mechanical properties :
#
#
# Convention : Reuss Voigt Hill
#
# Bulk Modulus (GPa) = 53.37452 56.40638 54.89045
# Shear Modulus (GPa) = 7.50326 25.42332 16.46329
#
# Velocity S-wave (km/s) = 1.80550 3.32345 2.67443
# Velocity P-wave (km/s) = 5.24742 6.26365 5.77792
#
# Compressibility (1/GPa) = 0.01873553
#
# Stress axis : x y z
#
# Youngs Moduli (GPa) = 70.61529 105.96851 125.36336
#
# Poissons Ratio (x) = 0.20062 0.48954
# Poissons Ratio (y) = 0.13369 0.07790
# Poissons Ratio (z) = 0.27575 0.06585
#
# Static dielectric constant tensor:
#      x y z
#    x 1.930160 0.000000 0.000000 
#    y 0.000000 1.837000 0.000000 
#    z 0.000000 0.000000 1.891180 
# 
# From -- ./inp_files/18366.got.cif
#   From: 2010.05.17/outbox.cif.g08.bks.cpg/sg49_10_cif.got.tgz:18366.got - 2010.06.03 21:02:19.
