data_PCOD9393472
_publ_section_title
;
Structure prediction by ZEFSAII (Michael W. Deem and Ramdas Pophale) SiO2 
 PCOD9393472
Probable space group: P C C M
;
_chemical_formula_sum "Si O2"
_cell_formula_units_Z 48
_cell_length_a 24.258105
_cell_length_b 14.008901
_cell_length_c 8.803441
_cell_angle_alpha 90.000000
_cell_angle_beta 90.000000
_cell_angle_gamma 90.000000
_cell_volume 2991.667997
_symmetry_space_group_name_H-M "P C C M"
_symmetry_group_IT_number 49
_symmetry_cell_setting 'orthorhombic'
loop_
_space_group_symop_operation_xyz
x,y,z
-x,-y,z
x,-y,1/2-z
-x,y,1/2-z
-x,-y,-z
x,y,-z
-x,y,1/2+z
x,-y,1/2+z
loop_
_atom_site_type_symbol
_atom_site_label
_atom_site_fract_x
_atom_site_fract_y
_atom_site_fract_z
Si Si1 0.724348 0.604106 0.318219
Si Si2 0.669971 0.787401 0.182023
Si Si3 0.558431 0.105287 0.682163
Si Si4 0.941124 0.604807 0.180903
Si Si5 0.226852 0.897410 0.181827
Si Si6 0.161253 0.708570 0.181293
O O1 0.715281 0.500000 0.250000
O O2 0.719039 0.602793 0.500000
O O3 0.683937 0.683933 0.249787
O O4 0.786450 0.640677 0.282472
O O5 0.609359 0.826127 0.220145
O O6 0.715734 0.859188 0.249354
O O7 0.675550 0.784994 0.000000
O O8 0.500000 0.137945 0.750000
O O9 0.554205 0.097829 0.500000
O O10 0.569134 0.000000 0.750000
O O11 0.929036 0.500000 0.250000
O O12 0.892228 0.674564 0.230061
O O13 0.000000 0.634804 0.250000
O O14 0.945212 0.597424 0.000000
O O15 0.181794 0.815606 0.216369
O O16 0.213217 0.000000 0.250000
O O17 0.232285 0.902890 0.000000
O O18 0.151290 0.701825 0.000000
#
# Coordination Sequence:
#
# PCOD9393472 Si02
#       6
#     8   8   8   8   8   8
#     4  10  20  33  51  74 101 132 163 200 244 290
#     4  10  20  33  50  73 100 130 165 202 243 291
#     4  10  20  32  49  72  98 129 162 200 243 289
#     4  11  21  33  51  73  99 130 162 199 242 287
#     4  10  20  33  51  74 101 132 164 201 244 290
#     4   9  19  34  50  72 100 129 162 198 239 287
#
# _framework density 16.044561000000002
#
# number of rings (size 3 to 8) (size 9 to 14) (size 15 to 20)
#    0.000    2.000    0.000    6.500    0.000    9.333 
#    0.000    0.000    0.000    1.000    0.000    7.000 
#    0.000    0.000    0.000    0.000    0.000    0.000 
#
# Total GULP energy -267979.725884 kJ/mol
# GULP energy per Si atom -5582.910956 kJ/mol
# Density = 1.600804 g / cm^3
# Si number density = 16.044561 Si / 1000 Ang^3
#
#
#
# Elastic Constant Matrix: (Units=GPa)
#
#
# Indices 1 2 3 4 5 6 
#
# 1 135.0002 84.9771 76.8057 0.0000 0.0000 0.0000
# 2 84.9771 120.1745 62.9585 0.0000 0.0000 0.0000
# 3 76.8057 62.9585 92.8817 0.0000 0.0000 0.0000
# 4 0.0000 0.0000 0.0000 29.8308 0.0000 0.0000
# 5 0.0000 0.0000 0.0000 0.0000 23.4300 0.0000
# 6 0.0000 0.0000 0.0000 0.0000 0.0000 18.1848
#
#
#
# Elastic Compliance Matrix: (Units=1/GPa)
#
#
# Indices 1 2 3 4 5 6 
#
# 1 0.017389 -0.007385 -0.009373 0.000000 0.000000 0.000000
# 2 -0.007385 0.016040 -0.004765 0.000000 0.000000 0.000000
# 3 -0.009373 -0.004765 0.021747 0.000000 0.000000 0.000000
# 4 0.000000 0.000000 0.000000 0.033522 0.000000 0.000000
# 5 0.000000 0.000000 0.000000 0.000000 0.042680 0.000000
# 6 0.000000 0.000000 0.000000 0.000000 0.000000 0.054991
#
#
# Mechanical properties :
#
#
# Convention : Reuss Voigt Hill
#
# Bulk Modulus (GPa) = 82.45062 88.61546 85.53304
# Shear Modulus (GPa) = 21.41687 22.51012 21.96349
#
# Velocity S-wave (km/s) = 3.65751 3.74969 3.70389
# Velocity P-wave (km/s) = 8.32686 8.60800 8.46860
#
# Compressibility (1/GPa) = 0.01212847
#
# Stress axis : x y z
#
# Youngs Moduli (GPa) = 57.50818 62.34358 45.98269
#
# Poissons Ratio (x) = 0.46043 0.43100
# Poissons Ratio (y) = 0.42472 0.21913
# Poissons Ratio (z) = 0.53903 0.29709
#
# Static dielectric constant tensor:
#      x y z
#    x 1.522900 0.000000 0.000000 
#    y 0.000000 1.518820 0.000000 
#    z 0.000000 0.000000 1.534970 
# 
# From -- ./inp_files/4157.got.cif
#   From: 2010.05.17/outbox.cif.g08.bks.cpg/sg49_3_cif.got.tgz:4157.got - 2010.06.03 21:02:19.
