data_PCOD9393294
_publ_section_title
;
Structure prediction by ZEFSAII (Michael W. Deem and Ramdas Pophale) SiO2 
 PCOD9393294
Probable space group: P C C M
;
_chemical_formula_sum "Si O2"
_cell_formula_units_Z 56
_cell_length_a 33.299362
_cell_length_b 5.169649
_cell_length_c 17.200354
_cell_angle_alpha 90.000000
_cell_angle_beta 90.000000
_cell_angle_gamma 90.000000
_cell_volume 2960.972371
_symmetry_space_group_name_H-M "P C C M"
_symmetry_group_IT_number 49
_symmetry_cell_setting 'orthorhombic'
loop_
_space_group_symop_operation_xyz
x,y,z
-x,-y,z
x,-y,1/2-z
-x,y,1/2-z
-x,-y,-z
x,y,-z
-x,y,1/2+z
x,-y,1/2+z
loop_
_atom_site_type_symbol
_atom_site_label
_atom_site_fract_x
_atom_site_fract_y
_atom_site_fract_z
Si Si1 0.305691 0.750469 0.804099
Si Si2 0.525756 0.750341 0.593388
Si Si3 0.089775 0.022349 0.593846
Si Si4 0.177589 0.151444 0.091052
Si Si5 0.603940 0.247392 0.804466
Si Si6 0.770152 0.367301 0.909296
Si Si7 0.046640 0.526928 0.656943
O O1 0.307023 0.500000 0.750000
O O2 0.350765 0.778757 0.837748
O O3 0.270921 0.693532 0.865314
O O4 0.297236 0.000000 0.750000
O O5 0.500000 0.500000 0.615665
O O6 0.529922 0.754355 0.500000
O O7 0.569149 0.743368 0.632282
O O8 0.500000 0.000000 0.617227
O O9 0.089751 0.020837 0.500000
O O10 0.133964 0.930079 0.622214
O O11 0.060396 0.806553 0.627956
O O12 0.074951 0.303957 0.620906
O O13 0.203079 0.393759 0.123583
O O14 0.203941 0.893489 0.094636
O O15 0.170782 0.220174 0.000000
O O16 0.602016 0.500000 0.750000
O O17 0.597408 0.000000 0.750000
O O18 0.761597 0.425959 0.000000
O O19 0.049291 0.500000 0.750000
O O20 0.000000 0.500000 0.634213
#
# Coordination Sequence:
#
# PCOD9393294 Si02
#       7
#     8   8   8   8   8   8   8
#     4  10  21  37  54  78 112 142 176 227 277 314
#     4  10  21  36  54  79 110 140 175 225 276 320
#     4  11  22  39  63  87 113 148 192 238 278 328
#     4   9  19  35  56  83 112 140 176 226 275 317
#     4  10  21  36  55  78 106 143 182 221 268 325
#     4  10  19  35  58  80 105 143 184 216 263 331
#     4  11  24  41  59  83 119 155 185 229 288 339
#
# _framework density 18.912704999999999
#
# number of rings (size 3 to 8) (size 9 to 14) (size 15 to 20)
#    0.000    1.857    0.000    3.857    0.000    7.429 
#    0.000    7.143    0.000   10.286    0.000    0.000 
#    0.000    0.000    0.000    0.000    0.000    0.000 
#
# Total GULP energy -312601.886095 kJ/mol
# GULP energy per Si atom -5582.176537 kJ/mol
# Density = 1.886966 g / cm^3
# Si number density = 18.912705 Si / 1000 Ang^3
#
#
#
# Elastic Constant Matrix: (Units=GPa)
#
#
# Indices 1 2 3 4 5 6 
#
# 1 114.2218 -5.6869 27.2389 0.0000 0.0000 0.0000
# 2 -5.6869 86.7610 0.5934 0.0000 0.0000 0.0000
# 3 27.2389 0.5934 22.2094 0.0000 0.0000 0.0000
# 4 0.0000 0.0000 0.0000 13.0699 0.0000 0.0000
# 5 0.0000 0.0000 0.0000 0.0000 17.2533 0.0000
# 6 0.0000 0.0000 0.0000 0.0000 0.0000 32.4470
#
#
#
# Elastic Compliance Matrix: (Units=1/GPa)
#
#
# Indices 1 2 3 4 5 6 
#
# 1 0.012447 0.000920 -0.015290 0.000000 0.000000 0.000000
# 2 0.000920 0.011596 -0.001439 0.000000 0.000000 0.000000
# 3 -0.015290 -0.001439 0.063817 0.000000 0.000000 0.000000
# 4 0.000000 0.000000 0.000000 0.076511 0.000000 0.000000
# 5 0.000000 0.000000 0.000000 0.000000 0.057960 0.000000
# 6 0.000000 0.000000 0.000000 0.000000 0.000000 0.030819
#
#
# Mechanical properties :
#
#
# Convention : Reuss Voigt Hill
#
# Bulk Modulus (GPa) = 17.77992 29.72032 23.75012
# Shear Modulus (GPa) = 16.47357 25.95718 21.21538
#
# Velocity S-wave (km/s) = 2.95453 3.70871 3.35289
# Velocity P-wave (km/s) = 4.58916 5.83849 5.25111
#
# Compressibility (1/GPa) = 0.05624324
#
# Stress axis : x y z
#
# Youngs Moduli (GPa) = 80.34010 86.23599 15.66972
#
# Poissons Ratio (x) = -0.07938 0.23960
# Poissons Ratio (y) = -0.07395 0.02254
# Poissons Ratio (z) = 1.22843 0.12407
#
# Static dielectric constant tensor:
#      x y z
#    x 1.667080 0.000000 0.000000 
#    y 0.000000 1.693910 0.000000 
#    z 0.000000 0.000000 1.638880 
# 
# From -- ./inp_files/14620.got.cif
#   From: 2010.05.17/outbox.cif.g08.bks.cpg/sg49_8_cif.got.tgz:14620.got - 2010.06.03 21:02:19.
