data_PCOD9393946
_publ_section_title
;
Structure prediction by ZEFSAII (Michael W. Deem and Ramdas Pophale) SiO2 
 PCOD9393946
Probable space group: P C C M
;
_chemical_formula_sum "Si O2"
_cell_formula_units_Z 46
_cell_length_a 20.927160
_cell_length_b 14.065697
_cell_length_c 9.129506
_cell_angle_alpha 90.000000
_cell_angle_beta 90.000000
_cell_angle_gamma 90.000000
_cell_volume 2687.316575
_symmetry_space_group_name_H-M "P C C M"
_symmetry_group_IT_number 49
_symmetry_cell_setting 'orthorhombic'
loop_
_space_group_symop_operation_xyz
x,y,z
-x,-y,z
x,-y,1/2-z
-x,y,1/2-z
-x,-y,-z
x,y,-z
-x,y,1/2+z
x,-y,1/2+z
loop_
_atom_site_type_symbol
_atom_site_label
_atom_site_fract_x
_atom_site_fract_y
_atom_site_fract_z
Si Si1 0.429849 0.099500 0.178333
Si Si2 0.000000 0.500000 0.000000
Si Si3 0.750268 0.396839 0.676015
Si Si4 0.131159 0.740667 0.330291
Si Si5 0.796693 0.099592 0.169348
Si Si6 0.000000 0.355072 0.750000
Si Si7 0.328119 0.232155 0.673598
O O1 0.500000 0.111688 0.250000
O O2 0.385534 0.184667 0.235898
O O3 0.405455 0.000000 0.250000
O O4 0.432059 0.093546 0.000000
O O5 0.023581 0.575386 0.124164
O O6 0.749933 0.500000 0.750000
O O7 0.740798 0.402851 0.500000
O O8 0.818566 0.344565 0.701647
O O9 0.697683 0.328647 0.751898
O O10 0.141053 0.765573 0.500000
O O11 0.149927 0.830795 0.234460
O O12 0.059580 0.705647 0.306156
O O13 0.730579 0.157720 0.184140
O O14 0.792853 0.000000 0.250000
O O15 0.808879 0.082300 0.000000
O O16 0.342848 0.244718 0.500000
#
# Coordination Sequence:
#
# PCOD9393946 Si02
#       7
#     8   2   8   8   8   4   8
#     4  11  21  34  54  82 114 148 182 222 266 315
#     4  10  24  34  56  78 106 142 176 210 270 326
#     4  10  21  35  54  79 108 142 179 222 269 319
#     4  10  22  37  55  78 109 139 176 221 268 322
#     4  10  21  36  57  80 106 141 179 220 266 317
#     4  11  22  38  53  82 106 140 175 220 267 328
#     4  10  20  36  55  81 110 144 180 222 267 316
#
# _framework density 17.117446999999999
#
# number of rings (size 3 to 8) (size 9 to 14) (size 15 to 20)
#    0.000    1.739    0.870    4.174    3.652    4.174 
#    0.000    0.435    0.000    2.609    0.000    3.652 
#    0.000    0.000    0.000    0.000    0.000    0.000 
#
# Total GULP energy -256108.899080 kJ/mol
# GULP energy per Si atom -5567.584763 kJ/mol
# Density = 1.707849 g / cm^3
# Si number density = 17.117447 Si / 1000 Ang^3
#
#
#
# Elastic Constant Matrix: (Units=GPa)
#
#
# Indices 1 2 3 4 5 6 
#
# 1 55.1041 27.8582 30.9242 0.0000 0.0000 0.0000
# 2 27.8582 122.0504 74.4684 0.0000 0.0000 0.0000
# 3 30.9242 74.4684 148.0403 0.0000 0.0000 0.0000
# 4 0.0000 0.0000 0.0000 31.2379 0.0000 0.0000
# 5 0.0000 0.0000 0.0000 0.0000 28.4301 0.0000
# 6 0.0000 0.0000 0.0000 0.0000 0.0000 -535.1630
#
#
#
# Elastic Compliance Matrix: (Units=1/GPa)
#
#
# Indices 1 2 3 4 5 6 
#
# 1 0.021342 -0.003104 -0.002897 0.000000 0.000000 0.000000
# 2 -0.003104 0.012273 -0.005525 0.000000 0.000000 0.000000
# 3 -0.002897 -0.005525 0.010139 0.000000 0.000000 0.000000
# 4 0.000000 0.000000 0.000000 0.032012 0.000000 0.000000
# 5 0.000000 0.000000 0.000000 0.000000 0.035174 0.000000
# 6 0.000000 0.000000 0.000000 0.000000 0.000000 -0.001869
#
#
# Mechanical properties :
#
#
# Convention : Reuss Voigt Hill
#
# Bulk Modulus (GPa) = 48.30292 65.74404 57.02348
# Shear Modulus (GPa) = 35.96454 -82.30275 -23.16910
#
# Velocity S-wave (km/s) = 4.58869 -6.94158 -3.68304
# Velocity P-wave (km/s) = 7.50697 5.07508 3.91140
#
# Compressibility (1/GPa) = 0.02070268
#
# Stress axis : x y z
#
# Youngs Moduli (GPa) = 46.85508 81.47925 98.62491
#
# Poissons Ratio (x) = 0.25291 0.28570
# Poissons Ratio (y) = 0.14544 0.54493
# Poissons Ratio (z) = 0.13573 0.45020
#
# Static dielectric constant tensor:
#      x y z
#    x 1.551630 0.000000 0.000000 
#    y 0.000000 1.564050 0.000000 
#    z 0.000000 0.000000 1.576730 
# 
# From -- ./inp_files/5695.got.cif
#   From: 2010.05.17/outbox.cif.g08.bks.cpg/sg49_3_cif.got.tgz:5695.got - 2010.06.03 21:02:19.
