data_PCOD9393712
_publ_section_title
;
Structure prediction by ZEFSAII (Michael W. Deem and Ramdas Pophale) SiO2 
 PCOD9393712
Probable space group: P C C M
;
_chemical_formula_sum "Si O2"
_cell_formula_units_Z 64
_cell_length_a 11.546841
_cell_length_b 16.221975
_cell_length_c 17.920118
_cell_angle_alpha 90.000000
_cell_angle_beta 90.000000
_cell_angle_gamma 90.000000
_cell_volume 3356.663286
_symmetry_space_group_name_H-M "P C C M"
_symmetry_group_IT_number 49
_symmetry_cell_setting 'orthorhombic'
loop_
_space_group_symop_operation_xyz
x,y,z
-x,-y,z
x,-y,1/2-z
-x,y,1/2-z
-x,-y,-z
x,y,-z
-x,y,1/2+z
x,-y,1/2+z
loop_
_atom_site_type_symbol
_atom_site_label
_atom_site_fract_x
_atom_site_fract_y
_atom_site_fract_z
Si Si1 0.752055 0.139268 0.415572
Si Si2 0.498128 0.402042 0.159916
Si Si3 0.512213 0.906101 0.414418
Si Si4 0.713538 0.281585 0.315889
Si Si5 0.719419 0.178775 0.165367
Si Si6 0.133776 0.410794 0.726421
Si Si7 0.742623 0.652893 0.411337
Si Si8 0.130244 0.014821 0.337877
O O1 0.794171 0.137515 0.500000
O O2 0.612708 0.135265 0.414790
O O3 0.779570 0.225059 0.375631
O O4 0.793853 0.056882 0.374807
O O5 0.500000 0.500000 0.137963
O O6 0.500000 0.401997 0.250000
O O7 0.391317 0.336581 0.148306
O O8 0.614784 0.368107 0.121618
O O9 0.556168 0.909378 0.500000
O O10 0.600050 0.857227 0.364391
O O11 0.500000 0.000000 0.388245
O O12 0.691231 0.216558 0.247503
O O13 0.796557 0.345685 0.275075
O O14 0.759962 0.252256 0.111547
O O15 0.812837 0.105220 0.157320
O O16 0.178685 0.500000 0.750000
O O17 0.164733 0.396204 0.639722
O O18 0.000000 0.405468 0.750000
O O19 0.748619 0.638949 0.500000
O O20 0.126819 0.000000 0.250000
O O21 0.000000 0.000000 0.367272
#
# Coordination Sequence:
#
# PCOD9393712 Si02
#       8
#     8   8   8   8   8   8   8   8
#     4  11  24  40  59  91 129 164 210 266 321 373
#     4  11  21  39  67  98 137 175 211 251 323 416
#     4  10  20  34  55  80 117 157 196 245 298 357
#     4  11  23  38  62  96 127 167 213 262 316 395
#     4  11  21  38  61  89 122 168 211 258 314 385
#     4  10  22  44  70  93 121 173 224 266 327 400
#     4  11  24  40  66 102 136 168 216 276 331 388
#     4  11  24  43  63  86 119 166 221 271 319 379
#
# _framework density 19.066552999999999
#
# number of rings (size 3 to 8) (size 9 to 14) (size 15 to 20)
#    0.000    1.250    5.000    1.875    0.000    4.500 
#    0.000    6.250    0.000    0.000    0.000    0.000 
#    0.000    0.000    0.000    0.000    0.000    0.000 
#
# Total GULP energy -356817.092024 kJ/mol
# GULP energy per Si atom -5575.267063 kJ/mol
# Density = 1.902316 g / cm^3
# Si number density = 19.066553 Si / 1000 Ang^3
#
#
#
# Elastic Constant Matrix: (Units=GPa)
#
#
# Indices 1 2 3 4 5 6 
#
# 1 67.0212 37.7849 37.4557 0.0000 0.0000 0.0000
# 2 37.7849 146.6106 52.6488 0.0000 0.0000 0.0000
# 3 37.4557 52.6488 114.6856 0.0000 0.0000 0.0000
# 4 0.0000 0.0000 0.0000 5.4427 0.0000 0.0000
# 5 0.0000 0.0000 0.0000 0.0000 7.6684 0.0000
# 6 0.0000 0.0000 0.0000 0.0000 0.0000 -13.9914
#
#
#
# Elastic Compliance Matrix: (Units=1/GPa)
#
#
# Indices 1 2 3 4 5 6 
#
# 1 0.019483 -0.003276 -0.004859 0.000000 0.000000 0.000000
# 2 -0.003276 0.008718 -0.002932 0.000000 0.000000 0.000000
# 3 -0.004859 -0.002932 0.011653 0.000000 0.000000 0.000000
# 4 0.000000 0.000000 0.000000 0.183733 0.000000 0.000000
# 5 0.000000 0.000000 0.000000 0.000000 0.130406 0.000000
# 6 0.000000 0.000000 0.000000 0.000000 0.000000 -0.071473
#
#
# Mechanical properties :
#
#
# Convention : Reuss Voigt Hill
#
# Bulk Modulus (GPa) = 56.43745 64.89957 60.66851
# Shear Modulus (GPa) = 16.09985 13.18580 14.64283
#
# Velocity S-wave (km/s) = 2.90901 2.63262 2.77426
# Velocity P-wave (km/s) = 6.39903 6.58432 6.49234
#
# Compressibility (1/GPa) = 0.01771873
#
# Stress axis : x y z
#
# Youngs Moduli (GPa) = 51.32587 114.70315 85.81829
#
# Poissons Ratio (x) = 0.37581 0.41700
# Poissons Ratio (y) = 0.16816 0.25164
# Poissons Ratio (z) = 0.24940 0.33633
#
# Static dielectric constant tensor:
#      x y z
#    x 1.660350 0.000000 0.000000 
#    y 0.000000 1.833920 0.000000 
#    z 0.000000 0.000000 1.672560 
# 
# From -- ./inp_files/17314.got.cif
#   From: 2010.05.17/outbox.cif.g08.bks.cpg/sg49_9_cif.got.tgz:17314.got - 2010.06.03 21:02:19.
