data_PCOD9393974
_publ_section_title
;
Structure prediction by ZEFSAII (Michael W. Deem and Ramdas Pophale) SiO2 
 PCOD9393974
Probable space group: P C C M
;
_chemical_formula_sum "Si O2"
_cell_formula_units_Z 56
_cell_length_a 7.552893
_cell_length_b 22.088206
_cell_length_c 16.029186
_cell_angle_alpha 90.000000
_cell_angle_beta 90.000000
_cell_angle_gamma 90.000000
_cell_volume 2674.146800
_symmetry_space_group_name_H-M "P C C M"
_symmetry_group_IT_number 49
_symmetry_cell_setting 'orthorhombic'
loop_
_space_group_symop_operation_xyz
x,y,z
-x,-y,z
x,-y,1/2-z
-x,y,1/2-z
-x,-y,-z
x,y,-z
-x,y,1/2+z
x,-y,1/2+z
loop_
_atom_site_type_symbol
_atom_site_label
_atom_site_fract_x
_atom_site_fract_y
_atom_site_fract_z
Si Si1 0.284245 0.930337 0.905830
Si Si2 0.216309 0.500000 0.652849
Si Si3 0.717557 0.150276 0.750000
Si Si4 0.787905 0.630139 0.908863
Si Si5 0.787906 0.630139 0.408863
Si Si6 0.291503 0.287235 0.750000
Si Si7 0.284245 0.069663 0.905830
O O1 0.225961 0.885755 0.832841
O O2 0.500000 0.929872 0.905619
O O3 0.231048 1.000000 0.889752
O O4 0.228382 0.913762 0.000000
O O5 0.265875 0.500000 0.750000
O O6 0.277708 0.562300 0.611310
O O7 0.277708 0.437699 0.611310
O O8 0.000000 0.500000 0.649534
O O9 0.500000 0.149883 0.750000
O O10 0.782545 0.219296 0.750000
O O11 0.774039 0.114245 0.667159
O O12 0.752331 0.674669 0.832480
O O13 1.000000 0.625592 0.913189
O O14 0.722747 0.650334 0.000000
O O15 0.722747 0.650335 0.500000
O O16 0.752331 0.674670 0.332480
O O17 0.500000 0.279928 0.750000
O O18 0.228381 0.086238 0.000000
#
# Coordination Sequence:
#
# PCOD9393974 Si02
#       7
#     8   8   8   8   8   8   8
#     4   8  13  22  38  59  82 113 157 204 243 281
#     4   9  15  29  57  83  99 118 157 218 269 300
#     4   9  17  27  39  58  90 132 165 190 232 292
#     4  10  20  36  58  79  99 128 170 216 258 300
#     4  10  20  36  58  79  99 128 170 216 258 300
#     4  11  23  35  48  72 109 146 173 200 242 303
#     4   8  13  22  38  59  82 113 157 204 243 281
#
# _framework density 20.941258999999999
#
# number of rings (size 3 to 8) (size 9 to 14) (size 15 to 20)
#    0.000    2.714    1.429    2.143    0.000    5.143 
#    0.000    4.286    0.000    1.714    0.000    0.000 
#    0.000    9.143    0.000   25.143    0.000   20.571 
#
# Total GULP energy -312590.550463 kJ/mol
# GULP energy per Si atom -5581.974115 kJ/mol
# Density = 2.089360 g / cm^3
# Si number density = 20.941259 Si / 1000 Ang^3
#
#
#
# Elastic Constant Matrix: (Units=GPa)
#
#
# Indices 1 2 3 4 5 6 
#
# 1 48.5641 6.4334 8.0933 0.0000 0.0000 0.0000
# 2 6.4334 188.1512 146.7161 0.0000 0.0000 0.0000
# 3 8.0933 146.7161 235.3515 0.0000 0.0000 0.0000
# 4 0.0000 0.0000 0.0000 -2.5710 0.0000 0.0000
# 5 0.0000 0.0000 0.0000 0.0000 -7.0795 0.0000
# 6 0.0000 0.0000 0.0000 0.0000 0.0000 13.5761
#
#
#
# Elastic Compliance Matrix: (Units=1/GPa)
#
#
# Indices 1 2 3 4 5 6 
#
# 1 0.020719 -0.000297 -0.000527 0.000000 0.000000 0.000000
# 2 -0.000297 0.010347 -0.006440 0.000000 0.000000 0.000000
# 3 -0.000527 -0.006440 0.008282 0.000000 0.000000 0.000000
# 4 0.000000 0.000000 0.000000 -0.388952 0.000000 0.000000
# 5 0.000000 0.000000 0.000000 0.000000 -0.141252 0.000000
# 6 0.000000 0.000000 0.000000 0.000000 0.000000 0.073659
#
#
# Mechanical properties :
#
#
# Convention : Reuss Voigt Hill
#
# Bulk Modulus (GPa) = 40.29293 88.28362 64.28827
# Shear Modulus (GPa) = -12.67757 21.50671 4.41457
#
# Velocity S-wave (km/s) = -2.46313 3.20816 1.45349
# Velocity P-wave (km/s) = 3.34565 7.48147 5.79507
#
# Compressibility (1/GPa) = 0.02481825
#
# Stress axis : x y z
#
# Youngs Moduli (GPa) = 48.26589 96.64973 120.74974
#
# Poissons Ratio (x) = 0.02875 0.06364
# Poissons Ratio (y) = 0.01436 0.77760
# Poissons Ratio (z) = 0.02544 0.62240
#
# Static dielectric constant tensor:
#      x y z
#    x 1.810130 0.000000 0.000000 
#    y 0.000000 1.730360 0.000000 
#    z 0.000000 0.000000 1.710910 
# 
# From -- ./inp_files/12042.got.cif
#   From: 2010.05.17/outbox.cif.g08.bks.cpg/sg49_7_cif.got.tgz:12042.got - 2010.06.03 21:02:19.
