data_PCOD9393660
_publ_section_title
;
Structure prediction by ZEFSAII (Michael W. Deem and Ramdas Pophale) SiO2 
 PCOD9393660
Probable space group: P C C M
;
_chemical_formula_sum "Si O2"
_cell_formula_units_Z 64
_cell_length_a 17.254987
_cell_length_b 11.028379
_cell_length_c 17.634526
_cell_angle_alpha 90.000000
_cell_angle_beta 90.000000
_cell_angle_gamma 90.000000
_cell_volume 3355.753948
_symmetry_space_group_name_H-M "P C C M"
_symmetry_group_IT_number 49
_symmetry_cell_setting 'orthorhombic'
loop_
_space_group_symop_operation_xyz
x,y,z
-x,-y,z
x,-y,1/2-z
-x,y,1/2-z
-x,-y,-z
x,y,-z
-x,y,1/2+z
x,-y,1/2+z
loop_
_atom_site_type_symbol
_atom_site_label
_atom_site_fract_x
_atom_site_fract_y
_atom_site_fract_z
Si Si1 0.109513 0.326715 0.090453
Si Si2 0.744546 0.192744 0.590941
Si Si3 0.022961 0.182742 0.662776
Si Si4 0.413345 0.147346 0.660178
Si Si5 0.586645 0.865675 0.157584
Si Si6 0.119330 0.401447 0.407586
Si Si7 0.154936 0.037757 0.588596
Si Si8 0.269162 0.729685 0.912882
O O1 0.198047 0.300857 0.111635
O O2 0.091111 0.464154 0.112735
O O3 0.056078 0.218280 0.120021
O O4 0.103444 0.323470 0.000000
O O5 0.738203 0.184139 0.500000
O O6 0.659980 0.202924 0.624916
O O7 0.791874 0.072727 0.616777
O O8 0.073772 0.301889 0.640863
O O9 0.077235 0.073004 0.633879
O O10 0.000000 0.170802 0.750000
O O11 0.412028 0.141604 0.751350
O O12 0.500936 0.177862 0.634358
O O13 0.345661 0.235704 0.633048
O O14 0.401843 0.007227 0.634609
O O15 0.107727 0.381835 0.500000
O O16 0.210979 0.380085 0.392757
O O17 0.134405 0.016479 0.500000
O O18 0.211620 0.154209 0.591118
O O19 0.292738 0.713517 0.000000
#
# Coordination Sequence:
#
# PCOD9393660 Si02
#       8
#     8   8   8   8   8   8   8   8
#     4  10  21  37  54  73 101 140 177 213 265 315
#     4  10  20  34  53  76 104 137 175 216 255 308
#     4  11  22  35  52  78 104 129 172 222 263 304
#     4   9  17  30  49  74 106 141 167 204 255 316
#     4   9  18  31  47  74 108 139 170 200 255 315
#     4   9  19  36  57  76  99 134 175 219 267 313
#     4   9  18  34  53  74 103 136 167 207 261 313
#     4   9  16  29  52  79  99 126 171 216 255 299
#
# _framework density 19.071721
#
# number of rings (size 3 to 8) (size 9 to 14) (size 15 to 20)
#    0.000    2.500    1.250    3.000    0.000    5.000 
#    0.000    3.750    0.000    0.750    0.000    5.250 
#    0.000    0.000    0.000    0.000    0.000    0.000 
#
# Total GULP energy -356767.994088 kJ/mol
# GULP energy per Si atom -5574.499908 kJ/mol
# Density = 1.902831 g / cm^3
# Si number density = 19.071721 Si / 1000 Ang^3
#
#
#
# Elastic Constant Matrix: (Units=GPa)
#
#
# Indices 1 2 3 4 5 6 
#
# 1 148.4413 19.4425 38.1644 0.0000 0.0000 0.0000
# 2 19.4425 45.1051 12.4788 0.0000 0.0000 0.0000
# 3 38.1644 12.4788 29.6957 0.0000 0.0000 0.0000
# 4 0.0000 0.0000 0.0000 11.5767 0.0000 0.0000
# 5 0.0000 0.0000 0.0000 0.0000 39.5875 0.0000
# 6 0.0000 0.0000 0.0000 0.0000 0.0000 18.5374
#
#
#
# Elastic Compliance Matrix: (Units=1/GPa)
#
#
# Indices 1 2 3 4 5 6 
#
# 1 0.010091 -0.000862 -0.012606 0.000000 0.000000 0.000000
# 2 -0.000862 0.025161 -0.009465 0.000000 0.000000 0.000000
# 3 -0.012606 -0.009465 0.053854 0.000000 0.000000 0.000000
# 4 0.000000 0.000000 0.000000 0.086380 0.000000 0.000000
# 5 0.000000 0.000000 0.000000 0.000000 0.025261 0.000000
# 6 0.000000 0.000000 0.000000 0.000000 0.000000 0.053945
#
#
# Mechanical properties :
#
#
# Convention : Reuss Voigt Hill
#
# Bulk Modulus (GPa) = 23.12770 40.37927 31.75349
# Shear Modulus (GPa) = 15.87454 24.15076 20.01265
#
# Velocity S-wave (km/s) = 2.88819 3.56239 3.24286
# Velocity P-wave (km/s) = 4.82444 6.17569 5.54141
#
# Compressibility (1/GPa) = 0.04323820
#
# Stress axis : x y z
#
# Youngs Moduli (GPa) = 99.10209 39.74459 18.56885
#
# Poissons Ratio (x) = 0.03426 0.23408
# Poissons Ratio (y) = 0.08542 0.17576
# Poissons Ratio (z) = 1.24929 0.37620
#
# Static dielectric constant tensor:
#      x y z
#    x 1.692630 0.000000 0.000000 
#    y 0.000000 1.687990 0.000000 
#    z 0.000000 0.000000 1.657810 
# 
# From -- ./inp_files/14163.got.cif
#   From: 2010.05.17/outbox.cif.g08.bks.cpg/sg49_8_cif.got.tgz:14163.got - 2010.06.03 21:02:19.
