data_PCOD9393621
_publ_section_title
;
Structure prediction by ZEFSAII (Michael W. Deem and Ramdas Pophale) SiO2 
 PCOD9393621
Probable space group: P C C M
;
_chemical_formula_sum "Si O2"
_cell_formula_units_Z 48
_cell_length_a 9.608216
_cell_length_b 31.494570
_cell_length_c 8.544812
_cell_angle_alpha 90.000000
_cell_angle_beta 90.000000
_cell_angle_gamma 90.000000
_cell_volume 2585.716775
_symmetry_space_group_name_H-M "P C C M"
_symmetry_group_IT_number 49
_symmetry_cell_setting 'orthorhombic'
loop_
_space_group_symop_operation_xyz
x,y,z
-x,-y,z
x,-y,1/2-z
-x,y,1/2-z
-x,-y,-z
x,y,-z
-x,y,1/2+z
x,-y,1/2+z
loop_
_atom_site_type_symbol
_atom_site_label
_atom_site_fract_x
_atom_site_fract_y
_atom_site_fract_z
Si Si1 0.844890 0.623373 0.811153
Si Si2 0.156537 0.878353 0.688104
Si Si3 0.347841 0.952442 0.186976
Si Si4 0.656918 0.455055 0.311976
Si Si5 0.155969 0.280825 0.810851
Si Si6 0.343405 0.797691 0.311047
O O1 0.744611 0.585642 0.758485
O O2 0.803940 0.671227 0.761708
O O3 0.000000 0.615935 0.750000
O O4 0.846545 0.622937 0.000000
O O5 0.154050 0.879963 0.500000
O O6 0.231351 0.920297 0.752925
O O7 0.250396 0.838053 0.737050
O O8 0.000000 0.874293 0.750000
O O9 0.500000 0.938814 0.250000
O O10 0.323475 0.000000 0.250000
O O11 0.351524 0.953163 0.000000
O O12 0.714180 0.500000 0.250000
O O13 0.500000 0.451358 0.250000
O O14 0.654876 0.456303 0.500000
O O15 0.264220 0.245072 0.758153
O O16 0.000000 0.272218 0.750000
O O17 0.151262 0.279823 0.000000
O O18 0.500000 0.800385 0.250000
O O19 0.347866 0.797353 0.500000
#
# Coordination Sequence:
#
# PCOD9393621 Si02
#       6
#     8   8   8   8   8   8
#     4   9  19  34  53  76 104 135 172 214 261 313
#     4  11  23  39  58  84 114 148 187 229 275 326
#     4  11  22  39  62  88 117 151 188 230 276 326
#     4  10  20  34  51  73 100 134 172 215 261 312
#     4   9  18  35  55  78 106 138 174 216 262 314
#     4  10  22  37  56  81 111 143 180 222 267 318
#
# _framework density 18.563517999999998
#
# number of rings (size 3 to 8) (size 9 to 14) (size 15 to 20)
#    0.000    2.000    0.000    4.500    0.000    6.000 
#    0.000    3.333    0.000    0.000    0.000    0.000 
#    0.000    0.000    0.000    0.000    0.000    0.000 
#
# Total GULP energy -268067.467073 kJ/mol
# GULP energy per Si atom -5584.738897 kJ/mol
# Density = 1.852127 g / cm^3
# Si number density = 18.563518 Si / 1000 Ang^3
#
#
#
# Elastic Constant Matrix: (Units=GPa)
#
#
# Indices 1 2 3 4 5 6 
#
# 1 148.0408 114.6359 35.0212 0.0000 0.0000 0.0000
# 2 114.6359 143.5594 39.2311 0.0000 0.0000 0.0000
# 3 35.0212 39.2311 53.8904 0.0000 0.0000 0.0000
# 4 0.0000 0.0000 0.0000 22.1983 0.0000 0.0000
# 5 0.0000 0.0000 0.0000 0.0000 34.1947 0.0000
# 6 0.0000 0.0000 0.0000 0.0000 0.0000 43.5282
#
#
#
# Elastic Compliance Matrix: (Units=1/GPa)
#
#
# Indices 1 2 3 4 5 6 
#
# 1 0.017798 -0.013796 -0.001523 0.000000 0.000000 0.000000
# 2 -0.013796 0.019390 -0.005150 0.000000 0.000000 0.000000
# 3 -0.001523 -0.005150 0.023295 0.000000 0.000000 0.000000
# 4 0.000000 0.000000 0.000000 0.045048 0.000000 0.000000
# 5 0.000000 0.000000 0.000000 0.000000 0.029244 0.000000
# 6 0.000000 0.000000 0.000000 0.000000 0.000000 0.022974
#
#
# Mechanical properties :
#
#
# Convention : Reuss Voigt Hill
#
# Bulk Modulus (GPa) = 51.16417 80.36299 65.76358
# Shear Modulus (GPa) = 24.36620 30.42440 27.39530
#
# Velocity S-wave (km/s) = 3.62689 4.05277 3.84573
# Velocity P-wave (km/s) = 6.72017 8.07990 7.43120
#
# Compressibility (1/GPa) = 0.01954493
#
# Stress axis : x y z
#
# Youngs Moduli (GPa) = 56.18485 51.57366 42.92797
#
# Poissons Ratio (x) = 0.71152 0.06538
# Poissons Ratio (y) = 0.77514 0.22107
# Poissons Ratio (z) = 0.08557 0.26559
#
# Static dielectric constant tensor:
#      x y z
#    x 1.595390 0.000000 0.000000 
#    y 0.000000 1.653850 0.000000 
#    z 0.000000 0.000000 1.634150 
# 
# From -- ./inp_files/2056.got.cif
#   From: 2010.05.17/outbox.cif.g08.bks.cpg/sg49_2_cif.got.tgz:2056.got - 2010.06.03 21:02:19.
