data_PCOD9393891
_publ_section_title
;
Structure prediction by ZEFSAII (Michael W. Deem and Ramdas Pophale) SiO2 
 PCOD9393891
Probable space group: P C C M
;
_chemical_formula_sum "Si O2"
_cell_formula_units_Z 48
_cell_length_a 9.179447
_cell_length_b 11.039477
_cell_length_c 24.823887
_cell_angle_alpha 90.000000
_cell_angle_beta 90.000000
_cell_angle_gamma 90.000000
_cell_volume 2515.560712
_symmetry_space_group_name_H-M "P C C M"
_symmetry_group_IT_number 49
_symmetry_cell_setting 'orthorhombic'
loop_
_space_group_symop_operation_xyz
x,y,z
-x,-y,z
x,-y,1/2-z
-x,y,1/2-z
-x,-y,-z
x,y,-z
-x,y,1/2+z
x,-y,1/2+z
loop_
_atom_site_type_symbol
_atom_site_label
_atom_site_fract_x
_atom_site_fract_y
_atom_site_fract_z
Si Si1 0.747982 0.771078 0.561141
Si Si2 0.826743 0.970548 0.350889
Si Si3 0.934398 0.368146 0.135484
Si Si4 0.238240 0.242448 0.850698
Si Si5 0.443993 0.637483 0.438171
Si Si6 0.830615 0.769329 0.732650
O O1 0.783782 0.801193 0.500000
O O2 0.787105 0.881745 0.600148
O O3 0.842461 0.657685 0.582420
O O4 0.581655 0.728003 0.564479
O O5 0.787619 0.893306 0.297419
O O6 0.746063 0.098125 0.356845
O O7 0.000000 0.000000 0.349094
O O8 0.834779 0.333677 0.186817
O O9 0.000000 0.500000 0.140103
O O10 0.071201 0.277334 0.136260
O O11 0.335255 0.319472 0.891536
O O12 0.255583 0.264708 0.786513
O O13 0.500000 0.500000 0.429939
O O14 0.384762 0.643534 0.500000
O O15 0.000000 0.784990 0.750000
#
# Coordination Sequence:
#
# PCOD9393891 Si02
#       6
#     8   8   8   8   8   8
#     4  10  22  39  59  84 121 164 203 253 308 354
#     4  11  19  36  58  91 125 157 193 254 308 370
#     4  10  20  35  57  89 121 151 204 256 301 358
#     4  11  21  34  62  91 112 161 205 248 304 371
#     4  10  23  44  63  83 121 169 209 253 307 363
#     4   9  18  32  57  87 120 154 190 241 310 361
#
# _framework density 19.081230999999999
#
# number of rings (size 3 to 8) (size 9 to 14) (size 15 to 20)
#    0.000    1.833    5.000    1.500    0.000    5.667 
#    0.000    5.000    0.000    8.000    0.000    0.000 
#    0.000    0.000    0.000    0.000    0.000    0.000 
#
# Total GULP energy -267720.117107 kJ/mol
# GULP energy per Si atom -5577.502440 kJ/mol
# Density = 1.903780 g / cm^3
# Si number density = 19.081231 Si / 1000 Ang^3
#
#
#
# Elastic Constant Matrix: (Units=GPa)
#
#
# Indices 1 2 3 4 5 6 
#
# 1 44.7850 92.2071 106.7697 0.0000 0.0000 0.0000
# 2 92.2071 793.6803 520.6695 0.0000 0.0000 0.0000
# 3 106.7697 520.6695 488.2867 0.0000 0.0000 0.0000
# 4 0.0000 0.0000 0.0000 23.6482 0.0000 0.0000
# 5 0.0000 0.0000 0.0000 0.0000 42.2475 0.0000
# 6 0.0000 0.0000 0.0000 0.0000 0.0000 22.8604
#
#
#
# Elastic Compliance Matrix: (Units=1/GPa)
#
#
# Indices 1 2 3 4 5 6 
#
# 1 0.051350 0.004660 -0.016198 0.000000 0.000000 0.000000
# 2 0.004660 0.004616 -0.005941 0.000000 0.000000 0.000000
# 3 -0.016198 -0.005941 0.011925 0.000000 0.000000 0.000000
# 4 0.000000 0.000000 0.000000 0.042286 0.000000 0.000000
# 5 0.000000 0.000000 0.000000 0.000000 0.023670 0.000000
# 6 0.000000 0.000000 0.000000 0.000000 0.000000 0.043744
#
#
# Mechanical properties :
#
#
# Convention : Reuss Voigt Hill
#
# Bulk Modulus (GPa) = 30.36399 307.33828 168.85113
# Shear Modulus (GPa) = 22.36873 58.22495 40.29684
#
# Velocity S-wave (km/s) = 3.42759 5.52996 4.60048
# Velocity P-wave (km/s) = 5.62246 14.21942 10.81212
#
# Compressibility (1/GPa) = 0.03293375
#
# Stress axis : x y z
#
# Youngs Moduli (GPa) = 19.47431 216.63020 83.85666
#
# Poissons Ratio (x) = -1.00955 1.35827
# Poissons Ratio (y) = -0.09076 0.49822
# Poissons Ratio (z) = 0.31544 1.28707
#
# Static dielectric constant tensor:
#      x y z
#    x 1.663080 0.000000 0.000000 
#    y 0.000000 1.683640 0.000000 
#    z 0.000000 0.000000 1.683690 
# 
# From -- ./inp_files/22416.got.cif
#   From: 2010.05.17/outbox.cif.g08.bks.cpg/sg49_12_cif.got.tgz:22416.got - 2010.06.03 21:02:19.
