data_PCOD9393764
_publ_section_title
;
Structure prediction by ZEFSAII (Michael W. Deem and Ramdas Pophale) SiO2 
 PCOD9393764
Probable space group: P C C M
;
_chemical_formula_sum "Si O2"
_cell_formula_units_Z 24
_cell_length_a 9.033687
_cell_length_b 5.030232
_cell_length_c 25.774613
_cell_angle_alpha 90.000000
_cell_angle_beta 90.000000
_cell_angle_gamma 90.000000
_cell_volume 1171.238144
_symmetry_space_group_name_H-M "P C C M"
_symmetry_group_IT_number 49
_symmetry_cell_setting 'orthorhombic'
loop_
_space_group_symop_operation_xyz
x,y,z
-x,-y,z
x,-y,1/2-z
-x,y,1/2-z
-x,-y,-z
x,y,-z
-x,y,1/2+z
x,-y,1/2+z
loop_
_atom_site_type_symbol
_atom_site_label
_atom_site_fract_x
_atom_site_fract_y
_atom_site_fract_z
Si Si1 0.330218 0.113555 0.887845
Si Si2 0.609084 0.751518 0.000000
Si Si3 0.500000 0.500000 0.750000
Si Si4 0.253680 0.641348 0.175844
Si Si5 0.000000 0.500000 0.750000
O O1 0.304732 0.222434 0.945916
O O2 0.290180 0.354218 0.849311
O O3 0.500000 0.000000 0.885521
O O4 0.241283 0.857351 0.869109
O O5 0.500000 0.500000 0.000000
O O6 0.500000 0.000000 0.000000
O O7 0.606713 0.321167 0.785700
O O8 0.110021 0.653796 0.211782
#
# Coordination Sequence:
#
# PCOD9393764 Si02
#       5
#     8   4   2   8   2
#     4  11  20  37  62  94 119 157 197 256 308 363
#     4  10  20  34  60  95 132 149 192 255 326 365
#     4  10  20  36  56  86 108 160 200 256 288 354
#     4  11  23  38  62  84 126 158 209 246 305 362
#     4  10  28  44  56  90 120 180 200 256 300 362
#
# _framework density 20.491136000000001
#
# number of rings (size 3 to 8) (size 9 to 14) (size 15 to 20)
#    0.000    1.333    3.333    4.000    0.000    9.333 
#    0.000    0.000    0.000    6.000    0.000    0.000 
#    0.000    0.000    0.000    0.000    0.000    0.000 
#
# Total GULP energy -133899.622173 kJ/mol
# GULP energy per Si atom -5579.150924 kJ/mol
# Density = 2.044450 g / cm^3
# Si number density = 20.491136 Si / 1000 Ang^3
#
#
#
# Elastic Constant Matrix: (Units=GPa)
#
#
# Indices 1 2 3 4 5 6 
#
# 1 88.0024 18.0123 53.4757 0.0000 0.0000 0.0000
# 2 18.0123 122.3704 33.7888 0.0000 0.0000 0.0000
# 3 53.4757 33.7888 125.8134 0.0000 0.0000 0.0000
# 4 0.0000 0.0000 0.0000 -25.1303 0.0000 0.0000
# 5 0.0000 0.0000 0.0000 0.0000 25.7316 0.0000
# 6 0.0000 0.0000 0.0000 0.0000 0.0000 8.2374
#
#
#
# Elastic Compliance Matrix: (Units=1/GPa)
#
#
# Indices 1 2 3 4 5 6 
#
# 1 0.015348 -0.000495 -0.006391 0.000000 0.000000 0.000000
# 2 -0.000495 0.008842 -0.002165 0.000000 0.000000 0.000000
# 3 -0.006391 -0.002165 0.011246 0.000000 0.000000 0.000000
# 4 0.000000 0.000000 0.000000 -0.039793 0.000000 0.000000
# 5 0.000000 0.000000 0.000000 0.000000 0.038863 0.000000
# 6 0.000000 0.000000 0.000000 0.000000 0.000000 0.121397
#
#
# Mechanical properties :
#
#
# Convention : Reuss Voigt Hill
#
# Bulk Modulus (GPa) = 57.68118 60.74889 59.21503
# Shear Modulus (GPa) = 27.81152 17.16171 22.48661
#
# Velocity S-wave (km/s) = 3.68808 2.89713 3.31627
# Velocity P-wave (km/s) = 6.80781 6.39546 6.60486
#
# Compressibility (1/GPa) = 0.01733668
#
# Stress axis : x y z
#
# Youngs Moduli (GPa) = 65.15548 113.09183 88.92153
#
# Poissons Ratio (x) = 0.05593 0.56827
# Poissons Ratio (y) = 0.03222 0.19247
# Poissons Ratio (z) = 0.41639 0.24479
#
# Static dielectric constant tensor:
#      x y z
#    x 1.777440 0.000000 0.000000 
#    y 0.000000 1.722350 0.000000 
#    z 0.000000 0.000000 1.831260 
# 
# From -- ./inp_files/22025.got.cif
#   From: 2010.05.17/outbox.cif.g08.bks.cpg/sg49_12_cif.got.tgz:22025.got - 2010.06.03 21:02:19.
