data_PCOD9393566
_publ_section_title
;
Structure prediction by ZEFSAII (Michael W. Deem and Ramdas Pophale) SiO2 
 PCOD9393566
Probable space group: P C C M
;
_chemical_formula_sum "Si O2"
_cell_formula_units_Z 58
_cell_length_a 14.885075
_cell_length_b 25.665939
_cell_length_c 8.911878
_cell_angle_alpha 90.000000
_cell_angle_beta 90.000000
_cell_angle_gamma 90.000000
_cell_volume 3404.688764
_symmetry_space_group_name_H-M "P C C M"
_symmetry_group_IT_number 49
_symmetry_cell_setting 'orthorhombic'
loop_
_space_group_symop_operation_xyz
x,y,z
-x,-y,z
x,-y,1/2-z
-x,y,1/2-z
-x,-y,-z
x,y,-z
-x,y,1/2+z
x,-y,1/2+z
loop_
_atom_site_type_symbol
_atom_site_label
_atom_site_fract_x
_atom_site_fract_y
_atom_site_fract_z
Si Si1 0.268899 0.246256 0.676970
Si Si2 0.586735 0.843272 0.675736
Si Si3 0.853967 0.915547 0.827733
Si Si4 0.400579 0.551066 0.321702
Si Si5 0.342320 0.946404 0.679929
Si Si6 0.600152 0.668722 0.820414
Si Si7 0.905059 0.199786 0.680847
Si Si8 0.000000 0.000000 0.250000
O O1 0.254527 0.255736 0.500000
O O2 0.327387 0.193499 0.692225
O O3 0.330189 0.291212 0.748229
O O4 0.175859 0.235629 0.761447
O O5 0.500000 0.816775 0.750000
O O6 0.571313 0.852635 0.500000
O O7 0.603776 0.896663 0.763137
O O8 0.760706 0.937047 0.762583
O O9 0.885683 0.860067 0.763771
O O10 0.832071 0.903873 0.000000
O O11 0.931045 0.959393 0.826160
O O12 0.354864 0.500000 0.250000
O O13 0.500000 0.552743 0.250000
O O14 0.407123 0.543750 0.500000
O O15 0.365504 0.609358 0.293333
O O16 0.344347 0.950001 0.500000
O O17 0.375785 0.000000 0.750000
O O18 0.500000 0.674152 0.750000
O O19 0.593180 0.676435 0.000000
O O20 0.909751 0.200176 0.500000
O O21 0.000000 0.215726 0.750000
#
# Coordination Sequence:
#
# PCOD9393566 Si02
#       8
#     8   8   8   8   8   8   8   2
#     4  11  23  38  57  81 107 141 180 223 272 321
#     4  11  24  40  58  80 102 132 170 214 261 314
#     4  10  21  33  51  76 103 131 157 195 249 308
#     4   9  16  26  43  69 104 147 191 230 273 315
#     4  11  22  39  57  77 101 129 162 202 254 309
#     4  10  20  33  51  78 112 151 192 235 275 321
#     4  11  22  39  58  80 106 137 173 213 264 321
#     4  12  18  36  52  82 106 128 162 200 256 320
#
# _framework density 17.035330999999999
#
# number of rings (size 3 to 8) (size 9 to 14) (size 15 to 20)
#    0.000    1.517    2.759    3.517    0.000    4.690 
#    0.000    1.379    0.000    0.000    0.000    0.000 
#    0.000    0.552    0.000    5.793    0.000    3.172 
#
# Total GULP energy -323560.075645 kJ/mol
# GULP energy per Si atom -5578.621994 kJ/mol
# Density = 1.699656 g / cm^3
# Si number density = 17.035331 Si / 1000 Ang^3
#
#
#
# Elastic Constant Matrix: (Units=GPa)
#
#
# Indices 1 2 3 4 5 6 
#
# 1 87.6899 34.3257 40.4935 0.0000 0.0000 0.0000
# 2 34.3257 110.7399 54.0737 0.0000 0.0000 0.0000
# 3 40.4935 54.0737 95.0450 0.0000 0.0000 0.0000
# 4 0.0000 0.0000 0.0000 23.2976 0.0000 0.0000
# 5 0.0000 0.0000 0.0000 0.0000 21.0588 0.0000
# 6 0.0000 0.0000 0.0000 0.0000 0.0000 4.6687
#
#
#
# Elastic Compliance Matrix: (Units=1/GPa)
#
#
# Indices 1 2 3 4 5 6 
#
# 1 0.014525 -0.002050 -0.005022 0.000000 0.000000 0.000000
# 2 -0.002050 0.012793 -0.006405 0.000000 0.000000 0.000000
# 3 -0.005022 -0.006405 0.016305 0.000000 0.000000 0.000000
# 4 0.000000 0.000000 0.000000 0.042923 0.000000 0.000000
# 5 0.000000 0.000000 0.000000 0.000000 0.047486 0.000000
# 6 0.000000 0.000000 0.000000 0.000000 0.000000 0.214194
#
#
# Mechanical properties :
#
#
# Convention : Reuss Voigt Hill
#
# Bulk Modulus (GPa) = 59.99106 61.25121 60.62114
# Shear Modulus (GPa) = 13.13243 20.77714 16.95479
#
# Velocity S-wave (km/s) = 2.77951 3.49614 3.15822
# Velocity P-wave (km/s) = 6.75226 7.23400 6.99728
#
# Compressibility (1/GPa) = 0.01666915
#
# Stress axis : x y z
#
# Youngs Moduli (GPa) = 68.84459 78.16696 61.33119
#
# Poissons Ratio (x) = 0.16025 0.30801
# Poissons Ratio (y) = 0.14114 0.39282
# Poissons Ratio (z) = 0.34575 0.50065
#
# Static dielectric constant tensor:
#      x y z
#    x 1.577730 0.000000 0.000000 
#    y 0.000000 1.600500 0.000000 
#    z 0.000000 0.000000 1.577510 
# 
# From -- ./inp_files/4277.got.cif
#   From: 2010.05.17/outbox.cif.g08.bks.cpg/sg49_3_cif.got.tgz:4277.got - 2010.06.03 21:02:19.
