data_PCOD9393886
_publ_section_title
;
Structure prediction by ZEFSAII (Michael W. Deem and Ramdas Pophale) SiO2 
 PCOD9393886
Probable space group: P C C M
;
_chemical_formula_sum "Si O2"
_cell_formula_units_Z 64
_cell_length_a 14.874259
_cell_length_b 9.557435
_cell_length_c 24.303008
_cell_angle_alpha 90.000000
_cell_angle_beta 90.000000
_cell_angle_gamma 90.000000
_cell_volume 3454.909871
_symmetry_space_group_name_H-M "P C C M"
_symmetry_group_IT_number 49
_symmetry_cell_setting 'orthorhombic'
loop_
_space_group_symop_operation_xyz
x,y,z
-x,-y,z
x,-y,1/2-z
-x,y,1/2-z
-x,-y,-z
x,y,-z
-x,y,1/2+z
x,-y,1/2+z
loop_
_atom_site_type_symbol
_atom_site_label
_atom_site_fract_x
_atom_site_fract_y
_atom_site_fract_z
Si Si1 0.182595 0.348301 0.436701
Si Si2 0.225511 0.354192 0.250037
Si Si3 0.158766 0.674320 0.565412
Si Si4 0.080153 0.854692 0.782214
Si Si5 0.983038 0.845622 0.593286
Si Si6 0.324578 0.321317 0.136859
Si Si7 0.655920 0.639547 0.646013
Si Si8 0.504270 0.167775 0.683758
O O1 0.215061 0.349753 0.500000
O O2 0.152118 0.507491 0.422576
O O3 0.097166 0.245731 0.432874
O O4 0.263245 0.312531 0.394537
O O5 0.172289 0.500000 0.250000
O O6 0.169584 0.230819 0.275663
O O7 0.257780 0.324234 0.189129
O O8 0.307444 0.376424 0.291786
O O9 0.152228 0.692956 0.500000
O O10 0.257513 0.717697 0.587324
O O11 0.076242 0.759620 0.591584
O O12 0.050960 0.870167 0.844583
O O13 0.000000 0.777759 0.750000
O O14 0.091889 0.000000 0.750000
O O15 0.000000 0.000000 0.568674
O O16 0.363756 0.478790 0.128167
O O17 0.404341 0.220840 0.155345
O O18 0.575223 0.748903 0.652293
O O19 0.500000 0.200473 0.750000
O O20 0.500000 0.000000 0.678970
#
# Coordination Sequence:
#
# PCOD9393886 Si02
#       8
#     8   8   8   8   8   8   8   8
#     4  10  22  42  65  88 116 154 203 254 299 346
#     4  10  20  35  57  87 112 148 199 246 296 353
#     4  10  23  43  64  87 116 154 204 255 297 343
#     4  11  22  37  50  78 121 163 191 235 299 351
#     4  12  23  38  59  85 119 160 203 240 293 358
#     4  10  21  37  62  87 116 152 192 242 298 352
#     4  10  20  38  60  87 118 150 191 243 297 351
#     4  11  23  37  58  90 123 155 190 232 291 360
#
# _framework density 18.524360999999999
#
# number of rings (size 3 to 8) (size 9 to 14) (size 15 to 20)
#    0.000    1.500    3.750    1.875    0.000    4.750 
#    2.250    0.625    0.000    3.750    0.000    0.000 
#    0.000    0.000    0.000    0.000    0.000    0.000 
#
# Total GULP energy -356839.318528 kJ/mol
# GULP energy per Si atom -5575.614352 kJ/mol
# Density = 1.848220 g / cm^3
# Si number density = 18.524361 Si / 1000 Ang^3
#
#
#
# Elastic Constant Matrix: (Units=GPa)
#
#
# Indices 1 2 3 4 5 6 
#
# 1 97.4358 76.2749 27.6649 0.0000 0.0000 0.0000
# 2 76.2749 105.4208 35.1007 0.0000 0.0000 0.0000
# 3 27.6649 35.1007 69.8626 0.0000 0.0000 0.0000
# 4 0.0000 0.0000 0.0000 16.9094 0.0000 0.0000
# 5 0.0000 0.0000 0.0000 0.0000 -3.2484 0.0000
# 6 0.0000 0.0000 0.0000 0.0000 0.0000 18.3897
#
#
#
# Elastic Compliance Matrix: (Units=1/GPa)
#
#
# Indices 1 2 3 4 5 6 
#
# 1 0.023719 -0.016853 -0.000925 0.000000 0.000000 0.000000
# 2 -0.016853 0.023366 -0.005066 0.000000 0.000000 0.000000
# 3 -0.000925 -0.005066 0.017225 0.000000 0.000000 0.000000
# 4 0.000000 0.000000 0.000000 0.059139 0.000000 0.000000
# 5 0.000000 0.000000 0.000000 0.000000 -0.307841 0.000000
# 6 0.000000 0.000000 0.000000 0.000000 0.000000 0.054378
#
#
# Mechanical properties :
#
#
# Convention : Reuss Voigt Hill
#
# Bulk Modulus (GPa) = 53.69986 61.20000 57.44993
# Shear Modulus (GPa) = -64.00660 15.32205 -24.34227
#
# Velocity S-wave (km/s) = -5.88453 2.87911 -3.62894
# Velocity P-wave (km/s) = 4.13745 6.64542 3.67717
#
# Compressibility (1/GPa) = 0.01862202
#
# Stress axis : x y z
#
# Youngs Moduli (GPa) = 42.16034 42.79632 58.05377
#
# Poissons Ratio (x) = 0.72126 0.05370
# Poissons Ratio (y) = 0.71054 0.29411
# Poissons Ratio (z) = 0.03899 0.21681
#
# Static dielectric constant tensor:
#      x y z
#    x 1.667360 0.000000 0.000000 
#    y 0.000000 1.675520 0.000000 
#    z 0.000000 0.000000 1.650340 
# 
# From -- ./inp_files/23221.got.cif
#   From: 2010.05.17/outbox.cif.g08.bks.cpg/sg49_12_cif.got.tgz:23221.got - 2010.06.03 21:02:19.
