data_PCOD9393589
_publ_section_title
;
Structure prediction by ZEFSAII (Michael W. Deem and Ramdas Pophale) SiO2 
 PCOD9393589
Probable space group: P C C M
;
_chemical_formula_sum "Si O2"
_cell_formula_units_Z 56
_cell_length_a 17.803868
_cell_length_b 9.304199
_cell_length_c 14.615861
_cell_angle_alpha 90.000000
_cell_angle_beta 90.000000
_cell_angle_gamma 90.000000
_cell_volume 2421.128057
_symmetry_space_group_name_H-M "P C C M"
_symmetry_group_IT_number 49
_symmetry_cell_setting 'orthorhombic'
loop_
_space_group_symop_operation_xyz
x,y,z
-x,-y,z
x,-y,1/2-z
-x,y,1/2-z
-x,-y,-z
x,y,-z
-x,y,1/2+z
x,-y,1/2+z
loop_
_atom_site_type_symbol
_atom_site_label
_atom_site_fract_x
_atom_site_fract_y
_atom_site_fract_z
Si Si1 0.002051 0.333899 0.138225
Si Si2 0.141676 0.852747 0.133488
Si Si3 0.707465 0.615521 0.110550
Si Si4 0.436571 0.896001 0.104145
Si Si5 0.455194 0.371425 0.104429
Si Si6 0.301045 0.284710 0.394785
Si Si7 0.152479 0.179891 0.851135
O O1 0.933071 0.234245 0.105407
O O2 0.000000 0.500000 0.109344
O O3 0.000000 0.334485 0.250000
O O4 0.081345 0.266267 0.111461
O O5 0.217007 0.772939 0.104472
O O6 0.140197 0.844608 0.243437
O O7 0.150869 0.019808 0.107202
O O8 0.625753 0.674071 0.140593
O O9 0.704112 0.447984 0.142351
O O10 0.773606 0.721060 0.141712
O O11 0.716203 0.613951 0.000000
O O12 0.485561 0.753202 0.098880
O O13 0.357867 0.837152 0.145238
O O14 0.500000 0.000000 0.146775
O O15 0.420861 0.954210 0.000000
O O16 0.500000 0.500000 0.150584
O O17 0.437305 0.419039 0.000000
O O18 0.328026 0.299431 0.500000
#
# Coordination Sequence:
#
# PCOD9393589 Si02
#       7
#     8   8   8   8   8   8   8
#     4   9  17  33  58  81 102 134 180 220 261 317
#     4  10  21  36  55  80 110 141 175 220 268 321
#     4  10  20  33  53  81 110 140 180 227 271 319
#     4   9  17  28  46  74 104 136 176 219 263 311
#     4   9  15  28  48  72 102 135 173 218 262 306
#     4  10  20  34  52  80 112 140 178 227 273 318
#     4  10  21  36  55  81 108 141 178 219 267 323
#
# _framework density 23.129714
#
# number of rings (size 3 to 8) (size 9 to 14) (size 15 to 20)
#    0.000    2.429    1.429    1.286    2.000    4.000 
#    0.000    0.714    0.000    5.143    0.000    0.000 
#    0.000    0.000    0.000    0.000    0.000    0.000 
#
# Total GULP energy -312259.844006 kJ/mol
# GULP energy per Si atom -5576.068643 kJ/mol
# Density = 2.307707 g / cm^3
# Si number density = 23.129714 Si / 1000 Ang^3
#
#
#
# Elastic Constant Matrix: (Units=GPa)
#
#
# Indices 1 2 3 4 5 6 
#
# 1 202.3341 49.1693 -2.4417 0.0000 0.0000 0.0000
# 2 49.1693 81.6190 11.7287 0.0000 0.0000 0.0000
# 3 -2.4417 11.7287 68.0856 0.0000 0.0000 0.0000
# 4 0.0000 0.0000 0.0000 10.1800 0.0000 0.0000
# 5 0.0000 0.0000 0.0000 0.0000 31.3273 0.0000
# 6 0.0000 0.0000 0.0000 0.0000 0.0000 50.3214
#
#
#
# Elastic Compliance Matrix: (Units=1/GPa)
#
#
# Indices 1 2 3 4 5 6 
#
# 1 0.005836 -0.003636 0.000836 0.000000 0.000000 0.000000
# 2 -0.003636 0.014828 -0.002685 0.000000 0.000000 0.000000
# 3 0.000836 -0.002685 0.015180 0.000000 0.000000 0.000000
# 4 0.000000 0.000000 0.000000 0.098232 0.000000 0.000000
# 5 0.000000 0.000000 0.000000 0.000000 0.031921 0.000000
# 6 0.000000 0.000000 0.000000 0.000000 0.000000 0.019872
#
#
# Mechanical properties :
#
#
# Convention : Reuss Voigt Hill
#
# Bulk Modulus (GPa) = 40.20252 52.10571 46.15412
# Shear Modulus (GPa) = 24.37472 37.93789 31.15631
#
# Velocity S-wave (km/s) = 3.24979 4.05436 3.67417
# Velocity P-wave (km/s) = 5.61254 6.67035 6.16418
#
# Compressibility (1/GPa) = 0.02487406
#
# Stress axis : x y z
#
# Youngs Moduli (GPa) = 171.35193 67.43932 65.87681
#
# Poissons Ratio (x) = 0.24520 -0.05505
# Poissons Ratio (y) = 0.62300 0.17686
# Poissons Ratio (z) = -0.14318 0.18106
#
# Static dielectric constant tensor:
#      x y z
#    x 1.830530 0.000000 0.000000 
#    y 0.000000 1.843390 0.000000 
#    z 0.000000 0.000000 1.982990 
# 
# From -- ./inp_files/20863.got.cif
#   From: 2010.05.17/outbox.cif.g08.bks.cpg/sg49_11_cif.got.tgz:20863.got - 2010.06.03 21:02:19.
