data_PCOD9393014
_publ_section_title
;
Structure prediction by ZEFSAII (Michael W. Deem and Ramdas Pophale) SiO2 
 PCOD9393014
Probable space group: P C C M
;
_chemical_formula_sum "Si O2"
_cell_formula_units_Z 64
_cell_length_a 20.274648
_cell_length_b 20.367605
_cell_length_c 8.628532
_cell_angle_alpha 90.000000
_cell_angle_beta 90.000000
_cell_angle_gamma 90.000000
_cell_volume 3563.117965
_symmetry_space_group_name_H-M "P C C M"
_symmetry_group_IT_number 49
_symmetry_cell_setting 'orthorhombic'
loop_
_space_group_symop_operation_xyz
x,y,z
-x,-y,z
x,-y,1/2-z
-x,y,1/2-z
-x,-y,-z
x,y,-z
-x,y,1/2+z
x,-y,1/2+z
loop_
_atom_site_type_symbol
_atom_site_label
_atom_site_fract_x
_atom_site_fract_y
_atom_site_fract_z
Si Si1 0.070437 0.207758 0.684306
Si Si2 0.070774 0.573083 0.815826
Si Si3 0.248474 0.105987 0.317817
Si Si4 0.430624 0.785564 0.812953
Si Si5 0.707992 0.245685 0.685928
Si Si6 0.835204 0.317823 0.684442
Si Si7 0.888206 0.069535 0.317581
Si Si8 0.601712 0.931911 0.318338
O O1 0.073026 0.215002 0.500000
O O2 0.125854 0.252670 0.762372
O O3 0.081122 0.132159 0.731764
O O4 0.000000 0.229278 0.750000
O O5 0.081295 0.500000 0.750000
O O6 0.128860 0.621560 0.765274
O O7 0.000000 0.596648 0.750000
O O8 0.066029 0.570298 0.000000
O O9 0.229977 0.103320 0.500000
O O10 0.262032 0.180745 0.266765
O O11 0.190174 0.076022 0.216407
O O12 0.319047 0.071536 0.298079
O O13 0.500000 0.759908 0.750000
O O14 0.366307 0.748761 0.748026
O O15 0.423971 0.861934 0.756771
O O16 0.428609 0.785148 0.000000
O O17 0.707484 0.235823 0.500000
O O18 0.758377 0.304777 0.721065
O O19 0.841778 0.325070 0.500000
O O20 0.901134 0.073601 0.500000
O O21 0.910959 0.000000 0.250000
O O22 0.587430 0.932494 0.500000
O O23 0.576985 0.000000 0.250000
#
# Coordination Sequence:
#
# PCOD9393014 Si02
#       8
#     8   8   8   8   8   8   8   8
#     4  12  25  41  59  79 105 138 179 229 282 337
#     4  11  22  38  60  88 125 166 203 239 280 328
#     4  10  19  33  51  73 100 130 169 218 275 333
#     4  10  21  36  52  72 102 136 177 223 280 341
#     4  10  20  34  56  81 108 140 179 226 276 327
#     4  11  22  38  60  88 118 150 191 233 276 330
#     4  12  24  38  54  74  98 130 173 224 284 344
#     4   9  19  31  45  67  93 125 164 212 264 330
#
# _framework density 17.961797000000001
#
# number of rings (size 3 to 8) (size 9 to 14) (size 15 to 20)
#    0.000    1.375    1.250    6.750    0.000    6.000 
#    0.000    2.500    0.000    0.000    0.000    0.000 
#    0.000    0.500    0.000    5.250    0.000    2.250 
#
# Total GULP energy -357722.274464 kJ/mol
# GULP energy per Si atom -5589.410538 kJ/mol
# Density = 1.792091 g / cm^3
# Si number density = 17.961797 Si / 1000 Ang^3
#
#
#
# Elastic Constant Matrix: (Units=GPa)
#
#
# Indices 1 2 3 4 5 6 
#
# 1 107.2267 36.9153 33.8160 0.0000 0.0000 0.0000
# 2 36.9153 68.9033 24.2292 0.0000 0.0000 0.0000
# 3 33.8160 24.2292 76.2585 0.0000 0.0000 0.0000
# 4 0.0000 0.0000 0.0000 25.3506 0.0000 0.0000
# 5 0.0000 0.0000 0.0000 0.0000 28.1643 0.0000
# 6 0.0000 0.0000 0.0000 0.0000 0.0000 24.5434
#
#
#
# Elastic Compliance Matrix: (Units=1/GPa)
#
#
# Indices 1 2 3 4 5 6 
#
# 1 0.012339 -0.005276 -0.003795 0.000000 0.000000 0.000000
# 2 -0.005276 0.018595 -0.003568 0.000000 0.000000 0.000000
# 3 -0.003795 -0.003568 0.015930 0.000000 0.000000 0.000000
# 4 0.000000 0.000000 0.000000 0.039447 0.000000 0.000000
# 5 0.000000 0.000000 0.000000 0.000000 0.035506 0.000000
# 6 0.000000 0.000000 0.000000 0.000000 0.000000 0.040744
#
#
# Mechanical properties :
#
#
# Convention : Reuss Voigt Hill
#
# Bulk Modulus (GPa) = 46.33010 49.14549 47.73779
# Shear Modulus (GPa) = 25.63630 26.10684 25.87157
#
# Velocity S-wave (km/s) = 3.78202 3.81657 3.79933
# Velocity P-wave (km/s) = 6.70233 6.84413 6.77360
#
# Compressibility (1/GPa) = 0.02158424
#
# Stress axis : x y z
#
# Youngs Moduli (GPa) = 81.04069 53.77887 62.77448
#
# Poissons Ratio (x) = 0.28375 0.23825
# Poissons Ratio (y) = 0.42760 0.22400
# Poissons Ratio (z) = 0.30758 0.19190
#
# Static dielectric constant tensor:
#      x y z
#    x 1.648080 0.000000 0.000000 
#    y 0.000000 1.601990 0.000000 
#    z 0.000000 0.000000 1.599550 
# 
# From -- ./inp_files/6011.got.cif
#   From: 2010.05.17/outbox.cif.g08.bks.cpg/sg49_4_cif.got.tgz:6011.got - 2010.06.03 21:02:19.
