data_PCOD9393322
_publ_section_title
;
Structure prediction by ZEFSAII (Michael W. Deem and Ramdas Pophale) SiO2 
 PCOD9393322
Probable space group: P C C M
;
_chemical_formula_sum "Si O2"
_cell_formula_units_Z 58
_cell_length_a 11.645615
_cell_length_b 8.910341
_cell_length_c 30.463419
_cell_angle_alpha 90.000000
_cell_angle_beta 90.000000
_cell_angle_gamma 90.000000
_cell_volume 3161.079346
_symmetry_space_group_name_H-M "P C C M"
_symmetry_group_IT_number 49
_symmetry_cell_setting 'orthorhombic'
loop_
_space_group_symop_operation_xyz
x,y,z
-x,-y,z
x,-y,1/2-z
-x,y,1/2-z
-x,-y,-z
x,y,-z
-x,y,1/2+z
x,-y,1/2+z
loop_
_atom_site_type_symbol
_atom_site_label
_atom_site_fract_x
_atom_site_fract_y
_atom_site_fract_z
Si Si1 0.596920 0.766781 0.317000
Si Si2 0.795252 0.337562 0.763389
Si Si3 0.584478 0.637360 0.878871
Si Si4 0.244492 0.057491 0.381360
Si Si5 0.385497 0.899486 0.449693
Si Si6 0.790939 0.741067 0.165174
Si Si7 0.500000 0.000000 0.750000
Si Si8 0.040494 0.833608 0.830400
O O1 0.679375 0.650175 0.292192
O O2 0.478882 0.705466 0.336009
O O3 0.662593 0.834261 0.359008
O O4 0.574456 0.896153 0.281852
O O5 0.841478 0.500000 0.750000
O O6 0.769351 0.261521 0.716970
O O7 0.883551 0.243114 0.792708
O O8 0.500000 0.500000 0.890980
O O9 0.593302 0.755827 0.918573
O O10 0.715428 0.619273 0.861466
O O11 0.122038 0.134541 0.372388
O O12 0.284582 0.001936 0.428778
O O13 0.244173 0.903705 0.353299
O O14 0.362391 0.857917 0.500000
O O15 0.500000 0.000000 0.447942
O O16 0.928430 0.735421 0.159373
O O17 0.000000 0.000000 0.815601
#
# Coordination Sequence:
#
# PCOD9393322 Si02
#       8
#     8   8   8   8   8   8   2   8
#     4  11  20  32  49  75 106 145 189 225 277 319
#     4  11  22  34  50  73 109 149 196 241 275 318
#     4  11  22  36  54  77 115 146 177 225 286 352
#     4   9  18  34  54  77 105 135 175 227 276 330
#     4  10  19  35  61  87 109 132 174 230 282 346
#     4  10  20  33  50  73 105 148 187 225 271 313
#     4  12  20  28  50  76 108 148 198 236 264 322
#     4   9  20  35  54  75 105 146 190 236 279 325
#
# _framework density 18.348164000000001
#
# number of rings (size 3 to 8) (size 9 to 14) (size 15 to 20)
#    0.000    1.793    1.379    4.552    0.000    7.448 
#    0.000    1.379    0.000   10.345    0.000    0.000 
#    0.000    2.207    0.000    0.138    0.000    0.000 
#
# Total GULP energy -323495.731452 kJ/mol
# GULP energy per Si atom -5577.512611 kJ/mol
# Density = 1.830640 g / cm^3
# Si number density = 18.348164 Si / 1000 Ang^3
#
#
#
# Elastic Constant Matrix: (Units=GPa)
#
#
# Indices 1 2 3 4 5 6 
#
# 1 95.4550 27.9512 59.8962 0.0000 0.0000 0.0000
# 2 27.9512 47.1933 37.0813 0.0000 0.0000 0.0000
# 3 59.8962 37.0813 112.9486 0.0000 0.0000 0.0000
# 4 0.0000 0.0000 0.0000 5.3757 0.0000 0.0000
# 5 0.0000 0.0000 0.0000 0.0000 15.9854 0.0000
# 6 0.0000 0.0000 0.0000 0.0000 0.0000 24.5636
#
#
#
# Elastic Compliance Matrix: (Units=1/GPa)
#
#
# Indices 1 2 3 4 5 6 
#
# 1 0.016199 -0.003833 -0.007332 0.000000 0.000000 0.000000
# 2 -0.003833 0.029463 -0.007640 0.000000 0.000000 0.000000
# 3 -0.007332 -0.007640 0.015250 0.000000 0.000000 0.000000
# 4 0.000000 0.000000 0.000000 0.186023 0.000000 0.000000
# 5 0.000000 0.000000 0.000000 0.000000 0.062557 0.000000
# 6 0.000000 0.000000 0.000000 0.000000 0.000000 0.040711
#
#
# Mechanical properties :
#
#
# Convention : Reuss Voigt Hill
#
# Bulk Modulus (GPa) = 42.91564 56.16159 49.53862
# Shear Modulus (GPa) = 12.63968 17.89615 15.26791
#
# Velocity S-wave (km/s) = 2.62750 3.12647 2.88778
# Velocity P-wave (km/s) = 5.71361 6.61123 6.17874
#
# Compressibility (1/GPa) = 0.02330153
#
# Stress axis : x y z
#
# Youngs Moduli (GPa) = 61.73115 33.94115 65.57450
#
# Poissons Ratio (x) = 0.13011 0.48078
# Poissons Ratio (y) = 0.23664 0.50098
# Poissons Ratio (z) = 0.45261 0.25930
#
# Static dielectric constant tensor:
#      x y z
#    x 1.709040 0.000000 0.000000 
#    y 0.000000 1.674540 0.000000 
#    z 0.000000 0.000000 1.600230 
# 
# From -- ./inp_files/24859.got.cif
#   From: 2010.05.17/outbox.cif.g08.bks.cpg/sg49_13_cif.got.tgz:24859.got - 2010.06.03 21:02:19.
