data_PCOD9393578
_publ_section_title
;
Structure prediction by ZEFSAII (Michael W. Deem and Ramdas Pophale) SiO2 
 PCOD9393578
Probable space group: P C C M
;
_chemical_formula_sum "Si O2"
_cell_formula_units_Z 64
_cell_length_a 27.273505
_cell_length_b 14.538698
_cell_length_c 8.290596
_cell_angle_alpha 90.000000
_cell_angle_beta 90.000000
_cell_angle_gamma 90.000000
_cell_volume 3287.397511
_symmetry_space_group_name_H-M "P C C M"
_symmetry_group_IT_number 49
_symmetry_cell_setting 'orthorhombic'
loop_
_space_group_symop_operation_xyz
x,y,z
-x,-y,z
x,-y,1/2-z
-x,y,1/2-z
-x,-y,-z
x,y,-z
-x,y,1/2+z
x,-y,1/2+z
loop_
_atom_site_type_symbol
_atom_site_label
_atom_site_fract_x
_atom_site_fract_y
_atom_site_fract_z
Si Si1 0.702169 0.394111 0.694228
Si Si2 0.448429 0.788455 0.308047
Si Si3 0.594306 0.395492 0.305021
Si Si4 0.190920 0.604808 0.306866
Si Si5 0.851829 0.783970 0.305675
Si Si6 0.244001 0.105942 0.695186
Si Si7 0.352197 0.105615 0.306740
Si Si8 0.946418 0.895084 0.693098
O O1 0.702240 0.500000 0.750000
O O2 0.702311 0.388362 0.500000
O O3 0.648774 0.361543 0.749701
O O4 0.755054 0.360076 0.752819
O O5 0.500000 0.828447 0.250000
O O6 0.449363 0.786638 0.500000
O O7 0.442487 0.683059 0.247310
O O8 0.399757 0.842147 0.256579
O O9 0.585607 0.500000 0.250000
O O10 0.594196 0.397446 0.500000
O O11 0.183909 0.500000 0.250000
O O12 0.191292 0.604512 0.500000
O O13 0.152209 0.678205 0.244758
O O14 0.851412 0.788899 0.500000
O O15 0.802998 0.837177 0.245856
O O16 0.901095 0.833799 0.247659
O O17 0.243696 0.107819 0.500000
O O18 0.298130 0.140643 0.748984
O O19 0.239531 0.000000 0.750000
O O20 0.352899 0.108927 0.500000
O O21 0.354889 0.000000 0.250000
O O22 0.946201 0.894899 0.500000
O O23 0.000000 0.863357 0.750000
O O24 0.939823 0.000000 0.750000
#
# Coordination Sequence:
#
# PCOD9393578 Si02
#       8
#     8   8   8   8   8   8   8   8
#     4   8  15  29  47  71  99 131 172 213 258 311
#     4  11  24  40  58  80 107 138 178 227 271 325
#     4   9  19  35  55  78 106 139 175 217 266 320
#     4  10  20  33  52  77 110 150 190 232 276 326
#     4  10  21  35  53  82 117 152 189 230 277 327
#     4   9  19  35  55  82 115 146 177 217 268 329
#     4  10  21  39  61  84 109 140 176 218 272 329
#     4  10  20  35  57  83 116 154 193 238 281 329
#
# _framework density 19.468287
#
# number of rings (size 3 to 8) (size 9 to 14) (size 15 to 20)
#    0.000    2.375    0.000    2.250    1.750    4.000 
#    0.000    2.500    0.000    0.375    0.000    2.625 
#    0.000    0.000    0.000    0.000    0.000    0.000 
#
# Total GULP energy -356976.803383 kJ/mol
# GULP energy per Si atom -5577.762553 kJ/mol
# Density = 1.942398 g / cm^3
# Si number density = 19.468287 Si / 1000 Ang^3
#
#
#
# Elastic Constant Matrix: (Units=GPa)
#
#
# Indices 1 2 3 4 5 6 
#
# 1 168.0448 78.3815 26.7386 0.0000 0.0000 0.0000
# 2 78.3815 78.4764 5.8399 0.0000 0.0000 0.0000
# 3 26.7386 5.8399 25.4117 0.0000 0.0000 0.0000
# 4 0.0000 0.0000 0.0000 24.9610 0.0000 0.0000
# 5 0.0000 0.0000 0.0000 0.0000 25.0849 0.0000
# 6 0.0000 0.0000 0.0000 0.0000 0.0000 32.5315
#
#
#
# Elastic Compliance Matrix: (Units=1/GPa)
#
#
# Indices 1 2 3 4 5 6 
#
# 1 0.013839 -0.012960 -0.011583 0.000000 0.000000 0.000000
# 2 -0.012960 0.025102 0.007868 0.000000 0.000000 0.000000
# 3 -0.011583 0.007868 0.049732 0.000000 0.000000 0.000000
# 4 0.000000 0.000000 0.000000 0.040063 0.000000 0.000000
# 5 0.000000 0.000000 0.000000 0.000000 0.039865 0.000000
# 6 0.000000 0.000000 0.000000 0.000000 0.000000 0.030739
#
#
# Mechanical properties :
#
#
# Convention : Reuss Voigt Hill
#
# Bulk Modulus (GPa) = 18.07595 54.87254 36.47425
# Shear Modulus (GPa) = 19.91003 27.24699 23.57851
#
# Velocity S-wave (km/s) = 3.20142 3.74512 3.48390
# Velocity P-wave (km/s) = 4.79275 6.85187 5.91264
#
# Compressibility (1/GPa) = 0.05532212
#
# Stress axis : x y z
#
# Youngs Moduli (GPa) = 72.26011 39.83798 20.10792
#
# Poissons Ratio (x) = 0.51631 0.23291
# Poissons Ratio (y) = 0.93650 -0.15821
# Poissons Ratio (z) = 0.83700 -0.31345
#
# Static dielectric constant tensor:
#      x y z
#    x 1.721880 0.000000 0.000000 
#    y 0.000000 1.662470 0.000000 
#    z 0.000000 0.000000 1.679790 
# 
# From -- ./inp_files/6514.got.cif
#   From: 2010.05.17/outbox.cif.g08.bks.cpg/sg49_4_cif.got.tgz:6514.got - 2010.06.03 21:02:19.
