data_PCOD9393984
_publ_section_title
;
Structure prediction by ZEFSAII (Michael W. Deem and Ramdas Pophale) SiO2 
 PCOD9393984
Probable space group: P C C M
;
_chemical_formula_sum "Si O2"
_cell_formula_units_Z 64
_cell_length_a 23.335930
_cell_length_b 7.227930
_cell_length_c 15.336352
_cell_angle_alpha 90.000000
_cell_angle_beta 90.000000
_cell_angle_gamma 90.000000
_cell_volume 2586.789677
_symmetry_space_group_name_H-M "P C C M"
_symmetry_group_IT_number 49
_symmetry_cell_setting 'orthorhombic'
loop_
_space_group_symop_operation_xyz
x,y,z
-x,-y,z
x,-y,1/2-z
-x,y,1/2-z
-x,-y,-z
x,y,-z
-x,y,1/2+z
x,-y,1/2+z
loop_
_atom_site_type_symbol
_atom_site_label
_atom_site_fract_x
_atom_site_fract_y
_atom_site_fract_z
Si Si1 0.510681 0.283694 0.401280
Si Si2 0.743968 0.714153 0.781616
Si Si3 0.733477 0.734510 0.599164
Si Si4 0.860496 0.278903 0.905141
Si Si5 0.065718 0.775082 0.740464
Si Si6 0.363833 0.799179 0.601311
Si Si7 0.849285 0.169813 0.400855
Si Si8 0.610996 0.771769 0.401133
O O1 0.500000 0.500000 0.407521
O O2 0.517236 0.201984 0.500000
O O3 0.573777 0.259302 0.363049
O O4 0.451557 0.218249 0.356625
O O5 0.747856 0.500000 0.750000
O O6 0.741431 0.832791 0.692101
O O7 0.687232 0.739418 0.837627
O O8 0.797244 0.771729 0.839767
O O9 0.729992 0.815283 0.500000
O O10 0.796107 0.637193 0.595328
O O11 0.668789 0.653717 0.614931
O O12 0.896914 0.313906 0.818465
O O13 0.852105 0.054524 0.903685
O O14 0.886929 0.323215 0.000000
O O15 0.094657 0.748195 0.646454
O O16 0.000000 0.719153 0.750000
O O17 0.067707 0.000000 0.750000
O O18 0.356687 0.737801 0.500000
O O19 0.365538 0.021281 0.601013
O O20 0.842501 0.232416 0.500000
O O21 0.595039 0.718372 0.500000
#
# Coordination Sequence:
#
# PCOD9393984 Si02
#       8
#     8   8   8   8   8   8   8   8
#     4   9  18  33  58  88 122 162 199 241 300 365
#     4  12  26  39  57  85 115 156 207 257 315 379
#     4  10  21  37  59  83 111 147 194 252 312 366
#     4   9  17  32  57  88 121 158 197 245 305 368
#     4   9  17  30  53  89 128 162 198 244 298 361
#     4  10  21  38  61  89 121 156 199 251 307 372
#     4  10  20  36  58  86 122 160 199 247 307 370
#     4   9  18  34  60  91 117 152 203 251 304 371
#
# _framework density 24.741092999999999
#
# number of rings (size 3 to 8) (size 9 to 14) (size 15 to 20)
#    0.000    2.250    1.250    1.500    1.750    6.500 
#    0.000    3.125    0.000    1.875    0.000    0.875 
#    0.000    0.000    0.000    0.000    0.000    0.000 
#
# Total GULP energy -356982.282969 kJ/mol
# GULP energy per Si atom -5577.848171 kJ/mol
# Density = 2.468478 g / cm^3
# Si number density = 24.741093 Si / 1000 Ang^3
#
#
#
# Elastic Constant Matrix: (Units=GPa)
#
#
# Indices 1 2 3 4 5 6 
#
# 1 179.3021 -14.3223 73.3853 0.0000 0.0000 0.0000
# 2 -14.3223 78.8099 7.5554 0.0000 0.0000 0.0000
# 3 73.3853 7.5554 182.1904 0.0000 0.0000 0.0000
# 4 0.0000 0.0000 0.0000 20.1362 0.0000 0.0000
# 5 0.0000 0.0000 0.0000 0.0000 8.7130 0.0000
# 6 0.0000 0.0000 0.0000 0.0000 0.0000 -17.5378
#
#
#
# Elastic Compliance Matrix: (Units=1/GPa)
#
#
# Indices 1 2 3 4 5 6 
#
# 1 0.006854 0.001516 -0.002824 0.000000 0.000000 0.000000
# 2 0.001516 0.013075 -0.001153 0.000000 0.000000 0.000000
# 3 -0.002824 -0.001153 0.006674 0.000000 0.000000 0.000000
# 4 0.000000 0.000000 0.000000 0.049662 0.000000 0.000000
# 5 0.000000 0.000000 0.000000 0.000000 0.114771 0.000000
# 6 0.000000 0.000000 0.000000 0.000000 0.000000 -0.057020
#
#
# Mechanical properties :
#
#
# Convention : Reuss Voigt Hill
#
# Bulk Modulus (GPa) = 46.12096 63.72659 54.92378
# Shear Modulus (GPa) = 34.20810 27.17454 30.69132
#
# Velocity S-wave (km/s) = 3.72242 3.31774 3.52589
# Velocity P-wave (km/s) = 6.09567 6.36316 6.23085
#
# Compressibility (1/GPa) = 0.02168212
#
# Stress axis : x y z
#
# Youngs Moduli (GPa) = 145.90111 76.48275 149.83711
#
# Poissons Ratio (x) = -0.11597 0.42308
# Poissons Ratio (y) = -0.22123 0.17276
# Poissons Ratio (z) = 0.41197 0.08818
#
# Static dielectric constant tensor:
#      x y z
#    x 2.007770 0.000000 0.000000 
#    y 0.000000 2.093280 0.000000 
#    z 0.000000 0.000000 1.979350 
# 
# From -- ./inp_files/14533.got.cif
#   From: 2010.05.17/outbox.cif.g08.bks.cpg/sg49_8_cif.got.tgz:14533.got - 2010.06.03 21:02:19.
