data_PCOD9393885
_publ_section_title
;
Structure prediction by ZEFSAII (Michael W. Deem and Ramdas Pophale) SiO2 
 PCOD9393885
Probable space group: P C C M
;
_chemical_formula_sum "Si O2"
_cell_formula_units_Z 38
_cell_length_a 9.450939
_cell_length_b 22.868377
_cell_length_c 9.457062
_cell_angle_alpha 90.000000
_cell_angle_beta 90.000000
_cell_angle_gamma 90.000000
_cell_volume 2043.932454
_symmetry_space_group_name_H-M "P C C M"
_symmetry_group_IT_number 49
_symmetry_cell_setting 'orthorhombic'
loop_
_space_group_symop_operation_xyz
x,y,z
-x,-y,z
x,-y,1/2-z
-x,y,1/2-z
-x,-y,-z
x,y,-z
-x,y,1/2+z
x,-y,1/2+z
loop_
_atom_site_type_symbol
_atom_site_label
_atom_site_fract_x
_atom_site_fract_y
_atom_site_fract_z
Si Si1 0.147134 0.725026 0.831235
Si Si2 0.360640 0.378668 0.331909
Si Si3 0.646727 0.168414 0.832415
Si Si4 0.855522 0.060568 0.829540
Si Si5 0.225007 0.500000 0.750000
Si Si6 0.000000 0.500000 0.000000
O O1 0.229753 0.664704 0.803362
O O2 0.251406 0.777953 0.790506
O O3 0.000000 0.727820 0.750000
O O4 0.121752 0.729256 0.000000
O O5 0.500000 0.358472 0.250000
O O6 0.385986 0.377863 0.500000
O O7 0.318836 0.443387 0.283607
O O8 0.500000 0.168793 0.750000
O O9 0.734750 0.108842 0.810390
O O10 0.618812 0.174340 0.000000
O O11 0.000000 0.080037 0.750000
O O12 0.818196 0.000000 0.750000
O O13 0.877487 0.052746 0.000000
O O14 0.121157 0.488630 0.879525
#
# Coordination Sequence:
#
# PCOD9393885 Si02
#       6
#     8   8   8   8   4   2
#     4  10  23  41  62  88 115 149 193 240 287 344
#     4  11  25  41  61  88 120 154 194 238 292 349
#     4  10  22  39  59  84 118 152 192 236 286 341
#     4  10  20  35  57  86 116 152 193 238 283 337
#     4  11  23  40  62  88 120 154 192 242 292 344
#     4  10  24  38  62  90 120 150 194 242 286 346
#
# _framework density 18.591612999999999
#
# number of rings (size 3 to 8) (size 9 to 14) (size 15 to 20)
#    0.000    1.684    1.053    2.842    4.421    4.632 
#    0.000    2.105    0.000    0.000    0.000    0.000 
#    0.000    0.000    0.000    0.000    0.000    0.000 
#
# Total GULP energy -211689.576797 kJ/mol
# GULP energy per Si atom -5570.778337 kJ/mol
# Density = 1.854930 g / cm^3
# Si number density = 18.591613 Si / 1000 Ang^3
#
#
#
# Elastic Constant Matrix: (Units=GPa)
#
#
# Indices 1 2 3 4 5 6 
#
# 1 165.3034 82.0855 87.0536 0.0000 0.0000 0.0000
# 2 82.0855 100.5405 55.0795 0.0000 0.0000 0.0000
# 3 87.0536 55.0795 122.6180 0.0000 0.0000 0.0000
# 4 0.0000 0.0000 0.0000 32.2098 0.0000 0.0000
# 5 0.0000 0.0000 0.0000 0.0000 126.1730 0.0000
# 6 0.0000 0.0000 0.0000 0.0000 0.0000 10.7109
#
#
#
# Elastic Compliance Matrix: (Units=1/GPa)
#
#
# Indices 1 2 3 4 5 6 
#
# 1 0.012638 -0.007166 -0.005753 0.000000 0.000000 0.000000
# 2 -0.007166 0.017256 -0.002664 0.000000 0.000000 0.000000
# 3 -0.005753 -0.002664 0.013437 0.000000 0.000000 0.000000
# 4 0.000000 0.000000 0.000000 0.031046 0.000000 0.000000
# 5 0.000000 0.000000 0.000000 0.000000 0.007926 0.000000
# 6 0.000000 0.000000 0.000000 0.000000 0.000000 0.093362
#
#
# Mechanical properties :
#
#
# Convention : Reuss Voigt Hill
#
# Bulk Modulus (GPa) = 82.20858 92.98879 87.59869
# Shear Modulus (GPa) = 23.70938 44.76830 34.23884
#
# Velocity S-wave (km/s) = 3.57497 4.91244 4.29608
# Velocity P-wave (km/s) = 7.83292 9.07200 8.47514
#
# Compressibility (1/GPa) = 0.01216418
#
# Stress axis : x y z
#
# Youngs Moduli (GPa) = 79.12666 57.94962 74.42363
#
# Poissons Ratio (x) = 0.41528 0.42819
# Poissons Ratio (y) = 0.56704 0.19824
# Poissons Ratio (z) = 0.45524 0.15436
#
# Static dielectric constant tensor:
#      x y z
#    x 1.602230 0.000000 0.000000 
#    y 0.000000 1.653330 0.000000 
#    z 0.000000 0.000000 1.618460 
# 
# From -- ./inp_files/1777.got.cif
#   From: 2010.05.17/outbox.cif.g08.bks.cpg/sg49_1_cif.got.tgz:1777.got - 2010.06.03 21:02:19.
