data_PCOD9393517
_publ_section_title
;
Structure prediction by ZEFSAII (Michael W. Deem and Ramdas Pophale) SiO2 
 PCOD9393517
Probable space group: P C C M
;
_chemical_formula_sum "Si O2"
_cell_formula_units_Z 64
_cell_length_a 17.600908
_cell_length_b 21.144801
_cell_length_c 9.198685
_cell_angle_alpha 90.000000
_cell_angle_beta 90.000000
_cell_angle_gamma 90.000000
_cell_volume 3423.453413
_symmetry_space_group_name_H-M "P C C M"
_symmetry_group_IT_number 49
_symmetry_cell_setting 'orthorhombic'
loop_
_space_group_symop_operation_xyz
x,y,z
-x,-y,z
x,-y,1/2-z
-x,y,1/2-z
-x,-y,-z
x,y,-z
-x,y,1/2+z
x,-y,1/2+z
loop_
_atom_site_type_symbol
_atom_site_label
_atom_site_fract_x
_atom_site_fract_y
_atom_site_fract_z
Si Si1 0.247586 0.062364 0.827148
Si Si2 0.803204 0.435508 0.329579
Si Si3 0.074770 0.360061 0.333753
Si Si4 0.721707 0.206267 0.325244
Si Si5 0.621226 0.434985 0.670945
Si Si6 0.925152 0.903861 0.172757
Si Si7 0.877913 0.218761 0.166952
Si Si8 0.576615 0.705752 0.825003
O O1 0.284826 0.130797 0.793303
O O2 0.157660 0.068172 0.788851
O O3 0.279049 0.000000 0.750000
O O4 0.252296 0.054056 0.000000
O O5 0.825418 0.500000 0.250000
O O6 0.820565 0.437400 0.500000
O O7 0.850596 0.381825 0.250952
O O8 0.712573 0.428646 0.313894
O O9 0.075690 0.382684 0.500000
O O10 0.077737 0.284295 0.335085
O O11 0.000000 0.382500 0.250000
O O12 0.737365 0.211641 0.500000
O O13 0.793769 0.228899 0.232341
O O14 0.648430 0.249099 0.292397
O O15 0.597690 0.500000 0.750000
O O16 0.603735 0.441651 0.500000
O O17 0.589507 0.367410 0.723047
O O18 0.916377 0.832162 0.228809
O O19 0.000000 0.930322 0.250000
O O20 0.934322 0.906886 0.000000
O O21 0.873677 0.194901 0.000000
O O22 0.500000 0.729259 0.750000
O O23 0.568889 0.705011 0.000000
#
# Coordination Sequence:
#
# PCOD9393517 Si02
#       8
#     8   8   8   8   8   8   8   8
#     4   9  19  34  53  77 104 138 179 225 273 322
#     4  10  20  36  56  74  95 127 168 213 262 313
#     4  11  23  35  48  70  98 129 169 217 267 316
#     4   9  19  37  58  79 107 142 178 218 266 319
#     4   9  19  35  56  81 109 143 177 212 255 306
#     4  10  20  33  49  72 105 143 180 220 268 317
#     4  10  20  33  52  77 102 132 174 220 264 315
#     4  10  21  37  57  83 114 145 177 213 258 310
#
# _framework density 18.694573999999999
#
# number of rings (size 3 to 8) (size 9 to 14) (size 15 to 20)
#    0.000    2.250    0.000    3.375    0.000    8.750 
#    0.000    3.750    0.000    0.375    0.000    2.625 
#    0.000    0.000    0.000    0.000    0.000    0.000 
#
# Total GULP energy -357089.422147 kJ/mol
# GULP energy per Si atom -5579.522221 kJ/mol
# Density = 1.865202 g / cm^3
# Si number density = 18.694574 Si / 1000 Ang^3
#
#
#
# Elastic Constant Matrix: (Units=GPa)
#
#
# Indices 1 2 3 4 5 6 
#
# 1 67.3246 32.7572 29.3973 0.0000 0.0000 0.0000
# 2 32.7572 85.7274 23.2046 0.0000 0.0000 0.0000
# 3 29.3973 23.2046 44.0365 0.0000 0.0000 0.0000
# 4 0.0000 0.0000 0.0000 25.0823 0.0000 0.0000
# 5 0.0000 0.0000 0.0000 0.0000 540.5470 0.0000
# 6 0.0000 0.0000 0.0000 0.0000 0.0000 -5.2002
#
#
#
# Elastic Compliance Matrix: (Units=1/GPa)
#
#
# Indices 1 2 3 4 5 6 
#
# 1 0.022913 -0.005383 -0.012459 0.000000 0.000000 0.000000
# 2 -0.005383 0.014870 -0.004242 0.000000 0.000000 0.000000
# 3 -0.012459 -0.004242 0.033261 0.000000 0.000000 0.000000
# 4 0.000000 0.000000 0.000000 0.039869 0.000000 0.000000
# 5 0.000000 0.000000 0.000000 0.000000 0.001850 0.000000
# 6 0.000000 0.000000 0.000000 0.000000 0.000000 -0.192300
#
#
# Mechanical properties :
#
#
# Convention : Reuss Voigt Hill
#
# Bulk Modulus (GPa) = 37.20890 40.86739 39.03814
# Shear Modulus (GPa) = -189.31912 119.53445 -34.89234
#
# Velocity S-wave (km/s) = -10.07420 8.00497 -4.32492
# Velocity P-wave (km/s) = 10.74116 10.36086 2.00313
#
# Compressibility (1/GPa) = 0.02687529
#
# Stress axis : x y z
#
# Youngs Moduli (GPa) = 43.64375 67.24975 30.06495
#
# Poissons Ratio (x) = 0.36198 0.37459
# Poissons Ratio (y) = 0.23492 0.12754
# Poissons Ratio (z) = 0.54378 0.28529
#
# Static dielectric constant tensor:
#      x y z
#    x 1.635170 0.000000 0.000000 
#    y 0.000000 1.674310 0.000000 
#    z 0.000000 0.000000 1.630670 
# 
# From -- ./inp_files/5242.got.cif
#   From: 2010.05.17/outbox.cif.g08.bks.cpg/sg49_3_cif.got.tgz:5242.got - 2010.06.03 21:02:19.
