data_PCOD9393799
_publ_section_title
;
Structure prediction by ZEFSAII (Michael W. Deem and Ramdas Pophale) SiO2 
 PCOD9393799
Probable space group: P C C M
;
_chemical_formula_sum "Si O2"
_cell_formula_units_Z 58
_cell_length_a 17.888116
_cell_length_b 11.871359
_cell_length_c 14.398986
_cell_angle_alpha 90.000000
_cell_angle_beta 90.000000
_cell_angle_gamma 90.000000
_cell_volume 3057.714626
_symmetry_space_group_name_H-M "P C C M"
_symmetry_group_IT_number 49
_symmetry_cell_setting 'orthorhombic'
loop_
_space_group_symop_operation_xyz
x,y,z
-x,-y,z
x,-y,1/2-z
-x,y,1/2-z
-x,-y,-z
x,y,-z
-x,y,1/2+z
x,-y,1/2+z
loop_
_atom_site_type_symbol
_atom_site_label
_atom_site_fract_x
_atom_site_fract_y
_atom_site_fract_z
Si Si1 0.982312 0.657437 0.600119
Si Si2 0.707352 0.572417 0.893274
Si Si3 0.046657 0.900856 0.846866
Si Si4 0.705427 0.310255 0.888380
Si Si5 0.205474 0.883600 0.776171
Si Si6 0.152206 0.266216 0.895452
Si Si7 0.414985 0.635895 0.248884
Si Si8 0.000000 0.500000 0.750000
O O1 0.965515 0.608210 0.500000
O O2 0.071008 0.676571 0.614952
O O3 0.951583 0.781997 0.604381
O O4 0.953506 0.579555 0.681973
O O5 0.725324 0.442215 0.865755
O O6 0.784169 0.639809 0.890942
O O7 0.646477 0.642009 0.832297
O O8 0.679750 0.566609 0.000000
O O9 0.132353 0.928562 0.830256
O O10 0.000000 0.882993 0.750000
O O11 0.000000 0.000000 0.893816
O O12 0.752450 0.212433 0.836449
O O13 0.623346 0.311048 0.842035
O O14 0.708148 0.296020 0.000000
O O15 0.172338 0.821041 0.685202
O O16 0.248402 0.000000 0.750000
O O17 0.152754 0.215847 0.000000
O O18 0.421607 0.500000 0.250000
O O19 0.500000 0.679163 0.250000
#
# Coordination Sequence:
#
# PCOD9393799 Si02
#       8
#     8   8   8   8   8   8   8   2
#     4  11  23  37  56  80 106 145 189 232 289 345
#     4   9  18  34  56  85 117 150 186 227 280 340
#     4  11  20  40  60  80 108 142 189 249 304 340
#     4  10  22  37  55  87 122 149 187 237 285 341
#     4  12  22  36  60  80 109 153 191 235 296 349
#     4  10  20  35  54  79 107 142 189 236 279 337
#     4   9  17  32  57  89 121 154 186 223 278 335
#     4  12  22  40  50  74 116 148 176 230 272 350
#
# _framework density 18.968415
#
# number of rings (size 3 to 8) (size 9 to 14) (size 15 to 20)
#    0.000    1.655    4.828    0.207    0.000    4.138 
#    0.000    4.138    0.000    0.828    0.000    0.966 
#    0.000    0.000    0.000    0.000    0.000    0.000 
#
# Total GULP energy -323001.009429 kJ/mol
# GULP energy per Si atom -5568.982921 kJ/mol
# Density = 1.892524 g / cm^3
# Si number density = 18.968415 Si / 1000 Ang^3
#
#
#
# Elastic Constant Matrix: (Units=GPa)
#
#
# Indices 1 2 3 4 5 6 
#
# 1 81.7361 19.3821 19.4432 0.0000 0.0000 0.0000
# 2 19.3821 104.7941 46.6925 0.0000 0.0000 0.0000
# 3 19.4432 46.6925 111.4543 0.0000 0.0000 0.0000
# 4 0.0000 0.0000 0.0000 50.4227 0.0000 0.0000
# 5 0.0000 0.0000 0.0000 0.0000 5.4277 0.0000
# 6 0.0000 0.0000 0.0000 0.0000 0.0000 -29.4750
#
#
#
# Elastic Compliance Matrix: (Units=1/GPa)
#
#
# Indices 1 2 3 4 5 6 
#
# 1 0.013010 -0.001715 -0.001551 0.000000 0.000000 0.000000
# 2 -0.001715 0.011959 -0.004711 0.000000 0.000000 0.000000
# 3 -0.001551 -0.004711 0.011216 0.000000 0.000000 0.000000
# 4 0.000000 0.000000 0.000000 0.019832 0.000000 0.000000
# 5 0.000000 0.000000 0.000000 0.000000 0.184239 0.000000
# 6 0.000000 0.000000 0.000000 0.000000 0.000000 -0.033927
#
#
# Mechanical properties :
#
#
# Convention : Reuss Voigt Hill
#
# Bulk Modulus (GPa) = 49.42846 52.11335 50.77090
# Shear Modulus (GPa) = 21.83144 19.43953 20.63549
#
# Velocity S-wave (km/s) = 3.39623 3.20478 3.30189
# Velocity P-wave (km/s) = 6.44158 6.42087 6.43123
#
# Compressibility (1/GPa) = 0.02023126
#
# Stress axis : x y z
#
# Youngs Moduli (GPa) = 76.86289 83.62122 89.15532
#
# Poissons Ratio (x) = 0.14343 0.13829
# Poissons Ratio (y) = 0.13183 0.41999
# Poissons Ratio (z) = 0.11922 0.39392
#
# Static dielectric constant tensor:
#      x y z
#    x 1.655200 0.000000 0.000000 
#    y 0.000000 1.708240 0.000000 
#    z 0.000000 0.000000 1.766280 
# 
# From -- ./inp_files/14122.got.cif
#   From: 2010.05.17/outbox.cif.g08.bks.cpg/sg49_8_cif.got.tgz:14122.got - 2010.06.03 21:02:19.
