data_PCOD9393319
_publ_section_title
;
Structure prediction by ZEFSAII (Michael W. Deem and Ramdas Pophale) SiO2 
 PCOD9393319
Probable space group: P C C M
;
_chemical_formula_sum "Si O2"
_cell_formula_units_Z 48
_cell_length_a 8.883956
_cell_length_b 18.666532
_cell_length_c 15.642000
_cell_angle_alpha 90.000000
_cell_angle_beta 90.000000
_cell_angle_gamma 90.000000
_cell_volume 2593.954295
_symmetry_space_group_name_H-M "P C C M"
_symmetry_group_IT_number 49
_symmetry_cell_setting 'orthorhombic'
loop_
_space_group_symop_operation_xyz
x,y,z
-x,-y,z
x,-y,1/2-z
-x,y,1/2-z
-x,-y,-z
x,y,-z
-x,y,1/2+z
x,-y,1/2+z
loop_
_atom_site_type_symbol
_atom_site_label
_atom_site_fract_x
_atom_site_fract_y
_atom_site_fract_z
Si Si1 0.322619 0.671407 0.257420
Si Si2 0.824092 0.176292 0.733695
Si Si3 0.394067 0.083811 0.335021
Si Si4 0.192497 0.425620 0.901464
Si Si5 0.837055 0.595658 0.400976
Si Si6 0.302469 0.930360 0.403680
O O1 0.500000 0.683251 0.250000
O O2 0.242995 0.745598 0.282180
O O3 0.290784 0.614089 0.331640
O O4 0.249580 0.641830 0.169421
O O5 0.730356 0.142211 0.812894
O O6 0.792318 0.122443 0.655337
O O7 0.000000 0.180415 0.750000
O O8 0.500000 0.078443 0.250000
O O9 0.524426 0.098189 0.403537
O O10 0.315499 0.009447 0.361546
O O11 0.202123 0.511413 0.891076
O O12 0.018050 0.402231 0.888436
O O13 0.232474 0.408919 0.000000
O O14 0.805557 0.615861 0.500000
O O15 0.246425 0.935524 0.500000
#
# Coordination Sequence:
#
# PCOD9393319 Si02
#       6
#     8   8   8   8   8   8
#     4  12  24  37  56  82 114 152 189 229 280 333
#     4  11  23  39  56  76 110 152 187 224 273 328
#     4   9  17  34  59  83 111 146 179 214 268 331
#     4   9  19  37  62  86 113 146 184 228 276 331
#     4   9  19  38  61  86 112 145 186 229 276 331
#     4  10  19  35  60  87 111 139 178 226 273 326
#
# _framework density 18.504566000000001
#
# number of rings (size 3 to 8) (size 9 to 14) (size 15 to 20)
#    0.000    2.000    0.000    9.000    0.000    5.333 
#    0.000    8.333    0.000    0.000    0.000    0.000 
#    0.000    0.000    0.000    0.000    0.000    0.000 
#
# Total GULP energy -267753.996599 kJ/mol
# GULP energy per Si atom -5578.208262 kJ/mol
# Density = 1.846245 g / cm^3
# Si number density = 18.504566 Si / 1000 Ang^3
#
#
#
# Elastic Constant Matrix: (Units=GPa)
#
#
# Indices 1 2 3 4 5 6 
#
# 1 68.9981 21.7467 13.5959 0.0000 0.0000 0.0000
# 2 21.7467 37.6618 14.8476 0.0000 0.0000 0.0000
# 3 13.5959 14.8476 66.9115 0.0000 0.0000 0.0000
# 4 0.0000 0.0000 0.0000 1.3540 0.0000 0.0000
# 5 0.0000 0.0000 0.0000 0.0000 18.5176 0.0000
# 6 0.0000 0.0000 0.0000 0.0000 0.0000 34.1921
#
#
#
# Elastic Compliance Matrix: (Units=1/GPa)
#
#
# Indices 1 2 3 4 5 6 
#
# 1 0.017848 -0.009727 -0.001468 0.000000 0.000000 0.000000
# 2 -0.009727 0.034399 -0.005657 0.000000 0.000000 0.000000
# 3 -0.001468 -0.005657 0.016499 0.000000 0.000000 0.000000
# 4 0.000000 0.000000 0.000000 0.738545 0.000000 0.000000
# 5 0.000000 0.000000 0.000000 0.000000 0.054003 0.000000
# 6 0.000000 0.000000 0.000000 0.000000 0.000000 0.029247
#
#
# Mechanical properties :
#
#
# Convention : Reuss Voigt Hill
#
# Bulk Modulus (GPa) = 28.53732 30.43910 29.48821
# Shear Modulus (GPa) = 5.34231 19.03815 12.19023
#
# Velocity S-wave (km/s) = 1.70097 3.21103 2.56943
# Velocity P-wave (km/s) = 4.39465 5.49844 4.97724
#
# Compressibility (1/GPa) = 0.03504183
#
# Stress axis : x y z
#
# Youngs Moduli (GPa) = 56.02792 29.07077 60.61103
#
# Poissons Ratio (x) = 0.28278 0.08899
# Poissons Ratio (y) = 0.54499 0.34285
# Poissons Ratio (z) = 0.08226 0.16444
#
# Static dielectric constant tensor:
#      x y z
#    x 1.635880 0.000000 0.000000 
#    y 0.000000 1.622330 0.000000 
#    z 0.000000 0.000000 1.676230 
# 
# From -- ./inp_files/11770.got.cif
#   From: 2010.05.17/outbox.cif.g08.bks.cpg/sg49_6_cif.got.tgz:11770.got - 2010.06.03 21:02:19.
