data_PCOD9393443
_publ_section_title
;
Structure prediction by ZEFSAII (Michael W. Deem and Ramdas Pophale) SiO2 
 PCOD9393443
Probable space group: P C C M
;
_chemical_formula_sum "Si O2"
_cell_formula_units_Z 58
_cell_length_a 13.972653
_cell_length_b 11.978565
_cell_length_c 17.834710
_cell_angle_alpha 90.000000
_cell_angle_beta 90.000000
_cell_angle_gamma 90.000000
_cell_volume 2985.037007
_symmetry_space_group_name_H-M "P C C M"
_symmetry_group_IT_number 49
_symmetry_cell_setting 'orthorhombic'
loop_
_space_group_symop_operation_xyz
x,y,z
-x,-y,z
x,-y,1/2-z
-x,y,1/2-z
-x,-y,-z
x,y,-z
-x,y,1/2+z
x,-y,1/2+z
loop_
_atom_site_type_symbol
_atom_site_label
_atom_site_fract_x
_atom_site_fract_y
_atom_site_fract_z
Si Si1 0.741960 0.464926 0.335847
Si Si2 0.191309 0.754386 0.587022
Si Si3 0.389309 0.127101 0.878686
Si Si4 0.540509 0.343392 0.672383
Si Si5 0.714437 0.918160 0.409832
Si Si6 0.111518 0.025880 0.162259
Si Si7 0.500000 0.000000 0.000000
Si Si8 0.344885 0.668903 0.088335
O O1 0.763390 0.500000 0.250000
O O2 0.806186 0.366788 0.372616
O O3 0.635547 0.412326 0.342995
O O4 0.730573 0.580488 0.379611
O O5 0.159220 0.747899 0.500000
O O6 0.299818 0.804836 0.585448
O O7 0.134975 0.847333 0.635961
O O8 0.429024 0.213824 0.819752
O O9 0.342989 0.008083 0.860366
O O10 0.472227 0.093287 0.935632
O O11 0.500000 0.382280 0.750000
O O12 0.453392 0.352460 0.614868
O O13 0.689057 0.939072 0.500000
O O14 0.686723 0.793657 0.390014
O O15 0.823691 0.948136 0.391895
O O16 0.135595 0.000000 0.250000
O O17 0.000000 0.000000 0.152776
O O18 0.342552 0.661983 0.000000
#
# Coordination Sequence:
#
# PCOD9393443 Si02
#       8
#     8   8   8   8   8   8   2   8
#     4  11  23  39  60  81 118 165 216 265 305 356
#     4  10  21  40  62  91 122 164 210 251 312 382
#     4  10  20  31  54  75 112 154 197 246 306 361
#     4  11  23  36  53  76 113 157 213 261 309 360
#     4  10  21  38  57  86 121 153 198 246 312 383
#     4  10  22  39  66 101 130 155 193 247 319 395
#     4  12  16  32  50  76 116 156 190 256 292 354
#     4  11  24  36  56  85 114 159 211 263 309 354
#
# _framework density 19.430246
#
# number of rings (size 3 to 8) (size 9 to 14) (size 15 to 20)
#    0.000    1.517    2.759    2.897    4.828    3.862 
#    0.000    2.414    0.000    0.828    0.000    2.897 
#    0.000    0.000    0.000    0.000    0.000    0.000 
#
# Total GULP energy -322899.048232 kJ/mol
# GULP energy per Si atom -5567.224970 kJ/mol
# Density = 1.938602 g / cm^3
# Si number density = 19.430246 Si / 1000 Ang^3
#
#
#
# Elastic Constant Matrix: (Units=GPa)
#
#
# Indices 1 2 3 4 5 6 
#
# 1 39.8539 23.0878 20.7052 0.0000 0.0000 0.0000
# 2 23.0878 156.4754 74.8629 0.0000 0.0000 0.0000
# 3 20.7052 74.8629 71.6021 0.0000 0.0000 0.0000
# 4 0.0000 0.0000 0.0000 33.6946 0.0000 0.0000
# 5 0.0000 0.0000 0.0000 0.0000 17.4803 0.0000
# 6 0.0000 0.0000 0.0000 0.0000 0.0000 15.0702
#
#
#
# Elastic Compliance Matrix: (Units=1/GPa)
#
#
# Indices 1 2 3 4 5 6 
#
# 1 0.029551 -0.000544 -0.007976 0.000000 0.000000 0.000000
# 2 -0.000544 0.012797 -0.013223 0.000000 0.000000 0.000000
# 3 -0.007976 -0.013223 0.030097 0.000000 0.000000 0.000000
# 4 0.000000 0.000000 0.000000 0.029678 0.000000 0.000000
# 5 0.000000 0.000000 0.000000 0.000000 0.057207 0.000000
# 6 0.000000 0.000000 0.000000 0.000000 0.000000 0.066356
#
#
# Mechanical properties :
#
#
# Convention : Reuss Voigt Hill
#
# Bulk Modulus (GPa) = 34.53134 56.13814 45.33474
# Shear Modulus (GPa) = 17.93232 23.20073 20.56653
#
# Velocity S-wave (km/s) = 3.04124 3.45926 3.25696
# Velocity P-wave (km/s) = 5.49024 6.70150 6.12588
#
# Compressibility (1/GPa) = 0.02895920
#
# Stress axis : x y z
#
# Youngs Moduli (GPa) = 33.84011 78.14199 33.22542
#
# Poissons Ratio (x) = 0.04251 0.26502
# Poissons Ratio (y) = 0.01841 0.43933
# Poissons Ratio (z) = 0.26992 1.03325
#
# Static dielectric constant tensor:
#      x y z
#    x 1.675120 0.000000 0.000000 
#    y 0.000000 1.717200 0.000000 
#    z 0.000000 0.000000 1.651340 
# 
# From -- ./inp_files/17904.got.cif
#   From: 2010.05.17/outbox.cif.g08.bks.cpg/sg49_9_cif.got.tgz:17904.got - 2010.06.03 21:02:19.
