data_PCOD9393095
_publ_section_title
;
Structure prediction by ZEFSAII (Michael W. Deem and Ramdas Pophale) SiO2 
 PCOD9393095
Probable space group: P C C M
;
_chemical_formula_sum "Si O2"
_cell_formula_units_Z 56
_cell_length_a 15.316483
_cell_length_b 8.514063
_cell_length_c 19.994339
_cell_angle_alpha 90.000000
_cell_angle_beta 90.000000
_cell_angle_gamma 90.000000
_cell_volume 2607.371798
_symmetry_space_group_name_H-M "P C C M"
_symmetry_group_IT_number 49
_symmetry_cell_setting 'orthorhombic'
loop_
_space_group_symop_operation_xyz
x,y,z
-x,-y,z
x,-y,1/2-z
-x,y,1/2-z
-x,-y,-z
x,y,-z
-x,y,1/2+z
x,-y,1/2+z
loop_
_atom_site_type_symbol
_atom_site_label
_atom_site_fract_x
_atom_site_fract_y
_atom_site_fract_z
Si Si1 0.539216 0.330952 0.419016
Si Si2 0.948761 0.862969 0.603239
Si Si3 0.077113 0.613596 0.338196
Si Si4 0.802038 0.618311 0.577157
Si Si5 0.364407 0.193352 0.579427
Si Si6 0.291584 0.843116 0.578430
Si Si7 0.156834 0.905480 0.307311
O O1 0.500000 0.500000 0.401829
O O2 0.545079 0.321907 0.500000
O O3 0.462484 0.215556 0.395062
O O4 0.636420 0.283806 0.398172
O O5 0.865694 0.770796 0.575280
O O6 0.022306 0.731568 0.614481
O O7 0.911244 0.961573 0.667228
O O8 0.000000 0.000000 0.566023
O O9 0.149890 0.510354 0.376696
O O10 0.116372 0.737850 0.285155
O O11 0.000000 0.500000 0.315722
O O12 0.792567 0.561770 0.500000
O O13 0.709666 0.684928 0.604179
O O14 0.367686 0.228437 0.500000
O O15 0.335290 0.014556 0.584778
O O16 0.268872 0.819449 0.500000
O O17 0.211075 0.853663 0.628074
O O18 0.207811 0.000000 0.250000
#
# Coordination Sequence:
#
# PCOD9393095 Si02
#       7
#     8   8   8   8   8   8   8
#     4   9  18  31  53  89 123 156 203 256 303 359
#     4   9  19  36  54  78 112 157 212 260 306 368
#     4   9  21  38  57  83 117 159 207 259 315 371
#     4  10  19  33  54  86 126 165 204 257 322 377
#     4   9  17  31  54  82 120 161 203 251 301 363
#     4  10  20  36  60  89 124 166 209 257 315 372
#     4  11  23  40  63  90 122 161 211 266 312 379
#
# _framework density 21.477564999999998
#
# number of rings (size 3 to 8) (size 9 to 14) (size 15 to 20)
#    0.000    2.429    1.429    0.429    2.000    7.714 
#    0.000    9.286    0.000    1.714    0.000    1.000 
#    0.000    0.000    0.000    0.000    0.000    0.000 
#
# Total GULP energy -311944.945070 kJ/mol
# GULP energy per Si atom -5570.445448 kJ/mol
# Density = 2.142868 g / cm^3
# Si number density = 21.477565 Si / 1000 Ang^3
#
#
#
# Elastic Constant Matrix: (Units=GPa)
#
#
# Indices 1 2 3 4 5 6 
#
# 1 91.7047 30.0361 21.1076 0.0000 0.0000 0.0000
# 2 30.0361 110.5550 37.0677 0.0000 0.0000 0.0000
# 3 21.1076 37.0677 38.5524 0.0000 0.0000 0.0000
# 4 0.0000 0.0000 0.0000 31.3368 0.0000 0.0000
# 5 0.0000 0.0000 0.0000 0.0000 -7.0996 0.0000
# 6 0.0000 0.0000 0.0000 0.0000 0.0000 46.3725
#
#
#
# Elastic Compliance Matrix: (Units=1/GPa)
#
#
# Indices 1 2 3 4 5 6 
#
# 1 0.012677 -0.001648 -0.005356 0.000000 0.000000 0.000000
# 2 -0.001648 0.013563 -0.012138 0.000000 0.000000 0.000000
# 3 -0.005356 -0.012138 0.040542 0.000000 0.000000 0.000000
# 4 0.000000 0.000000 0.000000 0.031911 0.000000 0.000000
# 5 0.000000 0.000000 0.000000 0.000000 -0.140852 0.000000
# 6 0.000000 0.000000 0.000000 0.000000 0.000000 0.021565
#
#
# Mechanical properties :
#
#
# Convention : Reuss Voigt Hill
#
# Bulk Modulus (GPa) = 35.09133 46.35944 40.72539
# Shear Modulus (GPa) = 183.89904 24.29530 104.09717
#
# Velocity S-wave (km/s) = 9.26335 3.36697 6.96944
# Velocity P-wave (km/s) = 11.43621 6.06195 9.15244
#
# Compressibility (1/GPa) = 0.02849706
#
# Stress axis : x y z
#
# Youngs Moduli (GPa) = 78.88150 73.73086 24.66604
#
# Poissons Ratio (x) = 0.12154 0.13211
# Poissons Ratio (y) = 0.13003 0.29940
# Poissons Ratio (z) = 0.42248 0.89494
#
# Static dielectric constant tensor:
#      x y z
#    x 1.868770 0.000000 0.000000 
#    y 0.000000 1.850930 0.000000 
#    z 0.000000 0.000000 1.798650 
# 
# From -- ./inp_files/20885.got.cif
#   From: 2010.05.17/outbox.cif.g08.bks.cpg/sg49_11_cif.got.tgz:20885.got - 2010.06.03 21:02:19.
