data_PCOD9393790
_publ_section_title
;
Structure prediction by ZEFSAII (Michael W. Deem and Ramdas Pophale) SiO2 
 PCOD9393790
Probable space group: P C C M
;
_chemical_formula_sum "Si O2"
_cell_formula_units_Z 48
_cell_length_a 31.454948
_cell_length_b 9.535368
_cell_length_c 8.648781
_cell_angle_alpha 90.000000
_cell_angle_beta 90.000000
_cell_angle_gamma 90.000000
_cell_volume 2594.067845
_symmetry_space_group_name_H-M "P C C M"
_symmetry_group_IT_number 49
_symmetry_cell_setting 'orthorhombic'
loop_
_space_group_symop_operation_xyz
x,y,z
-x,-y,z
x,-y,1/2-z
-x,y,1/2-z
-x,-y,-z
x,y,-z
-x,y,1/2+z
x,-y,1/2+z
loop_
_atom_site_type_symbol
_atom_site_label
_atom_site_fract_x
_atom_site_fract_y
_atom_site_fract_z
Si Si1 0.044474 0.342749 0.186010
Si Si2 0.123476 0.845263 0.685955
Si Si3 0.779744 0.157193 0.686271
Si Si4 0.373344 0.157191 0.185820
Si Si5 0.703886 0.657301 0.315169
Si Si6 0.453475 0.346062 0.185123
O O1 0.047813 0.500000 0.250000
O O2 0.085840 0.256668 0.236980
O O3 0.000000 0.282748 0.250000
O O4 0.042665 0.345925 0.000000
O O5 0.122567 0.850218 0.500000
O O6 0.171646 0.803977 0.729959
O O7 0.115926 0.000000 0.750000
O O8 0.776136 0.155160 0.500000
O O9 0.746292 0.265143 0.756104
O O10 0.771703 0.000000 0.750000
O O11 0.335485 0.250837 0.253916
O O12 0.417732 0.233144 0.227115
O O13 0.371430 0.000000 0.250000
O O14 0.369651 0.154227 0.000000
O O15 0.701403 0.500000 0.250000
O O16 0.703302 0.653361 0.500000
O O17 0.442015 0.500000 0.250000
O O18 0.500000 0.310031 0.250000
O O19 0.455847 0.355482 0.000000
#
# Coordination Sequence:
#
# PCOD9393790 Si02
#       6
#     8   8   8   8   8   8
#     4  10  20  35  53  77 106 141 182 225 273 326
#     4   9  20  36  56  81 110 143 182 224 271 326
#     4  10  20  38  60  84 114 148 185 228 277 333
#     4  11  24  41  61  87 117 154 194 236 284 337
#     4  12  25  41  61  86 115 149 188 234 282 335
#     4  10  21  37  60  87 117 152 192 235 284 336
#
# _framework density 18.503758000000001
#
# number of rings (size 3 to 8) (size 9 to 14) (size 15 to 20)
#    0.000    1.667    0.000    5.500    0.000    7.333 
#    0.000    5.000    0.000    0.000    0.000    0.000 
#    0.000    0.000    0.000    0.000    0.000    0.000 
#
# Total GULP energy -268226.275454 kJ/mol
# GULP energy per Si atom -5588.047405 kJ/mol
# Density = 1.846164 g / cm^3
# Si number density = 18.503758 Si / 1000 Ang^3
#
#
#
# Elastic Constant Matrix: (Units=GPa)
#
#
# Indices 1 2 3 4 5 6 
#
# 1 166.1570 129.0868 64.7602 0.0000 0.0000 0.0000
# 2 129.0868 151.0603 58.4113 0.0000 0.0000 0.0000
# 3 64.7602 58.4113 83.3755 0.0000 0.0000 0.0000
# 4 0.0000 0.0000 0.0000 33.2984 0.0000 0.0000
# 5 0.0000 0.0000 0.0000 0.0000 22.1339 0.0000
# 6 0.0000 0.0000 0.0000 0.0000 0.0000 42.2497
#
#
#
# Elastic Compliance Matrix: (Units=1/GPa)
#
#
# Indices 1 2 3 4 5 6 
#
# 1 0.019149 -0.014555 -0.004676 0.000000 0.000000 0.000000
# 2 -0.014555 0.020143 -0.002806 0.000000 0.000000 0.000000
# 3 -0.004676 -0.002806 0.017592 0.000000 0.000000 0.000000
# 4 0.000000 0.000000 0.000000 0.030031 0.000000 0.000000
# 5 0.000000 0.000000 0.000000 0.000000 0.045180 0.000000
# 6 0.000000 0.000000 0.000000 0.000000 0.000000 0.023669
#
#
# Mechanical properties :
#
#
# Convention : Reuss Voigt Hill
#
# Bulk Modulus (GPa) = 78.07448 100.56769 89.32108
# Shear Modulus (GPa) = 24.49661 29.42538 26.96100
#
# Velocity S-wave (km/s) = 3.64245 3.99211 3.82128
# Velocity P-wave (km/s) = 7.74438 8.70156 8.23688
#
# Compressibility (1/GPa) = 0.01280828
#
# Stress axis : x y z
#
# Youngs Moduli (GPa) = 52.22191 49.64483 56.84301
#
# Poissons Ratio (x) = 0.72260 0.26582
# Poissons Ratio (y) = 0.76011 0.15952
# Poissons Ratio (z) = 0.24421 0.13932
#
# Static dielectric constant tensor:
#      x y z
#    x 1.645910 0.000000 0.000000 
#    y 0.000000 1.594840 0.000000 
#    z 0.000000 0.000000 1.623190 
# 
# From -- ./inp_files/6869.got.cif
#   From: 2010.05.17/outbox.cif.g08.bks.cpg/sg49_4_cif.got.tgz:6869.got - 2010.06.03 21:02:19.
