data_PCOD9393674
_publ_section_title
;
Structure prediction by ZEFSAII (Michael W. Deem and Ramdas Pophale) SiO2 
 PCOD9393674
Probable space group: P C C M
;
_chemical_formula_sum "Si O2"
_cell_formula_units_Z 64
_cell_length_a 25.174529
_cell_length_b 15.832730
_cell_length_c 8.723587
_cell_angle_alpha 90.000000
_cell_angle_beta 90.000000
_cell_angle_gamma 90.000000
_cell_volume 3477.060571
_symmetry_space_group_name_H-M "P C C M"
_symmetry_group_IT_number 49
_symmetry_cell_setting 'orthorhombic'
loop_
_space_group_symop_operation_xyz
x,y,z
-x,-y,z
x,-y,1/2-z
-x,y,1/2-z
-x,-y,-z
x,y,-z
-x,y,1/2+z
x,-y,1/2+z
loop_
_atom_site_type_symbol
_atom_site_label
_atom_site_fract_x
_atom_site_fract_y
_atom_site_fract_z
Si Si1 0.783946 0.872262 0.318983
Si Si2 0.669219 0.086968 0.316152
Si Si3 0.639088 0.275791 0.317016
Si Si4 0.440997 0.410136 0.682536
Si Si5 0.140435 0.409956 0.816775
Si Si6 0.057440 0.733317 0.314718
Si Si7 0.761035 0.305850 0.683105
Si Si8 0.897400 0.913932 0.816720
O O1 0.784719 0.888248 0.500000
O O2 0.729367 0.906332 0.246632
O O3 0.782041 0.773009 0.279772
O O4 0.836777 0.907304 0.241150
O O5 0.670654 0.083256 0.500000
O O6 0.641468 0.176202 0.272931
O O7 0.645660 0.000000 0.250000
O O8 0.629475 0.279665 0.500000
O O9 0.596482 0.333141 0.232123
O O10 0.698349 0.312532 0.288661
O O11 0.421292 0.500000 0.750000
O O12 0.500000 0.397399 0.750000
O O13 0.443901 0.416612 0.500000
O O14 0.125946 0.500000 0.750000
O O15 0.101540 0.334700 0.764895
O O16 0.201179 0.384161 0.780244
O O17 0.136376 0.414145 0.000000
O O18 0.056222 0.732912 0.500000
O O19 0.073765 0.827923 0.265784
O O20 0.000000 0.711426 0.250000
O O21 0.767407 0.286282 0.500000
O O22 0.921173 0.000000 0.750000
O O23 0.897749 0.917209 0.000000
#
# Coordination Sequence:
#
# PCOD9393674 Si02
#       8
#     8   8   8   8   8   8   8   8
#     4  11  20  31  52  81 111 146 188 229 272 328
#     4  10  20  34  53  79 117 159 196 237 282 333
#     4   9  19  35  57  85 117 156 193 234 287 340
#     4  11  22  38  61  86 117 153 196 246 291 344
#     4  10  21  39  60  84 111 145 181 224 278 333
#     4  10  23  42  62  79 107 141 179 228 281 335
#     4   9  18  36  57  79 116 153 184 224 279 335
#     4  11  22  38  57  80 109 142 179 223 276 336
#
# _framework density 18.406351999999998
#
# number of rings (size 3 to 8) (size 9 to 14) (size 15 to 20)
#    0.000    1.875    1.250    4.500    0.000    5.500 
#    0.000    3.750    0.000    0.375    0.000    2.625 
#    0.000    0.000    0.000    0.000    0.000    0.000 
#
# Total GULP energy -357305.559377 kJ/mol
# GULP energy per Si atom -5582.899365 kJ/mol
# Density = 1.836446 g / cm^3
# Si number density = 18.406352 Si / 1000 Ang^3
#
#
#
# Elastic Constant Matrix: (Units=GPa)
#
#
# Indices 1 2 3 4 5 6 
#
# 1 67.6946 58.5664 31.1476 0.0000 0.0000 0.0000
# 2 58.5664 144.1757 41.5441 0.0000 0.0000 0.0000
# 3 31.1476 41.5441 55.5965 0.0000 0.0000 0.0000
# 4 0.0000 0.0000 0.0000 33.0763 0.0000 0.0000
# 5 0.0000 0.0000 0.0000 0.0000 16.2993 0.0000
# 6 0.0000 0.0000 0.0000 0.0000 0.0000 3.1781
#
#
#
# Elastic Compliance Matrix: (Units=1/GPa)
#
#
# Indices 1 2 3 4 5 6 
#
# 1 0.025487 -0.007951 -0.008338 0.000000 0.000000 0.000000
# 2 -0.007951 0.011319 -0.004004 0.000000 0.000000 0.000000
# 3 -0.008338 -0.004004 0.025650 0.000000 0.000000 0.000000
# 4 0.000000 0.000000 0.000000 0.030233 0.000000 0.000000
# 5 0.000000 0.000000 0.000000 0.000000 0.061352 0.000000
# 6 0.000000 0.000000 0.000000 0.000000 0.000000 0.314650
#
#
# Mechanical properties :
#
#
# Convention : Reuss Voigt Hill
#
# Bulk Modulus (GPa) = 45.72200 58.88701 52.30451
# Shear Modulus (GPa) = 9.67926 19.59134 14.63530
#
# Velocity S-wave (km/s) = 2.29566 3.26602 2.82285
# Velocity P-wave (km/s) = 5.64987 6.80329 6.25323
#
# Compressibility (1/GPa) = 0.02187131
#
# Stress axis : x y z
#
# Youngs Moduli (GPa) = 39.23517 88.34345 38.98627
#
# Poissons Ratio (x) = 0.70240 0.32507
# Poissons Ratio (y) = 0.31195 0.15610
# Poissons Ratio (z) = 0.32714 0.35373
#
# Static dielectric constant tensor:
#      x y z
#    x 1.610870 0.000000 0.000000 
#    y 0.000000 1.665470 0.000000 
#    z 0.000000 0.000000 1.619630 
# 
# From -- ./inp_files/6496.got.cif
#   From: 2010.05.17/outbox.cif.g08.bks.cpg/sg49_4_cif.got.tgz:6496.got - 2010.06.03 21:02:19.
