data_PCOD9393084
_publ_section_title
;
Structure prediction by ZEFSAII (Michael W. Deem and Ramdas Pophale) SiO2 
 PCOD9393084
Probable space group: P C C M
;
_chemical_formula_sum "Si O2"
_cell_formula_units_Z 56
_cell_length_a 15.678072
_cell_length_b 20.789097
_cell_length_c 8.759581
_cell_angle_alpha 90.000000
_cell_angle_beta 90.000000
_cell_angle_gamma 90.000000
_cell_volume 2855.036160
_symmetry_space_group_name_H-M "P C C M"
_symmetry_group_IT_number 49
_symmetry_cell_setting 'orthorhombic'
loop_
_space_group_symop_operation_xyz
x,y,z
-x,-y,z
x,-y,1/2-z
-x,y,1/2-z
-x,-y,-z
x,y,-z
-x,y,1/2+z
x,-y,1/2+z
loop_
_atom_site_type_symbol
_atom_site_label
_atom_site_fract_x
_atom_site_fract_y
_atom_site_fract_z
Si Si1 0.590953 0.673608 0.318401
Si Si2 0.729569 0.933765 0.183352
Si Si3 0.326888 0.794815 0.677421
Si Si4 0.873020 0.762525 0.178487
Si Si5 0.911636 0.102227 0.180629
Si Si6 0.729626 0.431282 0.183923
Si Si7 0.912380 0.376385 0.816499
O O1 0.500000 0.655443 0.250000
O O2 0.587069 0.670037 0.500000
O O3 0.615351 0.745829 0.269764
O O4 0.665418 0.625023 0.264960
O O5 0.679503 0.868900 0.230216
O O6 0.826542 0.926275 0.243342
O O7 0.694169 0.000000 0.250000
O O8 0.731689 0.935099 0.000000
O O9 0.353144 0.794029 0.500000
O O10 0.229647 0.768677 0.685016
O O11 0.907115 0.822111 0.276425
O O12 0.901649 0.695020 0.247037
O O13 0.898254 0.769041 0.000000
O O14 0.000000 0.077024 0.250000
O O15 0.909345 0.092677 0.000000
O O16 0.704557 0.500000 0.250000
O O17 0.826807 0.414391 0.228212
O O18 0.727064 0.433464 0.000000
O O19 0.000000 0.404288 0.750000
O O20 0.916727 0.372790 0.000000
#
# Coordination Sequence:
#
# PCOD9393084 Si02
#       7
#     8   8   8   8   8   8   8
#     4  11  23  41  66  97 126 156 198 245 301 365
#     4  10  21  37  56  83 115 153 201 243 298 362
#     4   9  19  36  60  88 119 154 195 243 295 355
#     4  10  19  33  54  81 112 151 197 248 304 358
#     4  11  21  33  49  72 107 150 197 253 307 357
#     4  10  24  43  63  88 123 163 204 250 302 363
#     4  11  22  37  56  84 118 158 208 254 302 357
#
# _framework density 19.614463000000001
#
# number of rings (size 3 to 8) (size 9 to 14) (size 15 to 20)
#    0.000    1.714    1.429    4.286    0.000    6.000 
#    0.000    4.286    0.000    0.429    0.000    3.000 
#    0.000    0.000    0.000    0.000    0.000    0.000 
#
# Total GULP energy -312951.424697 kJ/mol
# GULP energy per Si atom -5588.418298 kJ/mol
# Density = 1.956982 g / cm^3
# Si number density = 19.614463 Si / 1000 Ang^3
#
#
#
# Elastic Constant Matrix: (Units=GPa)
#
#
# Indices 1 2 3 4 5 6 
#
# 1 87.9875 42.0832 29.9934 0.0000 0.0000 0.0000
# 2 42.0832 115.6107 27.8733 0.0000 0.0000 0.0000
# 3 29.9934 27.8733 62.9993 0.0000 0.0000 0.0000
# 4 0.0000 0.0000 0.0000 30.4198 0.0000 0.0000
# 5 0.0000 0.0000 0.0000 0.0000 -162.4082 0.0000
# 6 0.0000 0.0000 0.0000 0.0000 0.0000 -3.9591
#
#
#
# Elastic Compliance Matrix: (Units=1/GPa)
#
#
# Indices 1 2 3 4 5 6 
#
# 1 0.015228 -0.004248 -0.005370 0.000000 0.000000 0.000000
# 2 -0.004248 0.010868 -0.002786 0.000000 0.000000 0.000000
# 3 -0.005370 -0.002786 0.019662 0.000000 0.000000 0.000000
# 4 0.000000 0.000000 0.000000 0.032873 0.000000 0.000000
# 5 0.000000 0.000000 0.000000 0.000000 -0.006157 0.000000
# 6 0.000000 0.000000 0.000000 0.000000 0.000000 -0.252582
#
#
# Mechanical properties :
#
#
# Convention : Reuss Voigt Hill
#
# Bulk Modulus (GPa) = 47.73388 51.83304 49.78346
# Shear Modulus (GPa) = -33.71161 -16.07966 -24.89563
#
# Velocity S-wave (km/s) = -4.15023 -2.86630 -3.56652
# Velocity P-wave (km/s) = 1.19289 3.94070 2.91136
#
# Compressibility (1/GPa) = 0.02094948
#
# Stress axis : x y z
#
# Youngs Moduli (GPa) = 65.66952 92.01525 50.85841
#
# Poissons Ratio (x) = 0.39091 0.27312
# Poissons Ratio (y) = 0.27898 0.14168
# Poissons Ratio (z) = 0.35266 0.25633
#
# Static dielectric constant tensor:
#      x y z
#    x 1.692980 0.000000 0.000000 
#    y 0.000000 1.693000 0.000000 
#    z 0.000000 0.000000 1.656240 
# 
# From -- ./inp_files/4000.got.cif
#   From: 2010.05.17/outbox.cif.g08.bks.cpg/sg49_2_cif.got.tgz:4000.got - 2010.06.03 21:02:19.
