data_PCOD9393815
_publ_section_title
;
Structure prediction by ZEFSAII (Michael W. Deem and Ramdas Pophale) SiO2 
 PCOD9393815
Probable space group: P C C M
;
_chemical_formula_sum "Si O2"
_cell_formula_units_Z 64
_cell_length_a 15.412351
_cell_length_b 24.259519
_cell_length_c 8.980111
_cell_angle_alpha 90.000000
_cell_angle_beta 90.000000
_cell_angle_gamma 90.000000
_cell_volume 3357.629575
_symmetry_space_group_name_H-M "P C C M"
_symmetry_group_IT_number 49
_symmetry_cell_setting 'orthorhombic'
loop_
_space_group_symop_operation_xyz
x,y,z
-x,-y,z
x,-y,1/2-z
-x,y,1/2-z
-x,-y,-z
x,y,-z
-x,y,1/2+z
x,-y,1/2+z
loop_
_atom_site_type_symbol
_atom_site_label
_atom_site_fract_x
_atom_site_fract_y
_atom_site_fract_z
Si Si1 0.264272 0.557544 0.179200
Si Si2 0.579493 0.940763 0.671902
Si Si3 0.782804 0.059306 0.827068
Si Si4 0.906905 0.264498 0.323036
Si Si5 0.406709 0.224801 0.321088
Si Si6 0.777518 0.822288 0.318600
Si Si7 0.407839 0.352977 0.678126
Si Si8 0.092907 0.604640 0.677006
O O1 0.293424 0.500000 0.250000
O O2 0.331302 0.605916 0.222409
O O3 0.170173 0.572147 0.244415
O O4 0.260835 0.554071 0.000000
O O5 0.500000 0.909429 0.750000
O O6 0.556409 0.944457 0.500000
O O7 0.679995 0.925905 0.679043
O O8 0.582040 0.000000 0.750000
O O9 0.817357 0.118229 0.769243
O O10 0.798073 0.000000 0.750000
O O11 0.806752 0.052313 0.000000
O O12 0.909109 0.254435 0.500000
O O13 0.835141 0.226877 0.245413
O O14 0.890834 0.329790 0.300166
O O15 0.000000 0.252133 0.250000
O O16 0.500000 0.212254 0.250000
O O17 0.414386 0.218509 0.500000
O O18 0.322551 0.190028 0.272769
O O19 0.388072 0.289137 0.285408
O O20 0.778975 0.821871 0.500000
O O21 0.500000 0.367533 0.750000
O O22 0.416688 0.355989 0.500000
O O23 0.091075 0.594004 0.500000
O O24 0.000000 0.591645 0.750000
#
# Coordination Sequence:
#
# PCOD9393815 Si02
#       8
#     8   8   8   8   8   8   8   8
#     4  11  23  38  56  81 113 150 192 234 277 324
#     4   9  15  24  38  57  82 116 161 207 250 294
#     4   9  19  33  48  68  97 136 177 217 263 317
#     4  10  21  37  60  89 115 140 174 219 272 328
#     4   9  18  33  53  78 108 142 181 226 276 328
#     4  10  20  35  55  79 110 145 180 223 275 326
#     4   9  19  35  55  77 104 142 185 231 281 328
#     4  10  21  38  60  86 115 146 180 220 269 327
#
# _framework density 19.061064999999999
#
# number of rings (size 3 to 8) (size 9 to 14) (size 15 to 20)
#    0.000    2.375    0.000    2.625    0.000    6.000 
#    0.000    5.000    0.000    0.375    0.000    2.625 
#    0.000    0.000    0.000    0.000    0.000    0.000 
#
# Total GULP energy -356777.386596 kJ/mol
# GULP energy per Si atom -5574.646666 kJ/mol
# Density = 1.901768 g / cm^3
# Si number density = 19.061065 Si / 1000 Ang^3
#
#
#
# Elastic Constant Matrix: (Units=GPa)
#
#
# Indices 1 2 3 4 5 6 
#
# 1 54.2980 41.5999 16.8037 0.0000 0.0000 0.0000
# 2 41.5999 103.8933 36.4521 0.0000 0.0000 0.0000
# 3 16.8037 36.4521 49.2233 0.0000 0.0000 0.0000
# 4 0.0000 0.0000 0.0000 53.7981 0.0000 0.0000
# 5 0.0000 0.0000 0.0000 0.0000 30.8867 0.0000
# 6 0.0000 0.0000 0.0000 0.0000 0.0000 -9.5329
#
#
#
# Elastic Compliance Matrix: (Units=1/GPa)
#
#
# Indices 1 2 3 4 5 6 
#
# 1 0.026662 -0.010109 -0.001616 0.000000 0.000000 0.000000
# 2 -0.010109 0.016837 -0.009017 0.000000 0.000000 0.000000
# 3 -0.001616 -0.009017 0.027545 0.000000 0.000000 0.000000
# 4 0.000000 0.000000 0.000000 0.018588 0.000000 0.000000
# 5 0.000000 0.000000 0.000000 0.000000 0.032376 0.000000
# 6 0.000000 0.000000 0.000000 0.000000 0.000000 -0.104900
#
#
# Mechanical properties :
#
#
# Convention : Reuss Voigt Hill
#
# Bulk Modulus (GPa) = 33.83005 44.12511 38.97758
# Shear Modulus (GPa) = 73.05166 22.53430 47.79298
#
# Velocity S-wave (km/s) = 6.19744 3.44207 5.01279
# Velocity P-wave (km/s) = 8.30649 6.24473 7.34828
#
# Compressibility (1/GPa) = 0.02955952
#
# Stress axis : x y z
#
# Youngs Moduli (GPa) = 37.50725 59.39397 36.30421
#
# Poissons Ratio (x) = 0.60039 0.05866
# Poissons Ratio (y) = 0.37915 0.32737
# Poissons Ratio (z) = 0.06060 0.53558
#
# Static dielectric constant tensor:
#      x y z
#    x 1.750020 0.000000 0.000000 
#    y 0.000000 1.710040 0.000000 
#    z 0.000000 0.000000 1.675510 
# 
# From -- ./inp_files/4365.got.cif
#   From: 2010.05.17/outbox.cif.g08.bks.cpg/sg49_3_cif.got.tgz:4365.got - 2010.06.03 21:02:19.
