data_PCOD9393920
_publ_section_title
;
Structure prediction by ZEFSAII (Michael W. Deem and Ramdas Pophale) SiO2 
 PCOD9393920
Probable space group: P C C M
;
_chemical_formula_sum "Si O2"
_cell_formula_units_Z 64
_cell_length_a 19.608960
_cell_length_b 12.701767
_cell_length_c 14.239815
_cell_angle_alpha 90.000000
_cell_angle_beta 90.000000
_cell_angle_gamma 90.000000
_cell_volume 3546.688523
_symmetry_space_group_name_H-M "P C C M"
_symmetry_group_IT_number 49
_symmetry_cell_setting 'orthorhombic'
loop_
_space_group_symop_operation_xyz
x,y,z
-x,-y,z
x,-y,1/2-z
-x,y,1/2-z
-x,-y,-z
x,y,-z
-x,y,1/2+z
x,-y,1/2+z
loop_
_atom_site_type_symbol
_atom_site_label
_atom_site_fract_x
_atom_site_fract_y
_atom_site_fract_z
Si Si1 0.066107 0.949592 0.646729
Si Si2 0.996486 0.723764 0.890086
Si Si3 0.313119 0.207008 0.112175
Si Si4 0.420777 0.873566 0.249829
Si Si5 0.695841 0.801820 0.386830
Si Si6 0.256530 0.374166 0.248745
Si Si7 0.223026 0.990298 0.607705
Si Si8 0.096132 0.622934 0.262837
O O1 0.042819 0.829381 0.642568
O O2 0.141744 0.973688 0.610995
O O3 0.068622 0.000000 0.750000
O O4 0.000000 0.000000 0.598348
O O5 0.937315 0.642199 0.864449
O O6 0.057666 0.690099 0.819438
O O7 0.014921 0.728662 0.000000
O O8 0.384204 0.171110 0.157371
O O9 0.291219 0.315556 0.160805
O O10 0.260550 0.114201 0.144614
O O11 0.313884 0.214644 0.000000
O O12 0.500000 0.843584 0.250000
O O13 0.376012 0.832768 0.161661
O O14 0.416173 0.000000 0.250000
O O15 0.692688 0.794972 0.500000
O O16 0.718700 0.691937 0.339659
O O17 0.748661 0.896889 0.357938
O O18 0.269057 0.500000 0.250000
O O19 0.175722 0.355437 0.240345
O O20 0.244130 0.992073 0.500000
O O21 0.085131 0.500000 0.250000
#
# Coordination Sequence:
#
# PCOD9393920 Si02
#       8
#     8   8   8   8   8   8   8   8
#     4  11  24  35  51  76 110 149 190 241 291 345
#     4  11  23  38  56  79 107 145 191 240 304 370
#     4  10  21  38  61  89 122 159 194 239 296 356
#     4  10  20  35  60  95 131 164 194 233 286 350
#     4  10  22  38  60  89 125 163 198 243 298 356
#     4  10  23  39  60  87 114 153 207 257 301 351
#     4  10  21  35  55  84 113 152 197 238 296 364
#     4  10  22  40  59  81 109 144 192 254 311 354
#
# _framework density 18.045002
#
# number of rings (size 3 to 8) (size 9 to 14) (size 15 to 20)
#    0.000    1.750    1.250    3.375    7.000    5.000 
#    0.000    3.750    0.000    6.000    0.000    7.000 
#    0.000    0.000    0.000    0.000    0.000    0.000 
#
# Total GULP energy -356453.872736 kJ/mol
# GULP energy per Si atom -5569.591762 kJ/mol
# Density = 1.800393 g / cm^3
# Si number density = 18.045002 Si / 1000 Ang^3
#
#
#
# Elastic Constant Matrix: (Units=GPa)
#
#
# Indices 1 2 3 4 5 6 
#
# 1 133.3837 56.1415 32.7907 0.0000 0.0000 0.0000
# 2 56.1415 84.2480 27.1598 0.0000 0.0000 0.0000
# 3 32.7907 27.1598 129.0860 0.0000 0.0000 0.0000
# 4 0.0000 0.0000 0.0000 21.9452 0.0000 0.0000
# 5 0.0000 0.0000 0.0000 0.0000 30.8572 0.0000
# 6 0.0000 0.0000 0.0000 0.0000 0.0000 -56.5573
#
#
#
# Elastic Compliance Matrix: (Units=1/GPa)
#
#
# Indices 1 2 3 4 5 6 
#
# 1 0.010618 -0.006658 -0.001296 0.000000 0.000000 0.000000
# 2 -0.006658 0.016908 -0.001866 0.000000 0.000000 0.000000
# 3 -0.001296 -0.001866 0.008469 0.000000 0.000000 0.000000
# 4 0.000000 0.000000 0.000000 0.045568 0.000000 0.000000
# 5 0.000000 0.000000 0.000000 0.000000 0.032407 0.000000
# 6 0.000000 0.000000 0.000000 0.000000 0.000000 -0.017681
#
#
# Mechanical properties :
#
#
# Convention : Reuss Voigt Hill
#
# Bulk Modulus (GPa) = 61.14728 64.32240 62.73484
# Shear Modulus (GPa) = 41.19243 14.62406 27.90825
#
# Velocity S-wave (km/s) = 4.78301 2.84988 3.93694
# Velocity P-wave (km/s) = 8.02885 6.82290 7.45032
#
# Compressibility (1/GPa) = 0.01635396
#
# Stress axis : x y z
#
# Youngs Moduli (GPa) = 94.17809 59.14350 118.08111
#
# Poissons Ratio (x) = 0.39377 0.15308
# Poissons Ratio (y) = 0.62702 0.22037
# Poissons Ratio (z) = 0.12210 0.11038
#
# Static dielectric constant tensor:
#      x y z
#    x 1.593270 0.000000 0.000000 
#    y 0.000000 1.500110 0.000000 
#    z 0.000000 0.000000 1.646330 
# 
# From -- ./inp_files/14175.got.cif
#   From: 2010.05.17/outbox.cif.g08.bks.cpg/sg49_8_cif.got.tgz:14175.got - 2010.06.03 21:02:19.
