data_PCOD9393382
_publ_section_title
;
Structure prediction by ZEFSAII (Michael W. Deem and Ramdas Pophale) SiO2 
 PCOD9393382
Probable space group: P C C M
;
_chemical_formula_sum "Si O2"
_cell_formula_units_Z 56
_cell_length_a 16.797489
_cell_length_b 9.487866
_cell_length_c 18.791145
_cell_angle_alpha 90.000000
_cell_angle_beta 90.000000
_cell_angle_gamma 90.000000
_cell_volume 2994.788464
_symmetry_space_group_name_H-M "P C C M"
_symmetry_group_IT_number 49
_symmetry_cell_setting 'orthorhombic'
loop_
_space_group_symop_operation_xyz
x,y,z
-x,-y,z
x,-y,1/2-z
-x,y,1/2-z
-x,-y,-z
x,y,-z
-x,y,1/2+z
x,-y,1/2+z
loop_
_atom_site_type_symbol
_atom_site_label
_atom_site_fract_x
_atom_site_fract_y
_atom_site_fract_z
Si Si1 0.697455 0.264002 0.582101
Si Si2 0.926196 0.081437 0.825817
Si Si3 0.519537 0.659921 0.913428
Si Si4 0.926156 0.414849 0.176051
Si Si5 0.771832 0.426896 0.920118
Si Si6 0.246043 0.988965 0.664955
Si Si7 0.640205 0.189763 0.084672
O O1 0.698078 0.209136 0.500000
O O2 0.606156 0.283236 0.607031
O O3 0.734712 0.418487 0.580164
O O4 0.748401 0.168430 0.635051
O O5 0.943383 0.247457 0.816012
O O6 0.838194 0.058973 0.858136
O O7 0.919594 0.000000 0.750000
O O8 0.000000 0.000000 0.862813
O O9 0.500000 0.500000 0.889362
O O10 0.447581 0.762381 0.892799
O O11 0.520412 0.654032 0.000000
O O12 0.914789 0.500000 0.250000
O O13 0.845225 0.421060 0.132500
O O14 0.000000 0.500000 0.141205
O O15 0.700335 0.320155 0.903679
O O16 0.800008 0.392852 0.000000
O O17 0.320620 0.064564 0.628113
O O18 0.252514 0.000000 0.750000
O O19 0.638512 0.159159 0.000000
#
# Coordination Sequence:
#
# PCOD9393382 Si02
#       7
#     8   8   8   8   8   8   8
#     4  10  21  37  60  88 114 149 193 239 285 341
#     4  10  21  38  57  82 115 149 189 235 283 327
#     4   9  16  32  60  88 111 144 195 242 281 332
#     4  11  23  37  63  90 111 149 199 240 276 340
#     4  10  21  36  59  87 120 147 180 241 296 337
#     4  11  24  38  58  83 116 156 190 233 283 342
#     4  10  19  37  61  85 115 150 189 236 287 338
#
# _framework density 18.699149999999999
#
# number of rings (size 3 to 8) (size 9 to 14) (size 15 to 20)
#    0.000    1.857    2.857    2.143    6.000    0.857 
#    0.000    3.571    0.000    3.000    0.000    0.000 
#    0.000    0.000    0.000    0.000    0.000    0.000 
#
# Total GULP energy -312244.402756 kJ/mol
# GULP energy per Si atom -5575.792906 kJ/mol
# Density = 1.865659 g / cm^3
# Si number density = 18.699150 Si / 1000 Ang^3
#
#
#
# Elastic Constant Matrix: (Units=GPa)
#
#
# Indices 1 2 3 4 5 6 
#
# 1 107.2726 15.7500 22.0981 0.0000 0.0000 0.0000
# 2 15.7500 80.9563 4.2219 0.0000 0.0000 0.0000
# 3 22.0981 4.2219 25.5950 0.0000 0.0000 0.0000
# 4 0.0000 0.0000 0.0000 22.2995 0.0000 0.0000
# 5 0.0000 0.0000 0.0000 0.0000 21.8337 0.0000
# 6 0.0000 0.0000 0.0000 0.0000 0.0000 25.9066
#
#
#
# Elastic Compliance Matrix: (Units=1/GPa)
#
#
# Indices 1 2 3 4 5 6 
#
# 1 0.011578 -0.001746 -0.009708 0.000000 0.000000 0.000000
# 2 -0.001746 0.012723 -0.000591 0.000000 0.000000 0.000000
# 3 -0.009708 -0.000591 0.047550 0.000000 0.000000 0.000000
# 4 0.000000 0.000000 0.000000 0.044844 0.000000 0.000000
# 5 0.000000 0.000000 0.000000 0.000000 0.045801 0.000000
# 6 0.000000 0.000000 0.000000 0.000000 0.000000 0.038600
#
#
# Mechanical properties :
#
#
# Convention : Reuss Voigt Hill
#
# Bulk Modulus (GPa) = 20.93824 33.10710 27.02267
# Shear Modulus (GPa) = 20.73770 25.45823 23.09797
#
# Velocity S-wave (km/s) = 3.33381 3.69381 3.51841
# Velocity P-wave (km/s) = 5.10301 5.99465 5.56671
#
# Compressibility (1/GPa) = 0.04775950
#
# Stress axis : x y z
#
# Youngs Moduli (GPa) = 86.36801 78.59840 21.03071
#
# Poissons Ratio (x) = 0.13725 0.20417
# Poissons Ratio (y) = 0.15082 0.01243
# Poissons Ratio (z) = 0.83850 0.04645
#
# Static dielectric constant tensor:
#      x y z
#    x 1.674130 0.000000 0.000000 
#    y 0.000000 1.679670 0.000000 
#    z 0.000000 0.000000 1.644010 
# 
# From -- ./inp_files/20872.got.cif
#   From: 2010.05.17/outbox.cif.g08.bks.cpg/sg49_11_cif.got.tgz:20872.got - 2010.06.03 21:02:19.
