data_PCOD9393267
_publ_section_title
;
Structure prediction by ZEFSAII (Michael W. Deem and Ramdas Pophale) SiO2 
 PCOD9393267
Probable space group: P C C M
;
_chemical_formula_sum "Si O2"
_cell_formula_units_Z 52
_cell_length_a 15.784708
_cell_length_b 18.817451
_cell_length_c 9.667757
_cell_angle_alpha 90.000000
_cell_angle_beta 90.000000
_cell_angle_gamma 90.000000
_cell_volume 2871.594230
_symmetry_space_group_name_H-M "P C C M"
_symmetry_group_IT_number 49
_symmetry_cell_setting 'orthorhombic'
loop_
_space_group_symop_operation_xyz
x,y,z
-x,-y,z
x,-y,1/2-z
-x,y,1/2-z
-x,-y,-z
x,y,-z
-x,y,1/2+z
x,-y,1/2+z
loop_
_atom_site_type_symbol
_atom_site_label
_atom_site_fract_x
_atom_site_fract_y
_atom_site_fract_z
Si Si1 0.766192 0.793511 0.165461
Si Si2 0.657254 0.069556 0.342077
Si Si3 0.624343 0.722809 0.654974
Si Si4 0.627500 0.565643 0.660162
Si Si5 0.170205 0.433141 0.338565
Si Si6 0.500000 0.162387 0.250000
Si Si7 0.912333 0.278931 0.832830
O O1 0.731495 0.873470 0.186834
O O2 0.691461 0.744389 0.228203
O O3 0.847275 0.774583 0.257543
O O4 0.777895 0.782164 0.000000
O O5 0.663684 0.047148 0.500000
O O6 0.569488 0.112504 0.321266
O O7 0.659663 0.000000 0.250000
O O8 0.664126 0.720132 0.500000
O O9 0.590697 0.643923 0.683819
O O10 0.553040 0.783306 0.655343
O O11 0.597178 0.500000 0.750000
O O12 0.616130 0.547402 0.500000
O O13 0.728825 0.574836 0.686694
O O14 0.139184 0.500000 0.250000
O O15 0.159182 0.449695 0.500000
O O16 0.124854 0.358521 0.310609
O O17 0.000000 0.273577 0.750000
O O18 0.919219 0.267827 0.000000
#
# Coordination Sequence:
#
# PCOD9393267 Si02
#       7
#     8   8   8   8   8   4   8
#     4  10  21  37  57  83 112 144 186 228 270 328
#     4  10  22  38  58  87 117 146 180 216 264 326
#     4  10  19  35  56  77 108 147 188 233 280 332
#     4   9  17  31  50  73  99 138 188 235 282 331
#     4   9  18  32  50  74 106 142 186 232 281 334
#     4  10  21  34  57  86 116 148 182 224 271 324
#     4  11  22  37  56  82 114 149 189 232 280 330
#
# _framework density 18.108408000000001
#
# number of rings (size 3 to 8) (size 9 to 14) (size 15 to 20)
#    0.000    2.154    1.538    1.615    0.000    7.077 
#    0.000    1.923    0.000    2.308    0.000    3.231 
#    0.000    0.000    0.000    0.000    0.000    0.000 
#
# Total GULP energy -290036.812532 kJ/mol
# GULP energy per Si atom -5577.631010 kJ/mol
# Density = 1.806719 g / cm^3
# Si number density = 18.108408 Si / 1000 Ang^3
#
#
#
# Elastic Constant Matrix: (Units=GPa)
#
#
# Indices 1 2 3 4 5 6 
#
# 1 98.6141 47.6425 66.6495 0.0000 0.0000 0.0000
# 2 47.6425 139.8284 90.9817 0.0000 0.0000 0.0000
# 3 66.6495 90.9817 112.6754 0.0000 0.0000 0.0000
# 4 0.0000 0.0000 0.0000 32.0980 0.0000 0.0000
# 5 0.0000 0.0000 0.0000 0.0000 57.6829 0.0000
# 6 0.0000 0.0000 0.0000 0.0000 0.0000 26.2079
#
#
#
# Elastic Compliance Matrix: (Units=1/GPa)
#
#
# Indices 1 2 3 4 5 6 
#
# 1 0.017060 0.001587 -0.011373 0.000000 0.000000 0.000000
# 2 0.001587 0.015216 -0.013226 0.000000 0.000000 0.000000
# 3 -0.011373 -0.013226 0.026282 0.000000 0.000000 0.000000
# 4 0.000000 0.000000 0.000000 0.031155 0.000000 0.000000
# 5 0.000000 0.000000 0.000000 0.000000 0.017336 0.000000
# 6 0.000000 0.000000 0.000000 0.000000 0.000000 0.038157
#
#
# Mechanical properties :
#
#
# Convention : Reuss Voigt Hill
#
# Bulk Modulus (GPa) = 79.77382 84.62950 82.20166
# Shear Modulus (GPa) = 25.58763 32.92070 29.25417
#
# Velocity S-wave (km/s) = 3.76310 4.26840 4.02369
# Velocity P-wave (km/s) = 7.93916 8.43378 8.19021
#
# Compressibility (1/GPa) = 0.01253544
#
# Stress axis : x y z
#
# Youngs Moduli (GPa) = 58.61522 65.71949 38.04924
#
# Poissons Ratio (x) = -0.10432 0.43274
# Poissons Ratio (y) = -0.09304 0.50322
# Poissons Ratio (z) = 0.66665 0.86918
#
# Static dielectric constant tensor:
#      x y z
#    x 1.647340 0.000000 0.000000 
#    y 0.000000 1.611680 0.000000 
#    z 0.000000 0.000000 1.613450 
# 
# From -- ./inp_files/3936.got.cif
#   From: 2010.05.17/outbox.cif.g08.bks.cpg/sg49_2_cif.got.tgz:3936.got - 2010.06.03 21:02:19.
