data_PCOD9393861
_publ_section_title
;
Structure prediction by ZEFSAII (Michael W. Deem and Ramdas Pophale) SiO2 
 PCOD9393861
Probable space group: P C C M
;
_chemical_formula_sum "Si O2"
_cell_formula_units_Z 32
_cell_length_a 11.718508
_cell_length_b 8.538720
_cell_length_c 17.387872
_cell_angle_alpha 90.000000
_cell_angle_beta 90.000000
_cell_angle_gamma 90.000000
_cell_volume 1739.848880
_symmetry_space_group_name_H-M "P C C M"
_symmetry_group_IT_number 49
_symmetry_cell_setting 'orthorhombic'
loop_
_space_group_symop_operation_xyz
x,y,z
-x,-y,z
x,-y,1/2-z
-x,y,1/2-z
-x,-y,-z
x,y,-z
-x,y,1/2+z
x,-y,1/2+z
loop_
_atom_site_type_symbol
_atom_site_label
_atom_site_fract_x
_atom_site_fract_y
_atom_site_fract_z
Si Si1 0.370346 0.184119 0.766935
Si Si2 0.999245 0.182343 0.590160
Si Si3 0.255651 0.319566 0.911784
Si Si4 0.817575 0.612138 0.679806
O O1 0.500000 0.233091 0.750000
O O2 0.337963 0.227870 0.854095
O O3 0.279190 0.276170 0.715044
O O4 0.360342 0.000000 0.750000
O O5 0.034759 0.192828 0.500000
O O6 0.081871 0.287425 0.642023
O O7 0.870378 0.244132 0.595102
O O8 0.000000 0.000000 0.612953
O O9 0.238883 0.496697 0.882528
O O10 0.291969 0.312236 0.000000
O O11 0.857056 0.500000 0.750000
#
# Coordination Sequence:
#
# PCOD9393861 Si02
#       4
#     8   8   8   8
#     4  10  22  41  60  80 109 146 189 234 276 324
#     4  10  20  35  56  83 115 147 182 226 274 327
#     4  10  21  37  58  84 115 147 182 226 277 332
#     4  10  21  35  55  82 112 148 185 226 276 329
#
# _framework density 18.392403000000002
#
# number of rings (size 3 to 8) (size 9 to 14) (size 15 to 20)
#    0.000    2.000    0.000    3.000    0.000   13.500 
#    0.000   13.750    0.000    0.000    0.000    0.000 
#    0.000    0.000    0.000    0.000    0.000    0.000 
#
# Total GULP energy -178798.182220 kJ/mol
# GULP energy per Si atom -5587.443194 kJ/mol
# Density = 1.835054 g / cm^3
# Si number density = 18.392403 Si / 1000 Ang^3
#
#
#
# Elastic Constant Matrix: (Units=GPa)
#
#
# Indices 1 2 3 4 5 6 
#
# 1 98.3521 48.4646 81.7484 0.0000 0.0000 0.0000
# 2 48.4646 101.9253 69.1682 0.0000 0.0000 0.0000
# 3 81.7484 69.1682 155.0021 0.0000 0.0000 0.0000
# 4 0.0000 0.0000 0.0000 21.1949 0.0000 0.0000
# 5 0.0000 0.0000 0.0000 0.0000 23.2201 0.0000
# 6 0.0000 0.0000 0.0000 0.0000 0.0000 61.8144
#
#
#
# Elastic Compliance Matrix: (Units=1/GPa)
#
#
# Indices 1 2 3 4 5 6 
#
# 1 0.018791 -0.003169 -0.008496 0.000000 0.000000 0.000000
# 2 -0.003169 0.014607 -0.004847 0.000000 0.000000 0.000000
# 3 -0.008496 -0.004847 0.013095 0.000000 0.000000 0.000000
# 4 0.000000 0.000000 0.000000 0.047181 0.000000 0.000000
# 5 0.000000 0.000000 0.000000 0.000000 0.043066 0.000000
# 6 0.000000 0.000000 0.000000 0.000000 0.000000 0.016177
#
#
# Mechanical properties :
#
#
# Convention : Reuss Voigt Hill
#
# Bulk Modulus (GPa) = 74.24489 83.78241 79.01365
# Shear Modulus (GPa) = 26.25597 31.63910 28.94753
#
# Velocity S-wave (km/s) = 3.78238 4.15206 3.97153
# Velocity P-wave (km/s) = 7.71557 8.28479 8.00524
#
# Compressibility (1/GPa) = 0.01346894
#
# Stress axis : x y z
#
# Youngs Moduli (GPa) = 53.21633 68.45921 76.36335
#
# Poissons Ratio (x) = 0.21697 0.64880
# Poissons Ratio (y) = 0.16866 0.37012
# Poissons Ratio (z) = 0.45214 0.33181
#
# Static dielectric constant tensor:
#      x y z
#    x 1.599080 0.000000 0.000000 
#    y 0.000000 1.627840 0.000000 
#    z 0.000000 0.000000 1.643410 
# 
# From -- ./inp_files/11158.got.cif
#   From: 2010.05.17/outbox.cif.g08.bks.cpg/sg49_6_cif.got.tgz:11158.got - 2010.06.03 21:02:19.
