data_PCOD9393564
_publ_section_title
;
Structure prediction by ZEFSAII (Michael W. Deem and Ramdas Pophale) SiO2 
 PCOD9393564
Probable space group: P C C M
;
_chemical_formula_sum "Si O2"
_cell_formula_units_Z 56
_cell_length_a 22.847966
_cell_length_b 15.308836
_cell_length_c 8.720205
_cell_angle_alpha 90.000000
_cell_angle_beta 90.000000
_cell_angle_gamma 90.000000
_cell_volume 3050.116370
_symmetry_space_group_name_H-M "P C C M"
_symmetry_group_IT_number 49
_symmetry_cell_setting 'orthorhombic'
loop_
_space_group_symop_operation_xyz
x,y,z
-x,-y,z
x,-y,1/2-z
-x,y,1/2-z
-x,-y,-z
x,y,-z
-x,y,1/2+z
x,-y,1/2+z
loop_
_atom_site_type_symbol
_atom_site_label
_atom_site_fract_x
_atom_site_fract_y
_atom_site_fract_z
Si Si1 0.660464 0.593824 0.685024
Si Si2 0.257774 0.094651 0.182243
Si Si3 0.560995 0.272478 0.183288
Si Si4 0.602690 0.906365 0.181390
Si Si5 0.935054 0.093715 0.316654
Si Si6 0.161900 0.219800 0.315995
Si Si7 0.204360 0.593573 0.815322
O O1 0.642275 0.500000 0.750000
O O2 0.659776 0.590988 0.500000
O O3 0.615875 0.668751 0.735387
O O4 0.727851 0.608620 0.733269
O O5 0.327321 0.105074 0.207364
O O6 0.220570 0.169084 0.264955
O O7 0.241187 0.000000 0.250000
O O8 0.246362 0.096246 0.000000
O O9 0.500000 0.306461 0.250000
O O10 0.570778 0.174168 0.240159
O O11 0.558813 0.273908 0.000000
O O12 0.585818 0.000000 0.250000
O O13 0.592092 0.905601 0.000000
O O14 0.937191 0.088700 0.500000
O O15 0.891353 0.168762 0.261757
O O16 0.000000 0.108368 0.250000
O O17 0.914828 0.000000 0.250000
O O18 0.156453 0.215176 0.500000
O O19 0.167702 0.321228 0.269653
O O20 0.185388 0.500000 0.750000
O O21 0.203649 0.588661 0.000000
#
# Coordination Sequence:
#
# PCOD9393564 Si02
#       7
#     8   8   8   8   8   8   8
#     4   9  19  36  57  80 106 138 172 213 265 321
#     4  10  20  33  51  78 109 140 174 216 265 320
#     4  11  23  38  55  76 103 134 174 219 265 317
#     4  10  21  37  56  77 103 136 174 216 266 319
#     4  11  22  38  58  82 114 152 192 231 271 316
#     4  11  21  34  54  81 113 148 184 224 269 317
#     4   9  19  35  56  81 109 140 176 218 267 320
#
# _framework density 18.359956
#
# number of rings (size 3 to 8) (size 9 to 14) (size 15 to 20)
#    0.000    1.857    0.000    4.714    0.000    5.714 
#    0.000    5.714    0.000    0.429    0.000    3.000 
#    0.000    0.000    0.000    0.000    0.000    0.000 
#
# Total GULP energy -312903.583523 kJ/mol
# GULP energy per Si atom -5587.563991 kJ/mol
# Density = 1.831817 g / cm^3
# Si number density = 18.359956 Si / 1000 Ang^3
#
#
#
# Elastic Constant Matrix: (Units=GPa)
#
#
# Indices 1 2 3 4 5 6 
#
# 1 54.6505 59.4452 37.1406 0.0000 0.0000 0.0000
# 2 59.4452 148.1717 41.5328 0.0000 0.0000 0.0000
# 3 37.1406 41.5328 69.9699 0.0000 0.0000 0.0000
# 4 0.0000 0.0000 0.0000 30.9224 0.0000 0.0000
# 5 0.0000 0.0000 0.0000 0.0000 30.1376 0.0000
# 6 0.0000 0.0000 0.0000 0.0000 0.0000 30.2995
#
#
#
# Elastic Compliance Matrix: (Units=1/GPa)
#
#
# Indices 1 2 3 4 5 6 
#
# 1 0.042351 -0.012823 -0.014869 0.000000 0.000000 0.000000
# 2 -0.012823 0.011979 -0.000304 0.000000 0.000000 0.000000
# 3 -0.014869 -0.000304 0.022365 0.000000 0.000000 0.000000
# 4 0.000000 0.000000 0.000000 0.032339 0.000000 0.000000
# 5 0.000000 0.000000 0.000000 0.000000 0.033181 0.000000
# 6 0.000000 0.000000 0.000000 0.000000 0.000000 0.033004
#
#
# Mechanical properties :
#
#
# Convention : Reuss Voigt Hill
#
# Bulk Modulus (GPa) = 48.30172 61.00324 54.65248
# Shear Modulus (GPa) = 20.99867 27.25014 24.12441
#
# Velocity S-wave (km/s) = 3.38556 3.85673 3.62880
# Velocity P-wave (km/s) = 6.45353 7.28909 6.88400
#
# Compressibility (1/GPa) = 0.02070320
#
# Stress axis : x y z
#
# Youngs Moduli (GPa) = 23.61213 83.48243 44.71362
#
# Poissons Ratio (x) = 1.07051 0.66484
# Poissons Ratio (y) = 0.30278 0.01358
# Poissons Ratio (z) = 0.35108 0.02535
#
# Static dielectric constant tensor:
#      x y z
#    x 1.636940 0.000000 0.000000 
#    y 0.000000 1.613010 0.000000 
#    z 0.000000 0.000000 1.614450 
# 
# From -- ./inp_files/4049.got.cif
#   From: 2010.05.17/outbox.cif.g08.bks.cpg/sg49_3_cif.got.tgz:4049.got - 2010.06.03 21:02:19.
