data_PCOD9393068
_publ_section_title
;
Structure prediction by ZEFSAII (Michael W. Deem and Ramdas Pophale) SiO2 
 PCOD9393068
Probable space group: P C C M
;
_chemical_formula_sum "Si O2"
_cell_formula_units_Z 58
_cell_length_a 7.335081
_cell_length_b 14.148480
_cell_length_c 30.512510
_cell_angle_alpha 90.000000
_cell_angle_beta 90.000000
_cell_angle_gamma 90.000000
_cell_volume 3166.595819
_symmetry_space_group_name_H-M "P C C M"
_symmetry_group_IT_number 49
_symmetry_cell_setting 'orthorhombic'
loop_
_space_group_symop_operation_xyz
x,y,z
-x,-y,z
x,-y,1/2-z
-x,y,1/2-z
-x,-y,-z
x,y,-z
-x,y,1/2+z
x,-y,1/2+z
loop_
_atom_site_type_symbol
_atom_site_label
_atom_site_fract_x
_atom_site_fract_y
_atom_site_fract_z
Si Si1 0.072233 0.741079 0.372211
Si Si2 0.500000 0.000000 0.250000
Si Si3 0.021712 0.387653 0.551191
Si Si4 0.663903 0.154468 0.310996
Si Si5 0.220907 0.669754 0.251367
Si Si6 0.661275 0.733347 0.341708
Si Si7 0.811320 0.548360 0.175352
Si Si8 0.372615 0.423100 0.598540
O O1 0.192696 0.826121 0.351171
O O2 0.131306 0.647892 0.345694
O O3 0.079786 0.694772 0.421213
O O4 0.858565 0.758547 0.361543
O O5 0.368655 0.938966 0.282252
O O6 0.983128 0.380376 0.500000
O O7 0.232768 0.378868 0.564419
O O8 0.000000 0.500000 0.564140
O O9 0.717042 0.234578 0.275483
O O10 0.465373 0.179803 0.330042
O O11 0.296702 0.675281 0.202561
O O12 0.288855 0.582683 0.281007
O O13 0.000000 0.668940 0.250000
O O14 0.549562 0.665751 0.374919
O O15 0.719164 0.484564 0.138103
O O16 0.000000 0.500000 0.188457
O O17 0.500000 0.500000 0.576191
#
# Coordination Sequence:
#
# PCOD9393068 Si02
#       8
#     8   2   8   8   8   8   8   8
#     4  10  19  37  55  73 109 149 183 230 283 323
#     4  12  24  40  62  84 112 138 188 244 290 352
#     4  10  19  33  54  78 109 151 197 233 276 331
#     4  11  23  37  56  76 106 141 177 232 283 341
#     4  11  19  32  49  69 104 145 184 230 267 312
#     4  11  20  34  49  71 101 145 185 223 275 321
#     4  11  17  30  44  69 100 144 192 223 259 305
#     4  11  20  30  47  71 105 148 188 232 270 317
#
# _framework density 18.316199999999998
#
# number of rings (size 3 to 8) (size 9 to 14) (size 15 to 20)
#    0.000    1.241    8.276    1.655    0.000    2.207 
#    0.000    3.793    0.000    0.000    0.000    0.483 
#    0.000    4.414    0.000    0.000    0.000    0.000 
#
# Total GULP energy -322958.212826 kJ/mol
# GULP energy per Si atom -5568.245049 kJ/mol
# Density = 1.827451 g / cm^3
# Si number density = 18.316200 Si / 1000 Ang^3
#
#
#
# Elastic Constant Matrix: (Units=GPa)
#
#
# Indices 1 2 3 4 5 6 
#
# 1 66.8291 21.0796 18.9602 0.0000 0.0000 0.0000
# 2 21.0796 64.9843 26.5064 0.0000 0.0000 0.0000
# 3 18.9602 26.5064 79.4721 0.0000 0.0000 0.0000
# 4 0.0000 0.0000 0.0000 18.0658 0.0000 0.0000
# 5 0.0000 0.0000 0.0000 0.0000 12.6032 0.0000
# 6 0.0000 0.0000 0.0000 0.0000 0.0000 22.4492
#
#
#
# Elastic Compliance Matrix: (Units=1/GPa)
#
#
# Indices 1 2 3 4 5 6 
#
# 1 0.017115 -0.004498 -0.002583 0.000000 0.000000 0.000000
# 2 -0.004498 0.018994 -0.005262 0.000000 0.000000 0.000000
# 3 -0.002583 -0.005262 0.014954 0.000000 0.000000 0.000000
# 4 0.000000 0.000000 0.000000 0.055353 0.000000 0.000000
# 5 0.000000 0.000000 0.000000 0.000000 0.079345 0.000000
# 6 0.000000 0.000000 0.000000 0.000000 0.000000 0.044545
#
#
# Mechanical properties :
#
#
# Convention : Reuss Voigt Hill
#
# Bulk Modulus (GPa) = 37.91171 38.26421 38.08796
# Shear Modulus (GPa) = 18.95484 20.27294 19.61389
#
# Velocity S-wave (km/s) = 3.22043 3.33052 3.27593
# Velocity P-wave (km/s) = 5.87976 5.97713 5.92864
#
# Compressibility (1/GPa) = 0.02637708
#
# Stress axis : x y z
#
# Youngs Moduli (GPa) = 58.42755 52.64907 66.87067
#
# Poissons Ratio (x) = 0.23683 0.17273
# Poissons Ratio (y) = 0.26282 0.35186
# Poissons Ratio (z) = 0.15092 0.27703
#
# Static dielectric constant tensor:
#      x y z
#    x 1.739310 0.000000 0.000000 
#    y 0.000000 1.641400 0.000000 
#    z 0.000000 0.000000 1.681410 
# 
# From -- ./inp_files/26413.got.cif
#   From: 2010.05.17/outbox.cif.g08.bks.cpg/sg49_14_cif.got.tgz:26413.got - 2010.06.03 21:02:19.
