data_PCOD9393658
_publ_section_title
;
Structure prediction by ZEFSAII (Michael W. Deem and Ramdas Pophale) SiO2 
 PCOD9393658
Probable space group: P C C M
;
_chemical_formula_sum "Si O2"
_cell_formula_units_Z 48
_cell_length_a 19.112690
_cell_length_b 14.773828
_cell_length_c 9.018663
_cell_angle_alpha 90.000000
_cell_angle_beta 90.000000
_cell_angle_gamma 90.000000
_cell_volume 2546.578179
_symmetry_space_group_name_H-M "P C C M"
_symmetry_group_IT_number 49
_symmetry_cell_setting 'orthorhombic'
loop_
_space_group_symop_operation_xyz
x,y,z
-x,-y,z
x,-y,1/2-z
-x,y,1/2-z
-x,-y,-z
x,y,-z
-x,y,1/2+z
x,-y,1/2+z
loop_
_atom_site_type_symbol
_atom_site_label
_atom_site_fract_x
_atom_site_fract_y
_atom_site_fract_z
Si Si1 0.926991 0.856437 0.671731
Si Si2 0.930493 0.362621 0.168036
Si Si3 0.222415 0.095799 0.820617
Si Si4 0.576677 0.402207 0.179463
Si Si5 0.319484 0.737112 0.330201
Si Si6 0.792309 0.580603 0.165563
O O1 0.924617 0.888020 0.500000
O O2 0.928541 0.746960 0.669833
O O3 0.855466 0.882318 0.756716
O O4 0.000000 0.885822 0.750000
O O5 0.863017 0.397679 0.250715
O O6 0.000000 0.391783 0.250000
O O7 0.931373 0.393348 0.000000
O O8 0.282225 0.169783 0.780127
O O9 0.242074 0.000000 0.750000
O O10 0.218374 0.093571 0.000000
O O11 0.598317 0.500000 0.250000
O O12 0.500000 0.386314 0.250000
O O13 0.625050 0.317751 0.230605
O O14 0.574792 0.409412 0.000000
O O15 0.346507 0.748137 0.500000
O O16 0.254267 0.668861 0.337289
O O17 0.754587 0.500000 0.250000
O O18 0.807064 0.550992 0.000000
#
# Coordination Sequence:
#
# PCOD9393658 Si02
#       6
#     8   8   8   8   8   8
#     4  10  20  35  57  82 110 146 192 247 307 364
#     4  10  20  34  53  75 103 141 186 236 289 346
#     4  11  23  40  61  87 118 153 197 248 301 359
#     4  11  22  38  64  96 132 166 201 238 281 337
#     4  10  22  40  61  86 120 157 193 238 291 345
#     4  11  22  36  54  79 110 146 189 234 285 342
#
# _framework density 18.848821999999998
#
# number of rings (size 3 to 8) (size 9 to 14) (size 15 to 20)
#    0.000    1.500    1.667    4.500    0.000    6.000 
#    0.000    3.333    0.000    0.500    0.000    3.500 
#    0.000    0.000    0.000    0.000    0.000    0.000 
#
# Total GULP energy -267979.926248 kJ/mol
# GULP energy per Si atom -5582.915130 kJ/mol
# Density = 1.880592 g / cm^3
# Si number density = 18.848822 Si / 1000 Ang^3
#
#
#
# Elastic Constant Matrix: (Units=GPa)
#
#
# Indices 1 2 3 4 5 6 
#
# 1 125.6312 51.5571 71.0995 0.0000 0.0000 0.0000
# 2 51.5571 114.1613 52.7574 0.0000 0.0000 0.0000
# 3 71.0995 52.7574 162.3173 0.0000 0.0000 0.0000
# 4 0.0000 0.0000 0.0000 30.4124 0.0000 0.0000
# 5 0.0000 0.0000 0.0000 0.0000 20.7415 0.0000
# 6 0.0000 0.0000 0.0000 0.0000 0.0000 28.5488
#
#
#
# Elastic Compliance Matrix: (Units=1/GPa)
#
#
# Indices 1 2 3 4 5 6 
#
# 1 0.011608 -0.003404 -0.003978 0.000000 0.000000 0.000000
# 2 -0.003404 0.011306 -0.002184 0.000000 0.000000 0.000000
# 3 -0.003978 -0.002184 0.008613 0.000000 0.000000 0.000000
# 4 0.000000 0.000000 0.000000 0.032881 0.000000 0.000000
# 5 0.000000 0.000000 0.000000 0.000000 0.048212 0.000000
# 6 0.000000 0.000000 0.000000 0.000000 0.000000 0.035028
#
#
# Mechanical properties :
#
#
# Convention : Reuss Voigt Hill
#
# Bulk Modulus (GPa) = 80.67550 83.65975 82.16763
# Shear Modulus (GPa) = 29.25470 31.05360 30.15415
#
# Velocity S-wave (km/s) = 3.94391 4.06336 4.00408
# Velocity P-wave (km/s) = 7.97706 8.15447 8.06625
#
# Compressibility (1/GPa) = 0.01239534
#
# Stress axis : x y z
#
# Youngs Moduli (GPa) = 86.14571 88.44879 116.10131
#
# Poissons Ratio (x) = 0.30108 0.46189
# Poissons Ratio (y) = 0.29324 0.25353
# Poissons Ratio (z) = 0.34272 0.19315
#
# Static dielectric constant tensor:
#      x y z
#    x 1.643030 0.000000 0.000000 
#    y 0.000000 1.889160 0.000000 
#    z 0.000000 0.000000 1.666280 
# 
# From -- ./inp_files/3681.got.cif
#   From: 2010.05.17/outbox.cif.g08.bks.cpg/sg49_2_cif.got.tgz:3681.got - 2010.06.03 21:02:19.
