data_PCOD9393639
_publ_section_title
;
Structure prediction by ZEFSAII (Michael W. Deem and Ramdas Pophale) SiO2 
 PCOD9393639
Probable space group: P C C M
;
_chemical_formula_sum "Si O2"
_cell_formula_units_Z 48
_cell_length_a 24.197159
_cell_length_b 14.003240
_cell_length_c 8.694101
_cell_angle_alpha 90.000000
_cell_angle_beta 90.000000
_cell_angle_gamma 90.000000
_cell_volume 2945.897227
_symmetry_space_group_name_H-M "P C C M"
_symmetry_group_IT_number 49
_symmetry_cell_setting 'orthorhombic'
loop_
_space_group_symop_operation_xyz
x,y,z
-x,-y,z
x,-y,1/2-z
-x,y,1/2-z
-x,-y,-z
x,y,-z
-x,y,1/2+z
x,-y,1/2+z
loop_
_atom_site_type_symbol
_atom_site_label
_atom_site_fract_x
_atom_site_fract_y
_atom_site_fract_z
Si Si1 0.059383 0.105318 0.317517
Si Si2 0.770081 0.603579 0.184585
Si Si3 0.664446 0.288188 0.183879
Si Si4 0.722793 0.105072 0.684566
Si Si5 0.162890 0.790643 0.683595
Si Si6 0.560323 0.605718 0.184378
O O1 0.055335 0.098006 0.500000
O O2 0.108392 0.175426 0.269064
O O3 0.000000 0.135003 0.250000
O O4 0.071638 0.000000 0.250000
O O5 0.783714 0.500000 0.250000
O O6 0.712944 0.641188 0.257548
O O7 0.815937 0.684079 0.220491
O O8 0.763645 0.600590 0.000000
O O9 0.682420 0.183615 0.242002
O O10 0.607330 0.323125 0.257051
O O11 0.661521 0.290874 0.000000
O O12 0.717025 0.106843 0.500000
O O13 0.785217 0.140452 0.721132
O O14 0.713656 0.000000 0.750000
O O15 0.153679 0.796469 0.500000
O O16 0.573155 0.500000 0.250000
O O17 0.500000 0.631589 0.250000
O O18 0.558783 0.601951 0.000000
#
# Coordination Sequence:
#
# PCOD9393639 Si02
#       6
#     8   8   8   8   8   8
#     4  11  21  33  51  73 100 131 165 203 247 295
#     4  10  20  34  52  75 103 134 167 207 250 298
#     4  11  21  34  52  75 103 136 171 208 250 297
#     4  10  20  34  52  76 104 135 168 207 251 298
#     4   9  19  34  51  73 102 132 165 203 247 295
#     4  11  21  35  53  76 104 134 169 208 252 301
#
# _framework density 16.293845999999998
#
# number of rings (size 3 to 8) (size 9 to 14) (size 15 to 20)
#    0.000    1.667    0.000    8.500    0.000    5.333 
#    0.000    0.000    0.000    1.000    0.000    7.000 
#    0.000    0.000    0.000    0.000    0.000    0.000 
#
# Total GULP energy -268145.163746 kJ/mol
# GULP energy per Si atom -5586.357578 kJ/mol
# Density = 1.625676 g / cm^3
# Si number density = 16.293846 Si / 1000 Ang^3
#
#
#
# Elastic Constant Matrix: (Units=GPa)
#
#
# Indices 1 2 3 4 5 6 
#
# 1 120.0789 83.2510 75.5836 0.0000 0.0000 0.0000
# 2 83.2510 121.9464 68.4479 0.0000 0.0000 0.0000
# 3 75.5836 68.4479 139.6941 0.0000 0.0000 0.0000
# 4 0.0000 0.0000 0.0000 24.5716 0.0000 0.0000
# 5 0.0000 0.0000 0.0000 0.0000 25.0370 0.0000
# 6 0.0000 0.0000 0.0000 0.0000 0.0000 19.9443
#
#
#
# Elastic Compliance Matrix: (Units=1/GPa)
#
#
# Indices 1 2 3 4 5 6 
#
# 1 0.018174 -0.009501 -0.005178 0.000000 0.000000 0.000000
# 2 -0.009501 0.016278 -0.002835 0.000000 0.000000 0.000000
# 3 -0.005178 -0.002835 0.011350 0.000000 0.000000 0.000000
# 4 0.000000 0.000000 0.000000 0.040697 0.000000 0.000000
# 5 0.000000 0.000000 0.000000 0.000000 0.039941 0.000000
# 6 0.000000 0.000000 0.000000 0.000000 0.000000 0.050140
#
#
# Mechanical properties :
#
#
# Convention : Reuss Voigt Hill
#
# Bulk Modulus (GPa) = 92.82534 92.92048 92.87291
# Shear Modulus (GPa) = 23.23434 24.20639 23.72036
#
# Velocity S-wave (km/s) = 3.78028 3.85855 3.81962
# Velocity P-wave (km/s) = 8.72624 8.77513 8.75072
#
# Compressibility (1/GPa) = 0.01077292
#
# Stress axis : x y z
#
# Youngs Moduli (GPa) = 55.02324 61.43339 88.10949
#
# Poissons Ratio (x) = 0.58366 0.45625
# Poissons Ratio (y) = 0.52276 0.24982
# Poissons Ratio (z) = 0.28492 0.17419
#
# Static dielectric constant tensor:
#      x y z
#    x 1.528560 0.000000 0.000000 
#    y 0.000000 1.530520 0.000000 
#    z 0.000000 0.000000 1.541850 
# 
# From -- ./inp_files/2906.got.cif
#   From: 2010.05.17/outbox.cif.g08.bks.cpg/sg49_2_cif.got.tgz:2906.got - 2010.06.03 21:02:19.
