data_PCOD9393602
_publ_section_title
;
Structure prediction by ZEFSAII (Michael W. Deem and Ramdas Pophale) SiO2 
 PCOD9393602
Probable space group: P C C M
;
_chemical_formula_sum "Si O2"
_cell_formula_units_Z 64
_cell_length_a 12.479913
_cell_length_b 15.214676
_cell_length_c 17.178403
_cell_angle_alpha 90.000000
_cell_angle_beta 90.000000
_cell_angle_gamma 90.000000
_cell_volume 3261.797933
_symmetry_space_group_name_H-M "P C C M"
_symmetry_group_IT_number 49
_symmetry_cell_setting 'orthorhombic'
loop_
_space_group_symop_operation_xyz
x,y,z
-x,-y,z
x,-y,1/2-z
-x,y,1/2-z
-x,-y,-z
x,y,-z
-x,y,1/2+z
x,-y,1/2+z
loop_
_atom_site_type_symbol
_atom_site_label
_atom_site_fract_x
_atom_site_fract_y
_atom_site_fract_z
Si Si1 0.628048 0.517294 0.090353
Si Si2 0.787596 0.918319 0.198297
Si Si3 0.892333 0.220329 0.801885
Si Si4 0.562017 0.213387 0.909745
Si Si5 0.977403 0.103359 0.585695
Si Si6 0.592083 0.677910 0.807855
Si Si7 0.626116 0.980703 0.589605
Si Si8 0.723869 0.653884 0.658931
O O1 0.500000 0.500000 0.095961
O O2 0.633811 0.614391 0.125175
O O3 0.696988 0.446964 0.139436
O O4 0.658346 0.511794 0.000000
O O5 0.801325 0.834991 0.254876
O O6 0.865974 0.890683 0.129531
O O7 0.830386 0.000000 0.250000
O O8 0.684197 0.959168 0.154151
O O9 0.843045 0.307359 0.840933
O O10 0.000000 0.236417 0.750000
O O11 0.931775 0.153274 0.867551
O O12 0.465689 0.239003 0.850029
O O13 0.624796 0.123267 0.891042
O O14 0.646807 0.292017 0.899657
O O15 0.525269 0.207499 0.000000
O O16 0.970497 0.140088 0.500000
O O17 0.000000 0.000000 0.582967
O O18 0.500000 0.638604 0.750000
O O19 0.684826 0.681392 0.744941
O O20 0.667388 0.993267 0.500000
O O21 0.500000 0.000000 0.588424
#
# Coordination Sequence:
#
# PCOD9393602 Si02
#       8
#     8   8   8   8   8   8   8   8
#     4  11  20  34  57  89 124 156 188 234 292 361
#     4  11  20  36  56  80 111 150 199 257 307 357
#     4  10  23  39  59  84 119 153 207 266 309 349
#     4  10  20  34  52  80 117 156 196 243 290 349
#     4  10  20  35  58  82 108 146 197 260 315 350
#     4  10  20  33  57  83 123 156 191 233 291 362
#     4  10  23  39  53  74 113 162 211 249 288 353
#     4  11  22  35  57  87 117 155 192 242 303 358
#
# _framework density 19.621079999999999
#
# number of rings (size 3 to 8) (size 9 to 14) (size 15 to 20)
#    0.000    1.625    3.750    2.250    1.750    1.250 
#    2.250    0.000    0.000    2.250    0.000    0.875 
#    0.000    0.000    0.000    0.000    0.000    0.000 
#
# Total GULP energy -356430.225488 kJ/mol
# GULP energy per Si atom -5569.222273 kJ/mol
# Density = 1.957642 g / cm^3
# Si number density = 19.621080 Si / 1000 Ang^3
#
#
#
# Elastic Constant Matrix: (Units=GPa)
#
#
# Indices 1 2 3 4 5 6 
#
# 1 38.6586 34.6507 44.5686 0.0000 0.0000 0.0000
# 2 34.6507 65.2522 26.9116 0.0000 0.0000 0.0000
# 3 44.5686 26.9116 124.4916 0.0000 0.0000 0.0000
# 4 0.0000 0.0000 0.0000 12.4700 0.0000 0.0000
# 5 0.0000 0.0000 0.0000 0.0000 12.0111 0.0000
# 6 0.0000 0.0000 0.0000 0.0000 0.0000 31.8412
#
#
#
# Elastic Compliance Matrix: (Units=1/GPa)
#
#
# Indices 1 2 3 4 5 6 
#
# 1 0.082146 -0.034576 -0.021934 0.000000 0.000000 0.000000
# 2 -0.034576 0.031378 0.005595 0.000000 0.000000 0.000000
# 3 -0.021934 0.005595 0.014676 0.000000 0.000000 0.000000
# 4 0.000000 0.000000 0.000000 0.080193 0.000000 0.000000
# 5 0.000000 0.000000 0.000000 0.000000 0.083256 0.000000
# 6 0.000000 0.000000 0.000000 0.000000 0.000000 0.031406
#
#
# Mechanical properties :
#
#
# Convention : Reuss Voigt Hill
#
# Bulk Modulus (GPa) = 37.92134 48.96269 43.44202
# Shear Modulus (GPa) = 11.52938 19.41589 15.47263
#
# Velocity S-wave (km/s) = 2.42668 3.14911 2.81120
# Velocity P-wave (km/s) = 5.21733 6.18311 5.72063
#
# Compressibility (1/GPa) = 0.02637037
#
# Stress axis : x y z
#
# Youngs Moduli (GPa) = 12.17343 31.86935 68.13942
#
# Poissons Ratio (x) = 1.10190 1.49460
# Poissons Ratio (y) = 0.42090 -0.38125
# Poissons Ratio (z) = 0.26702 -0.17831
#
# Static dielectric constant tensor:
#      x y z
#    x 1.728170 0.000000 0.000000 
#    y 0.000000 1.755070 0.000000 
#    z 0.000000 0.000000 1.730430 
# 
# From -- ./inp_files/17266.got.cif
#   From: 2010.05.17/outbox.cif.g08.bks.cpg/sg49_9_cif.got.tgz:17266.got - 2010.06.03 21:02:19.
