data_PCOD9393407
_publ_section_title
;
Structure prediction by ZEFSAII (Michael W. Deem and Ramdas Pophale) SiO2 
 PCOD9393407
Probable space group: P C C M
;
_chemical_formula_sum "Si O2"
_cell_formula_units_Z 48
_cell_length_a 17.487989
_cell_length_b 5.673529
_cell_length_c 25.243079
_cell_angle_alpha 90.000000
_cell_angle_beta 90.000000
_cell_angle_gamma 90.000000
_cell_volume 2504.583280
_symmetry_space_group_name_H-M "P C C M"
_symmetry_group_IT_number 49
_symmetry_cell_setting 'orthorhombic'
loop_
_space_group_symop_operation_xyz
x,y,z
-x,-y,z
x,-y,1/2-z
-x,y,1/2-z
-x,-y,-z
x,y,-z
-x,y,1/2+z
x,-y,1/2+z
loop_
_atom_site_type_symbol
_atom_site_label
_atom_site_fract_x
_atom_site_fract_y
_atom_site_fract_z
Si Si1 0.851905 0.481347 0.809665
Si Si2 0.470403 0.746129 0.189182
Si Si3 0.703584 0.856972 0.694674
Si Si4 0.919060 0.761156 0.500000
Si Si5 0.060403 0.815484 0.886166
Si Si6 0.173454 0.265252 0.000000
Si Si7 0.210904 0.875795 0.613619
O O1 0.879642 0.500000 0.750000
O O2 0.776791 0.314274 0.805250
O O3 0.920154 0.387846 0.845968
O O4 0.822186 0.707987 0.840650
O O5 0.500000 0.500000 0.164685
O O6 0.500000 0.746975 0.250000
O O7 0.378742 0.738093 0.190886
O O8 0.500000 0.000000 0.167101
O O9 0.705091 0.000000 0.750000
O O10 0.715509 0.013178 0.641699
O O11 0.965352 0.747736 0.554788
O O12 0.866355 0.524338 0.500000
O O13 0.879463 0.024616 0.500000
O O14 0.144286 0.930863 0.893624
O O15 0.000000 0.000000 0.864274
O O16 0.218480 0.244607 0.943896
#
# Coordination Sequence:
#
# PCOD9393407 Si02
#       7
#     8   8   8   4   8   4   8
#     4  11  22  35  58  79 113 159 205 247 310 375
#     4  10  21  33  53  88 125 155 189 237 299 355
#     4  11  21  35  58  87 123 157 195 246 303 381
#     4  10  19  38  64  90 114 147 197 273 325 364
#     4  10  22  39  56  82 116 153 206 262 319 373
#     4  10  20  40  61  88 124 148 209 262 311 368
#     4  10  22  38  58  85 114 161 200 256 309 366
#
# _framework density 19.164864999999999
#
# number of rings (size 3 to 8) (size 9 to 14) (size 15 to 20)
#    0.000    1.667    5.000    0.250    4.667    0.667 
#    0.000    4.167    0.000    0.000    0.000    1.167 
#    0.000    0.000    0.000    0.000    0.000    0.000 
#
# Total GULP energy -267475.718657 kJ/mol
# GULP energy per Si atom -5572.410805 kJ/mol
# Density = 1.912124 g / cm^3
# Si number density = 19.164865 Si / 1000 Ang^3
#
#
#
# Elastic Constant Matrix: (Units=GPa)
#
#
# Indices 1 2 3 4 5 6 
#
# 1 82.3766 18.1980 10.1481 0.0000 0.0000 0.0000
# 2 18.1980 88.9539 13.4306 0.0000 0.0000 0.0000
# 3 10.1481 13.4306 107.0288 0.0000 0.0000 0.0000
# 4 0.0000 0.0000 0.0000 15.6591 0.0000 0.0000
# 5 0.0000 0.0000 0.0000 0.0000 15.5032 0.0000
# 6 0.0000 0.0000 0.0000 0.0000 0.0000 33.3834
#
#
#
# Elastic Compliance Matrix: (Units=1/GPa)
#
#
# Indices 1 2 3 4 5 6 
#
# 1 0.012799 -0.002482 -0.000902 0.000000 0.000000 0.000000
# 2 -0.002482 0.011940 -0.001263 0.000000 0.000000 0.000000
# 3 -0.000902 -0.001263 0.009587 0.000000 0.000000 0.000000
# 4 0.000000 0.000000 0.000000 0.063861 0.000000 0.000000
# 5 0.000000 0.000000 0.000000 0.000000 0.064503 0.000000
# 6 0.000000 0.000000 0.000000 0.000000 0.000000 0.029955
#
#
# Mechanical properties :
#
#
# Convention : Reuss Voigt Hill
#
# Bulk Modulus (GPa) = 39.94892 40.21253 40.08072
# Shear Modulus (GPa) = 23.77745 28.68131 26.22938
#
# Velocity S-wave (km/s) = 3.52615 3.87273 3.70350
# Velocity P-wave (km/s) = 6.12115 6.40511 6.26474
#
# Compressibility (1/GPa) = 0.02503197
#
# Stress axis : x y z
#
# Youngs Moduli (GPa) = 78.13215 83.75020 104.30469
#
# Poissons Ratio (x) = 0.20788 0.09409
# Poissons Ratio (y) = 0.19394 0.13174
# Poissons Ratio (z) = 0.07048 0.10578
#
# Static dielectric constant tensor:
#      x y z
#    x 1.648260 0.000000 0.000000 
#    y 0.000000 1.716270 0.000000 
#    z 0.000000 0.000000 1.690510 
# 
# From -- ./inp_files/25059.got.cif
#   From: 2010.05.17/outbox.cif.g08.bks.cpg/sg49_13_cif.got.tgz:25059.got - 2010.06.03 21:02:19.
