data_PCOD9393565
_publ_section_title
;
Structure prediction by ZEFSAII (Michael W. Deem and Ramdas Pophale) SiO2 
 PCOD9393565
Probable space group: P C C M
;
_chemical_formula_sum "Si O2"
_cell_formula_units_Z 56
_cell_length_a 15.250745
_cell_length_b 23.111561
_cell_length_c 8.698531
_cell_angle_alpha 90.000000
_cell_angle_beta 90.000000
_cell_angle_gamma 90.000000
_cell_volume 3065.958377
_symmetry_space_group_name_H-M "P C C M"
_symmetry_group_IT_number 49
_symmetry_cell_setting 'orthorhombic'
loop_
_space_group_symop_operation_xyz
x,y,z
-x,-y,z
x,-y,1/2-z
-x,y,1/2-z
-x,-y,-z
x,y,-z
-x,y,1/2+z
x,-y,1/2+z
loop_
_atom_site_type_symbol
_atom_site_label
_atom_site_fract_x
_atom_site_fract_y
_atom_site_fract_z
Si Si1 0.906227 0.737607 0.684790
Si Si2 0.094477 0.935982 0.815357
Si Si3 0.404904 0.339336 0.814700
Si Si4 0.404908 0.793948 0.683925
Si Si5 0.771509 0.835291 0.314615
Si Si6 0.093980 0.397411 0.315751
Si Si7 0.273420 0.439900 0.815744
O O1 0.910415 0.740326 0.500000
O O2 0.828055 0.779247 0.736240
O O3 0.893865 0.670494 0.728545
O O4 0.000000 0.756960 0.750000
O O5 0.170773 0.891191 0.772797
O O6 0.000000 0.916786 0.750000
O O7 0.111084 0.000000 0.750000
O O8 0.088507 0.938424 0.000000
O O9 0.500000 0.355553 0.750000
O O10 0.387277 0.272985 0.766382
O O11 0.331755 0.385091 0.764909
O O12 0.408165 0.340042 0.000000
O O13 0.500000 0.810189 0.750000
O O14 0.408319 0.795488 0.500000
O O15 0.324688 0.831990 0.744030
O O16 0.764399 0.833654 0.500000
O O17 0.093579 0.401718 0.500000
O O18 0.175429 0.431322 0.246546
O O19 0.000000 0.416085 0.250000
O O20 0.309471 0.500000 0.750000
O O21 0.272441 0.441837 0.000000
#
# Coordination Sequence:
#
# PCOD9393565 Si02
#       7
#     8   8   8   8   8   8   8
#     4   9  18  31  49  75 106 135 166 206 255 309
#     4  10  20  34  53  77 110 149 188 225 261 302
#     4   9  20  37  57  80 106 135 167 206 256 311
#     4  10  20  35  56  81 107 137 171 211 259 312
#     4  10  20  33  51  78 109 141 176 217 261 307
#     4  10  20  35  54  75 100 133 168 207 256 308
#     4  11  23  38  54  75 101 130 169 213 254 303
#
# _framework density 18.265087999999999
#
# number of rings (size 3 to 8) (size 9 to 14) (size 15 to 20)
#    0.000    2.143    0.000    3.429    0.000    4.571 
#    0.000    2.857    0.000    0.429    0.000    3.000 
#    0.000    0.000    0.000    0.000    0.000    0.000 
#
# Total GULP energy -312745.779624 kJ/mol
# GULP energy per Si atom -5584.746065 kJ/mol
# Density = 1.822352 g / cm^3
# Si number density = 18.265088 Si / 1000 Ang^3
#
#
#
# Elastic Constant Matrix: (Units=GPa)
#
#
# Indices 1 2 3 4 5 6 
#
# 1 144.5061 67.1842 36.0549 0.0000 0.0000 0.0000
# 2 67.1842 67.4562 29.0205 0.0000 0.0000 0.0000
# 3 36.0549 29.0205 34.1270 0.0000 0.0000 0.0000
# 4 0.0000 0.0000 0.0000 33.4825 0.0000 0.0000
# 5 0.0000 0.0000 0.0000 0.0000 32.5987 0.0000
# 6 0.0000 0.0000 0.0000 0.0000 0.0000 9.7335
#
#
#
# Elastic Compliance Matrix: (Units=1/GPa)
#
#
# Indices 1 2 3 4 5 6 
#
# 1 0.013293 -0.011349 -0.004392 0.000000 0.000000 0.000000
# 2 -0.011349 0.033067 -0.016128 0.000000 0.000000 0.000000
# 3 -0.004392 -0.016128 0.047658 0.000000 0.000000 0.000000
# 4 0.000000 0.000000 0.000000 0.029866 0.000000 0.000000
# 5 0.000000 0.000000 0.000000 0.000000 0.030676 0.000000
# 6 0.000000 0.000000 0.000000 0.000000 0.000000 0.102738
#
#
# Mechanical properties :
#
#
# Convention : Reuss Voigt Hill
#
# Bulk Modulus (GPa) = 33.02844 56.73425 44.88135
# Shear Modulus (GPa) = 15.09982 22.75159 18.92571
#
# Velocity S-wave (km/s) = 2.87837 3.53318 3.22245
# Velocity P-wave (km/s) = 5.40081 6.91184 6.20251
#
# Compressibility (1/GPa) = 0.03027693
#
# Stress axis : x y z
#
# Youngs Moduli (GPa) = 75.22973 30.24202 20.98297
#
# Poissons Ratio (x) = 0.34323 0.09217
# Poissons Ratio (y) = 0.85381 0.33842
# Poissons Ratio (z) = 0.33044 0.48775
#
# Static dielectric constant tensor:
#      x y z
#    x 1.603680 0.000000 0.000000 
#    y 0.000000 1.640560 0.000000 
#    z 0.000000 0.000000 1.612450 
# 
# From -- ./inp_files/4019.got.cif
#   From: 2010.05.17/outbox.cif.g08.bks.cpg/sg49_3_cif.got.tgz:4019.got - 2010.06.03 21:02:19.
