data_PCOD9393465
_publ_section_title
;
Structure prediction by ZEFSAII (Michael W. Deem and Ramdas Pophale) SiO2 
 PCOD9393465
Probable space group: P C C M
;
_chemical_formula_sum "Si O2"
_cell_formula_units_Z 64
_cell_length_a 24.042179
_cell_length_b 19.600639
_cell_length_c 8.780078
_cell_angle_alpha 90.000000
_cell_angle_beta 90.000000
_cell_angle_gamma 90.000000
_cell_volume 4137.542143
_symmetry_space_group_name_H-M "P C C M"
_symmetry_group_IT_number 49
_symmetry_cell_setting 'orthorhombic'
loop_
_space_group_symop_operation_xyz
x,y,z
-x,-y,z
x,-y,1/2-z
-x,y,1/2-z
-x,-y,-z
x,y,-z
-x,y,1/2+z
x,-y,1/2+z
loop_
_atom_site_type_symbol
_atom_site_label
_atom_site_fract_x
_atom_site_fract_y
_atom_site_fract_z
Si Si1 0.258259 0.428183 0.183411
Si Si2 0.840141 0.841844 0.317967
Si Si3 0.728598 0.074919 0.818443
Si Si4 0.440151 0.715001 0.684214
Si Si5 0.061036 0.073861 0.817783
Si Si6 0.611500 0.571843 0.816633
Si Si7 0.221937 0.718102 0.682812
Si Si8 0.334186 0.197889 0.817626
O O1 0.238519 0.500000 0.250000
O O2 0.323416 0.419826 0.227673
O O3 0.224838 0.360755 0.230939
O O4 0.256922 0.431013 0.000000
O O5 0.847058 0.844186 0.500000
O O6 0.787812 0.890585 0.275516
O O7 0.894416 0.870758 0.236117
O O8 0.822292 0.766485 0.264693
O O9 0.681618 0.126659 0.758930
O O10 0.723881 0.000000 0.750000
O O11 0.726510 0.071319 0.000000
O O12 0.500000 0.732501 0.750000
O O13 0.441786 0.715347 0.500000
O O14 0.422244 0.638515 0.732781
O O15 0.391440 0.766990 0.731730
O O16 0.000000 0.088456 0.750000
O O17 0.077996 0.000000 0.750000
O O18 0.058342 0.069573 0.000000
O O19 0.591379 0.500000 0.750000
O O20 0.609631 0.568608 0.000000
O O21 0.213521 0.721350 0.500000
O O22 0.282849 0.750679 0.713742
O O23 0.336029 0.188661 0.000000
#
# Coordination Sequence:
#
# PCOD9393465 Si02
#       8
#     8   8   8   8   8   8   8   8
#     4   9  16  27  44  65  90 121 156 191 232 284
#     4  10  20  32  47  72 102 129 162 200 234 275
#     4  10  20  32  49  73  97 120 148 185 229 276
#     4  10  20  33  48  65  87 116 150 188 230 278
#     4  11  21  34  51  71  99 137 175 207 238 273
#     4   9  17  30  45  63  87 117 152 188 227 273
#     4   9  16  29  48  67  90 123 158 194 238 284
#     4   9  17  32  50  65  87 117 148 184 230 281
#
# _framework density 15.468120000000001
#
# number of rings (size 3 to 8) (size 9 to 14) (size 15 to 20)
#    0.000    2.375    1.250    2.625    0.000    4.250 
#    0.000    1.250    0.000    0.375    0.000    2.625 
#    0.000    0.500    0.000    5.250    0.000    2.875 
#
# Total GULP energy -356960.688556 kJ/mol
# GULP energy per Si atom -5577.510759 kJ/mol
# Density = 1.543291 g / cm^3
# Si number density = 15.468120 Si / 1000 Ang^3
#
#
#
# Elastic Constant Matrix: (Units=GPa)
#
#
# Indices 1 2 3 4 5 6 
#
# 1 73.1986 48.6092 31.4062 0.0000 0.0000 0.0000
# 2 48.6092 121.4679 37.0144 0.0000 0.0000 0.0000
# 3 31.4062 37.0144 40.0392 0.0000 0.0000 0.0000
# 4 0.0000 0.0000 0.0000 27.0630 0.0000 0.0000
# 5 0.0000 0.0000 0.0000 0.0000 -12.4337 0.0000
# 6 0.0000 0.0000 0.0000 0.0000 0.0000 24.0175
#
#
#
# Elastic Compliance Matrix: (Units=1/GPa)
#
#
# Indices 1 2 3 4 5 6 
#
# 1 0.022639 -0.005079 -0.013062 0.000000 0.000000 0.000000
# 2 -0.005079 0.012601 -0.007665 0.000000 0.000000 0.000000
# 3 -0.013062 -0.007665 0.042307 0.000000 0.000000 0.000000
# 4 0.000000 0.000000 0.000000 0.036951 0.000000 0.000000
# 5 0.000000 0.000000 0.000000 0.000000 -0.080426 0.000000
# 6 0.000000 0.000000 0.000000 0.000000 0.000000 0.041636
#
#
# Mechanical properties :
#
#
# Convention : Reuss Voigt Hill
#
# Bulk Modulus (GPa) = 38.55878 52.08502 45.32190
# Shear Modulus (GPa) = 36.77429 15.57442 26.17435
#
# Velocity S-wave (km/s) = 4.88117 3.17657 4.11804
# Velocity P-wave (km/s) = 7.53325 6.87020 7.20935
#
# Compressibility (1/GPa) = 0.02593443
#
# Stress axis : x y z
#
# Youngs Moduli (GPa) = 44.17195 79.35916 23.63677
#
# Poissons Ratio (x) = 0.40309 0.30874
# Poissons Ratio (y) = 0.22436 0.18117
# Poissons Ratio (z) = 0.57697 0.60828
#
# Static dielectric constant tensor:
#      x y z
#    x 1.497480 0.000000 0.000000 
#    y 0.000000 1.512230 0.000000 
#    z 0.000000 0.000000 1.520020 
# 
# From -- ./inp_files/5268.got.cif
#   From: 2010.05.17/outbox.cif.g08.bks.cpg/sg49_3_cif.got.tgz:5268.got - 2010.06.03 21:02:19.
