data_PCOD9393381
_publ_section_title
;
Structure prediction by ZEFSAII (Michael W. Deem and Ramdas Pophale) SiO2 
 PCOD9393381
Probable space group: P C C M
;
_chemical_formula_sum "Si O2"
_cell_formula_units_Z 56
_cell_length_a 10.175077
_cell_length_b 16.999759
_cell_length_c 15.048142
_cell_angle_alpha 90.000000
_cell_angle_beta 90.000000
_cell_angle_gamma 90.000000
_cell_volume 2602.935160
_symmetry_space_group_name_H-M "P C C M"
_symmetry_group_IT_number 49
_symmetry_cell_setting 'orthorhombic'
loop_
_space_group_symop_operation_xyz
x,y,z
-x,-y,z
x,-y,1/2-z
-x,y,1/2-z
-x,-y,-z
x,y,-z
-x,y,1/2+z
x,-y,1/2+z
loop_
_atom_site_type_symbol
_atom_site_label
_atom_site_fract_x
_atom_site_fract_y
_atom_site_fract_z
Si Si1 0.726895 0.338537 0.132153
Si Si2 0.013392 0.242292 0.600830
Si Si3 0.095884 0.071315 0.609043
Si Si4 0.490691 0.769645 0.642515
Si Si5 0.653298 0.506927 0.858315
Si Si6 0.394933 0.939267 0.103862
Si Si7 0.244107 0.675205 0.656155
O O1 0.849356 0.288384 0.099785
O O2 0.590937 0.296461 0.107701
O O3 0.726827 0.429691 0.106670
O O4 0.730486 0.333892 0.239066
O O5 0.966789 0.231202 0.500000
O O6 0.040022 0.155676 0.639358
O O7 0.903438 0.295123 0.646345
O O8 0.099701 0.074409 0.500000
O O9 0.246518 0.061201 0.641037
O O10 0.000000 0.000000 0.633996
O O11 0.500000 0.772660 0.750000
O O12 0.540718 0.853289 0.609295
O O13 0.344259 0.741441 0.620376
O O14 0.500000 0.500000 0.883776
O O15 0.655650 0.500000 0.750000
O O16 0.718351 0.589957 0.883265
O O17 0.500000 0.000000 0.143595
O O18 0.378816 0.960735 0.000000
#
# Coordination Sequence:
#
# PCOD9393381 Si02
#       7
#     8   8   8   8   8   8   8
#     4  10  19  37  61  82 112 148 185 231 279 330
#     4  11  23  38  57  81 114 152 185 226 278 336
#     4   9  19  36  56  78 105 141 184 228 271 319
#     4  10  20  35  58  86 115 144 178 232 289 330
#     4   9  16  32  59  86 109 141 191 236 273 323
#     4  10  21  36  58  84 109 144 190 231 270 330
#     4  10  21  35  58  88 112 144 188 235 275 327
#
# _framework density 21.514175000000002
#
# number of rings (size 3 to 8) (size 9 to 14) (size 15 to 20)
#    0.000    2.143    2.857    0.429    2.000    1.429 
#    0.000    3.571    0.000    2.571    0.000    0.000 
#    0.000    0.000    0.000    0.000    0.000    0.000 
#
# Total GULP energy -312744.270114 kJ/mol
# GULP energy per Si atom -5584.719109 kJ/mol
# Density = 2.146521 g / cm^3
# Si number density = 21.514175 Si / 1000 Ang^3
#
#
#
# Elastic Constant Matrix: (Units=GPa)
#
#
# Indices 1 2 3 4 5 6 
#
# 1 109.2807 60.3548 3.0744 0.0000 0.0000 0.0000
# 2 60.3548 158.7540 2.2927 0.0000 0.0000 0.0000
# 3 3.0744 2.2927 38.7269 0.0000 0.0000 0.0000
# 4 0.0000 0.0000 0.0000 0.8661 0.0000 0.0000
# 5 0.0000 0.0000 0.0000 0.0000 -20.0462 0.0000
# 6 0.0000 0.0000 0.0000 0.0000 0.0000 36.2147
#
#
#
# Elastic Compliance Matrix: (Units=1/GPa)
#
#
# Indices 1 2 3 4 5 6 
#
# 1 0.011600 -0.004400 -0.000660 0.000000 0.000000 0.000000
# 2 -0.004400 0.007974 -0.000123 0.000000 0.000000 0.000000
# 3 -0.000660 -0.000123 0.025882 0.000000 0.000000 0.000000
# 4 0.000000 0.000000 0.000000 1.154600 0.000000 0.000000
# 5 0.000000 0.000000 0.000000 0.000000 -0.049885 0.000000
# 6 0.000000 0.000000 0.000000 0.000000 0.000000 0.027613
#
#
# Mechanical properties :
#
#
# Convention : Reuss Voigt Hill
#
# Bulk Modulus (GPa) = 28.49980 48.68949 38.59465
# Shear Modulus (GPa) = 4.16720 19.47623 11.82172
#
# Velocity S-wave (km/s) = 1.39326 3.01204 2.34665
# Velocity P-wave (km/s) = 3.98296 5.89720 5.03195
#
# Compressibility (1/GPa) = 0.03508796
#
# Stress axis : x y z
#
# Youngs Moduli (GPa) = 86.20972 125.41148 38.63763
#
# Poissons Ratio (x) = 0.55186 0.02551
# Poissons Ratio (y) = 0.37936 0.00474
# Poissons Ratio (z) = 0.05693 0.01539
#
# Static dielectric constant tensor:
#      x y z
#    x 1.733930 0.000000 0.000000 
#    y 0.000000 1.758780 0.000000 
#    z 0.000000 0.000000 1.860010 
# 
# From -- ./inp_files/19871.got.cif
#   From: 2010.05.17/outbox.cif.g08.bks.cpg/sg49_10_cif.got.tgz:19871.got - 2010.06.03 21:02:19.
