data_PCOD9393718
_publ_section_title
;
Structure prediction by ZEFSAII (Michael W. Deem and Ramdas Pophale) SiO2 
 PCOD9393718
Probable space group: P C C M
;
_chemical_formula_sum "Si O2"
_cell_formula_units_Z 64
_cell_length_a 22.674900
_cell_length_b 8.151886
_cell_length_c 18.744607
_cell_angle_alpha 90.000000
_cell_angle_beta 90.000000
_cell_angle_gamma 90.000000
_cell_volume 3464.813138
_symmetry_space_group_name_H-M "P C C M"
_symmetry_group_IT_number 49
_symmetry_cell_setting 'orthorhombic'
loop_
_space_group_symop_operation_xyz
x,y,z
-x,-y,z
x,-y,1/2-z
-x,y,1/2-z
-x,-y,-z
x,y,-z
-x,y,1/2+z
x,-y,1/2+z
loop_
_atom_site_type_symbol
_atom_site_label
_atom_site_fract_x
_atom_site_fract_y
_atom_site_fract_z
Si Si1 0.643887 0.316075 0.164180
Si Si2 0.356113 0.683925 0.335820
Si Si3 0.000000 0.196461 0.168667
Si Si4 0.885556 0.304026 0.417857
Si Si5 0.567722 1.000000 0.663127
Si Si6 0.114444 0.695975 0.917857
Si Si7 0.756514 0.193979 0.083985
Si Si8 0.243487 0.806021 0.416015
O O1 0.649711 0.305686 0.250000
O O2 0.621873 0.500000 0.147113
O O3 0.601856 0.165729 0.141050
O O4 0.707277 0.288474 0.128279
O O5 0.292723 0.711526 0.371721
O O6 0.398144 0.834271 0.358950
O O7 0.941477 0.254649 0.128391
O O8 0.000000 0.256720 0.250000
O O9 0.058523 0.254649 0.128391
O O10 0.000000 0.000000 0.169034
O O11 0.894654 0.248851 0.500000
O O12 0.880122 0.500000 0.417870
O O13 0.823308 0.231200 0.392452
O O14 0.500000 0.000000 0.639079
O O15 0.567336 0.000000 0.750000
O O16 0.176692 0.768800 0.892451
O O17 0.105347 0.751150 0.000000
O O18 0.745402 0.000000 0.090731
O O19 0.752851 0.238763 0.000000
O O20 0.247150 0.761237 0.500000
#
# Coordination Sequence:
#
# PCOD9393718 Si02
#       8
#     8   8   8   8   8   8   8   8
#     4  10  20  34  55  83 113 147 186 229 279 329
#     4  10  20  34  55  83 113 147 186 229 279 329
#     4  11  24  39  54  76 106 141 180 223 274 328
#     4  10  21  37  57  80 105 137 179 225 273 328
#     4   9  18  34  55  81 115 150 185 228 273 323
#     4  10  21  37  57  80 105 137 179 225 273 328
#     4  10  20  35  57  83 110 144 184 226 275 329
#     4  10  20  35  57  83 110 144 184 226 275 329
#
# _framework density 18.471415
#
# number of rings (size 3 to 8) (size 9 to 14) (size 15 to 20)
#    0.000    2.000    1.250    2.250    0.000    7.000 
#    0.000    2.500    0.000    1.500    0.000    1.750 
#    0.000    0.000    0.000    0.000    0.000    0.000 
#
# Total GULP energy -357275.423327 kJ/mol
# GULP energy per Si atom -5582.428489 kJ/mol
# Density = 1.842937 g / cm^3
# Si number density = 18.471415 Si / 1000 Ang^3
#
#
#
# Elastic Constant Matrix: (Units=GPa)
#
#
# Indices 1 2 3 4 5 6 
#
# 1 139.4802 62.9026 41.7085 0.0000 0.0000 0.0000
# 2 62.9026 109.2774 29.6299 0.0000 0.0000 0.0000
# 3 41.7085 29.6299 32.7395 0.0000 0.0000 0.0000
# 4 0.0000 0.0000 0.0000 20.1336 0.0000 0.0000
# 5 0.0000 0.0000 0.0000 0.0000 33.5353 0.0000
# 6 0.0000 0.0000 0.0000 0.0000 0.0000 12.5783
#
#
#
# Elastic Compliance Matrix: (Units=1/GPa)
#
#
# Indices 1 2 3 4 5 6 
#
# 1 0.012711 -0.003878 -0.012684 0.000000 0.000000 0.000000
# 2 -0.003878 0.013310 -0.007106 0.000000 0.000000 0.000000
# 3 -0.012684 -0.007106 0.053134 0.000000 0.000000 0.000000
# 4 0.000000 0.000000 0.000000 0.049668 0.000000 0.000000
# 5 0.000000 0.000000 0.000000 0.000000 0.029819 0.000000
# 6 0.000000 0.000000 0.000000 0.000000 0.000000 0.079502
#
#
# Mechanical properties :
#
#
# Convention : Reuss Voigt Hill
#
# Bulk Modulus (GPa) = 31.42681 61.10878 46.26779
# Shear Modulus (GPa) = 16.88705 23.06653 19.97679
#
# Velocity S-wave (km/s) = 3.02690 3.53763 3.29218
# Velocity P-wave (km/s) = 5.40988 7.05982 6.28919
#
# Compressibility (1/GPa) = 0.03181997
#
# Stress axis : x y z
#
# Youngs Moduli (GPa) = 78.67176 75.13298 18.82045
#
# Poissons Ratio (x) = 0.29134 0.23872
# Poissons Ratio (y) = 0.30506 0.13373
# Poissons Ratio (z) = 0.99787 0.53387
#
# Static dielectric constant tensor:
#      x y z
#    x 1.607230 0.000000 0.000000 
#    y 0.000000 1.653530 0.000000 
#    z 0.000000 0.000000 1.624610 
# 
# From -- ./inp_files/18324.got.cif
#   From: 2010.05.17/outbox.cif.g08.bks.cpg/sg49_10_cif.got.tgz:18324.got - 2010.06.03 21:02:19.
