data_PCOD9393109
_publ_section_title
;
Structure prediction by ZEFSAII (Michael W. Deem and Ramdas Pophale) SiO2 
 PCOD9393109
Probable space group: P C C M
;
_chemical_formula_sum "Si O2"
_cell_formula_units_Z 56
_cell_length_a 8.902319
_cell_length_b 19.963854
_cell_length_c 15.532617
_cell_angle_alpha 90.000000
_cell_angle_beta 90.000000
_cell_angle_gamma 90.000000
_cell_volume 2760.528093
_symmetry_space_group_name_H-M "P C C M"
_symmetry_group_IT_number 49
_symmetry_cell_setting 'orthorhombic'
loop_
_space_group_symop_operation_xyz
x,y,z
-x,-y,z
x,-y,1/2-z
-x,y,1/2-z
-x,-y,-z
x,y,-z
-x,y,1/2+z
x,-y,1/2+z
loop_
_atom_site_type_symbol
_atom_site_label
_atom_site_fract_x
_atom_site_fract_y
_atom_site_fract_z
Si Si1 0.334178 0.420743 0.759509
Si Si2 0.700202 0.841840 0.097947
Si Si3 0.893198 0.664686 0.334319
Si Si4 0.593390 0.909411 0.662253
Si Si5 0.830053 0.984912 0.853122
Si Si6 0.172237 0.196631 0.732602
Si Si7 0.098625 0.436225 0.095509
O O1 0.342124 0.500000 0.750000
O O2 0.500000 0.392268 0.750000
O O3 0.240253 0.385777 0.685192
O O4 0.240236 0.414951 0.847321
O O5 0.528533 0.867328 0.108591
O O6 0.794749 0.908967 0.120789
O O7 0.749887 0.790483 0.173747
O O8 0.728169 0.820060 0.000000
O O9 0.835163 0.740235 0.331733
O O10 0.000000 0.663230 0.250000
O O11 0.992429 0.629139 0.405653
O O12 0.500000 0.927619 0.750000
O O13 0.727067 0.860407 0.691098
O O14 0.684348 0.970660 0.618736
O O15 0.831339 0.000000 0.750000
O O16 0.000000 0.000000 0.884036
O O17 0.000000 0.175899 0.750000
O O18 0.000000 0.500000 0.131304
O O19 0.145157 0.456239 0.000000
#
# Coordination Sequence:
#
# PCOD9393109 Si02
#       7
#     8   8   8   8   8   8   8
#     4  10  19  33  55  87 121 155 200 242 290 367
#     4  11  24  38  58  88 120 153 200 258 311 362
#     4   9  19  35  60  86 111 155 206 237 288 364
#     4  10  20  34  57  82 116 161 204 244 310 380
#     4  11  20  34  59  88 116 152 202 254 308 374
#     4  10  20  39  62  85 108 158 208 243 291 372
#     4  10  19  35  60  89 122 156 196 253 306 344
#
# _framework density 20.285974
#
# number of rings (size 3 to 8) (size 9 to 14) (size 15 to 20)
#    0.000    1.857    4.286    1.286    0.000    3.143 
#    0.000   11.429    0.000    0.000    0.000    0.000 
#    0.000    0.000    0.000    0.000    0.000    0.000 
#
# Total GULP energy -311925.057864 kJ/mol
# GULP energy per Si atom -5570.090319 kJ/mol
# Density = 2.023980 g / cm^3
# Si number density = 20.285974 Si / 1000 Ang^3
#
#
#
# Elastic Constant Matrix: (Units=GPa)
#
#
# Indices 1 2 3 4 5 6 
#
# 1 133.9799 24.5515 11.1709 0.0000 0.0000 0.0000
# 2 24.5515 71.0374 -1.4677 0.0000 0.0000 0.0000
# 3 11.1709 -1.4677 59.4617 0.0000 0.0000 0.0000
# 4 0.0000 0.0000 0.0000 8.9185 0.0000 0.0000
# 5 0.0000 0.0000 0.0000 0.0000 9.9193 0.0000
# 6 0.0000 0.0000 0.0000 0.0000 0.0000 16.4583
#
#
#
# Elastic Compliance Matrix: (Units=1/GPa)
#
#
# Indices 1 2 3 4 5 6 
#
# 1 0.008117 -0.002838 -0.001595 0.000000 0.000000 0.000000
# 2 -0.002838 0.015077 0.000905 0.000000 0.000000 0.000000
# 3 -0.001595 0.000905 0.017140 0.000000 0.000000 0.000000
# 4 0.000000 0.000000 0.000000 0.112127 0.000000 0.000000
# 5 0.000000 0.000000 0.000000 0.000000 0.100813 0.000000
# 6 0.000000 0.000000 0.000000 0.000000 0.000000 0.060760
#
#
# Mechanical properties :
#
#
# Convention : Reuss Voigt Hill
#
# Bulk Modulus (GPa) = 30.05039 36.99872 33.52455
# Shear Modulus (GPa) = 15.05203 22.40750 18.72977
#
# Velocity S-wave (km/s) = 2.72691 3.32713 3.04186
# Velocity P-wave (km/s) = 4.97597 5.74786 5.37579
#
# Compressibility (1/GPa) = 0.03327744
#
# Stress axis : x y z
#
# Youngs Moduli (GPa) = 123.19979 66.32736 58.34462
#
# Poissons Ratio (x) = 0.18825 0.09306
# Poissons Ratio (y) = 0.34967 -0.05282
# Poissons Ratio (z) = 0.19650 -0.06005
#
# Static dielectric constant tensor:
#      x y z
#    x 1.758220 0.000000 0.000000 
#    y 0.000000 1.772540 0.000000 
#    z 0.000000 0.000000 1.762460 
# 
# From -- ./inp_files/16515.got.cif
#   From: 2010.05.17/outbox.cif.g08.bks.cpg/sg49_9_cif.got.tgz:16515.got - 2010.06.03 21:02:19.
