data_PCOD9393739
_publ_section_title
;
Structure prediction by ZEFSAII (Michael W. Deem and Ramdas Pophale) SiO2 
 PCOD9393739
Probable space group: P C C M
;
_chemical_formula_sum "Si O2"
_cell_formula_units_Z 40
_cell_length_a 15.407092
_cell_length_b 8.726360
_cell_length_c 15.173468
_cell_angle_alpha 90.000000
_cell_angle_beta 90.000000
_cell_angle_gamma 90.000000
_cell_volume 2040.039867
_symmetry_space_group_name_H-M "P C C M"
_symmetry_group_IT_number 49
_symmetry_cell_setting 'orthorhombic'
loop_
_space_group_symop_operation_xyz
x,y,z
-x,-y,z
x,-y,1/2-z
-x,y,1/2-z
-x,-y,-z
x,y,-z
-x,y,1/2+z
x,-y,1/2+z
loop_
_atom_site_type_symbol
_atom_site_label
_atom_site_fract_x
_atom_site_fract_y
_atom_site_fract_z
Si Si1 0.853126 0.440951 0.345855
Si Si2 0.962643 0.325996 0.500000
Si Si3 0.149435 0.306442 0.500000
Si Si4 0.655241 0.401316 0.666950
Si Si5 0.320637 0.892336 0.000000
Si Si6 0.594351 0.576298 0.500000
Si Si7 0.404708 0.063242 0.153197
O O1 0.887778 0.500000 0.250000
O O2 0.908132 0.324582 0.408623
O O3 0.842655 0.586464 0.412357
O O4 0.758287 0.370683 0.325665
O O5 0.000000 0.500000 0.500000
O O6 0.052618 0.233505 0.500000
O O7 0.227850 0.188151 0.500000
O O8 0.625863 0.500000 0.750000
O O9 0.642244 0.509650 0.584196
O O10 0.601646 0.246196 0.655398
O O11 0.336790 0.996439 0.084527
O O12 0.393730 0.757934 0.000000
O O13 0.500000 0.500000 0.500000
O O14 0.500000 0.000000 0.129205
O O15 0.385733 0.000000 0.250000
#
# Coordination Sequence:
#
# PCOD9393739 Si02
#       7
#     8   4   4   8   4   4   8
#     4   9  17  32  59  87 121 158 209 256 307 353
#     4   8  17  31  51  90 129 151 197 256 305 358
#     4  10  20  34  56  91 128 160 202 253 309 370
#     4  11  22  39  62  89 118 158 210 257 300 361
#     4  12  22  40  61  88 128 164 199 255 313 374
#     4  12  22  35  59  85 114 156 206 254 303 353
#     4  11  25  42  60  87 123 165 209 255 316 371
#
# _framework density 19.607458999999999
#
# number of rings (size 3 to 8) (size 9 to 14) (size 15 to 20)
#    0.000    1.800    2.000    3.900    2.800    5.600 
#    0.000    0.000    0.000    2.400    0.000    1.400 
#    0.000    0.000    0.000    0.000    0.000    0.000 
#
# Total GULP energy -223126.876214 kJ/mol
# GULP energy per Si atom -5578.171905 kJ/mol
# Density = 1.956283 g / cm^3
# Si number density = 19.607459 Si / 1000 Ang^3
#
#
#
# Elastic Constant Matrix: (Units=GPa)
#
#
# Indices 1 2 3 4 5 6 
#
# 1 105.0448 23.2246 25.0789 0.0000 0.0000 0.0000
# 2 23.2246 92.7101 35.2781 0.0000 0.0000 0.0000
# 3 25.0789 35.2781 144.8009 0.0000 0.0000 0.0000
# 4 0.0000 0.0000 0.0000 27.4472 0.0000 0.0000
# 5 0.0000 0.0000 0.0000 0.0000 52.4979 0.0000
# 6 0.0000 0.0000 0.0000 0.0000 0.0000 20.7051
#
#
#
# Elastic Compliance Matrix: (Units=1/GPa)
#
#
# Indices 1 2 3 4 5 6 
#
# 1 0.010286 -0.002093 -0.001272 0.000000 0.000000 0.000000
# 2 -0.002093 0.012314 -0.002638 0.000000 0.000000 0.000000
# 3 -0.001272 -0.002638 0.007769 0.000000 0.000000 0.000000
# 4 0.000000 0.000000 0.000000 0.036434 0.000000 0.000000
# 5 0.000000 0.000000 0.000000 0.000000 0.019048 0.000000
# 6 0.000000 0.000000 0.000000 0.000000 0.000000 0.048297
#
#
# Mechanical properties :
#
#
# Convention : Reuss Voigt Hill
#
# Bulk Modulus (GPa) = 54.45160 56.63542 55.54351
# Shear Modulus (GPa) = 32.83548 37.39500 35.11524
#
# Velocity S-wave (km/s) = 4.09668 4.37187 4.23651
# Velocity P-wave (km/s) = 7.08577 7.37778 7.23325
#
# Compressibility (1/GPa) = 0.01836493
#
# Stress axis : x y z
#
# Youngs Moduli (GPa) = 97.21902 81.20652 128.71843
#
# Poissons Ratio (x) = 0.16995 0.16368
# Poissons Ratio (y) = 0.20347 0.33952
# Poissons Ratio (z) = 0.12362 0.21420
#
# Static dielectric constant tensor:
#      x y z
#    x 1.789200 0.000000 0.000000 
#    y 0.000000 1.687030 0.000000 
#    z 0.000000 0.000000 1.691240 
# 
# From -- ./inp_files/13390.got.cif
#   From: 2010.05.17/outbox.cif.g08.bks.cpg/sg49_7_cif.got.tgz:13390.got - 2010.06.03 21:02:19.
