data_PCOD9393218
_publ_section_title
;
Structure prediction by ZEFSAII (Michael W. Deem and Ramdas Pophale) SiO2 
 PCOD9393218
Probable space group: P C C M
;
_chemical_formula_sum "Si O2"
_cell_formula_units_Z 48
_cell_length_a 9.120708
_cell_length_b 18.760364
_cell_length_c 15.555053
_cell_angle_alpha 90.000000
_cell_angle_beta 90.000000
_cell_angle_gamma 90.000000
_cell_volume 2661.590929
_symmetry_space_group_name_H-M "P C C M"
_symmetry_group_IT_number 49
_symmetry_cell_setting 'orthorhombic'
loop_
_space_group_symop_operation_xyz
x,y,z
-x,-y,z
x,-y,1/2-z
-x,y,1/2-z
-x,-y,-z
x,y,-z
-x,y,1/2+z
x,-y,1/2+z
loop_
_atom_site_type_symbol
_atom_site_label
_atom_site_fract_x
_atom_site_fract_y
_atom_site_fract_z
Si Si1 0.100349 0.569287 0.598385
Si Si2 0.177235 0.334714 0.597101
Si Si3 0.667014 0.414813 0.253196
Si Si4 0.332956 0.084566 0.764356
Si Si5 0.104275 0.817512 0.167925
Si Si6 0.097137 0.933640 0.402693
O O1 0.150958 0.553538 0.500000
O O2 0.229795 0.592874 0.662532
O O3 0.000000 0.500000 0.625872
O O4 0.986731 0.634045 0.595560
O O5 0.237481 0.342692 0.500000
O O6 0.258342 0.380836 0.669493
O O7 0.168699 0.253069 0.625978
O O8 0.658636 0.500000 0.250000
O O9 0.500000 0.387077 0.250000
O O10 0.500000 0.108637 0.750000
O O11 0.231354 0.130232 0.701337
O O12 0.246590 0.087463 0.854656
O O13 0.331603 0.000000 0.750000
O O14 0.000000 0.799525 0.250000
O O15 0.005694 0.864648 0.104555
O O16 0.130404 0.953793 0.500000
O O17 0.000000 0.000000 0.364358
#
# Coordination Sequence:
#
# PCOD9393218 Si02
#       6
#     8   8   8   8   8   8
#     4  10  20  37  62  87 115 153 199 244 289 341
#     4  11  23  39  60  90 119 154 198 248 295 346
#     4  11  23  37  59  88 122 160 196 238 292 355
#     4  10  20  36  57  85 118 156 194 233 284 352
#     4  10  20  35  61  85 115 155 197 239 291 345
#     4  10  19  34  57  85 114 147 192 242 285 337
#
# _framework density 18.034327000000001
#
# number of rings (size 3 to 8) (size 9 to 14) (size 15 to 20)
#    0.000    1.667    3.333    2.000    0.000    1.333 
#    0.000    5.000    0.000    0.000    0.000    0.000 
#    0.000    0.000    0.000    0.000    0.000    0.000 
#
# Total GULP energy -267297.874355 kJ/mol
# GULP energy per Si atom -5568.705716 kJ/mol
# Density = 1.799328 g / cm^3
# Si number density = 18.034327 Si / 1000 Ang^3
#
#
#
# Elastic Constant Matrix: (Units=GPa)
#
#
# Indices 1 2 3 4 5 6 
#
# 1 131.5868 20.1293 74.5162 0.0000 0.0000 0.0000
# 2 20.1293 79.3085 28.9547 0.0000 0.0000 0.0000
# 3 74.5162 28.9547 113.6492 0.0000 0.0000 0.0000
# 4 0.0000 0.0000 0.0000 19.3831 0.0000 0.0000
# 5 0.0000 0.0000 0.0000 0.0000 8.8860 0.0000
# 6 0.0000 0.0000 0.0000 0.0000 0.0000 -19.6627
#
#
#
# Elastic Compliance Matrix: (Units=1/GPa)
#
#
# Indices 1 2 3 4 5 6 
#
# 1 0.012090 -0.000192 -0.007878 0.000000 0.000000 0.000000
# 2 -0.000192 0.013905 -0.003417 0.000000 0.000000 0.000000
# 3 -0.007878 -0.003417 0.014835 0.000000 0.000000 0.000000
# 4 0.000000 0.000000 0.000000 0.051591 0.000000 0.000000
# 5 0.000000 0.000000 0.000000 0.000000 0.112537 0.000000
# 6 0.000000 0.000000 0.000000 0.000000 0.000000 -0.050858
#
#
# Mechanical properties :
#
#
# Convention : Reuss Voigt Hill
#
# Bulk Modulus (GPa) = 56.00303 63.52720 59.76512
# Shear Modulus (GPa) = 27.31829 15.11756 21.21793
#
# Velocity S-wave (km/s) = 3.89626 2.89842 3.43378
# Velocity P-wave (km/s) = 7.16674 6.81933 6.99519
#
# Compressibility (1/GPa) = 0.01785618
#
# Stress axis : x y z
#
# Youngs Moduli (GPa) = 82.71065 71.91577 67.40840
#
# Poissons Ratio (x) = 0.01384 0.53106
# Poissons Ratio (y) = 0.01591 0.23030
# Poissons Ratio (z) = 0.65161 0.24570
#
# Static dielectric constant tensor:
#      x y z
#    x 1.631380 0.000000 0.000000 
#    y 0.000000 1.615150 0.000000 
#    z 0.000000 0.000000 1.661390 
# 
# From -- ./inp_files/11760.got.cif
#   From: 2010.05.17/outbox.cif.g08.bks.cpg/sg49_6_cif.got.tgz:11760.got - 2010.06.03 21:02:19.
