data_PCOD9393686
_publ_section_title
;
Structure prediction by ZEFSAII (Michael W. Deem and Ramdas Pophale) SiO2 
 PCOD9393686
Probable space group: P C C M
;
_chemical_formula_sum "Si O2"
_cell_formula_units_Z 64
_cell_length_a 20.077144
_cell_length_b 20.623673
_cell_length_c 9.072926
_cell_angle_alpha 90.000000
_cell_angle_beta 90.000000
_cell_angle_gamma 90.000000
_cell_volume 3756.776138
_symmetry_space_group_name_H-M "P C C M"
_symmetry_group_IT_number 49
_symmetry_cell_setting 'orthorhombic'
loop_
_space_group_symop_operation_xyz
x,y,z
-x,-y,z
x,-y,1/2-z
-x,y,1/2-z
-x,-y,-z
x,y,-z
-x,y,1/2+z
x,-y,1/2+z
loop_
_atom_site_type_symbol
_atom_site_label
_atom_site_fract_x
_atom_site_fract_y
_atom_site_fract_z
Si Si1 0.433106 0.744613 0.330952
Si Si2 0.702510 0.895534 0.325728
Si Si3 0.852744 0.066520 0.177222
Si Si4 0.701636 0.257696 0.824810
Si Si5 0.072764 0.811829 0.322723
Si Si6 0.567569 0.902836 0.831009
Si Si7 0.153460 0.303622 0.324061
Si Si8 0.929206 0.567896 0.324216
O O1 0.500000 0.723229 0.250000
O O2 0.435096 0.725460 0.500000
O O3 0.365360 0.721341 0.255894
O O4 0.432454 0.823700 0.325145
O O5 0.689355 0.900729 0.500000
O O6 0.773399 0.927523 0.293773
O O7 0.711614 0.818863 0.291163
O O8 0.637705 0.921491 0.241999
O O9 0.888790 0.126639 0.254533
O O10 0.877107 0.000000 0.250000
O O11 0.862482 0.068113 0.000000
O O12 0.768784 0.295670 0.786319
O O13 0.691382 0.262549 0.000000
O O14 0.069158 0.815460 0.500000
O O15 0.112249 0.748175 0.269751
O O16 0.000000 0.809750 0.250000
O O17 0.500000 0.923795 0.750000
O O18 0.565654 0.923438 0.000000
O O19 0.146726 0.288073 0.500000
O O20 0.123267 0.374656 0.300405
O O21 0.908927 0.500000 0.250000
O O22 0.938236 0.559545 0.500000
O O23 0.000000 0.585840 0.250000
#
# Coordination Sequence:
#
# PCOD9393686 Si02
#       8
#     8   8   8   8   8   8   8   8
#     4   9  16  25  38  62  95 132 170 208 251 301
#     4   9  17  31  51  70  97 131 163 205 256 309
#     4  11  23  41  60  80 104 133 171 216 266 322
#     4   9  16  29  48  70  99 134 168 208 259 307
#     4  12  25  40  60  83 107 136 171 215 264 318
#     4   9  16  25  41  66  96 126 164 205 248 303
#     4  10  20  36  56  81 111 144 178 218 265 313
#     4  10  20  34  54  77 108 145 184 221 261 309
#
# _framework density 17.035882999999998
#
# number of rings (size 3 to 8) (size 9 to 14) (size 15 to 20)
#    0.000    2.125    1.250    3.375    0.000    6.750 
#    0.000    1.250    0.000    0.375    0.000    2.625 
#    0.000    0.500    0.000    5.750    0.000    2.000 
#
# Total GULP energy -357265.313862 kJ/mol
# GULP energy per Si atom -5582.270529 kJ/mol
# Density = 1.699711 g / cm^3
# Si number density = 17.035883 Si / 1000 Ang^3
#
#
#
# Elastic Constant Matrix: (Units=GPa)
#
#
# Indices 1 2 3 4 5 6 
#
# 1 144.5959 60.6425 88.9276 0.0000 0.0000 0.0000
# 2 60.6425 75.6290 53.5076 0.0000 0.0000 0.0000
# 3 88.9276 53.5076 99.7910 0.0000 0.0000 0.0000
# 4 0.0000 0.0000 0.0000 16.1526 0.0000 0.0000
# 5 0.0000 0.0000 0.0000 0.0000 30.7168 0.0000
# 6 0.0000 0.0000 0.0000 0.0000 0.0000 35.7740
#
#
#
# Elastic Compliance Matrix: (Units=1/GPa)
#
#
# Indices 1 2 3 4 5 6 
#
# 1 0.016189 -0.004470 -0.012030 0.000000 0.000000 0.000000
# 2 -0.004470 0.022539 -0.008102 0.000000 0.000000 0.000000
# 3 -0.012030 -0.008102 0.025085 0.000000 0.000000 0.000000
# 4 0.000000 0.000000 0.000000 0.061910 0.000000 0.000000
# 5 0.000000 0.000000 0.000000 0.000000 0.032555 0.000000
# 6 0.000000 0.000000 0.000000 0.000000 0.000000 0.027953
#
#
# Mechanical properties :
#
#
# Convention : Reuss Voigt Hill
#
# Bulk Modulus (GPa) = 68.44723 80.68571 74.56647
# Shear Modulus (GPa) = 20.80694 24.32455 22.56575
#
# Velocity S-wave (km/s) = 3.49859 3.78278 3.64346
# Velocity P-wave (km/s) = 7.52234 8.15747 7.84633
#
# Compressibility (1/GPa) = 0.01460979
#
# Stress axis : x y z
#
# Youngs Moduli (GPa) = 61.77089 44.36821 39.86379
#
# Poissons Ratio (x) = 0.19832 0.47955
# Poissons Ratio (y) = 0.27610 0.32297
# Poissons Ratio (z) = 0.74309 0.35947
#
# Static dielectric constant tensor:
#      x y z
#    x 1.573450 0.000000 0.000000 
#    y 0.000000 1.571550 0.000000 
#    z 0.000000 0.000000 1.567290 
# 
# From -- ./inp_files/5322.got.cif
#   From: 2010.05.17/outbox.cif.g08.bks.cpg/sg49_3_cif.got.tgz:5322.got - 2010.06.03 21:02:19.
