data_PCOD9393444
_publ_section_title
;
Structure prediction by ZEFSAII (Michael W. Deem and Ramdas Pophale) SiO2 
 PCOD9393444
Probable space group: P C C M
;
_chemical_formula_sum "Si O2"
_cell_formula_units_Z 28
_cell_length_a 14.344413
_cell_length_b 5.278130
_cell_length_c 18.432771
_cell_angle_alpha 90.000000
_cell_angle_beta 90.000000
_cell_angle_gamma 90.000000
_cell_volume 1395.575997
_symmetry_space_group_name_H-M "P C C M"
_symmetry_group_IT_number 49
_symmetry_cell_setting 'orthorhombic'
loop_
_space_group_symop_operation_xyz
x,y,z
-x,-y,z
x,-y,1/2-z
-x,y,1/2-z
-x,-y,-z
x,y,-z
-x,y,1/2+z
x,-y,1/2+z
loop_
_atom_site_type_symbol
_atom_site_label
_atom_site_fract_x
_atom_site_fract_y
_atom_site_fract_z
Si Si1 0.219818 0.009892 0.838072
Si Si2 0.500000 0.500000 0.250000
Si Si3 0.893342 0.510522 0.338125
Si Si4 0.500000 0.500000 0.000000
Si Si5 0.584228 0.808454 0.622919
O O1 0.170368 0.271716 0.859286
O O2 0.230421 0.000000 0.750000
O O3 0.154295 0.774010 0.858416
O O4 0.320202 0.960478 0.872987
O O5 0.436493 0.322645 0.300079
O O6 0.896657 0.500000 0.250000
O O7 0.000000 0.500000 0.364007
O O8 0.425869 0.592253 0.063237
O O9 0.500000 0.000000 0.604993
#
# Coordination Sequence:
#
# PCOD9393444 Si02
#       5
#     8   2   8   2   8
#     4  10  20  31  57  85 118 158 195 243 304 366
#     4  10  22  34  60  84 126 154 194 254 310 354
#     4   9  18  32  50  82 122 155 191 242 302 367
#     4  10  26  42  60  76 126 160 218 250 314 358
#     4  11  23  39  58  87 121 160 203 254 303 373
#
# _framework density 20.063399
#
# number of rings (size 3 to 8) (size 9 to 14) (size 15 to 20)
#    0.000    2.000    0.000    3.429   14.000    3.429 
#    0.000    0.000    0.000    0.000    0.000    6.000 
#    0.000    0.000    0.000    0.000    0.000    0.000 
#
# Total GULP energy -155887.294204 kJ/mol
# GULP energy per Si atom -5567.403364 kJ/mol
# Density = 2.001773 g / cm^3
# Si number density = 20.063399 Si / 1000 Ang^3
#
#
#
# Elastic Constant Matrix: (Units=GPa)
#
#
# Indices 1 2 3 4 5 6 
#
# 1 176.8466 60.4382 19.9292 0.0000 0.0000 0.0000
# 2 60.4382 105.7807 11.4511 0.0000 0.0000 0.0000
# 3 19.9292 11.4511 53.2358 0.0000 0.0000 0.0000
# 4 0.0000 0.0000 0.0000 -34.7679 0.0000 0.0000
# 5 0.0000 0.0000 0.0000 0.0000 -2.4524 0.0000
# 6 0.0000 0.0000 0.0000 0.0000 0.0000 38.8134
#
#
#
# Elastic Compliance Matrix: (Units=1/GPa)
#
#
# Indices 1 2 3 4 5 6 
#
# 1 0.007201 -0.003914 -0.001854 0.000000 0.000000 0.000000
# 2 -0.003914 0.011806 -0.001074 0.000000 0.000000 0.000000
# 3 -0.001854 -0.001074 0.019709 0.000000 0.000000 0.000000
# 4 0.000000 0.000000 0.000000 -0.028762 0.000000 0.000000
# 5 0.000000 0.000000 0.000000 0.000000 -0.407770 0.000000
# 6 0.000000 0.000000 0.000000 0.000000 0.000000 0.025764
#
#
# Mechanical properties :
#
#
# Convention : Reuss Voigt Hill
#
# Bulk Modulus (GPa) = 39.94798 57.72222 48.83510
# Shear Modulus (GPa) = -14.28478 16.58826 1.15174
#
# Velocity S-wave (km/s) = -2.67119 2.87852 0.75848
# Velocity P-wave (km/s) = 3.23116 6.31508 5.01600
#
# Compressibility (1/GPa) = 0.02503255
#
# Stress axis : x y z
#
# Youngs Moduli (GPa) = 138.86863 84.70333 50.73696
#
# Poissons Ratio (x) = 0.33150 0.09406
# Poissons Ratio (y) = 0.54348 0.05451
# Poissons Ratio (z) = 0.25745 0.09100
#
# Static dielectric constant tensor:
#      x y z
#    x 1.695130 0.000000 0.000000 
#    y 0.000000 1.731120 0.000000 
#    z 0.000000 0.000000 1.720000 
# 
# From -- ./inp_files/20143.got.cif
#   From: 2010.05.17/outbox.cif.g08.bks.cpg/sg49_11_cif.got.tgz:20143.got - 2010.06.03 21:02:19.
