data_PCOD9393295
_publ_section_title
;
Structure prediction by ZEFSAII (Michael W. Deem and Ramdas Pophale) SiO2 
 PCOD9393295
Probable space group: P C C M
;
_chemical_formula_sum "Si O2"
_cell_formula_units_Z 48
_cell_length_a 14.901813
_cell_length_b 20.963582
_cell_length_c 8.631514
_cell_angle_alpha 90.000000
_cell_angle_beta 90.000000
_cell_angle_gamma 90.000000
_cell_volume 2696.445085
_symmetry_space_group_name_H-M "P C C M"
_symmetry_group_IT_number 49
_symmetry_cell_setting 'orthorhombic'
loop_
_space_group_symop_operation_xyz
x,y,z
-x,-y,z
x,-y,1/2-z
-x,y,1/2-z
-x,-y,-z
x,y,-z
-x,y,1/2+z
x,-y,1/2+z
loop_
_atom_site_type_symbol
_atom_site_label
_atom_site_fract_x
_atom_site_fract_y
_atom_site_fract_z
Si Si1 0.714849 0.183767 0.812333
Si Si2 0.905036 0.763924 0.686392
Si Si3 0.399689 0.308497 0.313041
Si Si4 0.095081 0.614776 0.186537
Si Si5 0.712220 0.567386 0.312882
Si Si6 0.597843 0.070602 0.684717
O O1 0.817352 0.197230 0.764326
O O2 0.656322 0.245799 0.767397
O O3 0.670728 0.121405 0.740268
O O4 0.712374 0.178942 0.000000
O O5 0.907550 0.764635 0.500000
O O6 0.895281 0.689402 0.733162
O O7 0.000000 0.787463 0.750000
O O8 0.500000 0.306341 0.250000
O O9 0.402196 0.309188 0.500000
O O10 0.347613 0.372455 0.262646
O O11 0.184734 0.578901 0.238812
O O12 0.000000 0.590826 0.250000
O O13 0.092217 0.612666 0.000000
O O14 0.679186 0.500000 0.250000
O O15 0.711913 0.566391 0.500000
O O16 0.500000 0.090031 0.750000
O O17 0.593196 0.068063 0.500000
O O18 0.616544 0.000000 0.750000
#
# Coordination Sequence:
#
# PCOD9393295 Si02
#       6
#     8   8   8   8   8   8
#     4  10  19  35  58  82 111 145 178 220 271 317
#     4   9  17  31  53  79 108 141 175 217 267 318
#     4  10  21  37  55  75 102 135 175 221 269 320
#     4   9  17  32  52  74 101 134 170 213 265 319
#     4  10  21  37  53  71 100 137 175 217 269 323
#     4  11  22  37  57  84 117 151 185 221 263 315
#
# _framework density 17.801216
#
# number of rings (size 3 to 8) (size 9 to 14) (size 15 to 20)
#    0.000    2.167    1.667    2.500    0.000    4.667 
#    0.000    3.333    0.000    0.500    0.000    3.500 
#    0.000    0.000    0.000    0.000    0.000    0.000 
#
# Total GULP energy -267945.499824 kJ/mol
# GULP energy per Si atom -5582.197913 kJ/mol
# Density = 1.776070 g / cm^3
# Si number density = 17.801216 Si / 1000 Ang^3
#
#
#
# Elastic Constant Matrix: (Units=GPa)
#
#
# Indices 1 2 3 4 5 6 
#
# 1 141.1392 64.9634 29.3963 0.0000 0.0000 0.0000
# 2 64.9634 84.5206 25.7993 0.0000 0.0000 0.0000
# 3 29.3963 25.7993 31.3099 0.0000 0.0000 0.0000
# 4 0.0000 0.0000 0.0000 25.5493 0.0000 0.0000
# 5 0.0000 0.0000 0.0000 0.0000 28.5053 0.0000
# 6 0.0000 0.0000 0.0000 0.0000 0.0000 17.5675
#
#
#
# Elastic Compliance Matrix: (Units=1/GPa)
#
#
# Indices 1 2 3 4 5 6 
#
# 1 0.011454 -0.007377 -0.004676 0.000000 0.000000 0.000000
# 2 -0.007377 0.020558 -0.010014 0.000000 0.000000 0.000000
# 3 -0.004676 -0.010014 0.044580 0.000000 0.000000 0.000000
# 4 0.000000 0.000000 0.000000 0.039140 0.000000 0.000000
# 5 0.000000 0.000000 0.000000 0.000000 0.035081 0.000000
# 6 0.000000 0.000000 0.000000 0.000000 0.000000 0.056923
#
#
# Mechanical properties :
#
#
# Convention : Reuss Voigt Hill
#
# Bulk Modulus (GPa) = 30.80745 55.25419 43.03082
# Shear Modulus (GPa) = 19.03384 23.44514 21.23949
#
# Velocity S-wave (km/s) = 3.27348 3.63306 3.45795
# Velocity P-wave (km/s) = 5.62419 6.97895 6.33787
#
# Compressibility (1/GPa) = 0.03245968
#
# Stress axis : x y z
#
# Youngs Moduli (GPa) = 87.30225 48.64308 22.43142
#
# Poissons Ratio (x) = 0.35883 0.10489
# Poissons Ratio (y) = 0.64400 0.22462
# Poissons Ratio (z) = 0.40822 0.48710
#
# Static dielectric constant tensor:
#      x y z
#    x 1.600700 0.000000 0.000000 
#    y 0.000000 1.592710 0.000000 
#    z 0.000000 0.000000 1.599940 
# 
# From -- ./inp_files/3700.got.cif
#   From: 2010.05.17/outbox.cif.g08.bks.cpg/sg49_2_cif.got.tgz:3700.got - 2010.06.03 21:02:19.
