data_PCOD9393933
_publ_section_title
;
Structure prediction by ZEFSAII (Michael W. Deem and Ramdas Pophale) SiO2 
 PCOD9393933
Probable space group: P C C M
;
_chemical_formula_sum "Si O2"
_cell_formula_units_Z 40
_cell_length_a 9.856013
_cell_length_b 26.730165
_cell_length_c 8.584286
_cell_angle_alpha 90.000000
_cell_angle_beta 90.000000
_cell_angle_gamma 90.000000
_cell_volume 2261.554644
_symmetry_space_group_name_H-M "P C C M"
_symmetry_group_IT_number 49
_symmetry_cell_setting 'orthorhombic'
loop_
_space_group_symop_operation_xyz
x,y,z
-x,-y,z
x,-y,1/2-z
-x,y,1/2-z
-x,-y,-z
x,y,-z
-x,y,1/2+z
x,-y,1/2+z
loop_
_atom_site_type_symbol
_atom_site_label
_atom_site_fract_x
_atom_site_fract_y
_atom_site_fract_z
Si Si1 0.651872 0.751130 0.687870
Si Si2 0.652533 0.859692 0.813504
Si Si3 0.845655 0.551084 0.313698
Si Si4 0.152136 0.945602 0.813435
Si Si5 0.152990 0.338878 0.687862
O O1 0.500000 0.742208 0.750000
O O2 0.648811 0.753659 0.500000
O O3 0.696835 0.804857 0.754007
O O4 0.751071 0.706433 0.737836
O O5 0.500000 0.867246 0.750000
O O6 0.749712 0.902487 0.747997
O O7 0.651049 0.860444 0.000000
O O8 0.780448 0.500000 0.250000
O O9 0.849015 0.547915 0.500000
O O10 0.791292 0.605874 0.267195
O O11 0.000000 0.551679 0.250000
O O12 0.000000 0.937113 0.750000
O O13 0.195887 0.000000 0.750000
O O14 0.149935 0.946480 0.000000
O O15 0.146455 0.338108 0.500000
O O16 0.000000 0.333397 0.750000
#
# Coordination Sequence:
#
# PCOD9393933 Si02
#       5
#     8   8   8   8   8
#     4  10  20  36  54  75 102 136 173 214 259 310
#     4  11  22  38  58  82 108 140 179 221 263 311
#     4   9  15  25  41  65  94 126 159 200 248 299
#     4  11  22  39  60  85 114 146 179 216 261 312
#     4   9  19  32  49  73 102 130 166 210 255 304
#
# _framework density 17.686947
#
# number of rings (size 3 to 8) (size 9 to 14) (size 15 to 20)
#    0.000    2.000    0.000    7.200    0.000    3.600 
#    0.000    4.000    0.000    0.600    0.000    4.200 
#    0.000    0.000    0.000    0.000    0.000    0.000 
#
# Total GULP energy -223161.012683 kJ/mol
# GULP energy per Si atom -5579.025317 kJ/mol
# Density = 1.764669 g / cm^3
# Si number density = 17.686947 Si / 1000 Ang^3
#
#
#
# Elastic Constant Matrix: (Units=GPa)
#
#
# Indices 1 2 3 4 5 6 
#
# 1 55.6731 96.9869 32.0888 0.0000 0.0000 0.0000
# 2 96.9869 223.7350 69.8593 0.0000 0.0000 0.0000
# 3 32.0888 69.8593 117.5596 0.0000 0.0000 0.0000
# 4 0.0000 0.0000 0.0000 34.1816 0.0000 0.0000
# 5 0.0000 0.0000 0.0000 0.0000 18.7208 0.0000
# 6 0.0000 0.0000 0.0000 0.0000 0.0000 -70.0815
#
#
#
# Elastic Compliance Matrix: (Units=1/GPa)
#
#
# Indices 1 2 3 4 5 6 
#
# 1 0.073550 -0.031450 -0.001387 0.000000 0.000000 0.000000
# 2 -0.031450 0.018936 -0.002668 0.000000 0.000000 0.000000
# 3 -0.001387 -0.002668 0.010470 0.000000 0.000000 0.000000
# 4 0.000000 0.000000 0.000000 0.029256 0.000000 0.000000
# 5 0.000000 0.000000 0.000000 0.000000 0.053417 0.000000
# 6 0.000000 0.000000 0.000000 0.000000 0.000000 -0.014269
#
#
# Mechanical properties :
#
#
# Convention : Reuss Voigt Hill
#
# Bulk Modulus (GPa) = 31.30281 88.31529 59.80905
# Shear Modulus (GPa) = 19.76146 9.76637 14.76391
#
# Velocity S-wave (km/s) = 3.34622 2.35240 2.89231
# Velocity P-wave (km/s) = 5.71544 7.57755 6.71139
#
# Compressibility (1/GPa) = 0.03194601
#
# Stress axis : x y z
#
# Youngs Moduli (GPa) = 13.59624 52.80966 95.50752
#
# Poissons Ratio (x) = 1.66087 0.13246
# Poissons Ratio (y) = 0.42760 0.25482
# Poissons Ratio (z) = 0.01886 0.14090
#
# Static dielectric constant tensor:
#      x y z
#    x 1.565380 0.000000 0.000000 
#    y 0.000000 1.638610 0.000000 
#    z 0.000000 0.000000 1.588120 
# 
# From -- ./inp_files/1928.got.cif
#   From: 2010.05.17/outbox.cif.g08.bks.cpg/sg49_1_cif.got.tgz:1928.got - 2010.06.03 21:02:19.
