data_PCOD9393560
_publ_section_title
;
Structure prediction by ZEFSAII (Michael W. Deem and Ramdas Pophale) SiO2 
 PCOD9393560
Probable space group: P C C M
;
_chemical_formula_sum "Si O2"
_cell_formula_units_Z 42
_cell_length_a 26.660877
_cell_length_b 9.994721
_cell_length_c 8.982948
_cell_angle_alpha 90.000000
_cell_angle_beta 90.000000
_cell_angle_gamma 90.000000
_cell_volume 2393.668432
_symmetry_space_group_name_H-M "P C C M"
_symmetry_group_IT_number 49
_symmetry_cell_setting 'orthorhombic'
loop_
_space_group_symop_operation_xyz
x,y,z
-x,-y,z
x,-y,1/2-z
-x,y,1/2-z
-x,-y,-z
x,y,-z
-x,y,1/2+z
x,-y,1/2+z
loop_
_atom_site_type_symbol
_atom_site_label
_atom_site_fract_x
_atom_site_fract_y
_atom_site_fract_z
Si Si1 0.048576 0.739636 0.834106
Si Si2 0.000000 0.000000 0.750000
Si Si3 0.146978 0.353022 0.822424
Si Si4 0.742656 0.351659 0.678524
Si Si5 0.358285 0.647067 0.821999
Si Si6 0.553589 0.857101 0.678331
O O1 0.099321 0.722244 0.743364
O O2 0.000000 0.678715 0.750000
O O3 0.034384 0.896718 0.839332
O O4 0.053820 0.684922 0.000000
O O5 0.145611 0.500000 0.750000
O O6 0.202206 0.292098 0.789396
O O7 0.142776 0.364238 0.000000
O O8 0.744528 0.500000 0.750000
O O9 0.736813 0.360040 0.500000
O O10 0.692830 0.292125 0.752164
O O11 0.365888 0.500000 0.750000
O O12 0.404845 0.744516 0.791910
O O13 0.352431 0.632377 0.000000
O O14 0.500000 0.820395 0.750000
O O15 0.548347 0.871809 0.500000
O O16 0.567869 0.000000 0.750000
#
# Coordination Sequence:
#
# PCOD9393560 Si02
#       6
#     8   2   8   8   8   8
#     4  10  20  34  54  74  97 128 163 204 249 297
#     4   8  22  36  56  72  94 124 170 202 252 300
#     4  10  20  33  51  77 106 132 166 204 249 304
#     4   9  17  30  50  75 103 136 167 204 250 301
#     4  10  20  33  53  81 109 139 177 219 263 313
#     4  10  21  36  55  78 105 141 181 219 265 317
#
# _framework density 17.546289999999999
#
# number of rings (size 3 to 8) (size 9 to 14) (size 15 to 20)
#    0.571    1.714    0.000    4.857    0.000    6.095 
#    0.000    3.810    2.095    0.000    0.000    0.000 
#    0.000    0.000    0.000    0.000    0.000    0.000 
#
# Total GULP energy -233850.900737 kJ/mol
# GULP energy per Si atom -5567.878589 kJ/mol
# Density = 1.750635 g / cm^3
# Si number density = 17.546290 Si / 1000 Ang^3
#
#
#
# Elastic Constant Matrix: (Units=GPa)
#
#
# Indices 1 2 3 4 5 6 
#
# 1 179.4828 65.6451 84.2178 0.0000 0.0000 0.0000
# 2 65.6451 47.9805 33.5571 0.0000 0.0000 0.0000
# 3 84.2178 33.5571 119.6264 0.0000 0.0000 0.0000
# 4 0.0000 0.0000 0.0000 15.8378 0.0000 0.0000
# 5 0.0000 0.0000 0.0000 0.0000 38.8459 0.0000
# 6 0.0000 0.0000 0.0000 0.0000 0.0000 75.4255
#
#
#
# Elastic Compliance Matrix: (Units=1/GPa)
#
#
# Indices 1 2 3 4 5 6 
#
# 1 0.013439 -0.014643 -0.005354 0.000000 0.000000 0.000000
# 2 -0.014643 0.041882 -0.001440 0.000000 0.000000 0.000000
# 3 -0.005354 -0.001440 0.012532 0.000000 0.000000 0.000000
# 4 0.000000 0.000000 0.000000 0.063140 0.000000 0.000000
# 5 0.000000 0.000000 0.000000 0.000000 0.025743 0.000000
# 6 0.000000 0.000000 0.000000 0.000000 0.000000 0.013258
#
#
# Mechanical properties :
#
#
# Convention : Reuss Voigt Hill
#
# Bulk Modulus (GPa) = 40.03055 79.32552 59.67803
# Shear Modulus (GPa) = 22.60449 36.93316 29.76882
#
# Velocity S-wave (km/s) = 3.59315 4.59289 4.12343
# Velocity P-wave (km/s) = 6.33073 8.56934 7.53365
#
# Compressibility (1/GPa) = 0.02498092
#
# Stress axis : x y z
#
# Youngs Moduli (GPa) = 74.40949 23.87637 79.79272
#
# Poissons Ratio (x) = 0.34961 0.42719
# Poissons Ratio (y) = 1.08954 0.11492
# Poissons Ratio (z) = 0.39837 0.03439
#
# Static dielectric constant tensor:
#      x y z
#    x 1.632470 0.000000 0.000000 
#    y 0.000000 1.580790 0.000000 
#    z 0.000000 0.000000 1.613120 
# 
# From -- ./inp_files/6291.got.cif
#   From: 2010.05.17/outbox.cif.g08.bks.cpg/sg49_4_cif.got.tgz:6291.got - 2010.06.03 21:02:19.
