data_PCOD9393896
_publ_section_title
;
Structure prediction by ZEFSAII (Michael W. Deem and Ramdas Pophale) SiO2 
 PCOD9393896
Probable space group: P C C M
;
_chemical_formula_sum "Si O2"
_cell_formula_units_Z 56
_cell_length_a 19.635544
_cell_length_b 7.773891
_cell_length_c 16.734454
_cell_angle_alpha 90.000000
_cell_angle_beta 90.000000
_cell_angle_gamma 90.000000
_cell_volume 2554.423682
_symmetry_space_group_name_H-M "P C C M"
_symmetry_group_IT_number 49
_symmetry_cell_setting 'orthorhombic'
loop_
_space_group_symop_operation_xyz
x,y,z
-x,-y,z
x,-y,1/2-z
-x,y,1/2-z
-x,-y,-z
x,y,-z
-x,y,1/2+z
x,-y,1/2+z
loop_
_atom_site_type_symbol
_atom_site_label
_atom_site_fract_x
_atom_site_fract_y
_atom_site_fract_z
Si Si1 0.780753 0.202404 0.839182
Si Si2 0.925109 0.292341 0.406588
Si Si3 0.925109 0.292341 0.093412
Si Si4 0.352984 0.299065 0.086860
Si Si5 0.780753 0.202405 0.660818
Si Si6 0.352984 0.299065 0.413140
Si Si7 0.579712 0.290328 0.750000
O O1 0.859411 0.227088 0.860823
O O2 0.768043 0.271480 0.750000
O O3 0.728220 0.287597 0.899884
O O4 0.766157 1.000000 0.840102
O O5 0.919607 0.243234 0.500000
O O6 0.923974 0.500000 0.403007
O O7 0.859411 0.227088 0.360823
O O8 1.000000 0.235703 0.377392
O O9 0.919607 0.243234 0.000000
O O10 0.271780 0.287597 0.100116
O O11 0.372508 0.500000 0.084450
O O12 0.386214 0.225663 0.167755
O O13 0.370865 0.223372 0.000000
O O14 0.370865 0.223372 0.500000
O O15 0.386214 0.225663 0.332245
O O16 0.587350 0.500000 0.750000
O O17 0.500000 0.251052 0.750000
#
# Coordination Sequence:
#
# PCOD9393896 Si02
#       7
#     8   8   8   8   8   8   8
#     4  11  23  36  52  77 110 147 187 232 279 328
#     4   9  19  36  56  78 105 139 182 231 282 336
#     4   9  19  36  56  78 105 139 182 231 282 336
#     4  10  20  35  58  85 112 147 188 227 273 330
#     4  11  23  36  52  77 110 147 187 232 279 328
#     4  10  20  35  58  85 112 147 188 227 273 330
#     4   9  18  34  57  87 120 147 176 223 277 326
#
# _framework density 21.922754000000001
#
# number of rings (size 3 to 8) (size 9 to 14) (size 15 to 20)
#    0.000    2.143    1.429    2.571    0.000    8.000 
#    0.000    7.143    0.000    1.714    0.000    2.000 
#    0.000    0.000    0.000    0.000    0.000    0.000 
#
# Total GULP energy -312693.092980 kJ/mol
# GULP energy per Si atom -5583.805232 kJ/mol
# Density = 2.187286 g / cm^3
# Si number density = 21.922754 Si / 1000 Ang^3
#
#
#
# Elastic Constant Matrix: (Units=GPa)
#
#
# Indices 1 2 3 4 5 6 
#
# 1 101.8279 -5.0777 65.0500 0.0000 0.0000 0.0000
# 2 -5.0777 33.1523 10.8779 0.0000 0.0000 0.0000
# 3 65.0500 10.8779 172.7147 0.0000 0.0000 0.0000
# 4 0.0000 0.0000 0.0000 -3.7257 0.0000 0.0000
# 5 0.0000 0.0000 0.0000 0.0000 11.7851 0.0000
# 6 0.0000 0.0000 0.0000 0.0000 0.0000 -52.3613
#
#
#
# Elastic Compliance Matrix: (Units=1/GPa)
#
#
# Indices 1 2 3 4 5 6 
#
# 1 0.013381 0.003781 -0.005278 0.000000 0.000000 0.000000
# 2 0.003781 0.031869 -0.003431 0.000000 0.000000 0.000000
# 3 -0.005278 -0.003431 0.007994 0.000000 0.000000 0.000000
# 4 0.000000 0.000000 0.000000 -0.268409 0.000000 0.000000
# 5 0.000000 0.000000 0.000000 0.000000 0.084853 0.000000
# 6 0.000000 0.000000 0.000000 0.000000 0.000000 -0.019098
#
#
# Mechanical properties :
#
#
# Convention : Reuss Voigt Hill
#
# Bulk Modulus (GPa) = 23.04814 49.93282 36.49048
# Shear Modulus (GPa) = -39.97031 6.92927 -16.52052
#
# Velocity S-wave (km/s) = -4.27457 1.77978 -2.74812
# Velocity P-wave (km/s) = 3.71839 5.20093 2.57131
#
# Compressibility (1/GPa) = 0.04338745
#
# Stress axis : x y z
#
# Youngs Moduli (GPa) = 74.73527 31.37866 125.09763
#
# Poissons Ratio (x) = -0.11865 0.66023
# Poissons Ratio (y) = -0.28258 0.42924
# Poissons Ratio (z) = 0.39443 0.10767
#
# Static dielectric constant tensor:
#      x y z
#    x 1.774130 0.000000 0.000000 
#    y 0.000000 1.793410 0.000000 
#    z 0.000000 0.000000 1.823340 
# 
# From -- ./inp_files/12027.got.cif
#   From: 2010.05.17/outbox.cif.g08.bks.cpg/sg49_7_cif.got.tgz:12027.got - 2010.06.03 21:02:19.
