data_PCOD9393166
_publ_section_title
;
Structure prediction by ZEFSAII (Michael W. Deem and Ramdas Pophale) SiO2 
 PCOD9393166
Probable space group: P C C M
;
_chemical_formula_sum "Si O2"
_cell_formula_units_Z 64
_cell_length_a 20.015548
_cell_length_b 20.898902
_cell_length_c 8.815334
_cell_angle_alpha 90.000000
_cell_angle_beta 90.000000
_cell_angle_gamma 90.000000
_cell_volume 3687.480448
_symmetry_space_group_name_H-M "P C C M"
_symmetry_group_IT_number 49
_symmetry_cell_setting 'orthorhombic'
loop_
_space_group_symop_operation_xyz
x,y,z
-x,-y,z
x,-y,1/2-z
-x,y,1/2-z
-x,-y,-z
x,y,-z
-x,y,1/2+z
x,-y,1/2+z
loop_
_atom_site_type_symbol
_atom_site_label
_atom_site_fract_x
_atom_site_fract_y
_atom_site_fract_z
Si Si1 0.291811 0.567522 0.319054
Si Si2 0.291506 0.807108 0.681453
Si Si3 0.212964 0.686576 0.182570
Si Si4 0.792136 0.934050 0.181181
Si Si5 0.929177 0.886063 0.681958
Si Si6 0.571529 0.230941 0.179660
Si Si7 0.930231 0.264474 0.818451
Si Si8 0.571546 0.384572 0.179821
O O1 0.269885 0.500000 0.250000
O O2 0.290510 0.565987 0.500000
O O3 0.246114 0.624752 0.256626
O O4 0.366989 0.581466 0.261398
O O5 0.289261 0.797889 0.500000
O O6 0.252768 0.749097 0.762108
O O7 0.254495 0.873433 0.718540
O O8 0.367340 0.803993 0.739026
O O9 0.135705 0.697074 0.227317
O O10 0.217654 0.682422 0.000000
O O11 0.865475 0.921478 0.249990
O O12 0.765646 0.000000 0.250000
O O13 0.797140 0.938803 0.000000
O O14 0.929987 0.891660 0.500000
O O15 0.921773 0.810552 0.723497
O O16 0.000000 0.907959 0.750000
O O17 0.500000 0.213698 0.250000
O O18 0.580074 0.307805 0.201484
O O19 0.572473 0.218939 0.000000
O O20 0.000000 0.287381 0.750000
O O21 0.934789 0.266609 0.000000
O O22 0.500000 0.402496 0.250000
O O23 0.572824 0.397542 0.000000
#
# Coordination Sequence:
#
# PCOD9393166 Si02
#       8
#     8   8   8   8   8   8   8   8
#     4  12  25  40  58  82 114 153 192 236 283 335
#     4  11  22  36  58  86 114 147 190 235 282 335
#     4  11  21  37  59  86 115 149 189 232 283 335
#     4  11  24  39  56  81 113 152 193 237 284 339
#     4  10  19  34  54  80 113 151 190 232 278 334
#     4  10  20  34  57  85 117 149 184 231 281 332
#     4   9  19  33  55  84 115 147 183 229 280 333
#     4  10  20  35  55  82 115 152 191 231 275 332
#
# _framework density 17.356024000000001
#
# number of rings (size 3 to 8) (size 9 to 14) (size 15 to 20)
#    0.000    1.500    2.500    3.375    0.000    4.500 
#    0.000    2.500    0.000    0.750    0.000    5.250 
#    0.000    0.000    0.000    0.000    0.000    0.000 
#
# Total GULP energy -357679.746453 kJ/mol
# GULP energy per Si atom -5588.746038 kJ/mol
# Density = 1.731652 g / cm^3
# Si number density = 17.356024 Si / 1000 Ang^3
#
#
#
# Elastic Constant Matrix: (Units=GPa)
#
#
# Indices 1 2 3 4 5 6 
#
# 1 125.7082 62.6137 50.4525 0.0000 0.0000 0.0000
# 2 62.6137 107.3511 58.8203 0.0000 0.0000 0.0000
# 3 50.4525 58.8203 88.2276 0.0000 0.0000 0.0000
# 4 0.0000 0.0000 0.0000 17.8887 0.0000 0.0000
# 5 0.0000 0.0000 0.0000 0.0000 30.7844 0.0000
# 6 0.0000 0.0000 0.0000 0.0000 0.0000 15.0170
#
#
#
# Elastic Compliance Matrix: (Units=1/GPa)
#
#
# Indices 1 2 3 4 5 6 
#
# 1 0.011830 -0.005031 -0.003411 0.000000 0.000000 0.000000
# 2 -0.005031 0.016816 -0.008334 0.000000 0.000000 0.000000
# 3 -0.003411 -0.008334 0.018841 0.000000 0.000000 0.000000
# 4 0.000000 0.000000 0.000000 0.055901 0.000000 0.000000
# 5 0.000000 0.000000 0.000000 0.000000 0.032484 0.000000
# 6 0.000000 0.000000 0.000000 0.000000 0.000000 0.066591
#
#
# Mechanical properties :
#
#
# Convention : Reuss Voigt Hill
#
# Bulk Modulus (GPa) = 71.76090 73.89555 72.82822
# Shear Modulus (GPa) = 20.77623 22.69805 21.73714
#
# Velocity S-wave (km/s) = 3.46361 3.62026 3.54280
# Velocity P-wave (km/s) = 7.57837 7.75524 7.66731
#
# Compressibility (1/GPa) = 0.01393517
#
# Stress axis : x y z
#
# Youngs Moduli (GPa) = 84.53332 59.46679 53.07591
#
# Poissons Ratio (x) = 0.29918 0.18102
# Poissons Ratio (y) = 0.42529 0.44234
# Poissons Ratio (z) = 0.28831 0.49560
#
# Static dielectric constant tensor:
#      x y z
#    x 1.577680 0.000000 0.000000 
#    y 0.000000 1.585700 0.000000 
#    z 0.000000 0.000000 1.574440 
# 
# From -- ./inp_files/5273.got.cif
#   From: 2010.05.17/outbox.cif.g08.bks.cpg/sg49_3_cif.got.tgz:5273.got - 2010.06.03 21:02:19.
