data_PCOD9393756
_publ_section_title
;
Structure prediction by ZEFSAII (Michael W. Deem and Ramdas Pophale) SiO2 
 PCOD9393756
Probable space group: P C C M
;
_chemical_formula_sum "Si O2"
_cell_formula_units_Z 64
_cell_length_a 11.226772
_cell_length_b 19.174333
_cell_length_c 14.839014
_cell_angle_alpha 90.000000
_cell_angle_beta 90.000000
_cell_angle_gamma 90.000000
_cell_volume 3194.333182
_symmetry_space_group_name_H-M "P C C M"
_symmetry_group_IT_number 49
_symmetry_cell_setting 'orthorhombic'
loop_
_space_group_symop_operation_xyz
x,y,z
-x,-y,z
x,-y,1/2-z
-x,y,1/2-z
-x,-y,-z
x,y,-z
-x,y,1/2+z
x,-y,1/2+z
loop_
_atom_site_type_symbol
_atom_site_label
_atom_site_fract_x
_atom_site_fract_y
_atom_site_fract_z
Si Si1 0.457592 0.319273 0.597120
Si Si2 0.982170 0.130322 0.389324
Si Si3 0.369287 0.198157 0.292503
Si Si4 0.724664 0.690498 0.846465
Si Si5 0.988996 0.711642 0.898160
Si Si6 0.084445 0.435820 0.609154
Si Si7 0.322421 0.572264 0.214899
Si Si8 0.187600 0.079836 0.266241
O O1 0.419044 0.344222 0.500000
O O2 0.395082 0.245921 0.620563
O O3 0.599562 0.310020 0.601332
O O4 0.416629 0.376073 0.669219
O O5 0.970140 0.125040 0.500000
O O6 0.014825 0.210749 0.363471
O O7 0.867739 0.109356 0.328387
O O8 0.086927 0.084574 0.344508
O O9 0.500000 0.186919 0.250000
O O10 0.293790 0.249281 0.227692
O O11 0.296262 0.127676 0.298886
O O12 0.846147 0.704282 0.897809
O O13 0.732986 0.616632 0.796535
O O14 0.041582 0.640819 0.857026
O O15 0.034985 0.712782 0.000000
O O16 0.081795 0.435331 0.500000
O O17 0.216964 0.444914 0.645524
O O18 0.000000 0.500000 0.638121
O O19 0.371433 0.500000 0.250000
O O20 0.220714 0.000000 0.250000
#
# Coordination Sequence:
#
# PCOD9393756 Si02
#       8
#     8   8   8   8   8   8   8   8
#     4  10  22  40  63  86 114 153 200 255 306 357
#     4  10  22  38  60  91 127 166 207 251 302 368
#     4   9  20  39  60  88 118 155 200 247 300 361
#     4  10  20  37  59  82 115 150 194 246 297 355
#     4  10  20  34  58  86 114 155 202 246 294 354
#     4  10  22  38  54  81 119 154 195 247 302 356
#     4  11  23  37  56  83 116 155 199 245 302 362
#     4  11  23  39  62  92 126 164 203 250 312 371
#
# _framework density 20.035481000000001
#
# number of rings (size 3 to 8) (size 9 to 14) (size 15 to 20)
#    0.000    1.875    1.250    3.375    3.500    4.500 
#    0.000    2.500    0.000    0.000    0.000    3.500 
#    0.000    0.000    0.000    0.000    0.000    0.000 
#
# Total GULP energy -357136.858290 kJ/mol
# GULP energy per Si atom -5580.263411 kJ/mol
# Density = 1.998988 g / cm^3
# Si number density = 20.035481 Si / 1000 Ang^3
#
#
#
# Elastic Constant Matrix: (Units=GPa)
#
#
# Indices 1 2 3 4 5 6 
#
# 1 58.3189 22.7793 3.0424 0.0000 0.0000 0.0000
# 2 22.7793 132.4320 14.0477 0.0000 0.0000 0.0000
# 3 3.0424 14.0477 79.9629 0.0000 0.0000 0.0000
# 4 0.0000 0.0000 0.0000 10.4581 0.0000 0.0000
# 5 0.0000 0.0000 0.0000 0.0000 5.8210 0.0000
# 6 0.0000 0.0000 0.0000 0.0000 0.0000 17.5703
#
#
#
# Elastic Compliance Matrix: (Units=1/GPa)
#
#
# Indices 1 2 3 4 5 6 
#
# 1 0.018384 -0.003147 -0.000147 0.000000 0.000000 0.000000
# 2 -0.003147 0.008233 -0.001327 0.000000 0.000000 0.000000
# 3 -0.000147 -0.001327 0.012744 0.000000 0.000000 0.000000
# 4 0.000000 0.000000 0.000000 0.095620 0.000000 0.000000
# 5 0.000000 0.000000 0.000000 0.000000 0.171791 0.000000
# 6 0.000000 0.000000 0.000000 0.000000 0.000000 0.056914
#
#
# Mechanical properties :
#
#
# Convention : Reuss Voigt Hill
#
# Bulk Modulus (GPa) = 33.19894 38.93919 36.06907
# Shear Modulus (GPa) = 13.05599 22.15952 17.60775
#
# Velocity S-wave (km/s) = 2.55550 3.32929 2.96772
# Velocity P-wave (km/s) = 5.03125 5.85288 5.45755
#
# Compressibility (1/GPa) = 0.03012144
#
# Stress axis : x y z
#
# Youngs Moduli (GPa) = 54.39564 121.46233 78.46562
#
# Poissons Ratio (x) = 0.38219 0.01151
# Poissons Ratio (y) = 0.17116 0.10410
# Poissons Ratio (z) = 0.00798 0.16114
#
# Static dielectric constant tensor:
#      x y z
#    x 1.704270 0.000000 0.000000 
#    y 0.000000 1.710620 0.000000 
#    z 0.000000 0.000000 1.746500 
# 
# From -- ./inp_files/13089.got.cif
#   From: 2010.05.17/outbox.cif.g08.bks.cpg/sg49_7_cif.got.tgz:13089.got - 2010.06.03 21:02:19.
