data_PCOD9393047
_publ_section_title
;
Structure prediction by ZEFSAII (Michael W. Deem and Ramdas Pophale) SiO2 
 PCOD9393047
Probable space group: P C C M
;
_chemical_formula_sum "Si O2"
_cell_formula_units_Z 48
_cell_length_a 20.317726
_cell_length_b 11.394640
_cell_length_c 9.267961
_cell_angle_alpha 90.000000
_cell_angle_beta 90.000000
_cell_angle_gamma 90.000000
_cell_volume 2145.655062
_symmetry_space_group_name_H-M "P C C M"
_symmetry_group_IT_number 49
_symmetry_cell_setting 'orthorhombic'
loop_
_space_group_symop_operation_xyz
x,y,z
-x,-y,z
x,-y,1/2-z
-x,y,1/2-z
-x,-y,-z
x,y,-z
-x,y,1/2+z
x,-y,1/2+z
loop_
_atom_site_type_symbol
_atom_site_label
_atom_site_fract_x
_atom_site_fract_y
_atom_site_fract_z
Si Si1 0.595503 0.108349 0.662006
Si Si2 0.258312 0.824134 0.344885
Si Si3 0.110430 0.121325 0.829411
Si Si4 0.562252 0.659151 0.664970
Si Si5 0.286353 0.394241 0.659306
Si Si6 0.926905 0.625393 0.319733
O O1 0.570413 0.113623 0.500000
O O2 0.675076 0.101619 0.655218
O O3 0.577830 0.222353 0.750587
O O4 0.570549 0.000000 0.750000
O O5 0.259366 0.758696 0.500000
O O6 0.189798 0.889485 0.336385
O O7 0.265651 0.729687 0.221122
O O8 0.099339 0.246382 0.742708
O O9 0.086183 0.000000 0.750000
O O10 0.087884 0.129350 0.000000
O O11 0.500000 0.610714 0.750000
O O12 0.542625 0.676635 0.500000
O O13 0.633755 0.598484 0.660687
O O14 0.259496 0.500000 0.750000
O O15 0.261495 0.405197 0.500000
O O16 0.899324 0.500000 0.250000
O O17 0.925734 0.622619 0.500000
O O18 0.000000 0.626812 0.250000
#
# Coordination Sequence:
#
# PCOD9393047 Si02
#       6
#     8   8   8   8   8   8
#     4  10  19  33  53  76 102 136 174 218 271 333
#     4   9  20  37  57  81 114 151 189 234 288 347
#     4  11  23  40  63  96 133 171 214 262 314 372
#     4  10  21  36  52  73  99 131 171 221 277 339
#     4  10  21  36  56  79 106 140 183 232 287 349
#     4  11  23  43  69  97 130 172 218 266 317 372
#
# _framework density 22.37079
#
# number of rings (size 3 to 8) (size 9 to 14) (size 15 to 20)
#    0.000    1.833    0.000    4.500    0.000    5.667 
#    0.000    5.000    0.000    0.000    0.000    0.000 
#    0.000    0.000    0.000    0.000    0.000    0.000 
#
# Total GULP energy -267404.321069 kJ/mol
# GULP energy per Si atom -5570.923356 kJ/mol
# Density = 2.231987 g / cm^3
# Si number density = 22.370790 Si / 1000 Ang^3
#
#
#
# Elastic Constant Matrix: (Units=GPa)
#
#
# Indices 1 2 3 4 5 6 
#
# 1 75.4528 8.0570 12.4268 0.0000 0.0000 0.0000
# 2 8.0570 130.6790 92.8273 0.0000 0.0000 0.0000
# 3 12.4268 92.8273 240.9334 0.0000 0.0000 0.0000
# 4 0.0000 0.0000 0.0000 46.5751 0.0000 0.0000
# 5 0.0000 0.0000 0.0000 0.0000 19.3662 0.0000
# 6 0.0000 0.0000 0.0000 0.0000 0.0000 -19.2751
#
#
#
# Elastic Compliance Matrix: (Units=1/GPa)
#
#
# Indices 1 2 3 4 5 6 
#
# 1 0.013387 -0.000461 -0.000513 0.000000 0.000000 0.000000
# 2 -0.000461 0.010552 -0.004042 0.000000 0.000000 0.000000
# 3 -0.000513 -0.004042 0.005734 0.000000 0.000000 0.000000
# 4 0.000000 0.000000 0.000000 0.021471 0.000000 0.000000
# 5 0.000000 0.000000 0.000000 0.000000 0.051636 0.000000
# 6 0.000000 0.000000 0.000000 0.000000 0.000000 -0.051880
#
#
# Mechanical properties :
#
#
# Convention : Reuss Voigt Hill
#
# Bulk Modulus (GPa) = 50.91180 74.85416 62.88298
# Shear Modulus (GPa) = 74.09833 31.58350 52.84092
#
# Velocity S-wave (km/s) = 5.76149 3.76149 4.86536
# Velocity P-wave (km/s) = 8.18946 7.23868 7.72870
#
# Compressibility (1/GPa) = 0.01964181
#
# Stress axis : x y z
#
# Youngs Moduli (GPa) = 74.69924 94.77142 174.39434
#
# Poissons Ratio (x) = 0.04370 0.08943
# Poissons Ratio (y) = 0.03444 0.70483
# Poissons Ratio (z) = 0.03831 0.38303
#
# Static dielectric constant tensor:
#      x y z
#    x 1.817090 0.000000 0.000000 
#    y 0.000000 1.827770 0.000000 
#    z 0.000000 0.000000 1.811120 
# 
# From -- ./inp_files/6320.got.cif
#   From: 2010.05.17/outbox.cif.g08.bks.cpg/sg49_4_cif.got.tgz:6320.got - 2010.06.03 21:02:19.
