data_PCOD9393298
_publ_section_title
;
Structure prediction by ZEFSAII (Michael W. Deem and Ramdas Pophale) SiO2 
 PCOD9393298
Probable space group: P C C M
;
_chemical_formula_sum "Si O2"
_cell_formula_units_Z 64
_cell_length_a 18.429178
_cell_length_b 11.663710
_cell_length_c 15.786700
_cell_angle_alpha 90.000000
_cell_angle_beta 90.000000
_cell_angle_gamma 90.000000
_cell_volume 3393.392017
_symmetry_space_group_name_H-M "P C C M"
_symmetry_group_IT_number 49
_symmetry_cell_setting 'orthorhombic'
loop_
_space_group_symop_operation_xyz
x,y,z
-x,-y,z
x,-y,1/2-z
-x,y,1/2-z
-x,-y,-z
x,y,-z
-x,y,1/2+z
x,-y,1/2+z
loop_
_atom_site_type_symbol
_atom_site_label
_atom_site_fract_x
_atom_site_fract_y
_atom_site_fract_z
Si Si1 0.171699 0.759521 0.096957
Si Si2 0.711281 0.888235 0.691925
Si Si3 0.417241 0.992206 0.399543
Si Si4 0.278653 0.450679 0.593897
Si Si5 0.085971 0.639551 0.249505
Si Si6 0.421397 0.477805 0.848851
Si Si7 0.335531 0.760285 0.649464
Si Si8 0.190682 0.664250 0.598406
O O1 0.217349 0.864488 0.136286
O O2 0.233845 0.663353 0.090951
O O3 0.117480 0.704038 0.166125
O O4 0.144361 0.778311 0.000000
O O5 0.691501 0.783373 0.754564
O O6 0.724428 0.000000 0.750000
O O7 0.638872 0.916945 0.639367
O O8 0.419131 0.007601 0.500000
O O9 0.383102 0.868581 0.378024
O O10 0.500000 0.000000 0.366863
O O11 0.287515 0.499723 0.500000
O O12 0.359258 0.434256 0.624683
O O13 0.229819 0.548931 0.635845
O O14 0.095262 0.500000 0.250000
O O15 0.127303 0.686746 0.333703
O O16 0.000000 0.660269 0.250000
O O17 0.500000 0.500000 0.888790
O O18 0.428683 0.500000 0.750000
O O19 0.384652 0.353184 0.862375
O O20 0.258968 0.750578 0.600297
O O21 0.165470 0.650248 0.500000
#
# Coordination Sequence:
#
# PCOD9393298 Si02
#       8
#     8   8   8   8   8   8   8   8
#     4  11  21  37  60  88 121 157 197 244 295 353
#     4  10  21  36  59  85 108 150 205 254 302 355
#     4  10  22  38  54  80 117 153 199 260 314 352
#     4   9  19  32  51  77 106 150 194 228 280 337
#     4  11  23  37  60  94 129 162 193 233 292 358
#     4  10  21  32  47  75 110 148 191 237 281 337
#     4  10  20  35  58  79 109 154 201 242 295 356
#     4  10  19  35  58  84 116 156 201 237 277 348
#
# _framework density 18.860185000000001
#
# number of rings (size 3 to 8) (size 9 to 14) (size 15 to 20)
#    0.000    1.875    2.500    1.500    1.750    6.500 
#    0.000    2.500    0.000    0.375    0.000    0.875 
#    0.000    0.000    0.000    0.000    0.000    0.000 
#
# Total GULP energy -356401.858770 kJ/mol
# GULP energy per Si atom -5568.779043 kJ/mol
# Density = 1.881726 g / cm^3
# Si number density = 18.860185 Si / 1000 Ang^3
#
#
#
# Elastic Constant Matrix: (Units=GPa)
#
#
# Indices 1 2 3 4 5 6 
#
# 1 150.3723 26.0440 69.8376 0.0000 0.0000 0.0000
# 2 26.0440 38.2961 17.4094 0.0000 0.0000 0.0000
# 3 69.8376 17.4094 112.3452 0.0000 0.0000 0.0000
# 4 0.0000 0.0000 0.0000 20.6365 0.0000 0.0000
# 5 0.0000 0.0000 0.0000 0.0000 -14.2023 0.0000
# 6 0.0000 0.0000 0.0000 0.0000 0.0000 26.7762
#
#
#
# Elastic Compliance Matrix: (Units=1/GPa)
#
#
# Indices 1 2 3 4 5 6 
#
# 1 0.009955 -0.004257 -0.005529 0.000000 0.000000 0.000000
# 2 -0.004257 0.029911 -0.001989 0.000000 0.000000 0.000000
# 3 -0.005529 -0.001989 0.012646 0.000000 0.000000 0.000000
# 4 0.000000 0.000000 0.000000 0.048458 0.000000 0.000000
# 5 0.000000 0.000000 0.000000 0.000000 -0.070411 0.000000
# 6 0.000000 0.000000 0.000000 0.000000 0.000000 0.037347
#
#
# Mechanical properties :
#
#
# Convention : Reuss Voigt Hill
#
# Bulk Modulus (GPa) = 34.52609 58.62173 46.57391
# Shear Modulus (GPa) = 49.45098 19.15690 34.30394
#
# Velocity S-wave (km/s) = 5.12608 3.19051 4.26943
# Velocity P-wave (km/s) = 7.30628 6.68747 7.00371
#
# Compressibility (1/GPa) = 0.02896360
#
# Stress axis : x y z
#
# Youngs Moduli (GPa) = 100.45009 33.43204 79.07461
#
# Poissons Ratio (x) = 0.14231 0.43719
# Poissons Ratio (y) = 0.42760 0.15728
# Poissons Ratio (z) = 0.55537 0.06650
#
# Static dielectric constant tensor:
#      x y z
#    x 1.697410 0.000000 0.000000 
#    y 0.000000 1.709540 0.000000 
#    z 0.000000 0.000000 1.707390 
# 
# From -- ./inp_files/14218.got.cif
#   From: 2010.05.17/outbox.cif.g08.bks.cpg/sg49_8_cif.got.tgz:14218.got - 2010.06.03 21:02:19.
