data_PCOD9393878
_publ_section_title
;
Structure prediction by ZEFSAII (Michael W. Deem and Ramdas Pophale) SiO2 
 PCOD9393878
Probable space group: P C C M
;
_chemical_formula_sum "Si O2"
_cell_formula_units_Z 48
_cell_length_a 20.963410
_cell_length_b 14.684545
_cell_length_c 8.688795
_cell_angle_alpha 90.000000
_cell_angle_beta 90.000000
_cell_angle_gamma 90.000000
_cell_volume 2674.742470
_symmetry_space_group_name_H-M "P C C M"
_symmetry_group_IT_number 49
_symmetry_cell_setting 'orthorhombic'
loop_
_space_group_symop_operation_xyz
x,y,z
-x,-y,z
x,-y,1/2-z
-x,y,1/2-z
-x,-y,-z
x,y,-z
-x,y,1/2+z
x,-y,1/2+z
loop_
_atom_site_type_symbol
_atom_site_label
_atom_site_fract_x
_atom_site_fract_y
_atom_site_fract_z
Si Si1 0.809987 0.398154 0.684296
Si Si2 0.692033 0.717960 0.684864
Si Si3 0.119142 0.904936 0.815841
Si Si4 0.431290 0.600493 0.815808
Si Si5 0.068202 0.707285 0.184358
Si Si6 0.737552 0.903558 0.183862
O O1 0.807029 0.500000 0.750000
O O2 0.808180 0.399600 0.500000
O O3 0.750308 0.340916 0.748143
O O4 0.874439 0.349600 0.741845
O O5 0.698169 0.721711 0.500000
O O6 0.625742 0.668656 0.724397
O O7 0.697981 0.818566 0.753592
O O8 0.079830 0.814225 0.779154
O O9 0.189766 0.892704 0.744834
O O10 0.092864 0.000000 0.750000
O O11 0.125105 0.912446 0.000000
O O12 0.417174 0.500000 0.750000
O O13 0.500000 0.628674 0.750000
O O14 0.435462 0.594125 0.000000
O O15 0.000000 0.678720 0.250000
O O16 0.070127 0.697020 0.000000
O O17 0.714419 0.000000 0.250000
O O18 0.738296 0.905212 0.000000
#
# Coordination Sequence:
#
# PCOD9393878 Si02
#       6
#     8   8   8   8   8   8
#     4  12  25  41  62  86 113 148 191 240 292 345
#     4  11  22  38  60  89 121 154 194 239 287 339
#     4  10  20  35  57  82 114 148 186 235 287 343
#     4  10  21  36  58  86 122 160 196 238 283 339
#     4  11  24  41  60  82 113 150 191 241 291 349
#     4  11  21  34  57  86 117 153 191 236 288 342
#
# _framework density 17.945654000000001
#
# number of rings (size 3 to 8) (size 9 to 14) (size 15 to 20)
#    0.000    1.167    1.667    7.000    0.000    6.667 
#    0.000    3.333    0.000    0.500    0.000    3.500 
#    0.000    0.000    0.000    0.000    0.000    0.000 
#
# Total GULP energy -268413.963256 kJ/mol
# GULP energy per Si atom -5591.957568 kJ/mol
# Density = 1.790481 g / cm^3
# Si number density = 17.945654 Si / 1000 Ang^3
#
#
#
# Elastic Constant Matrix: (Units=GPa)
#
#
# Indices 1 2 3 4 5 6 
#
# 1 123.9722 81.8881 54.5135 0.0000 0.0000 0.0000
# 2 81.8881 141.7646 61.7776 0.0000 0.0000 0.0000
# 3 54.5135 61.7776 99.8456 0.0000 0.0000 0.0000
# 4 0.0000 0.0000 0.0000 36.0157 0.0000 0.0000
# 5 0.0000 0.0000 0.0000 0.0000 25.5418 0.0000
# 6 0.0000 0.0000 0.0000 0.0000 0.0000 46.6504
#
#
#
# Elastic Compliance Matrix: (Units=1/GPa)
#
#
# Indices 1 2 3 4 5 6 
#
# 1 0.013926 -0.006477 -0.003596 0.000000 0.000000 0.000000
# 2 -0.006477 0.012671 -0.004303 0.000000 0.000000 0.000000
# 3 -0.003596 -0.004303 0.014641 0.000000 0.000000 0.000000
# 4 0.000000 0.000000 0.000000 0.027766 0.000000 0.000000
# 5 0.000000 0.000000 0.000000 0.000000 0.039151 0.000000
# 6 0.000000 0.000000 0.000000 0.000000 0.000000 0.021436
#
#
# Mechanical properties :
#
#
# Convention : Reuss Voigt Hill
#
# Bulk Modulus (GPa) = 80.09291 84.66010 82.37650
# Shear Modulus (GPa) = 30.76834 32.80181 31.78507
#
# Velocity S-wave (km/s) = 4.14518 4.27996 4.21311
# Velocity P-wave (km/s) = 8.22421 8.46772 8.34686
#
# Compressibility (1/GPa) = 0.01248550
#
# Stress axis : x y z
#
# Youngs Moduli (GPa) = 71.80935 78.92238 68.30053
#
# Poissons Ratio (x) = 0.51119 0.24558
# Poissons Ratio (y) = 0.46512 0.29392
# Poissons Ratio (z) = 0.25819 0.33963
#
# Static dielectric constant tensor:
#      x y z
#    x 1.590320 0.000000 0.000000 
#    y 0.000000 1.614080 0.000000 
#    z 0.000000 0.000000 1.599900 
# 
# From -- ./inp_files/4890.got.cif
#   From: 2010.05.17/outbox.cif.g08.bks.cpg/sg49_3_cif.got.tgz:4890.got - 2010.06.03 21:02:19.
