data_PCOD9393038
_publ_section_title
;
Structure prediction by ZEFSAII (Michael W. Deem and Ramdas Pophale) SiO2 
 PCOD9393038
Probable space group: P C C M
;
_chemical_formula_sum "Si O2"
_cell_formula_units_Z 48
_cell_length_a 17.350420
_cell_length_b 7.552535
_cell_length_c 16.672391
_cell_angle_alpha 90.000000
_cell_angle_beta 90.000000
_cell_angle_gamma 90.000000
_cell_volume 2184.744353
_symmetry_space_group_name_H-M "P C C M"
_symmetry_group_IT_number 49
_symmetry_cell_setting 'orthorhombic'
loop_
_space_group_symop_operation_xyz
x,y,z
-x,-y,z
x,-y,1/2-z
-x,y,1/2-z
-x,-y,-z
x,y,-z
-x,y,1/2+z
x,-y,1/2+z
loop_
_atom_site_type_symbol
_atom_site_label
_atom_site_fract_x
_atom_site_fract_y
_atom_site_fract_z
Si Si1 0.500000 0.289496 0.589775
Si Si2 0.910893 0.216090 0.750000
Si Si3 0.665973 0.210817 0.160677
Si Si4 0.822680 0.216434 0.088389
Si Si5 0.665973 0.210817 0.339323
Si Si6 0.822680 0.783566 0.911611
O O1 0.500000 0.500000 0.585015
O O2 0.500000 0.214176 0.500000
O O3 0.421018 0.239637 0.632991
O O4 0.578982 0.239637 0.632991
O O5 0.869408 0.273295 0.832468
O O6 0.869408 0.273295 0.667532
O O7 0.000000 0.268584 0.750000
O O8 0.907570 0.000000 0.750000
O O9 0.733803 0.272971 0.102325
O O10 0.677257 0.284117 0.250000
O O11 0.676565 0.000000 0.165302
O O12 0.825844 0.000000 0.087708
O O13 0.849566 0.274562 0.000000
O O14 0.733803 0.272971 0.397675
O O15 0.849566 0.725438 0.000000
#
# Coordination Sequence:
#
# PCOD9393038 Si02
#       6
#     8   8   8   8   8   8
#     4  11  24  37  48  70 104 135 168 212 257 303
#     4   9  16  26  40  63  97 130 162 203 249 301
#     4  10  19  33  53  74  97 130 174 216 251 297
#     4   9  16  27  44  66  94 129 167 206 247 293
#     4  10  19  33  53  74  97 130 174 216 251 297
#     4   9  16  27  44  66  94 129 167 206 247 293
#
# _framework density 21.970534000000001
#
# number of rings (size 3 to 8) (size 9 to 14) (size 15 to 20)
#    0.000    2.333    1.667    2.000    0.000    6.000 
#    0.000    3.333    0.000    0.000    0.000    0.000 
#    0.000    2.667    0.000    7.000    0.000    6.667 
#
# Total GULP energy -267961.291324 kJ/mol
# GULP energy per Si atom -5582.526903 kJ/mol
# Density = 2.192053 g / cm^3
# Si number density = 21.970534 Si / 1000 Ang^3
#
#
#
# Elastic Constant Matrix: (Units=GPa)
#
#
# Indices 1 2 3 4 5 6 
#
# 1 144.8478 -4.5764 89.0746 0.0000 0.0000 0.0000
# 2 -4.5764 48.6594 5.9167 0.0000 0.0000 0.0000
# 3 89.0746 5.9167 215.2656 0.0000 0.0000 0.0000
# 4 0.0000 0.0000 0.0000 99.2985 0.0000 0.0000
# 5 0.0000 0.0000 0.0000 0.0000 17.0687 0.0000
# 6 0.0000 0.0000 0.0000 0.0000 0.0000 -159.4922
#
#
#
# Elastic Compliance Matrix: (Units=1/GPa)
#
#
# Indices 1 2 3 4 5 6 
#
# 1 0.009348 0.001354 -0.003905 0.000000 0.000000 0.000000
# 2 0.001354 0.020816 -0.001132 0.000000 0.000000 0.000000
# 3 -0.003905 -0.001132 0.006293 0.000000 0.000000 0.000000
# 4 0.000000 0.000000 0.000000 0.010071 0.000000 0.000000
# 5 0.000000 0.000000 0.000000 0.000000 0.058587 0.000000
# 6 0.000000 0.000000 0.000000 0.000000 0.000000 -0.006270
#
#
# Mechanical properties :
#
#
# Convention : Reuss Voigt Hill
#
# Bulk Modulus (GPa) = 34.37692 65.51142 49.94417
# Shear Modulus (GPa) = 43.13747 12.59885 27.86816
#
# Velocity S-wave (km/s) = 4.43586 2.39726 3.56537
# Velocity P-wave (km/s) = 6.47430 6.12740 6.30324
#
# Compressibility (1/GPa) = 0.02908928
#
# Stress axis : x y z
#
# Youngs Moduli (GPa) = 106.97218 48.03981 158.91759
#
# Poissons Ratio (x) = -0.06505 0.62064
# Poissons Ratio (y) = -0.14485 0.17997
# Poissons Ratio (z) = 0.41777 0.05440
#
# Static dielectric constant tensor:
#      x y z
#    x 1.830210 0.000000 0.000000 
#    y 0.000000 1.815710 0.000000 
#    z 0.000000 0.000000 1.819330 
# 
# From -- ./inp_files/11858.got.cif
#   From: 2010.05.17/outbox.cif.g08.bks.cpg/sg49_6_cif.got.tgz:11858.got - 2010.06.03 21:02:19.
