data_PCOD9393986
_publ_section_title
;
Structure prediction by ZEFSAII (Michael W. Deem and Ramdas Pophale) SiO2 
 PCOD9393986
Probable space group: P C C M
;
_chemical_formula_sum "Si O2"
_cell_formula_units_Z 48
_cell_length_a 29.567389
_cell_length_b 9.218912
_cell_length_c 9.168097
_cell_angle_alpha 90.000000
_cell_angle_beta 90.000000
_cell_angle_gamma 90.000000
_cell_volume 2499.032154
_symmetry_space_group_name_H-M "P C C M"
_symmetry_group_IT_number 49
_symmetry_cell_setting 'orthorhombic'
loop_
_space_group_symop_operation_xyz
x,y,z
-x,-y,z
x,-y,1/2-z
-x,y,1/2-z
-x,-y,-z
x,y,-z
-x,y,1/2+z
x,-y,1/2+z
loop_
_atom_site_type_symbol
_atom_site_label
_atom_site_fract_x
_atom_site_fract_y
_atom_site_fract_z
Si Si1 0.456818 0.658237 0.326621
Si Si2 0.039084 0.811008 0.500000
Si Si3 0.355143 0.341474 0.175204
Si Si4 0.798299 0.654554 0.168520
Si Si5 0.276299 0.843192 0.823673
Si Si6 0.068218 0.858889 0.000000
Si Si7 0.098938 0.673480 0.731669
O O1 0.454307 0.500000 0.250000
O O2 0.500000 0.732553 0.250000
O O3 0.464680 0.643753 0.500000
O O4 0.406334 0.719535 0.306579
O O5 0.057109 0.721060 0.634602
O O6 0.985450 0.824310 0.500000
O O7 0.065287 0.966371 0.500000
O O8 0.353385 0.500000 0.250000
O O9 0.318639 0.245535 0.258650
O O10 0.346540 0.351638 0.000000
O O11 0.794952 0.500000 0.250000
O O12 0.768274 0.763748 0.262255
O O13 0.851036 0.698261 0.168229
O O14 0.782668 0.644841 0.000000
O O15 0.277742 0.000000 0.750000
O O16 0.276887 0.848302 0.000000
O O17 0.092861 0.780169 0.132740
O O18 0.096036 0.500000 0.750000
#
# Coordination Sequence:
#
# PCOD9393986 Si02
#       7
#     8   4   8   8   8   4   8
#     4   9  16  26  46  77 115 155 198 251 303 360
#     4  11  23  45  59  95 127 169 211 251 312 373
#     4  10  20  36  58  87 122 162 207 253 310 367
#     4  11  24  44  68  93 125 159 200 251 308 370
#     4  12  26  43  64  90 122 159 203 252 307 368
#     4  11  25  39  67  89 131 169 207 257 308 373
#     4  11  24  41  66  94 125 162 208 259 312 369
#
# _framework density 19.207436999999999
#
# number of rings (size 3 to 8) (size 9 to 14) (size 15 to 20)
#    0.000    1.333    0.833    5.500    4.667    6.667 
#    0.000    0.000    0.000    0.500    0.000    3.500 
#    0.000    0.000    0.000    0.000    0.000    0.000 
#
# Total GULP energy -267753.501031 kJ/mol
# GULP energy per Si atom -5578.197938 kJ/mol
# Density = 1.916372 g / cm^3
# Si number density = 19.207437 Si / 1000 Ang^3
#
#
#
# Elastic Constant Matrix: (Units=GPa)
#
#
# Indices 1 2 3 4 5 6 
#
# 1 105.6784 62.3113 44.3223 0.0000 0.0000 0.0000
# 2 62.3113 89.7618 37.7429 0.0000 0.0000 0.0000
# 3 44.3223 37.7429 154.8508 0.0000 0.0000 0.0000
# 4 0.0000 0.0000 0.0000 21.6102 0.0000 0.0000
# 5 0.0000 0.0000 0.0000 0.0000 37.8509 0.0000
# 6 0.0000 0.0000 0.0000 0.0000 0.0000 -38.3293
#
#
#
# Elastic Compliance Matrix: (Units=1/GPa)
#
#
# Indices 1 2 3 4 5 6 
#
# 1 0.016650 -0.010645 -0.002171 0.000000 0.000000 0.000000
# 2 -0.010645 0.019219 -0.001637 0.000000 0.000000 0.000000
# 3 -0.002171 -0.001637 0.007478 0.000000 0.000000 0.000000
# 4 0.000000 0.000000 0.000000 0.046274 0.000000 0.000000
# 5 0.000000 0.000000 0.000000 0.000000 0.026419 0.000000
# 6 0.000000 0.000000 0.000000 0.000000 0.000000 -0.026090
#
#
# Mechanical properties :
#
#
# Convention : Reuss Voigt Hill
#
# Bulk Modulus (GPa) = 69.25306 71.00490 70.12898
# Shear Modulus (GPa) = 40.42943 17.95399 29.19171
#
# Velocity S-wave (km/s) = 4.59288 3.06067 3.90271
# Velocity P-wave (km/s) = 8.01621 7.03832 7.54313
#
# Compressibility (1/GPa) = 0.01443979
#
# Stress axis : x y z
#
# Youngs Moduli (GPa) = 60.05984 52.03197 133.71989
#
# Poissons Ratio (x) = 0.55390 0.29031
# Poissons Ratio (y) = 0.63936 0.21895
# Poissons Ratio (z) = 0.13039 0.08520
#
# Static dielectric constant tensor:
#      x y z
#    x 1.682800 0.000000 0.000000 
#    y 0.000000 1.650680 0.000000 
#    z 0.000000 0.000000 1.611040 
# 
# From -- ./inp_files/6927.got.cif
#   From: 2010.05.17/outbox.cif.g08.bks.cpg/sg49_4_cif.got.tgz:6927.got - 2010.06.03 21:02:19.
