data_PCOD9393184
_publ_section_title
;
Structure prediction by ZEFSAII (Michael W. Deem and Ramdas Pophale) SiO2 
 PCOD9393184
Probable space group: P C C M
;
_chemical_formula_sum "Si O2"
_cell_formula_units_Z 56
_cell_length_a 5.332927
_cell_length_b 33.305827
_cell_length_c 14.141521
_cell_angle_alpha 90.000000
_cell_angle_beta 90.000000
_cell_angle_gamma 90.000000
_cell_volume 2511.782229
_symmetry_space_group_name_H-M "P C C M"
_symmetry_group_IT_number 49
_symmetry_cell_setting 'orthorhombic'
loop_
_space_group_symop_operation_xyz
x,y,z
-x,-y,z
x,-y,1/2-z
-x,y,1/2-z
-x,-y,-z
x,y,-z
-x,y,1/2+z
x,-y,1/2+z
loop_
_atom_site_type_symbol
_atom_site_label
_atom_site_fract_x
_atom_site_fract_y
_atom_site_fract_z
Si Si1 0.163718 0.889772 0.885176
Si Si2 0.234176 0.588942 0.500000
Si Si3 0.892732 0.705189 0.348516
Si Si4 0.737499 0.640190 0.500000
Si Si5 0.749329 0.481615 0.359176
Si Si6 0.664066 0.843641 0.115383
Si Si7 0.752026 0.017642 0.855534
Si Si8 0.401141 0.247080 0.889447
O O1 0.397189 0.862064 0.857208
O O2 0.222829 0.934685 0.852261
O O3 0.898964 0.870887 0.853855
O O4 0.158230 0.891379 0.000000
O O5 0.461117 0.621057 0.500000
O O6 0.256071 0.563463 0.401173
O O7 0.957065 0.607418 0.500000
O O8 0.789130 0.669199 0.411521
O O9 0.650916 0.734700 0.340139
O O10 0.000000 0.689416 0.250000
O O11 0.143012 0.727312 0.387475
O O12 0.500000 0.500000 0.399329
O O13 0.749707 0.500000 0.250000
O O14 0.000000 0.500000 0.399008
O O15 0.671439 0.797325 0.145474
O O16 0.674398 0.843506 0.000000
O O17 0.500000 0.000000 0.899207
O O18 0.750385 0.000000 0.750000
O O19 0.000000 0.000000 0.901334
O O20 0.479002 0.244275 0.000000
#
# Coordination Sequence:
#
# PCOD9393184 Si02
#       8
#     8   4   8   4   8   8   8   8
#     4  10  19  34  55  87 121 144 195 269 314 367
#     4  12  24  43  72 100 146 184 240 296 348 427
#     4  12  25  45  71  98 143 185 236 296 338 422
#     4  12  26  47  68 108 140 194 240 286 360 401
#     4  10  21  41  68 100 136 184 235 294 356 417
#     4   9  19  33  60  95 120 153 198 259 332 387
#     4  10  21  36  55  72 103 155 197 230 294 388
#     4  11  20  41  73  98 130 183 231 273 347 428
#
# _framework density 22.294927000000001
#
# number of rings (size 3 to 8) (size 9 to 14) (size 15 to 20)
#    0.000    1.429    1.429    4.286    0.000    2.857 
#    7.714    0.000   31.429    0.000    0.000    0.000 
#    0.000    0.000    0.000    0.000    0.000    0.000 
#
# Total GULP energy -312490.193573 kJ/mol
# GULP energy per Si atom -5580.182028 kJ/mol
# Density = 2.224418 g / cm^3
# Si number density = 22.294927 Si / 1000 Ang^3
#
#
#
# Elastic Constant Matrix: (Units=GPa)
#
#
# Indices 1 2 3 4 5 6 
#
# 1 176.2373 25.2225 9.9962 0.0000 0.0000 0.0000
# 2 25.2225 92.6519 19.3810 0.0000 0.0000 0.0000
# 3 9.9962 19.3810 112.2313 0.0000 0.0000 0.0000
# 4 0.0000 0.0000 0.0000 20.0838 0.0000 0.0000
# 5 0.0000 0.0000 0.0000 0.0000 63.0068 0.0000
# 6 0.0000 0.0000 0.0000 0.0000 0.0000 53.9003
#
#
#
# Elastic Compliance Matrix: (Units=1/GPa)
#
#
# Indices 1 2 3 4 5 6 
#
# 1 0.005911 -0.001555 -0.000258 0.000000 0.000000 0.000000
# 2 -0.001555 0.011607 -0.001866 0.000000 0.000000 0.000000
# 3 -0.000258 -0.001866 0.009255 0.000000 0.000000 0.000000
# 4 0.000000 0.000000 0.000000 0.049791 0.000000 0.000000
# 5 0.000000 0.000000 0.000000 0.000000 0.015871 0.000000
# 6 0.000000 0.000000 0.000000 0.000000 0.000000 0.018553
#
#
# Mechanical properties :
#
#
# Convention : Reuss Voigt Hill
#
# Bulk Modulus (GPa) = 51.50546 54.47997 52.99272
# Shear Modulus (GPa) = 40.05802 49.16622 44.61212
#
# Velocity S-wave (km/s) = 4.24339 4.70112 4.47811
# Velocity P-wave (km/s) = 6.86735 7.34551 7.11045
#
# Compressibility (1/GPa) = 0.01941542
#
# Stress axis : x y z
#
# Youngs Moduli (GPa) = 169.16506 86.15656 108.04560
#
# Poissons Ratio (x) = 0.13400 0.02787
# Poissons Ratio (y) = 0.26310 0.20159
# Poissons Ratio (z) = 0.04363 0.16075
#
# Static dielectric constant tensor:
#      x y z
#    x 1.777870 0.000000 0.000000 
#    y 0.000000 1.797760 0.000000 
#    z 0.000000 0.000000 1.867510 
# 
# From -- ./inp_files/10779.got.cif
#   From: 2010.05.17/outbox.cif.g08.bks.cpg/sg49_6_cif.got.tgz:10779.got - 2010.06.03 21:02:19.
