data_PCOD9393819
_publ_section_title
;
Structure prediction by ZEFSAII (Michael W. Deem and Ramdas Pophale) SiO2 
 PCOD9393819
Probable space group: P C C M
;
_chemical_formula_sum "Si O2"
_cell_formula_units_Z 48
_cell_length_a 31.512455
_cell_length_b 9.597981
_cell_length_c 8.622252
_cell_angle_alpha 90.000000
_cell_angle_beta 90.000000
_cell_angle_gamma 90.000000
_cell_volume 2607.851371
_symmetry_space_group_name_H-M "P C C M"
_symmetry_group_IT_number 49
_symmetry_cell_setting 'orthorhombic'
loop_
_space_group_symop_operation_xyz
x,y,z
-x,-y,z
x,-y,1/2-z
-x,y,1/2-z
-x,-y,-z
x,y,-z
-x,y,1/2+z
x,-y,1/2+z
loop_
_atom_site_type_symbol
_atom_site_label
_atom_site_fract_x
_atom_site_fract_y
_atom_site_fract_z
Si Si1 0.380308 0.844622 0.813573
Si Si2 0.125354 0.843991 0.187105
Si Si3 0.046603 0.653919 0.813530
Si Si4 0.794541 0.656105 0.312429
Si Si5 0.716326 0.845101 0.686834
Si Si6 0.544728 0.656384 0.185000
O O1 0.331866 0.805271 0.769317
O O2 0.415527 0.744912 0.742537
O O3 0.387113 0.000000 0.750000
O O4 0.383372 0.843677 0.000000
O O5 0.082237 0.764723 0.234129
O O6 0.165371 0.750018 0.236746
O O7 0.127810 0.000000 0.250000
O O8 0.125955 0.850005 0.000000
O O9 0.057393 0.500000 0.750000
O O10 0.000000 0.689888 0.750000
O O11 0.045094 0.647296 0.000000
O O12 0.797242 0.500000 0.250000
O O13 0.794644 0.650529 0.500000
O O14 0.751630 0.735062 0.261440
O O15 0.717880 0.852435 0.500000
O O16 0.725131 0.000000 0.750000
O O17 0.548768 0.500000 0.250000
O O18 0.500000 0.713459 0.250000
O O19 0.542935 0.652761 0.000000
#
# Coordination Sequence:
#
# PCOD9393819 Si02
#       6
#     8   8   8   8   8   8
#     4  10  20  36  56  82 112 144 181 223 268 320
#     4  10  22  37  55  79 108 140 179 221 267 318
#     4  10  20  35  55  80 107 140 178 220 266 318
#     4  10  21  37  55  80 109 140 178 221 265 316
#     4   9  19  35  56  80 109 141 177 218 264 316
#     4  11  22  38  58  81 109 144 182 225 273 323
#
# _framework density 18.405954999999999
#
# number of rings (size 3 to 8) (size 9 to 14) (size 15 to 20)
#    0.000    2.000    0.000    4.500    0.000    4.667 
#    0.000    5.000    0.000    0.000    0.000    0.000 
#    0.000    0.000    0.000    0.000    0.000    0.000 
#
# Total GULP energy -268085.524072 kJ/mol
# GULP energy per Si atom -5585.115085 kJ/mol
# Density = 1.836406 g / cm^3
# Si number density = 18.405955 Si / 1000 Ang^3
#
#
#
# Elastic Constant Matrix: (Units=GPa)
#
#
# Indices 1 2 3 4 5 6 
#
# 1 170.8969 131.6178 49.6394 0.0000 0.0000 0.0000
# 2 131.6178 149.1738 40.0310 0.0000 0.0000 0.0000
# 3 49.6394 40.0310 62.0082 0.0000 0.0000 0.0000
# 4 0.0000 0.0000 0.0000 36.0171 0.0000 0.0000
# 5 0.0000 0.0000 0.0000 0.0000 24.0481 0.0000
# 6 0.0000 0.0000 0.0000 0.0000 0.0000 43.9314
#
#
#
# Elastic Compliance Matrix: (Units=1/GPa)
#
#
# Indices 1 2 3 4 5 6 
#
# 1 0.019697 -0.015902 -0.005502 0.000000 0.000000 0.000000
# 2 -0.015902 0.020947 -0.000793 0.000000 0.000000 0.000000
# 3 -0.005502 -0.000793 0.021043 0.000000 0.000000 0.000000
# 4 0.000000 0.000000 0.000000 0.027765 0.000000 0.000000
# 5 0.000000 0.000000 0.000000 0.000000 0.041583 0.000000
# 6 0.000000 0.000000 0.000000 0.000000 0.000000 0.022763
#
#
# Mechanical properties :
#
#
# Convention : Reuss Voigt Hill
#
# Bulk Modulus (GPa) = 57.82547 91.62839 74.72693
# Shear Modulus (GPa) = 24.51509 31.51869 28.01689
#
# Velocity S-wave (km/s) = 3.65349 4.14263 3.90573
# Velocity P-wave (km/s) = 7.02013 8.53064 7.81198
#
# Compressibility (1/GPa) = 0.01729342
#
# Stress axis : x y z
#
# Youngs Moduli (GPa) = 50.76929 47.73909 47.52185
#
# Poissons Ratio (x) = 0.75917 0.26145
# Poissons Ratio (y) = 0.80736 0.03767
# Poissons Ratio (z) = 0.27932 0.03784
#
# Static dielectric constant tensor:
#      x y z
#    x 1.642060 0.000000 0.000000 
#    y 0.000000 1.579070 0.000000 
#    z 0.000000 0.000000 1.624900 
# 
# From -- ./inp_files/2082.got.cif
#   From: 2010.05.17/outbox.cif.g08.bks.cpg/sg49_2_cif.got.tgz:2082.got - 2010.06.03 21:02:19.
