data_PCOD9393146
_publ_section_title
;
Structure prediction by ZEFSAII (Michael W. Deem and Ramdas Pophale) SiO2 
 PCOD9393146
Probable space group: P C C M
;
_chemical_formula_sum "Si O2"
_cell_formula_units_Z 48
_cell_length_a 19.201631
_cell_length_b 14.701247
_cell_length_c 8.981287
_cell_angle_alpha 90.000000
_cell_angle_beta 90.000000
_cell_angle_gamma 90.000000
_cell_volume 2535.308827
_symmetry_space_group_name_H-M "P C C M"
_symmetry_group_IT_number 49
_symmetry_cell_setting 'orthorhombic'
loop_
_space_group_symop_operation_xyz
x,y,z
-x,-y,z
x,-y,1/2-z
-x,y,1/2-z
-x,-y,-z
x,y,-z
-x,y,1/2+z
x,-y,1/2+z
loop_
_atom_site_type_symbol
_atom_site_label
_atom_site_fract_x
_atom_site_fract_y
_atom_site_fract_z
Si Si1 0.230659 0.097095 0.680827
Si Si2 0.072055 0.857603 0.171111
Si Si3 0.207987 0.418695 0.833559
Si Si4 0.317266 0.258995 0.827524
Si Si5 0.423106 0.401003 0.681289
Si Si6 0.930389 0.362504 0.830410
O O1 0.232383 0.098379 0.500000
O O2 0.149211 0.115008 0.727841
O O3 0.284602 0.171681 0.744826
O O4 0.249548 0.000000 0.750000
O O5 0.071948 0.747623 0.174349
O O6 0.000000 0.887258 0.250000
O O7 0.067891 0.888133 0.000000
O O8 0.245967 0.500000 0.750000
O O9 0.253121 0.328904 0.834597
O O10 0.136997 0.398566 0.750486
O O11 0.193933 0.448344 0.000000
O O12 0.375377 0.317368 0.739042
O O13 0.338410 0.239483 0.000000
O O14 0.402127 0.500000 0.750000
O O15 0.500000 0.385745 0.750000
O O16 0.423609 0.405763 0.500000
O O17 0.000000 0.392099 0.750000
O O18 0.931301 0.391471 0.000000
#
# Coordination Sequence:
#
# PCOD9393146 Si02
#       6
#     8   8   8   8   8   8
#     4  11  23  40  60  87 118 156 202 253 308 365
#     4   9  19  34  55  79 108 146 191 247 309 366
#     4  11  23  36  54  80 110 147 191 237 288 348
#     4  11  23  40  62  89 121 159 198 243 298 354
#     4  11  22  39  65  98 135 170 205 244 286 343
#     4  10  19  34  53  74 103 141 187 238 293 351
#
# _framework density 18.932604999999999
#
# number of rings (size 3 to 8) (size 9 to 14) (size 15 to 20)
#    0.000    1.500    1.667    4.500    0.000    6.000 
#    0.000    3.333    0.000    0.500    0.000    3.500 
#    0.000    0.000    0.000    0.000    0.000    0.000 
#
# Total GULP energy -267932.630938 kJ/mol
# GULP energy per Si atom -5581.929811 kJ/mol
# Density = 1.888951 g / cm^3
# Si number density = 18.932605 Si / 1000 Ang^3
#
#
#
# Elastic Constant Matrix: (Units=GPa)
#
#
# Indices 1 2 3 4 5 6 
#
# 1 131.2437 54.6950 66.8237 0.0000 0.0000 0.0000
# 2 54.6950 113.6965 59.3050 0.0000 0.0000 0.0000
# 3 66.8237 59.3050 160.8123 0.0000 0.0000 0.0000
# 4 0.0000 0.0000 0.0000 23.2681 0.0000 0.0000
# 5 0.0000 0.0000 0.0000 0.0000 21.8762 0.0000
# 6 0.0000 0.0000 0.0000 0.0000 0.0000 23.8642
#
#
#
# Elastic Compliance Matrix: (Units=1/GPa)
#
#
# Indices 1 2 3 4 5 6 
#
# 1 0.010679 -0.003495 -0.003149 0.000000 0.000000 0.000000
# 2 -0.003495 0.012034 -0.002986 0.000000 0.000000 0.000000
# 3 -0.003149 -0.002986 0.008628 0.000000 0.000000 0.000000
# 4 0.000000 0.000000 0.000000 0.042977 0.000000 0.000000
# 5 0.000000 0.000000 0.000000 0.000000 0.045712 0.000000
# 6 0.000000 0.000000 0.000000 0.000000 0.000000 0.041904
#
#
# Mechanical properties :
#
#
# Convention : Reuss Voigt Hill
#
# Bulk Modulus (GPa) = 82.76507 85.26668 84.01587
# Shear Modulus (GPa) = 26.99494 28.79694 27.89594
#
# Velocity S-wave (km/s) = 3.78013 3.90426 3.84270
# Velocity P-wave (km/s) = 7.92862 8.09068 8.01006
#
# Compressibility (1/GPa) = 0.01208239
#
# Stress axis : x y z
#
# Youngs Moduli (GPa) = 93.64102 83.09821 115.90300
#
# Poissons Ratio (x) = 0.29042 0.36494
# Poissons Ratio (y) = 0.32727 0.34605
# Poissons Ratio (z) = 0.29485 0.24810
#
# Static dielectric constant tensor:
#      x y z
#    x 1.613780 0.000000 0.000000 
#    y 0.000000 -2.249610 0.000000 
#    z 0.000000 0.000000 1.667880 
# 
# From -- ./inp_files/3680.got.cif
#   From: 2010.05.17/outbox.cif.g08.bks.cpg/sg49_2_cif.got.tgz:3680.got - 2010.06.03 21:02:19.
