data_PCOD9393500
_publ_section_title
;
Structure prediction by ZEFSAII (Michael W. Deem and Ramdas Pophale) SiO2 
 PCOD9393500
Probable space group: P C C M
;
_chemical_formula_sum "Si O2"
_cell_formula_units_Z 56
_cell_length_a 23.261560
_cell_length_b 14.812028
_cell_length_c 8.699866
_cell_angle_alpha 90.000000
_cell_angle_beta 90.000000
_cell_angle_gamma 90.000000
_cell_volume 2997.546469
_symmetry_space_group_name_H-M "P C C M"
_symmetry_group_IT_number 49
_symmetry_cell_setting 'orthorhombic'
loop_
_space_group_symop_operation_xyz
x,y,z
-x,-y,z
x,-y,1/2-z
-x,y,1/2-z
-x,-y,-z
x,y,-z
-x,y,1/2+z
x,-y,1/2+z
loop_
_atom_site_type_symbol
_atom_site_label
_atom_site_fract_x
_atom_site_fract_y
_atom_site_fract_z
Si Si1 0.165562 0.715590 0.682599
Si Si2 0.937134 0.400553 0.184064
Si Si3 0.597594 0.406883 0.814841
Si Si4 0.204849 0.093182 0.314205
Si Si5 0.279140 0.649190 0.825835
Si Si6 0.672022 0.146656 0.174045
Si Si7 0.559676 0.214453 0.681946
O O1 0.159528 0.720106 0.500000
O O2 0.110661 0.669071 0.758922
O O3 0.175889 0.815937 0.750251
O O4 0.222015 0.656286 0.725992
O O5 0.923149 0.500000 0.250000
O O6 0.000000 0.376781 0.250000
O O7 0.939151 0.404279 0.000000
O O8 0.572582 0.500000 0.750000
O O9 0.665114 0.403249 0.766818
O O10 0.569814 0.315092 0.751307
O O11 0.595182 0.405102 0.000000
O O12 0.204050 0.095455 0.500000
O O13 0.271972 0.096787 0.262469
O O14 0.179524 0.000000 0.250000
O O15 0.304145 0.750839 0.835888
O O16 0.264603 0.619850 0.000000
O O17 0.613943 0.153164 0.269841
O O18 0.659426 0.115970 0.000000
O O19 0.500000 0.179399 0.750000
O O20 0.556455 0.221829 0.500000
#
# Coordination Sequence:
#
# PCOD9393500 Si02
#       7
#     8   8   8   8   8   8   8
#     4  11  21  34  55  84 116 151 190 231 277 329
#     4  11  22  39  60  84 115 152 196 241 284 328
#     4  10  20  33  47  65  92 124 162 209 264 321
#     4  10  20  35  57  86 118 150 183 225 275 331
#     4   8  16  31  48  68  97 131 166 210 261 315
#     4   8  16  32  51  72 100 130 163 205 256 310
#     4  11  21  33  50  69  91 123 166 211 260 317
#
# _framework density 18.681946
#
# number of rings (size 3 to 8) (size 9 to 14) (size 15 to 20)
#    0.000    2.143    0.000    6.857    0.000    7.143 
#    0.000    2.857    0.000    0.857    0.000    6.000 
#    0.000    0.000    0.000    0.000    0.000    0.000 
#
# Total GULP energy -312449.356208 kJ/mol
# GULP energy per Si atom -5579.452789 kJ/mol
# Density = 1.863943 g / cm^3
# Si number density = 18.681946 Si / 1000 Ang^3
#
#
#
# Elastic Constant Matrix: (Units=GPa)
#
#
# Indices 1 2 3 4 5 6 
#
# 1 117.2921 51.3827 65.2744 0.0000 0.0000 0.0000
# 2 51.3827 56.5476 24.8502 0.0000 0.0000 0.0000
# 3 65.2744 24.8502 116.3356 0.0000 0.0000 0.0000
# 4 0.0000 0.0000 0.0000 2009.0001 0.0000 0.0000
# 5 0.0000 0.0000 0.0000 0.0000 26.8765 0.0000
# 6 0.0000 0.0000 0.0000 0.0000 0.0000 15.4217
#
#
#
# Elastic Compliance Matrix: (Units=1/GPa)
#
#
# Indices 1 2 3 4 5 6 
#
# 1 0.018758 -0.013706 -0.007597 0.000000 0.000000 0.000000
# 2 -0.013706 0.029531 0.001382 0.000000 0.000000 0.000000
# 3 -0.007597 0.001382 0.012563 0.000000 0.000000 0.000000
# 4 0.000000 0.000000 0.000000 0.000498 0.000000 0.000000
# 5 0.000000 0.000000 0.000000 0.000000 0.037207 0.000000
# 6 0.000000 0.000000 0.000000 0.000000 0.000000 0.064844
#
#
# Mechanical properties :
#
#
# Convention : Reuss Voigt Hill
#
# Bulk Modulus (GPa) = 47.59580 63.68778 55.64179
# Shear Modulus (GPa) = 23.78172 420.17087 221.97629
#
# Velocity S-wave (km/s) = 3.57175 15.01318 10.91222
# Velocity P-wave (km/s) = 6.52243 18.29459 13.73379
#
# Compressibility (1/GPa) = 0.02101026
#
# Stress axis : x y z
#
# Youngs Moduli (GPa) = 53.31111 33.86281 79.59769
#
# Poissons Ratio (x) = 0.46412 0.60471
# Poissons Ratio (y) = 0.73068 -0.11002
# Poissons Ratio (z) = 0.40501 -0.04680
#
# Static dielectric constant tensor:
#      x y z
#    x 1.652310 0.000000 0.000000 
#    y 0.000000 1.661310 0.000000 
#    z 0.000000 0.000000 1.630680 
# 
# From -- ./inp_files/5797.got.cif
#   From: 2010.05.17/outbox.cif.g08.bks.cpg/sg49_3_cif.got.tgz:5797.got - 2010.06.03 21:02:19.
