data_PCOD9393852
_publ_section_title
;
Structure prediction by ZEFSAII (Michael W. Deem and Ramdas Pophale) SiO2 
 PCOD9393852
Probable space group: P C C M
;
_chemical_formula_sum "Si O2"
_cell_formula_units_Z 48
_cell_length_a 15.158698
_cell_length_b 19.296499
_cell_length_c 8.343542
_cell_angle_alpha 90.000000
_cell_angle_beta 90.000000
_cell_angle_gamma 90.000000
_cell_volume 2440.567808
_symmetry_space_group_name_H-M "P C C M"
_symmetry_group_IT_number 49
_symmetry_cell_setting 'orthorhombic'
loop_
_space_group_symop_operation_xyz
x,y,z
-x,-y,z
x,-y,1/2-z
-x,y,1/2-z
-x,-y,-z
x,y,-z
-x,y,1/2+z
x,-y,1/2+z
loop_
_atom_site_type_symbol
_atom_site_label
_atom_site_fract_x
_atom_site_fract_y
_atom_site_fract_z
Si Si1 0.092322 0.283094 0.315771
Si Si2 0.403612 0.274825 0.690174
Si Si3 0.761422 0.191727 0.314666
Si Si4 0.664648 0.426166 0.194426
Si Si5 0.866069 0.425828 0.688860
Si Si6 0.098855 0.078573 0.192806
O O1 0.106541 0.263680 0.500000
O O2 0.170826 0.255066 0.207256
O O3 0.093315 0.365229 0.294911
O O4 0.000000 0.256133 0.250000
O O5 0.500000 0.254799 0.750000
O O6 0.403788 0.277739 0.500000
O O7 0.328812 0.219573 0.739429
O O8 0.382000 0.354149 0.744349
O O9 0.743919 0.177159 0.500000
O O10 0.821174 0.128022 0.248719
O O11 0.623914 0.500000 0.250000
O O12 0.761102 0.423734 0.275246
O O13 0.673498 0.427013 0.000000
O O14 0.897111 0.500000 0.750000
O O15 0.882411 0.415940 0.500000
O O16 0.000000 0.098360 0.250000
O O17 0.113355 0.000000 0.250000
O O18 0.097979 0.081473 0.000000
#
# Coordination Sequence:
#
# PCOD9393852 Si02
#       6
#     8   8   8   8   8   8
#     4  12  24  38  56  82 113 150 196 240 292 351
#     4  11  24  40  61  87 118 156 202 252 306 364
#     4  11  23  40  62  89 121 158 197 241 296 351
#     4  10  20  35  56  82 110 148 195 247 309 364
#     4  11  21  35  55  77 106 146 190 241 295 351
#     4  10  21  37  62  96 131 166 201 238 283 341
#
# _framework density 19.667553999999999
#
# number of rings (size 3 to 8) (size 9 to 14) (size 15 to 20)
#    0.000    1.167    1.667    7.000    0.000    6.667 
#    0.000    3.333    0.000    0.500    0.000    3.500 
#    0.000    0.000    0.000    0.000    0.000    0.000 
#
# Total GULP energy -268127.167035 kJ/mol
# GULP energy per Si atom -5585.982647 kJ/mol
# Density = 1.962279 g / cm^3
# Si number density = 19.667554 Si / 1000 Ang^3
#
#
#
# Elastic Constant Matrix: (Units=GPa)
#
#
# Indices 1 2 3 4 5 6 
#
# 1 141.5420 56.4105 15.5520 0.0000 0.0000 0.0000
# 2 56.4105 127.1410 11.4715 0.0000 0.0000 0.0000
# 3 15.5520 11.4715 65.7953 0.0000 0.0000 0.0000
# 4 0.0000 0.0000 0.0000 25.0020 0.0000 0.0000
# 5 0.0000 0.0000 0.0000 0.0000 24.8455 0.0000
# 6 0.0000 0.0000 0.0000 0.0000 0.0000 24.7869
#
#
#
# Elastic Compliance Matrix: (Units=1/GPa)
#
#
# Indices 1 2 3 4 5 6 
#
# 1 0.008709 -0.003737 -0.001407 0.000000 0.000000 0.000000
# 2 -0.003737 0.009595 -0.000789 0.000000 0.000000 0.000000
# 3 -0.001407 -0.000789 0.015669 0.000000 0.000000 0.000000
# 4 0.000000 0.000000 0.000000 0.039997 0.000000 0.000000
# 5 0.000000 0.000000 0.000000 0.000000 0.040249 0.000000
# 6 0.000000 0.000000 0.000000 0.000000 0.000000 0.040344
#
#
# Mechanical properties :
#
#
# Convention : Reuss Voigt Hill
#
# Bulk Modulus (GPa) = 45.23794 55.70515 50.47154
# Shear Modulus (GPa) = 28.76909 31.66316 30.21612
#
# Velocity S-wave (km/s) = 3.82877 4.01673 3.92387
# Velocity P-wave (km/s) = 6.52665 7.06378 6.80052
#
# Compressibility (1/GPa) = 0.02210534
#
# Stress axis : x y z
#
# Youngs Moduli (GPa) = 114.82327 104.22505 63.82085
#
# Poissons Ratio (x) = 0.38950 0.08979
# Poissons Ratio (y) = 0.42911 0.05039
# Poissons Ratio (z) = 0.16155 0.08229
#
# Static dielectric constant tensor:
#      x y z
#    x 1.793300 0.000000 0.000000 
#    y 0.000000 1.734500 0.000000 
#    z 0.000000 0.000000 1.678330 
# 
# From -- ./inp_files/3842.got.cif
#   From: 2010.05.17/outbox.cif.g08.bks.cpg/sg49_2_cif.got.tgz:3842.got - 2010.06.03 21:02:19.
