data_PCOD9393373
_publ_section_title
;
Structure prediction by ZEFSAII (Michael W. Deem and Ramdas Pophale) SiO2 
 PCOD9393373
Probable space group: P C C M
;
_chemical_formula_sum "Si O2"
_cell_formula_units_Z 64
_cell_length_a 12.020850
_cell_length_b 14.810094
_cell_length_c 17.495392
_cell_angle_alpha 90.000000
_cell_angle_beta 90.000000
_cell_angle_gamma 90.000000
_cell_volume 3114.703211
_symmetry_space_group_name_H-M "P C C M"
_symmetry_group_IT_number 49
_symmetry_cell_setting 'orthorhombic'
loop_
_space_group_symop_operation_xyz
x,y,z
-x,-y,z
x,-y,1/2-z
-x,y,1/2-z
-x,-y,-z
x,y,-z
-x,y,1/2+z
x,-y,1/2+z
loop_
_atom_site_type_symbol
_atom_site_label
_atom_site_fract_x
_atom_site_fract_y
_atom_site_fract_z
Si Si1 0.294784 0.077354 0.302816
Si Si2 0.895582 0.945017 0.411743
Si Si3 0.638030 0.714699 0.915238
Si Si4 0.370717 0.503466 0.410370
Si Si5 0.806770 0.233981 0.707288
Si Si6 0.393909 0.210719 0.585868
Si Si7 0.006980 0.744373 0.912479
Si Si8 0.786439 0.350002 0.855969
O O1 0.215683 0.034528 0.366886
O O2 0.210349 0.142497 0.255430
O O3 0.383853 0.137478 0.347560
O O4 0.342560 0.000000 0.250000
O O5 0.882652 0.971634 0.500000
O O6 0.924420 0.838614 0.409469
O O7 0.000000 0.000000 0.379441
O O8 0.661084 0.608356 0.908497
O O9 0.702428 0.763911 0.849015
O O10 0.507163 0.733297 0.908764
O O11 0.672696 0.745030 0.000000
O O12 0.500000 0.500000 0.383420
O O13 0.371194 0.473560 0.500000
O O14 0.281109 0.442880 0.365797
O O15 0.913609 0.245835 0.652943
O O16 0.798528 0.314554 0.769237
O O17 0.385559 0.172315 0.500000
O O18 0.292519 0.278530 0.600269
O O19 0.091968 0.663004 0.893127
O O20 0.964576 0.735261 0.000000
#
# Coordination Sequence:
#
# PCOD9393373 Si02
#       8
#     8   8   8   8   8   8   8   8
#     4  11  23  37  59  90 128 166 210 273 324 387
#     4  10  20  34  58  90 121 160 213 268 315 375
#     4  10  22  41  64  87 121 162 208 260 316 384
#     4  10  19  36  64  97 124 152 200 261 318 380
#     4  11  24  39  57  86 130 175 211 257 321 380
#     4  10  19  38  64  88 120 162 211 264 317 381
#     4  11  21  37  60  86 125 175 219 255 306 384
#     4  11  21  34  62  98 127 160 205 261 324 385
#
# _framework density 20.547705000000001
#
# number of rings (size 3 to 8) (size 9 to 14) (size 15 to 20)
#    0.000    1.500    3.750    3.000    0.000    3.750 
#    0.000    4.375    0.000    5.250    0.000    0.000 
#    0.000    0.000    0.000    0.000    0.000    0.000 
#
# Total GULP energy -357396.236461 kJ/mol
# GULP energy per Si atom -5584.316195 kJ/mol
# Density = 2.050094 g / cm^3
# Si number density = 20.547705 Si / 1000 Ang^3
#
#
#
# Elastic Constant Matrix: (Units=GPa)
#
#
# Indices 1 2 3 4 5 6 
#
# 1 58.3248 16.8983 33.2051 0.0000 0.0000 0.0000
# 2 16.8983 62.7087 35.0477 0.0000 0.0000 0.0000
# 3 33.2051 35.0477 113.8100 0.0000 0.0000 0.0000
# 4 0.0000 0.0000 0.0000 -4.5376 0.0000 0.0000
# 5 0.0000 0.0000 0.0000 0.0000 40.2559 0.0000
# 6 0.0000 0.0000 0.0000 0.0000 0.0000 30.2295
#
#
#
# Elastic Compliance Matrix: (Units=1/GPa)
#
#
# Indices 1 2 3 4 5 6 
#
# 1 0.020930 -0.002690 -0.005278 0.000000 0.000000 0.000000
# 2 -0.002690 0.019608 -0.005253 0.000000 0.000000 0.000000
# 3 -0.005278 -0.005253 0.011944 0.000000 0.000000 0.000000
# 4 0.000000 0.000000 0.000000 -0.220381 0.000000 0.000000
# 5 0.000000 0.000000 0.000000 0.000000 0.024841 0.000000
# 6 0.000000 0.000000 0.000000 0.000000 0.000000 0.033080
#
#
# Mechanical properties :
#
#
# Convention : Reuss Voigt Hill
#
# Bulk Modulus (GPa) = 38.40434 45.01620 41.71027
# Shear Modulus (GPa) = -66.79549 23.16907 -21.81321
#
# Velocity S-wave (km/s) = -5.70772 3.36158 -3.26174
# Velocity P-wave (km/s) = 4.97057 6.08463 2.48154
#
# Compressibility (1/GPa) = 0.02603872
#
# Stress axis : x y z
#
# Youngs Moduli (GPa) = 47.77928 51.00033 83.72238
#
# Poissons Ratio (x) = 0.13720 0.44189
# Poissons Ratio (y) = 0.12853 0.43982
# Poissons Ratio (z) = 0.25218 0.26792
#
# Static dielectric constant tensor:
#      x y z
#    x 1.729740 0.000000 0.000000 
#    y 0.000000 1.742270 0.000000 
#    z 0.000000 0.000000 1.754850 
# 
# From -- ./inp_files/17260.got.cif
#   From: 2010.05.17/outbox.cif.g08.bks.cpg/sg49_9_cif.got.tgz:17260.got - 2010.06.03 21:02:19.
