data_PCOD9393567
_publ_section_title
;
Structure prediction by ZEFSAII (Michael W. Deem and Ramdas Pophale) SiO2 
 PCOD9393567
Probable space group: P C C M
;
_chemical_formula_sum "Si O2"
_cell_formula_units_Z 58
_cell_length_a 26.025689
_cell_length_b 15.089256
_cell_length_c 8.382034
_cell_angle_alpha 90.000000
_cell_angle_beta 90.000000
_cell_angle_gamma 90.000000
_cell_volume 3291.694188
_symmetry_space_group_name_H-M "P C C M"
_symmetry_group_IT_number 49
_symmetry_cell_setting 'orthorhombic'
loop_
_space_group_symop_operation_xyz
x,y,z
-x,-y,z
x,-y,1/2-z
-x,y,1/2-z
-x,-y,-z
x,y,-z
-x,y,1/2+z
x,-y,1/2+z
loop_
_atom_site_type_symbol
_atom_site_label
_atom_site_fract_x
_atom_site_fract_y
_atom_site_fract_z
Si Si1 0.760923 0.219640 0.809984
Si Si2 0.000000 0.500000 0.750000
Si Si3 0.846167 0.909287 0.813063
Si Si4 0.332734 0.898053 0.691917
Si Si5 0.919864 0.633722 0.812245
Si Si6 0.553150 0.898566 0.809880
Si Si7 0.805339 0.404313 0.809146
Si Si8 0.054277 0.826985 0.187078
O O1 0.808146 0.170585 0.725194
O O2 0.709758 0.168614 0.758389
O O3 0.766779 0.323605 0.771397
O O4 0.767502 0.209909 0.000000
O O5 0.956885 0.573492 0.701480
O O6 0.899175 0.892860 0.721588
O O7 0.821658 0.000000 0.750000
O O8 0.855817 0.914680 0.000000
O O9 0.329558 0.899401 0.500000
O O10 0.390283 0.866197 0.739926
O O11 0.325495 0.000000 0.750000
O O12 0.860724 0.615095 0.770906
O O13 0.932838 0.735748 0.779084
O O14 0.930178 0.612482 0.000000
O O15 0.500000 0.855877 0.750000
O O16 0.552664 0.000000 0.750000
O O17 0.551379 0.898829 0.000000
O O18 0.787389 0.500000 0.750000
O O19 0.813008 0.406034 0.000000
O O20 0.000000 0.861302 0.250000
O O21 0.051227 0.807731 0.000000
#
# Coordination Sequence:
#
# PCOD9393567 Si02
#       8
#     8   2   8   8   8   8   8   8
#     4  11  23  39  58  81 111 145 182 227 274 323
#     4  12  26  36  60  86 116 132 174 208 264 332
#     4  12  25  42  63  84 108 140 177 220 270 321
#     4  10  20  33  51  78 112 151 195 237 277 323
#     4  12  24  38  58  82 109 138 168 208 262 319
#     4   9  16  26  43  69 104 147 191 233 275 320
#     4  11  24  40  60  82 109 138 176 220 268 328
#     4  12  25  42  61  82 108 135 170 211 260 319
#
# _framework density 17.620106
#
# number of rings (size 3 to 8) (size 9 to 14) (size 15 to 20)
#    0.000    0.966    2.759    5.586    0.000    4.690 
#    0.000    1.379    0.000    0.000    0.000    0.000 
#    0.000    0.552    0.000    6.069    0.000    4.414 
#
# Total GULP energy -323730.102941 kJ/mol
# GULP energy per Si atom -5581.553499 kJ/mol
# Density = 1.758000 g / cm^3
# Si number density = 17.620106 Si / 1000 Ang^3
#
#
#
# Elastic Constant Matrix: (Units=GPa)
#
#
# Indices 1 2 3 4 5 6 
#
# 1 107.0492 32.9614 24.0324 0.0000 0.0000 0.0000
# 2 32.9614 76.4796 18.7430 0.0000 0.0000 0.0000
# 3 24.0324 18.7430 75.8885 0.0000 0.0000 0.0000
# 4 0.0000 0.0000 0.0000 18.3811 0.0000 0.0000
# 5 0.0000 0.0000 0.0000 0.0000 14.5678 0.0000
# 6 0.0000 0.0000 0.0000 0.0000 0.0000 11.6024
#
#
#
# Elastic Compliance Matrix: (Units=1/GPa)
#
#
# Indices 1 2 3 4 5 6 
#
# 1 0.011202 -0.004213 -0.002507 0.000000 0.000000 0.000000
# 2 -0.004213 0.015503 -0.002495 0.000000 0.000000 0.000000
# 3 -0.002507 -0.002495 0.014587 0.000000 0.000000 0.000000
# 4 0.000000 0.000000 0.000000 0.054404 0.000000 0.000000
# 5 0.000000 0.000000 0.000000 0.000000 0.068645 0.000000
# 6 0.000000 0.000000 0.000000 0.000000 0.000000 0.086189
#
#
# Mechanical properties :
#
#
# Convention : Reuss Voigt Hill
#
# Bulk Modulus (GPa) = 43.74051 45.65455 44.69753
# Shear Modulus (GPa) = 18.07803 21.15561 19.61682
#
# Velocity S-wave (km/s) = 3.20658 3.46880 3.34027
# Velocity P-wave (km/s) = 6.21190 6.48153 6.34814
#
# Compressibility (1/GPa) = 0.02286210
#
# Stress axis : x y z
#
# Youngs Moduli (GPa) = 89.27311 64.50526 68.55338
#
# Poissons Ratio (x) = 0.27178 0.17184
# Poissons Ratio (y) = 0.37614 0.17101
# Poissons Ratio (z) = 0.22378 0.16091
#
# Static dielectric constant tensor:
#      x y z
#    x 1.617420 0.000000 0.000000 
#    y 0.000000 1.600040 0.000000 
#    z 0.000000 0.000000 1.628430 
# 
# From -- ./inp_files/6445.got.cif
#   From: 2010.05.17/outbox.cif.g08.bks.cpg/sg49_4_cif.got.tgz:6445.got - 2010.06.03 21:02:19.
