data_PCOD9393190
_publ_section_title
;
Structure prediction by ZEFSAII (Michael W. Deem and Ramdas Pophale) SiO2 
 PCOD9393190
Probable space group: P C C M
;
_chemical_formula_sum "Si O2"
_cell_formula_units_Z 48
_cell_length_a 9.774376
_cell_length_b 13.019047
_cell_length_c 17.265234
_cell_angle_alpha 90.000000
_cell_angle_beta 90.000000
_cell_angle_gamma 90.000000
_cell_volume 2197.053867
_symmetry_space_group_name_H-M "P C C M"
_symmetry_group_IT_number 49
_symmetry_cell_setting 'orthorhombic'
loop_
_space_group_symop_operation_xyz
x,y,z
-x,-y,z
x,-y,1/2-z
-x,y,1/2-z
-x,-y,-z
x,y,-z
-x,y,1/2+z
x,-y,1/2+z
loop_
_atom_site_type_symbol
_atom_site_label
_atom_site_fract_x
_atom_site_fract_y
_atom_site_fract_z
Si Si1 0.137496 0.709176 0.203345
Si Si2 0.345899 0.399137 0.805035
Si Si3 0.788929 0.867184 0.590328
Si Si4 0.840148 0.474395 0.085558
Si Si5 0.367583 0.940387 0.593465
Si Si6 0.496196 0.736639 0.909906
O O1 0.266387 0.690571 0.259189
O O2 0.122763 0.815046 0.157050
O O3 0.164182 0.626491 0.136555
O O4 0.000000 0.684086 0.250000
O O5 0.358606 0.500000 0.750000
O O6 0.244472 0.437032 0.872823
O O7 0.479689 0.354301 0.848405
O O8 0.835266 0.859910 0.500000
O O9 0.645115 0.801804 0.593900
O O10 0.758734 0.985805 0.611074
O O11 0.000000 0.500000 0.081305
O O12 0.785025 0.455410 0.000000
O O13 0.377448 0.945464 0.500000
O O14 0.386102 0.821025 0.610057
O O15 0.500000 0.000000 0.626291
O O16 0.510971 0.703714 0.000000
#
# Coordination Sequence:
#
# PCOD9393190 Si02
#       6
#     8   8   8   8   8   8
#     4  11  21  35  52  76 110 151 188 231 279 341
#     4  10  21  34  54  78 114 149 185 232 291 342
#     4   9  18  34  58  86 114 146 188 235 288 343
#     4  10  19  34  56  77  98 136 196 245 278 328
#     4   7  12  27  55  85 109 137 177 227 274 327
#     4   9  17  34  59  87 115 144 188 240 288 340
#
# _framework density 21.847439000000001
#
# number of rings (size 3 to 8) (size 9 to 14) (size 15 to 20)
#    0.000    2.667    1.667    3.000    0.000    0.667 
#    0.000    6.667    0.000   14.000    0.000    3.500 
#    0.000    0.000    0.000    0.000    0.000    0.000 
#
# Total GULP energy -267641.050298 kJ/mol
# GULP energy per Si atom -5575.855215 kJ/mol
# Density = 2.179771 g / cm^3
# Si number density = 21.847439 Si / 1000 Ang^3
#
#
#
# Elastic Constant Matrix: (Units=GPa)
#
#
# Indices 1 2 3 4 5 6 
#
# 1 36.3950 -5.5548 18.2225 0.0000 0.0000 0.0000
# 2 -5.5548 51.5471 22.5802 0.0000 0.0000 0.0000
# 3 18.2225 22.5802 103.2101 0.0000 0.0000 0.0000
# 4 0.0000 0.0000 0.0000 36.4135 0.0000 0.0000
# 5 0.0000 0.0000 0.0000 0.0000 -25.5582 0.0000
# 6 0.0000 0.0000 0.0000 0.0000 0.0000 19.3594
#
#
#
# Elastic Compliance Matrix: (Units=1/GPa)
#
#
# Indices 1 2 3 4 5 6 
#
# 1 0.032026 0.006557 -0.007089 0.000000 0.000000 0.000000
# 2 0.006557 0.022798 -0.006145 0.000000 0.000000 0.000000
# 3 -0.007089 -0.006145 0.012285 0.000000 0.000000 0.000000
# 4 0.000000 0.000000 0.000000 0.027462 0.000000 0.000000
# 5 0.000000 0.000000 0.000000 0.000000 -0.039126 0.000000
# 6 0.000000 0.000000 0.000000 0.000000 0.000000 0.051655
#
#
# Mechanical properties :
#
#
# Convention : Reuss Voigt Hill
#
# Bulk Modulus (GPa) = 18.60322 29.07197 23.83759
# Shear Modulus (GPa) = 36.13408 16.43659 26.28533
#
# Velocity S-wave (km/s) = 4.07126 2.74585 3.47238
# Velocity P-wave (km/s) = 5.53478 4.83618 5.19723
#
# Compressibility (1/GPa) = 0.05375415
#
# Stress axis : x y z
#
# Youngs Moduli (GPa) = 31.22430 43.86301 81.39981
#
# Poissons Ratio (x) = -0.28759 0.57703
# Poissons Ratio (y) = -0.20472 0.50023
# Poissons Ratio (z) = 0.22135 0.26955
#
# Static dielectric constant tensor:
#      x y z
#    x 1.848580 0.000000 0.000000 
#    y 0.000000 1.843640 0.000000 
#    z 0.000000 0.000000 1.807520 
# 
# From -- ./inp_files/17068.got.cif
#   From: 2010.05.17/outbox.cif.g08.bks.cpg/sg49_9_cif.got.tgz:17068.got - 2010.06.03 21:02:19.
