data_PCOD9393651
_publ_section_title
;
Structure prediction by ZEFSAII (Michael W. Deem and Ramdas Pophale) SiO2 
 PCOD9393651
Probable space group: P C C M
;
_chemical_formula_sum "Si O2"
_cell_formula_units_Z 58
_cell_length_a 23.526047
_cell_length_b 15.447917
_cell_length_c 9.192865
_cell_angle_alpha 90.000000
_cell_angle_beta 90.000000
_cell_angle_gamma 90.000000
_cell_volume 3340.948415
_symmetry_space_group_name_H-M "P C C M"
_symmetry_group_IT_number 49
_symmetry_cell_setting 'orthorhombic'
loop_
_space_group_symop_operation_xyz
x,y,z
-x,-y,z
x,-y,1/2-z
-x,y,1/2-z
-x,-y,-z
x,y,-z
-x,y,1/2+z
x,-y,1/2+z
loop_
_atom_site_type_symbol
_atom_site_label
_atom_site_fract_x
_atom_site_fract_y
_atom_site_fract_z
Si Si1 0.178263 0.776125 0.823953
Si Si2 0.000000 0.000000 0.250000
Si Si3 0.220737 0.588257 0.173997
Si Si4 0.946236 0.170736 0.836057
Si Si5 0.441968 0.738398 0.175020
Si Si6 0.739190 0.090225 0.328810
Si Si7 0.646899 0.411743 0.826279
Si Si8 0.602774 0.909607 0.172009
O O1 0.186979 0.675211 0.788614
O O2 0.115965 0.808836 0.776734
O O3 0.226385 0.833268 0.747743
O O4 0.183260 0.786030 0.000000
O O5 0.040282 0.067521 0.333990
O O6 0.201429 0.500000 0.250000
O O7 0.287125 0.602823 0.214674
O O8 0.218330 0.577039 0.000000
O O9 0.000000 0.208414 0.750000
O O10 0.947527 0.202839 0.000000
O O11 0.500000 0.707874 0.250000
O O12 0.392105 0.670050 0.209111
O O13 0.426577 0.830480 0.245575
O O14 0.447532 0.745155 0.000000
O O15 0.752633 0.085534 0.500000
O O16 0.671162 0.102059 0.314661
O O17 0.753899 0.000000 0.250000
O O18 0.627470 0.500000 0.750000
O O19 0.644864 0.423721 0.000000
O O20 0.588100 0.000000 0.250000
O O21 0.588729 0.911304 0.000000
#
# Coordination Sequence:
#
# PCOD9393651 Si02
#       8
#     8   2   8   8   8   8   8   8
#     4  10  20  34  52  78 109 142 177 221 270 317
#     4   8  18  32  50  68 100 136 186 216 260 300
#     4   9  18  34  56  79 106 135 171 215 265 318
#     4   9  19  32  49  72 102 139 178 219 263 307
#     4  11  23  38  56  79 106 137 176 217 264 313
#     4  10  21  34  51  78 109 141 174 214 262 317
#     4   9  19  35  56  80 105 138 170 208 260 318
#     4  10  21  38  57  77 104 138 177 219 265 313
#
# _framework density 17.360339
#
# number of rings (size 3 to 8) (size 9 to 14) (size 15 to 20)
#    0.414    1.931    0.000    2.276    0.966    5.517 
#    0.000    5.517    0.000    0.414    0.000    2.897 
#    0.000    0.000    0.000    0.000    0.000    0.000 
#
# Total GULP energy -323334.248536 kJ/mol
# GULP energy per Si atom -5574.728423 kJ/mol
# Density = 1.732083 g / cm^3
# Si number density = 17.360339 Si / 1000 Ang^3
#
#
#
# Elastic Constant Matrix: (Units=GPa)
#
#
# Indices 1 2 3 4 5 6 
#
# 1 40.3061 34.3409 21.6283 0.0000 0.0000 0.0000
# 2 34.3409 97.8797 26.9776 0.0000 0.0000 0.0000
# 3 21.6283 26.9776 50.8698 0.0000 0.0000 0.0000
# 4 0.0000 0.0000 0.0000 30.4306 0.0000 0.0000
# 5 0.0000 0.0000 0.0000 0.0000 31.3992 0.0000
# 6 0.0000 0.0000 0.0000 0.0000 0.0000 -8.2589
#
#
#
# Elastic Compliance Matrix: (Units=1/GPa)
#
#
# Indices 1 2 3 4 5 6 
#
# 1 0.040239 -0.011012 -0.011269 0.000000 0.000000 0.000000
# 2 -0.011012 0.014979 -0.003262 0.000000 0.000000 0.000000
# 3 -0.011269 -0.003262 0.026179 0.000000 0.000000 0.000000
# 4 0.000000 0.000000 0.000000 0.032862 0.000000 0.000000
# 5 0.000000 0.000000 0.000000 0.000000 0.031848 0.000000
# 6 0.000000 0.000000 0.000000 0.000000 0.000000 -0.121081
#
#
# Mechanical properties :
#
#
# Convention : Reuss Voigt Hill
#
# Bulk Modulus (GPa) = 32.98976 39.43880 36.21428
# Shear Modulus (GPa) = 57.99501 17.78811 37.89156
#
# Velocity S-wave (km/s) = 5.78612 3.20447 4.67695
# Velocity P-wave (km/s) = 7.98017 6.03810 7.07607
#
# Compressibility (1/GPa) = 0.03031244
#
# Stress axis : x y z
#
# Youngs Moduli (GPa) = 24.85144 66.75928 38.19865
#
# Poissons Ratio (x) = 0.73515 0.43044
# Poissons Ratio (y) = 0.27366 0.12460
# Poissons Ratio (z) = 0.28004 0.21776
#
# Static dielectric constant tensor:
#      x y z
#    x 1.595000 0.000000 0.000000 
#    y 0.000000 1.566770 0.000000 
#    z 0.000000 0.000000 1.587600 
# 
# From -- ./inp_files/6435.got.cif
#   From: 2010.05.17/outbox.cif.g08.bks.cpg/sg49_4_cif.got.tgz:6435.got - 2010.06.03 21:02:19.
