data_PCOD9393531
_publ_section_title
;
Structure prediction by ZEFSAII (Michael W. Deem and Ramdas Pophale) SiO2 
 PCOD9393531
Probable space group: P C C M
;
_chemical_formula_sum "Si O2"
_cell_formula_units_Z 42
_cell_length_a 5.511529
_cell_length_b 23.256267
_cell_length_c 14.521925
_cell_angle_alpha 90.000000
_cell_angle_beta 90.000000
_cell_angle_gamma 90.000000
_cell_volume 1861.385349
_symmetry_space_group_name_H-M "P C C M"
_symmetry_group_IT_number 49
_symmetry_cell_setting 'orthorhombic'
loop_
_space_group_symop_operation_xyz
x,y,z
-x,-y,z
x,-y,1/2-z
-x,y,1/2-z
-x,-y,-z
x,y,-z
-x,y,1/2+z
x,-y,1/2+z
loop_
_atom_site_type_symbol
_atom_site_label
_atom_site_fract_x
_atom_site_fract_y
_atom_site_fract_z
Si Si1 0.000000 0.000000 0.750000
Si Si2 0.390007 0.058483 0.352366
Si Si3 0.498100 0.566685 0.112157
Si Si4 0.002876 0.372177 0.888181
Si Si5 0.581691 0.187826 0.104892
Si Si6 0.920572 0.239384 0.387192
O O1 0.118740 0.043401 0.676016
O O2 0.500000 0.062591 0.250000
O O3 0.435222 0.118946 0.397829
O O4 0.500000 0.000000 0.394615
O O5 0.500000 0.500000 0.139313
O O6 0.752363 0.595085 0.141243
O O7 0.252250 0.599558 0.141995
O O8 0.495731 0.568431 0.000000
O O9 0.034060 0.305621 0.862837
O O10 0.998698 0.374408 0.000000
O O11 0.337680 0.214896 0.146479
O O12 0.842660 0.204627 0.145302
O O13 0.589559 0.210261 0.000000
O O14 0.911376 0.235068 0.500000
#
# Coordination Sequence:
#
# PCOD9393531 Si02
#       6
#     2   8   8   8   8   8
#     4   8  18  36  54  70  96 124 162 190 236 308
#     4   9  20  35  54  74  96 128 159 195 241 294
#     4   9  15  21  32  51  74 106 154 201 231 265
#     4   9  15  24  36  50  77 114 150 190 236 277
#     4  10  20  33  50  73  98 123 162 205 238 282
#     4   9  18  30  44  64  91 124 159 197 241 288
#
# _framework density 22.563838000000001
#
# number of rings (size 3 to 8) (size 9 to 14) (size 15 to 20)
#    0.000    3.048    0.000    1.714    5.333    7.238 
#    0.000    0.476    0.000    0.000    0.000    0.000 
#    0.000    0.000    0.000    0.000    0.000   66.667 
#
# Total GULP energy -234129.125983 kJ/mol
# GULP energy per Si atom -5574.503000 kJ/mol
# Density = 2.251248 g / cm^3
# Si number density = 22.563838 Si / 1000 Ang^3
#
#
#
# Elastic Constant Matrix: (Units=GPa)
#
#
# Indices 1 2 3 4 5 6 
#
# 1 246.8026 147.5666 5.4754 0.0000 0.0000 0.0000
# 2 147.5666 202.9667 -10.1163 0.0000 0.0000 0.0000
# 3 5.4754 -10.1163 66.7481 0.0000 0.0000 0.0000
# 4 0.0000 0.0000 0.0000 212.0703 0.0000 0.0000
# 5 0.0000 0.0000 0.0000 0.0000 0.7643 0.0000
# 6 0.0000 0.0000 0.0000 0.0000 0.0000 60.3118
#
#
#
# Elastic Compliance Matrix: (Units=1/GPa)
#
#
# Indices 1 2 3 4 5 6 
#
# 1 0.007298 -0.005376 -0.001413 0.000000 0.000000 0.000000
# 2 -0.005376 0.008925 0.001794 0.000000 0.000000 0.000000
# 3 -0.001413 0.001794 0.015369 0.000000 0.000000 0.000000
# 4 0.000000 0.000000 0.000000 0.004715 0.000000 0.000000
# 5 0.000000 0.000000 0.000000 0.000000 1.308366 0.000000
# 6 0.000000 0.000000 0.000000 0.000000 0.000000 0.016581
#
#
# Mechanical properties :
#
#
# Convention : Reuss Voigt Hill
#
# Bulk Modulus (GPa) = 46.29564 89.15210 67.72387
# Shear Modulus (GPa) = 3.62727 79.53540 41.58134
#
# Velocity S-wave (km/s) = 1.26927 5.94353 4.29748
# Velocity P-wave (km/s) = 4.76553 9.31115 7.39621
#
# Compressibility (1/GPa) = 0.02160031
#
# Stress axis : x y z
#
# Youngs Moduli (GPa) = 137.02956 112.04367 65.06400
#
# Poissons Ratio (x) = 0.60237 0.09196
# Poissons Ratio (y) = 0.73670 -0.11670
# Poissons Ratio (z) = 0.19368 -0.20097
#
# Static dielectric constant tensor:
#      x y z
#    x 1.683370 0.000000 0.000000 
#    y 0.000000 1.726030 0.000000 
#    z 0.000000 0.000000 1.910410 
# 
# From -- ./inp_files/21811.got.cif
#   From: 2010.05.17/outbox.cif.g08.bks.cpg/sg49_11_cif.got.tgz:21811.got - 2010.06.03 21:02:19.
