data_PCOD9393807
_publ_section_title
;
Structure prediction by ZEFSAII (Michael W. Deem and Ramdas Pophale) SiO2 
 PCOD9393807
Probable space group: P C C M
;
_chemical_formula_sum "Si O2"
_cell_formula_units_Z 34
_cell_length_a 10.878002
_cell_length_b 10.470758
_cell_length_c 13.848650
_cell_angle_alpha 90.000000
_cell_angle_beta 90.000000
_cell_angle_gamma 90.000000
_cell_volume 1577.374065
_symmetry_space_group_name_H-M "P C C M"
_symmetry_group_IT_number 49
_symmetry_cell_setting 'orthorhombic'
loop_
_space_group_symop_operation_xyz
x,y,z
-x,-y,z
x,-y,1/2-z
-x,y,1/2-z
-x,-y,-z
x,y,-z
-x,y,1/2+z
x,-y,1/2+z
loop_
_atom_site_type_symbol
_atom_site_label
_atom_site_fract_x
_atom_site_fract_y
_atom_site_fract_z
Si Si1 0.853541 0.470264 0.386492
Si Si2 0.085064 0.802023 0.382251
Si Si3 0.807763 0.744516 0.617624
Si Si4 0.500000 0.000000 0.750000
Si Si5 0.704135 0.990192 0.885099
O O1 0.824461 0.462682 0.500000
O O2 0.843151 0.326008 0.349962
O O3 0.787843 0.598215 0.349339
O O4 0.000000 0.500000 0.377897
O O5 0.078755 0.800201 0.500000
O O6 0.167125 0.923501 0.358419
O O7 0.943954 0.790764 0.350355
O O8 0.813128 0.738133 0.500000
O O9 0.714883 0.859056 0.638354
O O10 0.407005 0.068111 0.824320
O O11 0.686286 0.975134 0.000000
#
# Coordination Sequence:
#
# PCOD9393807 Si02
#       5
#     8   8   8   2   8
#     4   7  10  18  38  73 110 132 148 180 235 303
#     4   8  13  24  47  79 107 128 154 193 245 302
#     4   8  13  24  47  79 107 128 154 193 245 302
#     4  12  26  40  50  68  96 132 178 220 248 278
#     4  10  20  35  55  73  95 130 169 208 246 288
#
# _framework density 21.554811999999998
#
# number of rings (size 3 to 8) (size 9 to 14) (size 15 to 20)
#    0.000    3.529    0.000    3.882    0.000    2.824 
#    0.000    2.353    0.000    4.235    0.000   13.176 
#    0.000    0.000    0.000    0.000    0.000    1.412 
#
# Total GULP energy -189401.677981 kJ/mol
# GULP energy per Si atom -5570.637588 kJ/mol
# Density = 2.150575 g / cm^3
# Si number density = 21.554812 Si / 1000 Ang^3
#
#
#
# Elastic Constant Matrix: (Units=GPa)
#
#
# Indices 1 2 3 4 5 6 
#
# 1 44.1472 17.0196 8.5659 0.0000 0.0000 0.0000
# 2 17.0196 130.0625 6.7107 0.0000 0.0000 0.0000
# 3 8.5659 6.7107 82.7460 0.0000 0.0000 0.0000
# 4 0.0000 0.0000 0.0000 3.0089 0.0000 0.0000
# 5 0.0000 0.0000 0.0000 0.0000 21.0863 0.0000
# 6 0.0000 0.0000 0.0000 0.0000 0.0000 -154.3912
#
#
#
# Elastic Compliance Matrix: (Units=1/GPa)
#
#
# Indices 1 2 3 4 5 6 
#
# 1 0.024270 -0.003059 -0.002264 0.000000 0.000000 0.000000
# 2 -0.003059 0.008106 -0.000341 0.000000 0.000000 0.000000
# 3 -0.002264 -0.000341 0.012347 0.000000 0.000000 0.000000
# 4 0.000000 0.000000 0.000000 0.332352 0.000000 0.000000
# 5 0.000000 0.000000 0.000000 0.000000 0.047424 0.000000
# 6 0.000000 0.000000 0.000000 0.000000 0.000000 -0.006477
#
#
# Mechanical properties :
#
#
# Convention : Reuss Voigt Hill
#
# Bulk Modulus (GPa) = 29.94418 35.72757 32.83588
# Shear Modulus (GPa) = 11.35117 -11.08191 0.13463
#
# Velocity S-wave (km/s) = 2.29731 -2.26990 0.25019
# Velocity P-wave (km/s) = 4.57811 3.12110 3.91793
#
# Compressibility (1/GPa) = 0.03339547
#
# Stress axis : x y z
#
# Youngs Moduli (GPa) = 41.20283 123.35786 80.98994
#
# Poissons Ratio (x) = 0.37736 0.18339
# Poissons Ratio (y) = 0.12604 0.02760
# Poissons Ratio (z) = 0.09330 0.04203
#
# Static dielectric constant tensor:
#      x y z
#    x 1.753510 0.000000 0.000000 
#    y 0.000000 1.827410 0.000000 
#    z 0.000000 0.000000 1.893060 
# 
# From -- ./inp_files/12538.got.cif
#   From: 2010.05.17/outbox.cif.g08.bks.cpg/sg49_7_cif.got.tgz:12538.got - 2010.06.03 21:02:19.
