data_PCOD9393431
_publ_section_title
;
Structure prediction by ZEFSAII (Michael W. Deem and Ramdas Pophale) SiO2 
 PCOD9393431
Probable space group: P C C M
;
_chemical_formula_sum "Si O2"
_cell_formula_units_Z 64
_cell_length_a 20.220383
_cell_length_b 20.350842
_cell_length_c 8.720741
_cell_angle_alpha 90.000000
_cell_angle_beta 90.000000
_cell_angle_gamma 90.000000
_cell_volume 3588.600790
_symmetry_space_group_name_H-M "P C C M"
_symmetry_group_IT_number 49
_symmetry_cell_setting 'orthorhombic'
loop_
_space_group_symop_operation_xyz
x,y,z
-x,-y,z
x,-y,1/2-z
-x,y,1/2-z
-x,-y,-z
x,y,-z
-x,y,1/2+z
x,-y,1/2+z
loop_
_atom_site_type_symbol
_atom_site_label
_atom_site_fract_x
_atom_site_fract_y
_atom_site_fract_z
Si Si1 0.683514 0.165361 0.684735
Si Si2 0.785999 0.432034 0.816953
Si Si3 0.067942 0.604007 0.820513
Si Si4 0.744914 0.702130 0.819334
Si Si5 0.573653 0.929293 0.316050
Si Si6 0.208098 0.930599 0.182696
Si Si7 0.102202 0.737302 0.677752
Si Si8 0.070134 0.110431 0.817853
O O1 0.679874 0.162352 0.500000
O O2 0.693830 0.241508 0.730240
O O3 0.621796 0.128021 0.758735
O O4 0.748032 0.125908 0.740795
O O5 0.759632 0.500000 0.750000
O O6 0.862136 0.423034 0.757812
O O7 0.746749 0.367059 0.766642
O O8 0.787981 0.435026 0.000000
O O9 0.072106 0.682070 0.786744
O O10 0.000000 0.578570 0.750000
O O11 0.066380 0.591722 0.000000
O O12 0.818560 0.733040 0.802208
O O13 0.735479 0.689581 0.000000
O O14 0.500000 0.919219 0.250000
O O15 0.572250 0.932403 0.500000
O O16 0.596620 0.000000 0.250000
O O17 0.132112 0.921089 0.231773
O O18 0.231302 0.000000 0.250000
O O19 0.215107 0.929021 0.000000
O O20 0.087669 0.719563 0.500000
O O21 0.077520 0.810755 0.704964
O O22 0.000000 0.089068 0.750000
O O23 0.074342 0.097403 0.000000
#
# Coordination Sequence:
#
# PCOD9393431 Si02
#       8
#     8   8   8   8   8   8   8   8
#     4  11  21  38  61  87 116 148 186 230 275 325
#     4  10  21  35  51  72 100 134 173 218 272 331
#     4  10  20  31  45  67  92 123 163 211 262 326
#     4   9  18  34  56  79 105 137 173 219 270 319
#     4  11  22  38  59  88 124 165 202 236 275 323
#     4  12  25  40  57  77 102 136 177 226 277 332
#     4   9  17  32  51  71  95 125 161 209 266 325
#     4  11  22  37  53  73  97 127 169 220 280 339
#
# _framework density 17.834249
#
# number of rings (size 3 to 8) (size 9 to 14) (size 15 to 20)
#    0.000    1.625    1.250    4.875    0.000    5.000 
#    0.000    2.500    0.000    0.000    0.000    0.000 
#    0.000    0.500    0.000    5.250    0.000    2.250 
#
# Total GULP energy -357614.772268 kJ/mol
# GULP energy per Si atom -5587.730817 kJ/mol
# Density = 1.779366 g / cm^3
# Si number density = 17.834249 Si / 1000 Ang^3
#
#
#
# Elastic Constant Matrix: (Units=GPa)
#
#
# Indices 1 2 3 4 5 6 
#
# 1 69.0490 41.2872 29.4209 0.0000 0.0000 0.0000
# 2 41.2872 118.7785 49.8593 0.0000 0.0000 0.0000
# 3 29.4209 49.8593 82.4911 0.0000 0.0000 0.0000
# 4 0.0000 0.0000 0.0000 21.5193 0.0000 0.0000
# 5 0.0000 0.0000 0.0000 0.0000 26.6939 0.0000
# 6 0.0000 0.0000 0.0000 0.0000 0.0000 16.3555
#
#
#
# Elastic Compliance Matrix: (Units=1/GPa)
#
#
# Indices 1 2 3 4 5 6 
#
# 1 0.019112 -0.005068 -0.003753 0.000000 0.000000 0.000000
# 2 -0.005068 0.012625 -0.005823 0.000000 0.000000 0.000000
# 3 -0.003753 -0.005823 0.016981 0.000000 0.000000 0.000000
# 4 0.000000 0.000000 0.000000 0.046470 0.000000 0.000000
# 5 0.000000 0.000000 0.000000 0.000000 0.037462 0.000000
# 6 0.000000 0.000000 0.000000 0.000000 0.000000 0.061142
#
#
# Mechanical properties :
#
#
# Convention : Reuss Voigt Hill
#
# Bulk Modulus (GPa) = 51.46951 56.82814 54.14882
# Shear Modulus (GPa) = 21.78116 22.89717 22.33916
#
# Velocity S-wave (km/s) = 3.49852 3.58702 3.54305
# Velocity P-wave (km/s) = 6.72622 7.00639 6.86773
#
# Compressibility (1/GPa) = 0.01942898
#
# Stress axis : x y z
#
# Youngs Moduli (GPa) = 52.32341 79.20767 58.88963
#
# Poissons Ratio (x) = 0.40140 0.22103
# Poissons Ratio (y) = 0.26516 0.34294
# Poissons Ratio (z) = 0.19639 0.46126
#
# Static dielectric constant tensor:
#      x y z
#    x 1.613520 0.000000 0.000000 
#    y 0.000000 1.643850 0.000000 
#    z 0.000000 0.000000 1.597970 
# 
# From -- ./inp_files/5947.got.cif
#   From: 2010.05.17/outbox.cif.g08.bks.cpg/sg49_3_cif.got.tgz:5947.got - 2010.06.03 21:02:19.
