data_PCOD9393909
_publ_section_title
;
Structure prediction by ZEFSAII (Michael W. Deem and Ramdas Pophale) SiO2 
 PCOD9393909
Probable space group: P C C M
;
_chemical_formula_sum "Si O2"
_cell_formula_units_Z 48
_cell_length_a 9.017626
_cell_length_b 30.291998
_cell_length_c 9.436114
_cell_angle_alpha 90.000000
_cell_angle_beta 90.000000
_cell_angle_gamma 90.000000
_cell_volume 2577.586911
_symmetry_space_group_name_H-M "P C C M"
_symmetry_group_IT_number 49
_symmetry_cell_setting 'orthorhombic'
loop_
_space_group_symop_operation_xyz
x,y,z
-x,-y,z
x,-y,1/2-z
-x,y,1/2-z
-x,-y,-z
x,y,-z
-x,y,1/2+z
x,-y,1/2+z
loop_
_atom_site_type_symbol
_atom_site_label
_atom_site_fract_x
_atom_site_fract_y
_atom_site_fract_z
Si Si1 0.657241 0.698098 0.833009
Si Si2 0.658967 0.781308 0.671306
Si Si3 0.847834 0.869006 0.333146
Si Si4 0.194571 0.540285 0.500000
Si Si5 0.849426 0.435974 0.000000
Si Si6 0.657887 0.043284 0.828583
Si Si7 0.678319 0.399941 0.734123
O O1 0.500000 0.694826 0.750000
O O2 0.360312 0.708435 0.500000
O O3 0.731735 0.738340 0.747081
O O4 0.721787 0.648870 0.820892
O O5 0.500000 0.786551 0.750000
O O6 0.643685 0.775417 0.500000
O O7 0.751857 0.825424 0.698018
O O8 0.879813 0.868502 0.500000
O O9 0.755000 0.913311 0.303887
O O10 0.000000 0.868741 0.250000
O O11 0.194782 0.487668 0.500000
O O12 0.279589 0.560526 0.631436
O O13 0.027568 0.560191 0.500000
O O14 0.775801 0.410702 0.870032
O O15 0.500000 0.049703 0.750000
O O16 0.722869 0.000000 0.750000
O O17 0.641702 0.036957 0.000000
O O18 0.500000 0.400281 0.750000
#
# Coordination Sequence:
#
# PCOD9393909 Si02
#       7
#     8   8   8   4   4   8   8
#     4  10  20  35  59  88 118 147 185 238 291 341
#     4  10  20  36  61  88 114 149 193 236 286 347
#     4  10  23  39  56  82 118 157 196 242 292 346
#     4  11  23  45  57  87 119 159 199 231 292 365
#     4  11  25  39  65  81 121 163 191 239 292 349
#     4  10  20  36  58  86 116 150 197 245 295 349
#     4  11  23  38  63  92 118 149 196 248 294 344
#
# _framework density 18.622069
#
# number of rings (size 3 to 8) (size 9 to 14) (size 15 to 20)
#    0.000    1.667    0.833    5.000    4.667    6.333 
#    0.000    3.333    0.000    0.000    0.000    0.000 
#    0.000    0.000    0.000    0.000    0.000    0.000 
#
# Total GULP energy -267603.490396 kJ/mol
# GULP energy per Si atom -5575.072717 kJ/mol
# Density = 1.857968 g / cm^3
# Si number density = 18.622069 Si / 1000 Ang^3
#
#
#
# Elastic Constant Matrix: (Units=GPa)
#
#
# Indices 1 2 3 4 5 6 
#
# 1 68.5851 60.0742 34.6120 0.0000 0.0000 0.0000
# 2 60.0742 150.8410 54.8627 0.0000 0.0000 0.0000
# 3 34.6120 54.8627 117.0762 0.0000 0.0000 0.0000
# 4 0.0000 0.0000 0.0000 38.0871 0.0000 0.0000
# 5 0.0000 0.0000 0.0000 0.0000 26.0527 0.0000
# 6 0.0000 0.0000 0.0000 0.0000 0.0000 -23.1486
#
#
#
# Elastic Compliance Matrix: (Units=1/GPa)
#
#
# Indices 1 2 3 4 5 6 
#
# 1 0.023265 -0.008154 -0.003057 0.000000 0.000000 0.000000
# 2 -0.008154 0.010849 -0.002673 0.000000 0.000000 0.000000
# 3 -0.003057 -0.002673 0.010698 0.000000 0.000000 0.000000
# 4 0.000000 0.000000 0.000000 0.026256 0.000000 0.000000
# 5 0.000000 0.000000 0.000000 0.000000 0.038384 0.000000
# 6 0.000000 0.000000 0.000000 0.000000 0.000000 -0.043199
#
#
# Mechanical properties :
#
#
# Convention : Reuss Voigt Hill
#
# Bulk Modulus (GPa) = 58.67255 70.62222 64.64738
# Shear Modulus (GPa) = 50.14930 20.66181 35.40556
#
# Velocity S-wave (km/s) = 5.19505 3.33458 4.36508
# Velocity P-wave (km/s) = 8.21949 7.26857 7.75862
#
# Compressibility (1/GPa) = 0.01704374
#
# Stress axis : x y z
#
# Youngs Moduli (GPa) = 42.98279 92.17301 93.47493
#
# Poissons Ratio (x) = 0.75155 0.28577
# Poissons Ratio (y) = 0.35047 0.24990
# Poissons Ratio (z) = 0.13141 0.24642
#
# Static dielectric constant tensor:
#      x y z
#    x 1.620040 0.000000 0.000000 
#    y 0.000000 1.669700 0.000000 
#    z 0.000000 0.000000 1.595180 
# 
# From -- ./inp_files/2146.got.cif
#   From: 2010.05.17/outbox.cif.g08.bks.cpg/sg49_2_cif.got.tgz:2146.got - 2010.06.03 21:02:19.
