data_PCOD9393985
_publ_section_title
;
Structure prediction by ZEFSAII (Michael W. Deem and Ramdas Pophale) SiO2 
 PCOD9393985
Probable space group: P C C M
;
_chemical_formula_sum "Si O2"
_cell_formula_units_Z 48
_cell_length_a 9.185362
_cell_length_b 29.201438
_cell_length_c 9.416167
_cell_angle_alpha 90.000000
_cell_angle_beta 90.000000
_cell_angle_gamma 90.000000
_cell_volume 2525.658728
_symmetry_space_group_name_H-M "P C C M"
_symmetry_group_IT_number 49
_symmetry_cell_setting 'orthorhombic'
loop_
_space_group_symop_operation_xyz
x,y,z
-x,-y,z
x,-y,1/2-z
-x,y,1/2-z
-x,-y,-z
x,y,-z
-x,y,1/2+z
x,-y,1/2+z
loop_
_atom_site_type_symbol
_atom_site_label
_atom_site_fract_x
_atom_site_fract_y
_atom_site_fract_z
Si Si1 0.154680 0.453970 0.172248
Si Si2 0.814365 0.959162 0.500000
Si Si3 0.649661 0.634749 0.166623
Si Si4 0.673720 0.099342 0.767486
Si Si5 0.347235 0.796483 0.165745
Si Si6 0.152379 0.724110 0.670620
Si Si7 0.146922 0.931750 0.500000
O O1 0.210658 0.500000 0.250000
O O2 0.259827 0.411199 0.198506
O O3 0.000000 0.445126 0.250000
O O4 0.137928 0.459776 0.000000
O O5 0.726236 0.941134 0.632886
O O6 0.971375 0.933430 0.500000
O O7 0.822890 0.013679 0.500000
O O8 0.500000 0.637246 0.250000
O O9 0.749392 0.679030 0.193091
O O10 0.615720 0.634109 0.000000
O O11 0.500000 0.095259 0.750000
O O12 0.696935 0.150116 0.829213
O O13 0.774564 0.092640 0.630940
O O14 0.500000 0.792276 0.250000
O O15 0.233224 0.766073 0.252433
O O16 0.361237 0.782555 0.000000
O O17 0.135729 0.731136 0.500000
O O18 0.000000 0.717449 0.750000
#
# Coordination Sequence:
#
# PCOD9393985 Si02
#       7
#     8   4   8   8   8   8   4
#     4  10  20  36  58  87 121 160 207 255 311 368
#     4  11  23  45  59  93 127 165 207 255 314 373
#     4  10  23  40  60  88 122 163 207 257 312 370
#     4  11  24  41  65  93 124 162 209 256 312 373
#     4  11  24  43  66  92 126 162 202 254 313 373
#     4  11  24  42  65  94 126 162 208 256 310 372
#     4  11  25  39  67  89 127 167 205 257 312 373
#
# _framework density 19.004943000000001
#
# number of rings (size 3 to 8) (size 9 to 14) (size 15 to 20)
#    0.000    1.333    0.833    4.500    4.667    9.000 
#    0.000    1.667    0.000    0.000    0.000    0.000 
#    0.000    0.000    0.000    0.000    0.000    0.000 
#
# Total GULP energy -268041.612498 kJ/mol
# GULP energy per Si atom -5584.200260 kJ/mol
# Density = 1.896169 g / cm^3
# Si number density = 19.004943 Si / 1000 Ang^3
#
#
#
# Elastic Constant Matrix: (Units=GPa)
#
#
# Indices 1 2 3 4 5 6 
#
# 1 114.4552 69.1406 56.3249 0.0000 0.0000 0.0000
# 2 69.1406 89.7763 46.5465 0.0000 0.0000 0.0000
# 3 56.3249 46.5465 122.3732 0.0000 0.0000 0.0000
# 4 0.0000 0.0000 0.0000 27.9811 0.0000 0.0000
# 5 0.0000 0.0000 0.0000 0.0000 32.0987 0.0000
# 6 0.0000 0.0000 0.0000 0.0000 0.0000 30.4435
#
#
#
# Elastic Compliance Matrix: (Units=1/GPa)
#
#
# Indices 1 2 3 4 5 6 
#
# 1 0.017563 -0.011628 -0.003661 0.000000 0.000000 0.000000
# 2 -0.011628 0.021573 -0.002854 0.000000 0.000000 0.000000
# 3 -0.003661 -0.002854 0.010942 0.000000 0.000000 0.000000
# 4 0.000000 0.000000 0.000000 0.035738 0.000000 0.000000
# 5 0.000000 0.000000 0.000000 0.000000 0.031154 0.000000
# 6 0.000000 0.000000 0.000000 0.000000 0.000000 0.032848
#
#
# Mechanical properties :
#
#
# Convention : Reuss Voigt Hill
#
# Bulk Modulus (GPa) = 72.49795 74.51429 73.50612
# Shear Modulus (GPa) = 26.21902 28.41085 27.31494
#
# Velocity S-wave (km/s) = 3.71831 3.87061 3.79523
# Velocity P-wave (km/s) = 7.52756 7.69860 7.61356
#
# Compressibility (1/GPa) = 0.01379349
#
# Stress axis : x y z
#
# Youngs Moduli (GPa) = 56.93869 46.35317 91.38918
#
# Poissons Ratio (x) = 0.53898 0.33456
# Poissons Ratio (y) = 0.66207 0.26081
# Poissons Ratio (z) = 0.20844 0.13229
#
# Static dielectric constant tensor:
#      x y z
#    x 1.640070 0.000000 0.000000 
#    y 0.000000 1.644190 0.000000 
#    z 0.000000 0.000000 1.637830 
# 
# From -- ./inp_files/2157.got.cif
#   From: 2010.05.17/outbox.cif.g08.bks.cpg/sg49_2_cif.got.tgz:2157.got - 2010.06.03 21:02:19.
