data_PCOD9393453
_publ_section_title
;
Structure prediction by ZEFSAII (Michael W. Deem and Ramdas Pophale) SiO2 
 PCOD9393453
Probable space group: P C C M
;
_chemical_formula_sum "Si O2"
_cell_formula_units_Z 64
_cell_length_a 28.970528
_cell_length_b 14.638119
_cell_length_c 8.859200
_cell_angle_alpha 90.000000
_cell_angle_beta 90.000000
_cell_angle_gamma 90.000000
_cell_volume 3756.956703
_symmetry_space_group_name_H-M "P C C M"
_symmetry_group_IT_number 49
_symmetry_cell_setting 'orthorhombic'
loop_
_space_group_symop_operation_xyz
x,y,z
-x,-y,z
x,-y,1/2-z
-x,y,1/2-z
-x,-y,-z
x,y,-z
-x,y,1/2+z
x,-y,1/2+z
loop_
_atom_site_type_symbol
_atom_site_label
_atom_site_fract_x
_atom_site_fract_y
_atom_site_fract_z
Si Si1 0.454108 0.601998 0.819632
Si Si2 0.351546 0.398520 0.319722
Si Si3 0.733568 0.706550 0.820463
Si Si4 0.766649 0.091774 0.679928
Si Si5 0.925092 0.406017 0.182131
Si Si6 0.048110 0.789692 0.318992
Si Si7 0.139656 0.855226 0.828411
Si Si8 0.176088 0.646758 0.169282
O O1 0.452722 0.500000 0.750000
O O2 0.500000 0.647073 0.750000
O O3 0.403068 0.639548 0.784521
O O4 0.459184 0.596436 0.000000
O O5 0.347396 0.500000 0.250000
O O6 0.347982 0.406430 0.500000
O O7 0.311167 0.335477 0.256856
O O8 0.742843 0.812275 0.774904
O O9 0.779024 0.649065 0.772727
O O10 0.728713 0.703522 0.000000
O O11 0.766058 0.086263 0.500000
O O12 0.819384 0.097506 0.737609
O O13 0.745588 0.000000 0.750000
O O14 0.944305 0.500000 0.250000
O O15 0.945054 0.314176 0.256832
O O16 0.870144 0.404367 0.218161
O O17 0.930363 0.401589 0.000000
O O18 0.047544 0.788756 0.500000
O O19 0.091050 0.848626 0.256638
O O20 0.000000 0.823380 0.250000
O O21 0.157657 0.750776 0.838716
O O22 0.135002 0.890145 0.000000
O O23 0.189178 0.617195 0.000000
#
# Coordination Sequence:
#
# PCOD9393453 Si02
#       8
#     8   8   8   8   8   8   8   8
#     4   9  16  26  42  63  87 121 164 210 254 296
#     4  10  20  32  46  66  96 134 174 211 252 296
#     4  10  20  32  48  71 100 131 166 205 246 291
#     4  10  20  34  54  80 105 132 164 200 243 292
#     4  10  20  33  47  65  87 115 152 194 238 283
#     4  11  21  34  51  70  92 119 151 188 232 284
#     4   9  17  32  52  73  95 119 148 184 225 273
#     4   8  16  30  46  62  85 116 149 185 228 276
#
# _framework density 17.035064999999999
#
# number of rings (size 3 to 8) (size 9 to 14) (size 15 to 20)
#    0.000    2.375    0.000    4.500    0.000    7.250 
#    0.000    2.500    0.000    0.375    0.000    2.625 
#    0.000    0.500    0.000    5.500    0.000    4.000 
#
# Total GULP energy -356810.031647 kJ/mol
# GULP energy per Si atom -5575.156744 kJ/mol
# Density = 1.699629 g / cm^3
# Si number density = 17.035065 Si / 1000 Ang^3
#
#
#
# Elastic Constant Matrix: (Units=GPa)
#
#
# Indices 1 2 3 4 5 6 
#
# 1 135.1241 30.9541 65.9335 0.0000 0.0000 0.0000
# 2 30.9541 47.8873 19.4189 0.0000 0.0000 0.0000
# 3 65.9335 19.4189 74.7185 0.0000 0.0000 0.0000
# 4 0.0000 0.0000 0.0000 19.0378 0.0000 0.0000
# 5 0.0000 0.0000 0.0000 0.0000 27.4964 0.0000
# 6 0.0000 0.0000 0.0000 0.0000 0.0000 7.8433
#
#
#
# Elastic Compliance Matrix: (Units=1/GPa)
#
#
# Indices 1 2 3 4 5 6 
#
# 1 0.013796 -0.004450 -0.011017 0.000000 0.000000 0.000000
# 2 -0.004450 0.024778 -0.002513 0.000000 0.000000 0.000000
# 3 -0.011017 -0.002513 0.023759 0.000000 0.000000 0.000000
# 4 0.000000 0.000000 0.000000 0.052527 0.000000 0.000000
# 5 0.000000 0.000000 0.000000 0.000000 0.036368 0.000000
# 6 0.000000 0.000000 0.000000 0.000000 0.000000 0.127497
#
#
# Mechanical properties :
#
#
# Convention : Reuss Voigt Hill
#
# Bulk Modulus (GPa) = 37.91897 54.48255 46.20076
# Shear Modulus (GPa) = 15.45714 20.30374 17.88044
#
# Velocity S-wave (km/s) = 3.01553 3.45611 3.24331
# Velocity P-wave (km/s) = 5.86790 6.92663 6.41913
#
# Compressibility (1/GPa) = 0.02637203
#
# Stress axis : x y z
#
# Youngs Moduli (GPa) = 72.48563 40.35875 42.09011
#
# Poissons Ratio (x) = 0.17959 0.46372
# Poissons Ratio (y) = 0.32256 0.10577
# Poissons Ratio (z) = 0.79859 0.10142
#
# Static dielectric constant tensor:
#      x y z
#    x 1.602180 0.000000 0.000000 
#    y 0.000000 1.592820 0.000000 
#    z 0.000000 0.000000 1.577780 
# 
# From -- ./inp_files/7040.got.cif
#   From: 2010.05.17/outbox.cif.g08.bks.cpg/sg49_4_cif.got.tgz:7040.got - 2010.06.03 21:02:19.
