data_PCOD9393635
_publ_section_title
;
Structure prediction by ZEFSAII (Michael W. Deem and Ramdas Pophale) SiO2 
 PCOD9393635
Probable space group: P C C M
;
_chemical_formula_sum "Si O2"
_cell_formula_units_Z 40
_cell_length_a 9.867015
_cell_length_b 25.907483
_cell_length_c 8.551596
_cell_angle_alpha 90.000000
_cell_angle_beta 90.000000
_cell_angle_gamma 90.000000
_cell_volume 2186.040410
_symmetry_space_group_name_H-M "P C C M"
_symmetry_group_IT_number 49
_symmetry_cell_setting 'orthorhombic'
loop_
_space_group_symop_operation_xyz
x,y,z
-x,-y,z
x,-y,1/2-z
-x,y,1/2-z
-x,-y,-z
x,y,-z
-x,y,1/2+z
x,-y,1/2+z
loop_
_atom_site_type_symbol
_atom_site_label
_atom_site_fract_x
_atom_site_fract_y
_atom_site_fract_z
Si Si1 0.352965 0.441936 0.313012
Si Si2 0.650222 0.736209 0.188605
Si Si3 0.847268 0.355768 0.311836
Si Si4 0.649778 0.146379 0.311270
Si Si5 0.152416 0.944765 0.312067
O O1 0.333313 0.500000 0.250000
O O2 0.500000 0.423981 0.250000
O O3 0.356217 0.442582 0.500000
O O4 0.235656 0.404688 0.252022
O O5 0.500000 0.723289 0.250000
O O6 0.761983 0.694827 0.238726
O O7 0.683120 0.794929 0.239075
O O8 0.645075 0.735450 0.000000
O O9 0.848892 0.357585 0.500000
O O10 0.000000 0.354632 0.250000
O O11 0.500000 0.134517 0.250000
O O12 0.647738 0.146046 0.500000
O O13 0.755300 0.102984 0.259448
O O14 0.149677 0.946297 0.500000
O O15 0.000000 0.938412 0.250000
O O16 0.203607 0.000000 0.250000
#
# Coordination Sequence:
#
# PCOD9393635 Si02
#       5
#     8   8   8   8   8
#     4  11  22  39  62  87 114 146 185 226 269 320
#     4   9  19  36  57  79 106 139 178 220 265 318
#     4  11  23  38  56  82 114 147 183 225 272 323
#     4   9  19  35  54  78 105 136 174 219 266 316
#     4  10  20  34  52  74 103 137 176 216 261 315
#
# _framework density 18.297923000000001
#
# number of rings (size 3 to 8) (size 9 to 14) (size 15 to 20)
#    0.000    2.000    0.000    4.800    0.000    6.400 
#    0.000    4.000    0.000    0.000    0.000    0.000 
#    0.000    0.000    0.000    0.000    0.000    0.000 
#
# Total GULP energy -223384.885567 kJ/mol
# GULP energy per Si atom -5584.622139 kJ/mol
# Density = 1.825628 g / cm^3
# Si number density = 18.297923 Si / 1000 Ang^3
#
#
#
# Elastic Constant Matrix: (Units=GPa)
#
#
# Indices 1 2 3 4 5 6 
#
# 1 153.1030 116.4067 41.8862 0.0000 0.0000 0.0000
# 2 116.4067 136.5571 41.7529 0.0000 0.0000 0.0000
# 3 41.8862 41.7529 67.3122 0.0000 0.0000 0.0000
# 4 0.0000 0.0000 0.0000 24.0947 0.0000 0.0000
# 5 0.0000 0.0000 0.0000 0.0000 32.8064 0.0000
# 6 0.0000 0.0000 0.0000 0.0000 0.0000 84.4037
#
#
#
# Elastic Compliance Matrix: (Units=1/GPa)
#
#
# Indices 1 2 3 4 5 6 
#
# 1 0.018816 -0.015375 -0.002171 0.000000 0.000000 0.000000
# 2 -0.015375 0.021601 -0.003831 0.000000 0.000000 0.000000
# 3 -0.002171 -0.003831 0.018584 0.000000 0.000000 0.000000
# 4 0.000000 0.000000 0.000000 0.041503 0.000000 0.000000
# 5 0.000000 0.000000 0.000000 0.000000 0.030482 0.000000
# 6 0.000000 0.000000 0.000000 0.000000 0.000000 0.011848
#
#
# Mechanical properties :
#
#
# Convention : Reuss Voigt Hill
#
# Bulk Modulus (GPa) = 61.55854 84.11820 72.83837
# Shear Modulus (GPa) = 26.17748 38.72270 32.45009
#
# Velocity S-wave (km/s) = 3.78646 4.60525 4.21578
# Velocity P-wave (km/s) = 7.26855 8.62258 7.97436
#
# Compressibility (1/GPa) = 0.01624470
#
# Stress axis : x y z
#
# Youngs Moduli (GPa) = 53.14683 46.29414 53.81063
#
# Poissons Ratio (x) = 0.71179 0.11684
# Poissons Ratio (y) = 0.81716 0.20616
# Poissons Ratio (z) = 0.11540 0.17736
#
# Static dielectric constant tensor:
#      x y z
#    x 1.587240 0.000000 0.000000 
#    y 0.000000 1.639630 0.000000 
#    z 0.000000 0.000000 1.620930 
# 
# From -- ./inp_files/1685.got.cif
#   From: 2010.05.17/outbox.cif.g08.bks.cpg/sg49_1_cif.got.tgz:1685.got - 2010.06.03 21:02:19.
