data_PCOD9393118
_publ_section_title
;
Structure prediction by ZEFSAII (Michael W. Deem and Ramdas Pophale) SiO2 
 PCOD9393118
Probable space group: P C C M
;
_chemical_formula_sum "Si O2"
_cell_formula_units_Z 40
_cell_length_a 9.371765
_cell_length_b 11.022214
_cell_length_c 18.266520
_cell_angle_alpha 90.000000
_cell_angle_beta 90.000000
_cell_angle_gamma 90.000000
_cell_volume 1886.887665
_symmetry_space_group_name_H-M "P C C M"
_symmetry_group_IT_number 49
_symmetry_cell_setting 'orthorhombic'
loop_
_space_group_symop_operation_xyz
x,y,z
-x,-y,z
x,-y,1/2-z
-x,y,1/2-z
-x,-y,-z
x,y,-z
-x,y,1/2+z
x,-y,1/2+z
loop_
_atom_site_type_symbol
_atom_site_label
_atom_site_fract_x
_atom_site_fract_y
_atom_site_fract_z
Si Si1 0.663789 0.625071 0.720098
Si Si2 0.686573 0.127715 0.295225
Si Si3 0.071206 0.131926 0.916663
Si Si4 0.202000 0.715467 0.917038
Si Si5 0.525547 0.858766 0.578380
O O1 0.728833 0.500000 0.750000
O O2 0.500000 0.622466 0.750000
O O3 0.722902 0.755317 0.746453
O O4 0.707581 0.626571 0.634800
O O5 0.806628 0.119905 0.357016
O O6 0.548764 0.167828 0.344079
O O7 0.671982 0.000000 0.250000
O O8 0.953239 0.233790 0.895850
O O9 0.121295 0.158612 0.000000
O O10 0.000000 0.000000 0.919237
O O11 0.307580 0.831429 0.918398
O O12 0.191234 0.668516 0.000000
O O13 0.475344 0.802400 0.500000
O O14 0.500000 0.000000 0.572698
#
# Coordination Sequence:
#
# PCOD9393118 Si02
#       5
#     8   8   8   8   8
#     4  11  24  43  63  92 129 163 204 265 325 372
#     4  12  24  37  63  94 127 163 210 260 311 376
#     4  10  21  39  61  92 132 170 207 256 314 375
#     4  10  21  40  63  87 122 167 211 251 309 378
#     4  10  19  33  56  88 120 156 202 257 310 362
#
# _framework density 21.198931000000002
#
# number of rings (size 3 to 8) (size 9 to 14) (size 15 to 20)
#    0.000    1.400    2.000    4.200    0.000    6.000 
#    0.000    7.000    0.000    2.400    0.000    0.000 
#    0.000    0.000    0.000    0.000    0.000    0.000 
#
# Total GULP energy -222755.918052 kJ/mol
# GULP energy per Si atom -5568.897951 kJ/mol
# Density = 2.115068 g / cm^3
# Si number density = 21.198931 Si / 1000 Ang^3
#
#
#
# Elastic Constant Matrix: (Units=GPa)
#
#
# Indices 1 2 3 4 5 6 
#
# 1 81.0809 4.9254 43.5298 0.0000 0.0000 0.0000
# 2 4.9254 87.6873 38.7540 0.0000 0.0000 0.0000
# 3 43.5298 38.7540 128.1796 0.0000 0.0000 0.0000
# 4 0.0000 0.0000 0.0000 946.1429 0.0000 0.0000
# 5 0.0000 0.0000 0.0000 0.0000 43.3167 0.0000
# 6 0.0000 0.0000 0.0000 0.0000 0.0000 2.3157
#
#
#
# Elastic Compliance Matrix: (Units=1/GPa)
#
#
# Indices 1 2 3 4 5 6 
#
# 1 0.015289 0.001657 -0.005693 0.000000 0.000000 0.000000
# 2 0.001657 0.013343 -0.004597 0.000000 0.000000 0.000000
# 3 -0.005693 -0.004597 0.011125 0.000000 0.000000 0.000000
# 4 0.000000 0.000000 0.000000 0.001057 0.000000 0.000000
# 5 0.000000 0.000000 0.000000 0.000000 0.023086 0.000000
# 6 0.000000 0.000000 0.000000 0.000000 0.000000 0.431831
#
#
# Mechanical properties :
#
#
# Convention : Reuss Voigt Hill
#
# Bulk Modulus (GPa) = 44.46201 52.37406 48.41804
# Shear Modulus (GPa) = 9.60627 212.33762 110.97194
#
# Velocity S-wave (km/s) = 2.13104 10.01907 7.24303
# Velocity P-wave (km/s) = 5.20330 12.59373 9.63526
#
# Compressibility (1/GPa) = 0.02249111
#
# Stress axis : x y z
#
# Youngs Moduli (GPa) = 65.40545 74.94738 89.88886
#
# Poissons Ratio (x) = -0.12422 0.51177
# Poissons Ratio (y) = -0.10840 0.41321
# Poissons Ratio (z) = 0.37238 0.34453
#
# Static dielectric constant tensor:
#      x y z
#    x 1.792800 0.000000 0.000000 
#    y 0.000000 1.707560 0.000000 
#    z 0.000000 0.000000 1.938120 
# 
# From -- ./inp_files/15995.got.cif
#   From: 2010.05.17/outbox.cif.g08.bks.cpg/sg49_8_cif.got.tgz:15995.got - 2010.06.03 21:02:19.
