data_PCOD9393169
_publ_section_title
;
Structure prediction by ZEFSAII (Michael W. Deem and Ramdas Pophale) SiO2 
 PCOD9393169
Probable space group: P C C M
;
_chemical_formula_sum "Si O2"
_cell_formula_units_Z 60
_cell_length_a 11.954223
_cell_length_b 11.800353
_cell_length_c 22.962754
_cell_angle_alpha 90.000000
_cell_angle_beta 90.000000
_cell_angle_gamma 90.000000
_cell_volume 3239.219107
_symmetry_space_group_name_H-M "P C C M"
_symmetry_group_IT_number 49
_symmetry_cell_setting 'orthorhombic'
loop_
_space_group_symop_operation_xyz
x,y,z
-x,-y,z
x,-y,1/2-z
-x,y,1/2-z
-x,-y,-z
x,y,-z
-x,y,1/2+z
x,-y,1/2+z
loop_
_atom_site_type_symbol
_atom_site_label
_atom_site_fract_x
_atom_site_fract_y
_atom_site_fract_z
Si Si1 0.375996 0.301353 0.768512
Si Si2 0.128011 0.275674 0.933809
Si Si3 0.625096 0.048307 0.688048
Si Si4 0.803725 0.292824 0.827224
Si Si5 0.000000 0.681190 0.250000
Si Si6 0.885342 0.825684 0.566516
Si Si7 0.248776 0.040622 0.933350
Si Si8 0.184030 0.437532 0.169531
O O1 0.500000 0.337677 0.750000
O O2 0.379986 0.184437 0.804661
O O3 0.305941 0.273197 0.710458
O O4 0.300116 0.393254 0.802309
O O5 0.162846 0.374945 0.891007
O O6 0.008442 0.219586 0.918481
O O7 0.213829 0.171517 0.931028
O O8 0.121175 0.316794 0.000000
O O9 0.500000 0.000000 0.685743
O O10 0.674588 0.000000 0.750000
O O11 0.683194 0.018501 0.626376
O O12 0.802048 0.233276 0.888813
O O13 0.818380 0.427884 0.834516
O O14 0.912929 0.251677 0.790724
O O15 0.916453 0.607587 0.210339
O O16 0.864185 0.791776 0.500000
O O17 0.860370 0.959359 0.569680
O O18 0.295867 0.020125 0.000000
#
# Coordination Sequence:
#
# PCOD9393169 Si02
#       8
#     8   8   8   8   4   8   8   8
#     4  11  22  39  59  84 114 153 192 237 294 353
#     4  10  20  36  58  85 118 155 195 239 287 348
#     4  11  21  36  60  89 114 144 190 252 300 338
#     4  11  22  35  59  84 118 153 193 241 289 346
#     4  10  19  34  54  83 116 147 190 240 289 338
#     4  10  21  36  57  84 117 156 192 233 289 350
#     4  10  21  39  59  82 116 157 197 234 292 362
#     4  11  21  36  58  85 114 156 195 238 288 347
#
# _framework density 18.522983
#
# number of rings (size 3 to 8) (size 9 to 14) (size 15 to 20)
#    0.000    1.467    4.000    3.600    0.000    3.467 
#    0.000    1.333    0.000    2.400    0.000    1.867 
#    0.000    0.000    0.000    0.000    0.000    0.000 
#
# Total GULP energy -334617.087188 kJ/mol
# GULP energy per Si atom -5576.951453 kJ/mol
# Density = 1.848082 g / cm^3
# Si number density = 18.522983 Si / 1000 Ang^3
#
#
#
# Elastic Constant Matrix: (Units=GPa)
#
#
# Indices 1 2 3 4 5 6 
#
# 1 94.0953 6.8077 47.9148 0.0000 0.0000 0.0000
# 2 6.8077 40.2180 19.5396 0.0000 0.0000 0.0000
# 3 47.9148 19.5396 125.5900 0.0000 0.0000 0.0000
# 4 0.0000 0.0000 0.0000 29.1136 0.0000 0.0000
# 5 0.0000 0.0000 0.0000 0.0000 19.0083 0.0000
# 6 0.0000 0.0000 0.0000 0.0000 0.0000 16.7615
#
#
#
# Elastic Compliance Matrix: (Units=1/GPa)
#
#
# Indices 1 2 3 4 5 6 
#
# 1 0.013192 0.000230 -0.005069 0.000000 0.000000 0.000000
# 2 0.000230 0.026902 -0.004273 0.000000 0.000000 0.000000
# 3 -0.005069 -0.004273 0.010561 0.000000 0.000000 0.000000
# 4 0.000000 0.000000 0.000000 0.034348 0.000000 0.000000
# 5 0.000000 0.000000 0.000000 0.000000 0.052608 0.000000
# 6 0.000000 0.000000 0.000000 0.000000 0.000000 0.059661
#
#
# Mechanical properties :
#
#
# Convention : Reuss Voigt Hill
#
# Bulk Modulus (GPa) = 30.83527 45.38084 38.10806
# Shear Modulus (GPa) = 22.09395 25.35277 23.72336
#
# Velocity S-wave (km/s) = 3.45742 3.70363 3.58264
# Velocity P-wave (km/s) = 5.71152 6.54539 6.14262
#
# Compressibility (1/GPa) = 0.03243040
#
# Stress axis : x y z
#
# Youngs Moduli (GPa) = 75.80372 37.17244 94.68785
#
# Poissons Ratio (x) = -0.00853 0.47994
# Poissons Ratio (y) = -0.01740 0.40460
# Poissons Ratio (z) = 0.38423 0.15884
#
# Static dielectric constant tensor:
#      x y z
#    x 1.638770 0.000000 0.000000 
#    y 0.000000 1.629260 0.000000 
#    z 0.000000 0.000000 1.676400 
# 
# From -- ./inp_files/20582.got.cif
#   From: 2010.05.17/outbox.cif.g08.bks.cpg/sg49_11_cif.got.tgz:20582.got - 2010.06.03 21:02:19.
