data_PCOD9393622
_publ_section_title
;
Structure prediction by ZEFSAII (Michael W. Deem and Ramdas Pophale) SiO2 
 PCOD9393622
Probable space group: P C C M
;
_chemical_formula_sum "Si O2"
_cell_formula_units_Z 58
_cell_length_a 18.878765
_cell_length_b 19.549421
_cell_length_c 8.900633
_cell_angle_alpha 90.000000
_cell_angle_beta 90.000000
_cell_angle_gamma 90.000000
_cell_volume 3284.947053
_symmetry_space_group_name_H-M "P C C M"
_symmetry_group_IT_number 49
_symmetry_cell_setting 'orthorhombic'
loop_
_space_group_symop_operation_xyz
x,y,z
-x,-y,z
x,-y,1/2-z
-x,y,1/2-z
-x,-y,-z
x,y,-z
-x,y,1/2+z
x,-y,1/2+z
loop_
_atom_site_type_symbol
_atom_site_label
_atom_site_fract_x
_atom_site_fract_y
_atom_site_fract_z
Si Si1 0.208882 0.426030 0.179433
Si Si2 0.578279 0.219709 0.820113
Si Si3 0.000000 0.000000 0.750000
Si Si4 0.706191 0.706329 0.180710
Si Si5 0.924452 0.667367 0.819175
Si Si6 0.163469 0.212256 0.679851
Si Si7 0.421095 0.067086 0.678943
Si Si8 0.859834 0.067289 0.669484
O O1 0.217295 0.500000 0.250000
O O2 0.268699 0.370367 0.220554
O O3 0.134437 0.389670 0.220119
O O4 0.209692 0.432947 0.000000
O O5 0.500000 0.223855 0.750000
O O6 0.630291 0.273620 0.744606
O O7 0.608413 0.142719 0.790081
O O8 0.574525 0.227788 0.000000
O O9 0.944066 0.951373 0.834543
O O10 0.763711 0.756950 0.254610
O O11 0.708952 0.713146 0.000000
O O12 0.896817 0.738531 0.749250
O O13 0.000000 0.649949 0.750000
O O14 0.927431 0.673203 0.000000
O O15 0.162954 0.215892 0.500000
O O16 0.152669 0.135109 0.735548
O O17 0.500000 0.069489 0.750000
O O18 0.426271 0.058427 0.500000
O O19 0.385378 0.000000 0.750000
O O20 0.833964 0.075777 0.500000
O O21 0.828065 0.000000 0.750000
#
# Coordination Sequence:
#
# PCOD9393622 Si02
#       8
#     8   8   2   8   8   8   8   8
#     4   9  20  37  58  82 109 142 178 216 263 321
#     4  10  20  34  55  84 113 145 183 225 273 324
#     4   8  22  32  54  72 102 136 182 228 286 328
#     4  10  21  39  59  82 111 142 179 222 268 323
#     4  10  21  36  53  79 111 143 181 223 269 318
#     4  11  22  36  55  77 105 143 184 228 278 330
#     4   9  16  26  43  69 102 136 173 211 252 302
#     4  10  20  34  51  73 103 138 184 233 280 330
#
# _framework density 17.656298
#
# number of rings (size 3 to 8) (size 9 to 14) (size 15 to 20)
#    0.414    1.793    0.000    4.759    0.966    5.241 
#    0.000    2.069    0.000    2.069    0.000    2.897 
#    0.000    0.000    0.000    0.000    0.000    0.000 
#
# Total GULP energy -323344.103848 kJ/mol
# GULP energy per Si atom -5574.898342 kJ/mol
# Density = 1.761611 g / cm^3
# Si number density = 17.656298 Si / 1000 Ang^3
#
#
#
# Elastic Constant Matrix: (Units=GPa)
#
#
# Indices 1 2 3 4 5 6 
#
# 1 75.9141 62.6647 39.1360 0.0000 0.0000 0.0000
# 2 62.6647 165.8896 65.7230 0.0000 0.0000 0.0000
# 3 39.1360 65.7230 109.5642 0.0000 0.0000 0.0000
# 4 0.0000 0.0000 0.0000 26.8981 0.0000 0.0000
# 5 0.0000 0.0000 0.0000 0.0000 -31.7432 0.0000
# 6 0.0000 0.0000 0.0000 0.0000 0.0000 10.1893
#
#
#
# Elastic Compliance Matrix: (Units=1/GPa)
#
#
# Indices 1 2 3 4 5 6 
#
# 1 0.020084 -0.006224 -0.003441 0.000000 0.000000 0.000000
# 2 -0.006224 0.009836 -0.003677 0.000000 0.000000 0.000000
# 3 -0.003441 -0.003677 0.012562 0.000000 0.000000 0.000000
# 4 0.000000 0.000000 0.000000 0.037177 0.000000 0.000000
# 5 0.000000 0.000000 0.000000 0.000000 -0.031503 0.000000
# 6 0.000000 0.000000 0.000000 0.000000 0.000000 0.098142
#
#
# Mechanical properties :
#
#
# Convention : Reuss Voigt Hill
#
# Bulk Modulus (GPa) = 63.29535 76.26837 69.78186
# Shear Modulus (GPa) = 28.05098 13.32513 20.68805
#
# Velocity S-wave (km/s) = 3.99020 2.75015 3.42674
# Velocity P-wave (km/s) = 7.56012 7.30578 7.43403
#
# Compressibility (1/GPa) = 0.01579895
#
# Stress axis : x y z
#
# Youngs Moduli (GPa) = 49.79122 101.66895 79.60650
#
# Poissons Ratio (x) = 0.63274 0.27390
# Poissons Ratio (y) = 0.30988 0.29272
# Poissons Ratio (z) = 0.17131 0.37385
#
# Static dielectric constant tensor:
#      x y z
#    x 1.610260 0.000000 0.000000 
#    y 0.000000 1.604920 0.000000 
#    z 0.000000 0.000000 1.593890 
# 
# From -- ./inp_files/5109.got.cif
#   From: 2010.05.17/outbox.cif.g08.bks.cpg/sg49_3_cif.got.tgz:5109.got - 2010.06.03 21:02:19.
