data_PCOD9393645
_publ_section_title
;
Structure prediction by ZEFSAII (Michael W. Deem and Ramdas Pophale) SiO2 
 PCOD9393645
Probable space group: P C C M
;
_chemical_formula_sum "Si O2"
_cell_formula_units_Z 58
_cell_length_a 13.303133
_cell_length_b 26.648684
_cell_length_c 8.855700
_cell_angle_alpha 90.000000
_cell_angle_beta 90.000000
_cell_angle_gamma 90.000000
_cell_volume 3139.442952
_symmetry_space_group_name_H-M "P C C M"
_symmetry_group_IT_number 49
_symmetry_cell_setting 'orthorhombic'
loop_
_space_group_symop_operation_xyz
x,y,z
-x,-y,z
x,-y,1/2-z
-x,y,1/2-z
-x,-y,-z
x,y,-z
-x,y,1/2+z
x,-y,1/2+z
loop_
_atom_site_type_symbol
_atom_site_label
_atom_site_fract_x
_atom_site_fract_y
_atom_site_fract_z
Si Si1 0.892366 0.808846 0.181103
Si Si2 0.896922 0.391949 0.818934
Si Si3 0.820689 0.919301 0.822328
Si Si4 0.000000 0.000000 0.750000
Si Si5 0.396386 0.944274 0.818285
Si Si6 0.800198 0.704456 0.818722
Si Si7 0.603065 0.658078 0.680920
Si Si8 0.691248 0.446698 0.180368
O O1 0.858382 0.864374 0.227221
O O2 0.823726 0.761678 0.223652
O O3 0.000000 0.798447 0.250000
O O4 0.898919 0.809605 0.000000
O O5 0.875651 0.336611 0.751818
O O6 0.803016 0.427403 0.777060
O O7 0.000000 0.411421 0.750000
O O8 0.901217 0.388730 0.000000
O O9 0.716079 0.927553 0.732430
O O10 0.914021 0.959370 0.808598
O O11 0.794375 0.918831 0.000000
O O12 0.500000 0.919705 0.750000
O O13 0.398627 0.000000 0.750000
O O14 0.403132 0.944022 0.000000
O O15 0.693678 0.688575 0.752625
O O16 0.802978 0.699842 0.000000
O O17 0.500000 0.676263 0.750000
O O18 0.606012 0.661438 0.500000
O O19 0.620211 0.599647 0.723895
O O20 0.666424 0.500000 0.250000
O O21 0.688595 0.451224 0.000000
#
# Coordination Sequence:
#
# PCOD9393645 Si02
#       8
#     8   8   8   2   8   8   8   8
#     4  10  22  38  57  85 120 154 189 234 285 340
#     4  10  20  34  52  77 107 143 186 230 278 331
#     4  11  23  39  59  89 125 159 200 245 291 350
#     4  12  22  36  66  86 126 164 202 238 296 344
#     4  11  22  38  61  86 113 149 193 239 286 338
#     4  10  20  36  58  82 109 144 184 230 284 338
#     4  10  21  38  59  84 111 143 186 233 284 340
#     4   9  20  35  51  75 109 145 183 229 277 331
#
# _framework density 18.474613999999999
#
# number of rings (size 3 to 8) (size 9 to 14) (size 15 to 20)
#    0.000    1.793    1.379    4.345    0.000    7.172 
#    0.000    3.448    0.000    0.000    0.000    0.000 
#    0.000    0.000    0.000    0.000    0.000    0.000 
#
# Total GULP energy -323138.192005 kJ/mol
# GULP energy per Si atom -5571.348138 kJ/mol
# Density = 1.843256 g / cm^3
# Si number density = 18.474614 Si / 1000 Ang^3
#
#
#
# Elastic Constant Matrix: (Units=GPa)
#
#
# Indices 1 2 3 4 5 6 
#
# 1 123.7688 30.0035 40.9369 0.0000 0.0000 0.0000
# 2 30.0035 103.9357 26.4227 0.0000 0.0000 0.0000
# 3 40.9369 26.4227 64.7514 0.0000 0.0000 0.0000
# 4 0.0000 0.0000 0.0000 22.3151 0.0000 0.0000
# 5 0.0000 0.0000 0.0000 0.0000 131.4651 0.0000
# 6 0.0000 0.0000 0.0000 0.0000 0.0000 9.4675
#
#
#
# Elastic Compliance Matrix: (Units=1/GPa)
#
#
# Indices 1 2 3 4 5 6 
#
# 1 0.010418 -0.001487 -0.005979 0.000000 0.000000 0.000000
# 2 -0.001487 0.010947 -0.003527 0.000000 0.000000 0.000000
# 3 -0.005979 -0.003527 0.020663 0.000000 0.000000 0.000000
# 4 0.000000 0.000000 0.000000 0.044813 0.000000 0.000000
# 5 0.000000 0.000000 0.000000 0.000000 0.007607 0.000000
# 6 0.000000 0.000000 0.000000 0.000000 0.000000 0.105624
#
#
# Mechanical properties :
#
#
# Convention : Reuss Voigt Hill
#
# Bulk Modulus (GPa) = 49.89748 54.13133 52.01441
# Shear Modulus (GPa) = 21.85893 45.65574 33.75734
#
# Velocity S-wave (km/s) = 3.44348 4.97658 4.27925
# Velocity P-wave (km/s) = 6.54808 7.89847 7.25476
#
# Compressibility (1/GPa) = 0.02004109
#
# Stress axis : x y z
#
# Youngs Moduli (GPa) = 95.98940 91.34693 48.39532
#
# Poissons Ratio (x) = 0.13586 0.28938
# Poissons Ratio (y) = 0.14276 0.17069
# Poissons Ratio (z) = 0.57396 0.32217
#
# Static dielectric constant tensor:
#      x y z
#    x 1.617900 0.000000 0.000000 
#    y 0.000000 1.636940 0.000000 
#    z 0.000000 0.000000 1.627530 
# 
# From -- ./inp_files/3026.got.cif
#   From: 2010.05.17/outbox.cif.g08.bks.cpg/sg49_2_cif.got.tgz:3026.got - 2010.06.03 21:02:19.
