data_PCOD9393937
_publ_section_title
;
Structure prediction by ZEFSAII (Michael W. Deem and Ramdas Pophale) SiO2 
 PCOD9393937
Probable space group: P C C M
;
_chemical_formula_sum "Si O2"
_cell_formula_units_Z 58
_cell_length_a 9.773894
_cell_length_b 18.411581
_cell_length_c 15.315847
_cell_angle_alpha 90.000000
_cell_angle_beta 90.000000
_cell_angle_gamma 90.000000
_cell_volume 2756.130181
_symmetry_space_group_name_H-M "P C C M"
_symmetry_group_IT_number 49
_symmetry_cell_setting 'orthorhombic'
loop_
_space_group_symop_operation_xyz
x,y,z
-x,-y,z
x,-y,1/2-z
-x,y,1/2-z
-x,-y,-z
x,y,-z
-x,y,1/2+z
x,-y,1/2+z
loop_
_atom_site_type_symbol
_atom_site_label
_atom_site_fract_x
_atom_site_fract_y
_atom_site_fract_z
Si Si1 0.373447 0.733745 0.338637
Si Si2 0.580230 0.573555 0.898523
Si Si3 0.155550 0.495087 0.353094
Si Si4 0.933571 0.754707 0.896398
Si Si5 0.114828 0.894168 0.895064
Si Si6 0.000000 0.000000 0.750000
Si Si7 0.647043 0.785967 0.361781
Si Si8 0.161382 0.342703 0.596717
O O1 0.427046 0.650437 0.347893
O O2 0.223512 0.742190 0.377903
O O3 0.487873 0.783420 0.385518
O O4 0.355049 0.762737 0.240107
O O5 0.500000 0.500000 0.867939
O O6 0.740410 0.551892 0.893767
O O7 0.539574 0.585780 0.000000
O O8 0.147656 0.500000 0.250000
O O9 0.218380 0.415161 0.363904
O O10 0.000000 0.500000 0.387251
O O11 0.000943 0.831974 0.872974
O O12 0.028843 0.691281 0.856767
O O13 0.955181 0.751160 0.000000
O O14 0.263151 0.856588 0.881688
O O15 0.090388 0.953757 0.819777
O O16 0.100984 0.913616 0.000000
O O17 0.729470 0.720857 0.406142
O O18 0.122071 0.365699 0.500000
#
# Coordination Sequence:
#
# PCOD9393937 Si02
#       8
#     8   8   8   8   8   2   8   8
#     4  11  21  35  57  85 116 158 207 261 318 367
#     4  11  24  38  53  77 111 154 206 262 322 388
#     4  11  23  36  51  73 102 141 189 245 309 373
#     4   9  19  35  59  89 116 147 197 254 301 354
#     4  10  22  41  67 101 135 168 205 247 302 370
#     4  12  22  40  72 104 136 172 204 242 288 362
#     4  10  22  38  58  86 117 153 199 250 301 356
#     4  10  20  36  55  74 103 145 191 244 304 360
#
# _framework density 21.043998999999999
#
# number of rings (size 3 to 8) (size 9 to 14) (size 15 to 20)
#    0.000    1.655    0.000    5.586    0.000    9.655 
#    0.000    0.000    0.000    6.621    0.000   10.621 
#    0.000    0.000    0.000    0.000    0.000    0.000 
#
# Total GULP energy -323520.839765 kJ/mol
# GULP energy per Si atom -5577.945513 kJ/mol
# Density = 2.099610 g / cm^3
# Si number density = 21.043999 Si / 1000 Ang^3
#
#
#
# Elastic Constant Matrix: (Units=GPa)
#
#
# Indices 1 2 3 4 5 6 
#
# 1 121.9090 29.6168 10.4082 0.0000 0.0000 0.0000
# 2 29.6168 78.1180 44.6734 0.0000 0.0000 0.0000
# 3 10.4082 44.6734 90.3191 0.0000 0.0000 0.0000
# 4 0.0000 0.0000 0.0000 27.1959 0.0000 0.0000
# 5 0.0000 0.0000 0.0000 0.0000 -4.8633 0.0000
# 6 0.0000 0.0000 0.0000 0.0000 0.0000 39.4310
#
#
#
# Elastic Compliance Matrix: (Units=1/GPa)
#
#
# Indices 1 2 3 4 5 6 
#
# 1 0.009089 -0.003970 0.000916 0.000000 0.000000 0.000000
# 2 -0.003970 0.019584 -0.009229 0.000000 0.000000 0.000000
# 3 0.000916 -0.009229 0.015531 0.000000 0.000000 0.000000
# 4 0.000000 0.000000 0.000000 0.036770 0.000000 0.000000
# 5 0.000000 0.000000 0.000000 0.000000 -0.205620 0.000000
# 6 0.000000 0.000000 0.000000 0.000000 0.000000 0.025361
#
#
# Mechanical properties :
#
#
# Convention : Reuss Voigt Hill
#
# Bulk Modulus (GPa) = 50.92002 51.08254 51.00128
# Shear Modulus (GPa) = -73.34338 26.06256 -23.64041
#
# Velocity S-wave (km/s) = -5.91000 3.52302 -3.35532
# Velocity P-wave (km/s) = 4.72454 6.39342 3.04586
#
# Compressibility (1/GPa) = 0.01963864
#
# Stress axis : x y z
#
# Youngs Moduli (GPa) = 110.02228 51.06172 64.38649
#
# Poissons Ratio (x) = 0.20271 -0.05899
# Poissons Ratio (y) = 0.43677 0.59424
# Poissons Ratio (z) = -0.10080 0.47126
#
# Static dielectric constant tensor:
#      x y z
#    x 1.816990 0.000000 0.000000 
#    y 0.000000 1.779790 0.000000 
#    z 0.000000 0.000000 1.796970 
# 
# From -- ./inp_files/16480.got.cif
#   From: 2010.05.17/outbox.cif.g08.bks.cpg/sg49_9_cif.got.tgz:16480.got - 2010.06.03 21:02:19.
