data_PCOD9393780
_publ_section_title
;
Structure prediction by ZEFSAII (Michael W. Deem and Ramdas Pophale) SiO2 
 PCOD9393780
Probable space group: P C C M
;
_chemical_formula_sum "Si O2"
_cell_formula_units_Z 40
_cell_length_a 26.784702
_cell_length_b 9.894635
_cell_length_c 8.669545
_cell_angle_alpha 90.000000
_cell_angle_beta 90.000000
_cell_angle_gamma 90.000000
_cell_volume 2297.644862
_symmetry_space_group_name_H-M "P C C M"
_symmetry_group_IT_number 49
_symmetry_cell_setting 'orthorhombic'
loop_
_space_group_symop_operation_xyz
x,y,z
-x,-y,z
x,-y,1/2-z
-x,y,1/2-z
-x,-y,-z
x,y,-z
-x,y,1/2+z
x,-y,1/2+z
loop_
_atom_site_type_symbol
_atom_site_label
_atom_site_fract_x
_atom_site_fract_y
_atom_site_fract_z
Si Si1 0.749440 0.150604 0.814313
Si Si2 0.053534 0.650148 0.314988
Si Si3 0.660683 0.651621 0.685937
Si Si4 0.449406 0.347021 0.684533
Si Si5 0.143126 0.849928 0.685284
O O1 0.705413 0.251143 0.764289
O O2 0.803514 0.195623 0.752329
O O3 0.740868 0.000000 0.750000
O O4 0.750799 0.145459 0.000000
O O5 0.062437 0.500000 0.250000
O O6 0.050613 0.643438 0.500000
O O7 0.098352 0.749904 0.271504
O O8 0.000000 0.696448 0.250000
O O9 0.666171 0.500000 0.750000
O O10 0.661871 0.643097 0.500000
O O11 0.605412 0.707499 0.728167
O O12 0.448557 0.500000 0.750000
O O13 0.500000 0.281560 0.750000
O O14 0.453218 0.351647 0.500000
O O15 0.146513 0.856212 0.500000
O O16 0.133811 0.000000 0.750000
#
# Coordination Sequence:
#
# PCOD9393780 Si02
#       5
#     8   8   8   8   8
#     4  10  20  35  53  73  98 131 166 203 246 293
#     4  10  21  36  55  78 105 135 167 201 244 292
#     4   9  19  32  48  72 100 127 161 203 245 290
#     4   9  15  25  41  64  93 123 155 194 239 287
#     4  10  21  36  54  77 101 130 167 206 245 290
#
# _framework density 17.409130000000001
#
# number of rings (size 3 to 8) (size 9 to 14) (size 15 to 20)
#    0.000    2.400    0.000    4.800    0.000    6.800 
#    0.000    6.000    0.000    0.600    0.000    4.200 
#    0.000    0.000    0.000    0.000    0.000    0.000 
#
# Total GULP energy -223004.307711 kJ/mol
# GULP energy per Si atom -5575.107693 kJ/mol
# Density = 1.736951 g / cm^3
# Si number density = 17.409130 Si / 1000 Ang^3
#
#
#
# Elastic Constant Matrix: (Units=GPa)
#
#
# Indices 1 2 3 4 5 6 
#
# 1 219.9534 96.7183 55.6246 0.0000 0.0000 0.0000
# 2 96.7183 56.3515 25.5551 0.0000 0.0000 0.0000
# 3 55.6246 25.5551 50.0747 0.0000 0.0000 0.0000
# 4 0.0000 0.0000 0.0000 6.1285 0.0000 0.0000
# 5 0.0000 0.0000 0.0000 0.0000 37.6899 0.0000
# 6 0.0000 0.0000 0.0000 0.0000 0.0000 -39.5727
#
#
#
# Elastic Compliance Matrix: (Units=1/GPa)
#
#
# Indices 1 2 3 4 5 6 
#
# 1 0.019858 -0.031331 -0.006070 0.000000 0.000000 0.000000
# 2 -0.031331 0.072521 -0.002207 0.000000 0.000000 0.000000
# 3 -0.006070 -0.002207 0.027839 0.000000 0.000000 0.000000
# 4 0.000000 0.000000 0.000000 0.163172 0.000000 0.000000
# 5 0.000000 0.000000 0.000000 0.000000 0.026532 0.000000
# 6 0.000000 0.000000 0.000000 0.000000 0.000000 -0.025270
#
#
# Mechanical properties :
#
#
# Convention : Reuss Voigt Hill
#
# Bulk Modulus (GPa) = 24.38844 75.79730 50.09287
# Shear Modulus (GPa) = 13.24375 10.74791 11.99583
#
# Velocity S-wave (km/s) = 2.76114 2.48739 2.62783
# Velocity P-wave (km/s) = 4.91981 7.20297 6.16796
#
# Compressibility (1/GPa) = 0.04100304
#
# Stress axis : x y z
#
# Youngs Moduli (GPa) = 50.35649 13.78901 35.92077
#
# Poissons Ratio (x) = 0.43203 0.21803
# Poissons Ratio (y) = 1.57773 0.07928
# Poissons Ratio (z) = 0.30566 0.03043
#
# Static dielectric constant tensor:
#      x y z
#    x 1.630760 0.000000 0.000000 
#    y 0.000000 1.555210 0.000000 
#    z 0.000000 0.000000 1.589950 
# 
# From -- ./inp_files/6677.got.cif
#   From: 2010.05.17/outbox.cif.g08.bks.cpg/sg49_4_cif.got.tgz:6677.got - 2010.06.03 21:02:19.
