data_PCOD9393371
_publ_section_title
;
Structure prediction by ZEFSAII (Michael W. Deem and Ramdas Pophale) SiO2 
 PCOD9393371
Probable space group: P C C M
;
_chemical_formula_sum "Si O2"
_cell_formula_units_Z 64
_cell_length_a 12.024912
_cell_length_b 18.315328
_cell_length_c 14.223654
_cell_angle_alpha 90.000000
_cell_angle_beta 90.000000
_cell_angle_gamma 90.000000
_cell_volume 3132.620508
_symmetry_space_group_name_H-M "P C C M"
_symmetry_group_IT_number 49
_symmetry_cell_setting 'orthorhombic'
loop_
_space_group_symop_operation_xyz
x,y,z
-x,-y,z
x,-y,1/2-z
-x,y,1/2-z
-x,-y,-z
x,y,-z
-x,y,1/2+z
x,-y,1/2+z
loop_
_atom_site_type_symbol
_atom_site_label
_atom_site_fract_x
_atom_site_fract_y
_atom_site_fract_z
Si Si1 0.101363 0.301332 0.895458
Si Si2 0.720290 0.173896 0.606765
Si Si3 0.136345 0.415032 0.252706
Si Si4 0.714179 0.319382 0.891077
Si Si5 0.814508 0.924793 0.728032
Si Si6 0.406199 0.060103 0.387064
Si Si7 0.098402 0.203097 0.608625
Si Si8 0.481480 0.776127 0.113809
O O1 0.183736 0.233462 0.899237
O O2 0.158139 0.365314 0.837968
O O3 0.988560 0.264336 0.857719
O O4 0.074265 0.328326 0.000000
O O5 0.699117 0.144358 0.500000
O O6 0.760555 0.114284 0.680976
O O7 0.610846 0.217950 0.638769
O O8 0.166597 0.500000 0.250000
O O9 0.209391 0.376225 0.334013
O O10 0.000000 0.412987 0.250000
O O11 0.783376 0.243534 0.891087
O O12 0.594334 0.291670 0.852982
O O13 0.704697 0.343575 0.000000
O O14 0.712171 0.949382 0.661338
O O15 0.890447 0.866545 0.673880
O O16 0.874493 0.000000 0.750000
O O17 0.395540 0.056905 0.500000
O O18 0.439791 0.142779 0.360351
O O19 0.500000 0.000000 0.360807
O O20 0.070019 0.184475 0.500000
O O21 0.474646 0.771438 0.000000
#
# Coordination Sequence:
#
# PCOD9393371 Si02
#       8
#     8   8   8   8   8   8   8   8
#     4  10  22  42  66  86 117 164 203 245 300 363
#     4  10  23  40  58  85 119 161 210 257 303 359
#     4  11  23  37  60  98 136 158 185 245 310 369
#     4  10  19  36  63  90 119 160 205 247 293 358
#     4  12  24  35  55  86 120 161 203 260 323 380
#     4  10  20  35  54  80 118 156 197 260 322 371
#     4  10  20  39  63  85 111 151 210 257 297 362
#     4   9  18  35  58  84 114 154 206 254 297 352
#
# _framework density 20.430178999999999
#
# number of rings (size 3 to 8) (size 9 to 14) (size 15 to 20)
#    0.000    1.750    2.500    1.875    0.000    4.250 
#    0.000    2.500    0.000    4.125    0.000    3.500 
#    0.000    0.000    0.000    0.000    0.000    0.000 
#
# Total GULP energy -357156.382310 kJ/mol
# GULP energy per Si atom -5580.568474 kJ/mol
# Density = 2.038368 g / cm^3
# Si number density = 20.430179 Si / 1000 Ang^3
#
#
#
# Elastic Constant Matrix: (Units=GPa)
#
#
# Indices 1 2 3 4 5 6 
#
# 1 78.3135 28.0868 22.4682 0.0000 0.0000 0.0000
# 2 28.0868 121.3815 58.9250 0.0000 0.0000 0.0000
# 3 22.4682 58.9250 115.1939 0.0000 0.0000 0.0000
# 4 0.0000 0.0000 0.0000 4.9428 0.0000 0.0000
# 5 0.0000 0.0000 0.0000 0.0000 121.8634 0.0000
# 6 0.0000 0.0000 0.0000 0.0000 0.0000 14.9531
#
#
#
# Elastic Compliance Matrix: (Units=1/GPa)
#
#
# Indices 1 2 3 4 5 6 
#
# 1 0.014102 -0.002565 -0.001439 0.000000 0.000000 0.000000
# 2 -0.002565 0.011427 -0.005345 0.000000 0.000000 0.000000
# 3 -0.001439 -0.005345 0.011696 0.000000 0.000000 0.000000
# 4 0.000000 0.000000 0.000000 0.202315 0.000000 0.000000
# 5 0.000000 0.000000 0.000000 0.000000 0.008206 0.000000
# 6 0.000000 0.000000 0.000000 0.000000 0.000000 0.066876
#
#
# Mechanical properties :
#
#
# Convention : Reuss Voigt Hill
#
# Bulk Modulus (GPa) = 53.97289 59.31654 56.64472
# Shear Modulus (GPa) = 14.72784 42.04578 28.38681
#
# Velocity S-wave (km/s) = 2.68785 4.54147 3.73158
# Velocity P-wave (km/s) = 6.00901 7.52308 6.80827
#
# Compressibility (1/GPa) = 0.01852782
#
# Stress axis : x y z
#
# Youngs Moduli (GPa) = 70.91323 87.51531 85.50211
#
# Poissons Ratio (x) = 0.22445 0.12300
# Poissons Ratio (y) = 0.18187 0.45699
# Poissons Ratio (z) = 0.10202 0.46775
#
# Static dielectric constant tensor:
#      x y z
#    x 1.777860 0.000000 0.000000 
#    y 0.000000 1.732320 0.000000 
#    z 0.000000 0.000000 1.823150 
# 
# From -- ./inp_files/13096.got.cif
#   From: 2010.05.17/outbox.cif.g08.bks.cpg/sg49_7_cif.got.tgz:13096.got - 2010.06.03 21:02:19.
