data_PCOD9393303
_publ_section_title
;
Structure prediction by ZEFSAII (Michael W. Deem and Ramdas Pophale) SiO2 
 PCOD9393303
Probable space group: P C C M
;
_chemical_formula_sum "Si O2"
_cell_formula_units_Z 64
_cell_length_a 15.480129
_cell_length_b 25.238422
_cell_length_c 8.807226
_cell_angle_alpha 90.000000
_cell_angle_beta 90.000000
_cell_angle_gamma 90.000000
_cell_volume 3440.930604
_symmetry_space_group_name_H-M "P C C M"
_symmetry_group_IT_number 49
_symmetry_cell_setting 'orthorhombic'
loop_
_space_group_symop_operation_xyz
x,y,z
-x,-y,z
x,-y,1/2-z
-x,y,1/2-z
-x,-y,-z
x,y,-z
-x,y,1/2+z
x,-y,1/2+z
loop_
_atom_site_type_symbol
_atom_site_label
_atom_site_fract_x
_atom_site_fract_y
_atom_site_fract_z
Si Si1 0.907295 0.941385 0.817621
Si Si2 0.767568 0.444778 0.181789
Si Si3 0.409952 0.595398 0.682094
Si Si4 0.371383 0.283780 0.175472
Si Si5 0.170667 0.744004 0.676209
Si Si6 0.588432 0.826569 0.320450
Si Si7 0.089817 0.357334 0.681473
Si Si8 0.218687 0.145200 0.317396
O O1 0.833101 0.901948 0.761304
O O2 0.000000 0.923593 0.750000
O O3 0.892211 0.000000 0.750000
O O4 0.911698 0.943429 0.000000
O O5 0.799781 0.500000 0.250000
O O6 0.673311 0.433169 0.249841
O O7 0.832419 0.397112 0.222046
O O8 0.762071 0.448021 0.000000
O O9 0.500000 0.575552 0.750000
O O10 0.409551 0.591169 0.500000
O O11 0.400556 0.657923 0.722799
O O12 0.267529 0.280245 0.181154
O O13 0.404782 0.235394 0.275529
O O14 0.397854 0.274840 0.000000
O O15 0.148219 0.753216 0.500000
O O16 0.109694 0.700469 0.750849
O O17 0.176421 0.799300 0.764804
O O18 0.500000 0.848270 0.250000
O O19 0.583684 0.831459 0.500000
O O20 0.679923 0.851903 0.270253
O O21 0.084644 0.354278 0.500000
O O22 0.000000 0.377038 0.750000
O O23 0.214680 0.140697 0.500000
#
# Coordination Sequence:
#
# PCOD9393303 Si02
#       8
#     8   8   8   8   8   8   8   8
#     4  11  22  39  63  90 120 157 199 249 299 352
#     4  11  25  44  65  86 111 145 186 236 289 345
#     4  11  22  37  58  86 116 149 187 232 283 342
#     4   9  18  32  53  80 112 150 188 230 280 335
#     4  10  19  35  58  86 119 154 191 234 286 343
#     4  10  20  32  51  79 117 159 199 243 287 338
#     4  11  24  41  63  89 116 149 187 232 287 348
#     4  10  21  37  57  87 123 161 202 246 293 346
#
# _framework density 18.599619000000001
#
# number of rings (size 3 to 8) (size 9 to 14) (size 15 to 20)
#    0.000    1.625    1.250    4.125    0.000    6.500 
#    0.000    5.000    0.000    0.375    0.000    2.625 
#    0.000    0.000    0.000    0.000    0.000    0.000 
#
# Total GULP energy -357618.326065 kJ/mol
# GULP energy per Si atom -5587.786345 kJ/mol
# Density = 1.855729 g / cm^3
# Si number density = 18.599619 Si / 1000 Ang^3
#
#
#
# Elastic Constant Matrix: (Units=GPa)
#
#
# Indices 1 2 3 4 5 6 
#
# 1 110.8121 50.4430 51.9749 0.0000 0.0000 0.0000
# 2 50.4430 73.1338 39.8913 0.0000 0.0000 0.0000
# 3 51.9749 39.8913 84.7722 0.0000 0.0000 0.0000
# 4 0.0000 0.0000 0.0000 28.7410 0.0000 0.0000
# 5 0.0000 0.0000 0.0000 0.0000 32.1772 0.0000
# 6 0.0000 0.0000 0.0000 0.0000 0.0000 -0.5596
#
#
#
# Elastic Compliance Matrix: (Units=1/GPa)
#
#
# Indices 1 2 3 4 5 6 
#
# 1 0.015032 -0.007185 -0.005835 0.000000 0.000000 0.000000
# 2 -0.007185 0.021830 -0.005867 0.000000 0.000000 0.000000
# 3 -0.005835 -0.005867 0.018135 0.000000 0.000000 0.000000
# 4 0.000000 0.000000 0.000000 0.034793 0.000000 0.000000
# 5 0.000000 0.000000 0.000000 0.000000 0.031078 0.000000
# 6 0.000000 0.000000 0.000000 0.000000 0.000000 -1.786939
#
#
# Mechanical properties :
#
#
# Convention : Reuss Voigt Hill
#
# Bulk Modulus (GPa) = 58.06666 61.48184 59.77425
# Shear Modulus (GPa) = -3.08156 20.49899 8.70871
#
# Velocity S-wave (km/s) = -1.28856 3.32342 2.16619
# Velocity P-wave (km/s) = 5.39196 6.91766 6.20190
#
# Compressibility (1/GPa) = 0.01722159
#
# Stress axis : x y z
#
# Youngs Moduli (GPa) = 66.52478 45.80910 55.14278
#
# Poissons Ratio (x) = 0.32915 0.32176
# Poissons Ratio (y) = 0.47800 0.32352
# Poissons Ratio (z) = 0.38818 0.26876
#
# Static dielectric constant tensor:
#      x y z
#    x 1.659780 0.000000 0.000000 
#    y 0.000000 1.617130 0.000000 
#    z 0.000000 0.000000 1.623540 
# 
# From -- ./inp_files/4430.got.cif
#   From: 2010.05.17/outbox.cif.g08.bks.cpg/sg49_3_cif.got.tgz:4430.got - 2010.06.03 21:02:19.
