data_PCOD9393247
_publ_section_title
;
Structure prediction by ZEFSAII (Michael W. Deem and Ramdas Pophale) SiO2 
 PCOD9393247
Probable space group: P C C M
;
_chemical_formula_sum "Si O2"
_cell_formula_units_Z 48
_cell_length_a 8.878615
_cell_length_b 10.142071
_cell_length_c 23.630623
_cell_angle_alpha 90.000000
_cell_angle_beta 90.000000
_cell_angle_gamma 90.000000
_cell_volume 2127.879558
_symmetry_space_group_name_H-M "P C C M"
_symmetry_group_IT_number 49
_symmetry_cell_setting 'orthorhombic'
loop_
_space_group_symop_operation_xyz
x,y,z
-x,-y,z
x,-y,1/2-z
-x,y,1/2-z
-x,-y,-z
x,y,-z
-x,y,1/2+z
x,-y,1/2+z
loop_
_atom_site_type_symbol
_atom_site_label
_atom_site_fract_x
_atom_site_fract_y
_atom_site_fract_z
Si Si1 0.884831 0.219481 0.064763
Si Si2 0.368877 0.737147 0.203956
Si Si3 0.829580 0.463085 0.852899
Si Si4 0.220309 0.317131 0.939768
Si Si5 0.420152 0.135117 0.884649
Si Si6 0.171393 0.969224 0.167914
O O1 0.838136 0.352399 0.097638
O O2 0.842214 0.100508 0.106023
O O3 0.065442 0.235858 0.063382
O O4 0.831287 0.208658 0.000000
O O5 0.500000 0.728927 0.250000
O O6 0.272479 0.604937 0.194608
O O7 0.460954 0.774143 0.147509
O O8 0.252510 0.861088 0.208302
O O9 0.766875 0.590402 0.885074
O O10 0.000000 0.500000 0.834529
O O11 0.353242 0.214045 0.936125
O O12 0.217699 0.390722 0.000000
O O13 0.500000 0.000000 0.900191
O O14 0.283223 0.091835 0.842449
O O15 0.000000 0.000000 0.184843
#
# Coordination Sequence:
#
# PCOD9393247 Si02
#       6
#     8   8   8   8   8   8
#     4   9  17  31  59  96 131 173 217 262 312 369
#     4  10  23  44  67  91 125 170 211 275 350 390
#     4   9  19  38  66  96 127 164 219 276 315 381
#     4  10  19  34  60  92 130 174 216 256 315 390
#     4  10  22  38  57  89 135 170 209 267 326 383
#     4  10  19  36  64  95 131 171 218 269 306 381
#
# _framework density 22.557668
#
# number of rings (size 3 to 8) (size 9 to 14) (size 15 to 20)
#    0.000    2.333    1.667    0.500    0.000    7.000 
#    0.000   11.667    0.000    3.000    0.000    0.000 
#    0.000    0.000    0.000    0.000    0.000    0.000 
#
# Total GULP energy -268035.154495 kJ/mol
# GULP energy per Si atom -5584.065719 kJ/mol
# Density = 2.250633 g / cm^3
# Si number density = 22.557668 Si / 1000 Ang^3
#
#
#
# Elastic Constant Matrix: (Units=GPa)
#
#
# Indices 1 2 3 4 5 6 
#
# 1 148.0338 55.0421 47.0908 0.0000 0.0000 0.0000
# 2 55.0421 58.6223 35.9202 0.0000 0.0000 0.0000
# 3 47.0908 35.9202 74.1259 0.0000 0.0000 0.0000
# 4 0.0000 0.0000 0.0000 13.8617 0.0000 0.0000
# 5 0.0000 0.0000 0.0000 0.0000 4.0925 0.0000
# 6 0.0000 0.0000 0.0000 0.0000 0.0000 40.2612
#
#
#
# Elastic Compliance Matrix: (Units=1/GPa)
#
#
# Indices 1 2 3 4 5 6 
#
# 1 0.010761 -0.008413 -0.002760 0.000000 0.000000 0.000000
# 2 -0.008413 0.030840 -0.009600 0.000000 0.000000 0.000000
# 3 -0.002760 -0.009600 0.019896 0.000000 0.000000 0.000000
# 4 0.000000 0.000000 0.000000 0.072141 0.000000 0.000000
# 5 0.000000 0.000000 0.000000 0.000000 0.244352 0.000000
# 6 0.000000 0.000000 0.000000 0.000000 0.000000 0.024838
#
#
# Mechanical properties :
#
#
# Convention : Reuss Voigt Hill
#
# Bulk Modulus (GPa) = 50.12102 61.87648 55.99875
# Shear Modulus (GPa) = 11.08590 21.15833 16.12212
#
# Velocity S-wave (km/s) = 2.21927 3.06595 2.67630
# Velocity P-wave (km/s) = 5.36974 6.32639 5.86760
#
# Compressibility (1/GPa) = 0.01995171
#
# Stress axis : x y z
#
# Youngs Moduli (GPa) = 92.92617 32.42552 50.26254
#
# Poissons Ratio (x) = 0.27280 0.13870
# Poissons Ratio (y) = 0.78180 0.48251
# Poissons Ratio (z) = 0.25643 0.31128
#
# Static dielectric constant tensor:
#      x y z
#    x 1.842560 0.000000 0.000000 
#    y 0.000000 1.836440 0.000000 
#    z 0.000000 0.000000 1.868970 
# 
# From -- ./inp_files/22405.got.cif
#   From: 2010.05.17/outbox.cif.g08.bks.cpg/sg49_12_cif.got.tgz:22405.got - 2010.06.03 21:02:19.
