data_PCOD9393425
_publ_section_title
;
Structure prediction by ZEFSAII (Michael W. Deem and Ramdas Pophale) SiO2 
 PCOD9393425
Probable space group: P C C M
;
_chemical_formula_sum "Si O2"
_cell_formula_units_Z 64
_cell_length_a 13.252936
_cell_length_b 24.583394
_cell_length_c 8.625971
_cell_angle_alpha 90.000000
_cell_angle_beta 90.000000
_cell_angle_gamma 90.000000
_cell_volume 2810.359875
_symmetry_space_group_name_H-M "P C C M"
_symmetry_group_IT_number 49
_symmetry_cell_setting 'orthorhombic'
loop_
_space_group_symop_operation_xyz
x,y,z
-x,-y,z
x,-y,1/2-z
-x,y,1/2-z
-x,-y,-z
x,y,-z
-x,y,1/2+z
x,-y,1/2+z
loop_
_atom_site_type_symbol
_atom_site_label
_atom_site_fract_x
_atom_site_fract_y
_atom_site_fract_z
Si Si1 0.320872 0.556534 0.185468
Si Si2 0.626930 0.943303 0.824243
Si Si3 0.869512 0.058197 0.673485
Si Si4 0.821306 0.285823 0.685379
Si Si5 0.603912 0.167650 0.178080
Si Si6 0.834434 0.826779 0.313657
Si Si7 0.391680 0.324869 0.686601
Si Si8 0.105132 0.599750 0.813911
O O1 0.360692 0.500000 0.250000
O O2 0.376184 0.611885 0.234328
O O3 0.203811 0.565397 0.232576
O O4 0.324742 0.554507 0.000000
O O5 0.748206 0.943871 0.835708
O O6 0.598165 0.896988 0.703268
O O7 0.599647 0.000000 0.750000
O O8 0.589815 0.933856 0.000000
O O9 0.912482 0.060722 0.500000
O O10 0.884435 0.116650 0.757355
O O11 0.896689 0.000000 0.750000
O O12 0.820467 0.284682 0.500000
O O13 0.872568 0.230852 0.750129
O O14 0.705746 0.293246 0.747789
O O15 0.877086 0.339753 0.746671
O O16 0.500000 0.189381 0.250000
O O17 0.716609 0.176449 0.243848
O O18 0.605558 0.184019 0.000000
O O19 0.834507 0.827358 0.500000
O O20 0.500000 0.307395 0.750000
O O21 0.388761 0.321311 0.500000
O O22 0.000000 0.577816 0.750000
O O23 0.102865 0.602884 0.000000
#
# Coordination Sequence:
#
# PCOD9393425 Si02
#       8
#     8   8   8   8   8   8   8   8
#     4   9  20  36  56  84 121 160 201 246 290 340
#     4   9  16  26  39  53  72  99 137 185 238 295
#     4   9  16  27  44  66  91 122 161 207 262 328
#     4  11  22  37  58  83 111 147 189 238 293 350
#     4  10  20  31  42  56  77 107 147 194 247 302
#     4  10  20  34  50  69  96 130 168 218 274 332
#     4  10  21  38  57  81 113 154 202 252 301 348
#     4  10  21  39  61  88 120 155 193 236 287 344
#
# _framework density 22.772884000000001
#
# number of rings (size 3 to 8) (size 9 to 14) (size 15 to 20)
#    0.000    2.250    0.000    4.125    0.000    8.750 
#    0.000    5.000    0.000    0.000    0.000    0.000 
#    0.000    0.500    0.000    5.000    0.000    3.250 
#
# Total GULP energy -357388.360016 kJ/mol
# GULP energy per Si atom -5584.193125 kJ/mol
# Density = 2.272105 g / cm^3
# Si number density = 22.772884 Si / 1000 Ang^3
#
#
#
# Elastic Constant Matrix: (Units=GPa)
#
#
# Indices 1 2 3 4 5 6 
#
# 1 97.7692 0.7044 15.0430 0.0000 0.0000 0.0000
# 2 0.7044 172.0800 29.9717 0.0000 0.0000 0.0000
# 3 15.0430 29.9717 82.0178 0.0000 0.0000 0.0000
# 4 0.0000 0.0000 0.0000 21.7300 0.0000 0.0000
# 5 0.0000 0.0000 0.0000 0.0000 206.2069 0.0000
# 6 0.0000 0.0000 0.0000 0.0000 0.0000 5.1228
#
#
#
# Elastic Compliance Matrix: (Units=1/GPa)
#
#
# Indices 1 2 3 4 5 6 
#
# 1 0.010541 0.000314 -0.002048 0.000000 0.000000 0.000000
# 2 0.000314 0.006216 -0.002329 0.000000 0.000000 0.000000
# 3 -0.002048 -0.002329 0.013419 0.000000 0.000000 0.000000
# 4 0.000000 0.000000 0.000000 0.046019 0.000000 0.000000
# 5 0.000000 0.000000 0.000000 0.000000 0.004849 0.000000
# 6 0.000000 0.000000 0.000000 0.000000 0.000000 0.195207
#
#
# Mechanical properties :
#
#
# Convention : Reuss Voigt Hill
#
# Bulk Modulus (GPa) = 45.35307 49.25616 47.30461
# Shear Modulus (GPa) = 17.13930 67.02180 42.08055
#
# Velocity S-wave (km/s) = 2.74637 5.43088 4.30331
# Velocity P-wave (km/s) = 5.47862 7.81039 6.74602
#
# Compressibility (1/GPa) = 0.02204923
#
# Stress axis : x y z
#
# Youngs Moduli (GPa) = 94.86759 160.88570 74.52050
#
# Poissons Ratio (x) = -0.05044 0.15261
# Poissons Ratio (y) = -0.02974 0.17355
# Poissons Ratio (z) = 0.19428 0.37468
#
# Static dielectric constant tensor:
#      x y z
#    x 1.930450 0.000000 0.000000 
#    y 0.000000 1.885580 0.000000 
#    z 0.000000 0.000000 1.794630 
# 
# From -- ./inp_files/4364.got.cif
#   From: 2010.05.17/outbox.cif.g08.bks.cpg/sg49_3_cif.got.tgz:4364.got - 2010.06.03 21:02:19.
