data_PCOD9393928
_publ_section_title
;
Structure prediction by ZEFSAII (Michael W. Deem and Ramdas Pophale) SiO2 
 PCOD9393928
Probable space group: P C C M
;
_chemical_formula_sum "Si O2"
_cell_formula_units_Z 40
_cell_length_a 9.158407
_cell_length_b 10.971284
_cell_length_c 18.721003
_cell_angle_alpha 90.000000
_cell_angle_beta 90.000000
_cell_angle_gamma 90.000000
_cell_volume 1881.076725
_symmetry_space_group_name_H-M "P C C M"
_symmetry_group_IT_number 49
_symmetry_cell_setting 'orthorhombic'
loop_
_space_group_symop_operation_xyz
x,y,z
-x,-y,z
x,-y,1/2-z
-x,y,1/2-z
-x,-y,-z
x,y,-z
-x,y,1/2+z
x,-y,1/2+z
loop_
_atom_site_type_symbol
_atom_site_label
_atom_site_fract_x
_atom_site_fract_y
_atom_site_fract_z
Si Si1 0.154728 0.668704 0.000000
Si Si2 0.000000 0.308482 0.250000
Si Si3 0.741485 0.676940 0.154342
Si Si4 0.334654 0.963798 0.333185
Si Si5 0.500000 0.318060 0.250000
Si Si6 0.753994 0.209428 0.853625
Si Si7 0.825648 0.378920 0.500000
O O1 0.228525 0.717001 0.927157
O O2 0.156534 0.523386 0.000000
O O3 0.979970 0.693616 0.000000
O O4 0.889740 0.368491 0.307115
O O5 0.888796 0.236637 0.198970
O O6 0.714264 0.824059 0.160058
O O7 0.611066 0.615875 0.197954
O O8 0.742346 0.651215 0.071872
O O9 0.500000 0.000000 0.354735
O O10 0.321817 0.000000 0.250000
O O11 0.241386 0.066490 0.372506
O O12 0.608915 0.245156 0.194014
#
# Coordination Sequence:
#
# PCOD9393928 Si02
#       7
#     4   4   8   8   4   8   4
#     4  11  26  48  65  88 132 175 214 271 330 373
#     4  10  20  35  63 100 130 162 221 269 300 382
#     4  11  21  40  66 100 129 171 213 258 323 382
#     4  11  18  35  66  95 135 167 198 260 325 383
#     4  10  20  39  69  96 136 162 213 265 308 396
#     4  11  21  40  66 100 129 171 213 258 323 382
#     4  11  26  48  65  88 132 175 214 271 330 373
#
# _framework density 21.264416000000001
#
# number of rings (size 3 to 8) (size 9 to 14) (size 15 to 20)
#    0.000    1.200    8.000    0.000    0.000    3.200 
#    0.000   10.000    0.000    0.000    0.000    0.000 
#    0.000    0.000    0.000    0.000    0.000    0.000 
#
# Total GULP energy -222911.346571 kJ/mol
# GULP energy per Si atom -5572.783664 kJ/mol
# Density = 2.121602 g / cm^3
# Si number density = 21.264416 Si / 1000 Ang^3
#
#
#
# Elastic Constant Matrix: (Units=GPa)
#
#
# Indices 1 2 3 4 5 6 
#
# 1 117.4080 14.6557 56.6185 0.0000 0.0000 0.0000
# 2 14.6557 53.2970 44.3037 0.0000 0.0000 0.0000
# 3 56.6185 44.3037 176.9921 0.0000 0.0000 0.0000
# 4 0.0000 0.0000 0.0000 72.4554 0.0000 0.0000
# 5 0.0000 0.0000 0.0000 0.0000 21.3153 0.0000
# 6 0.0000 0.0000 0.0000 0.0000 0.0000 14.5755
#
#
#
# Elastic Compliance Matrix: (Units=1/GPa)
#
#
# Indices 1 2 3 4 5 6 
#
# 1 0.010071 -0.000115 -0.003193 0.000000 0.000000 0.000000
# 2 -0.000115 0.023694 -0.005894 0.000000 0.000000 0.000000
# 3 -0.003193 -0.005894 0.008147 0.000000 0.000000 0.000000
# 4 0.000000 0.000000 0.000000 0.013802 0.000000 0.000000
# 5 0.000000 0.000000 0.000000 0.000000 0.046915 0.000000
# 6 0.000000 0.000000 0.000000 0.000000 0.000000 0.068608
#
#
# Mechanical properties :
#
#
# Convention : Reuss Voigt Hill
#
# Bulk Modulus (GPa) = 42.53947 64.31698 53.42823
# Shear Modulus (GPa) = 25.31938 37.14386 31.23162
#
# Velocity S-wave (km/s) = 3.45438 4.18396 3.83655
# Velocity P-wave (km/s) = 5.99657 7.32480 6.69371
#
# Compressibility (1/GPa) = 0.02350758
#
# Stress axis : x y z
#
# Youngs Moduli (GPa) = 99.29067 42.20479 122.74863
#
# Poissons Ratio (x) = 0.00487 0.39193
# Poissons Ratio (y) = 0.01145 0.72349
# Poissons Ratio (z) = 0.31703 0.24876
#
# Static dielectric constant tensor:
#      x y z
#    x 1.830500 0.000000 0.000000 
#    y 0.000000 1.817300 0.000000 
#    z 0.000000 0.000000 1.744150 
# 
# From -- ./inp_files/16071.got.cif
#   From: 2010.05.17/outbox.cif.g08.bks.cpg/sg49_9_cif.got.tgz:16071.got - 2010.06.03 21:02:19.
