data_PCOD9393661
_publ_section_title
;
Structure prediction by ZEFSAII (Michael W. Deem and Ramdas Pophale) SiO2 
 PCOD9393661
Probable space group: P C C M
;
_chemical_formula_sum "Si O2"
_cell_formula_units_Z 48
_cell_length_a 16.026931
_cell_length_b 9.418958
_cell_length_c 14.538340
_cell_angle_alpha 90.000000
_cell_angle_beta 90.000000
_cell_angle_gamma 90.000000
_cell_volume 2194.664045
_symmetry_space_group_name_H-M "P C C M"
_symmetry_group_IT_number 49
_symmetry_cell_setting 'orthorhombic'
loop_
_space_group_symop_operation_xyz
x,y,z
-x,-y,z
x,-y,1/2-z
-x,y,1/2-z
-x,-y,-z
x,y,-z
-x,y,1/2+z
x,-y,1/2+z
loop_
_atom_site_type_symbol
_atom_site_label
_atom_site_fract_x
_atom_site_fract_y
_atom_site_fract_z
Si Si1 0.419021 0.431084 0.148633
Si Si2 0.761932 0.893749 0.111457
Si Si3 0.765349 0.434103 0.351351
Si Si4 0.425976 0.105154 0.111445
Si Si5 0.916475 0.915796 0.612468
Si Si6 0.071183 0.598942 0.894856
O O1 0.500000 0.500000 0.102875
O O2 0.414820 0.500000 0.250000
O O3 0.327257 0.456641 0.107110
O O4 0.433502 0.262660 0.152208
O O5 0.776925 0.735446 0.149186
O O6 0.668093 0.944517 0.134286
O O7 0.833627 0.001050 0.141266
O O8 0.765593 0.880384 0.000000
O O9 0.764373 0.500000 0.250000
O O10 0.842513 0.513440 0.397265
O O11 0.500000 0.000000 0.139608
O O12 0.430473 0.119535 0.000000
O O13 0.913508 0.913577 0.500000
O O14 0.918382 0.754407 0.647618
O O15 0.000000 0.000000 0.638155
O O16 0.000000 0.500000 0.852566
O O17 0.043449 0.626707 0.000000
#
# Coordination Sequence:
#
# PCOD9393661 Si02
#       6
#     8   8   8   8   8   8
#     4   9  19  36  54  74 105 144 184 221 265 328
#     4   9  17  32  53  76 106 140 172 213 267 322
#     4  10  20  34  53  76 104 139 176 218 265 316
#     4   9  18  32  52  80 110 139 175 224 279 326
#     4   9  17  30  50  74  98 129 170 212 253 305
#     4  10  20  34  54  79 105 136 176 220 267 320
#
# _framework density 21.871227999999999
#
# number of rings (size 3 to 8) (size 9 to 14) (size 15 to 20)
#    0.000    2.667    0.000    1.500    0.000    5.333 
#    0.000    4.167    0.000   11.000    0.000    0.000 
#    0.000    0.000    0.000    0.000    0.000    0.000 
#
# Total GULP energy -267991.944110 kJ/mol
# GULP energy per Si atom -5583.165502 kJ/mol
# Density = 2.182145 g / cm^3
# Si number density = 21.871228 Si / 1000 Ang^3
#
#
#
# Elastic Constant Matrix: (Units=GPa)
#
#
# Indices 1 2 3 4 5 6 
#
# 1 220.4856 143.0163 14.2632 0.0000 0.0000 0.0000
# 2 143.0163 180.8567 23.2087 0.0000 0.0000 0.0000
# 3 14.2632 23.2087 75.9113 0.0000 0.0000 0.0000
# 4 0.0000 0.0000 0.0000 28.6399 0.0000 0.0000
# 5 0.0000 0.0000 0.0000 0.0000 -7.6856 0.0000
# 6 0.0000 0.0000 0.0000 0.0000 0.0000 44.5610
#
#
#
# Elastic Compliance Matrix: (Units=1/GPa)
#
#
# Indices 1 2 3 4 5 6 
#
# 1 0.009332 -0.007446 0.000523 0.000000 0.000000 0.000000
# 2 -0.007446 0.011697 -0.002177 0.000000 0.000000 0.000000
# 3 0.000523 -0.002177 0.013741 0.000000 0.000000 0.000000
# 4 0.000000 0.000000 0.000000 0.034916 0.000000 0.000000
# 5 0.000000 0.000000 0.000000 0.000000 -0.130114 0.000000
# 6 0.000000 0.000000 0.000000 0.000000 0.000000 0.022441
#
#
# Mechanical properties :
#
#
# Convention : Reuss Voigt Hill
#
# Bulk Modulus (GPa) = 60.35411 93.13665 76.74538
# Shear Modulus (GPa) = -350.52917 32.88743 -158.82087
#
# Velocity S-wave (km/s) = -12.67349 3.88194 -8.53077
# Velocity P-wave (km/s) = 13.65656 7.92270 7.86550
#
# Compressibility (1/GPa) = 0.01656888
#
# Stress axis : x y z
#
# Youngs Moduli (GPa) = 107.16306 85.49258 72.77728
#
# Poissons Ratio (x) = 0.63660 -0.03808
# Poissons Ratio (y) = 0.79797 0.15844
# Poissons Ratio (z) = -0.05607 0.18612
#
# Static dielectric constant tensor:
#      x y z
#    x 1.812910 0.000000 0.000000 
#    y 0.000000 1.749800 0.000000 
#    z 0.000000 0.000000 1.849500 
# 
# From -- ./inp_files/16279.got.cif
#   From: 2010.05.17/outbox.cif.g08.bks.cpg/sg49_9_cif.got.tgz:16279.got - 2010.06.03 21:02:19.
