data_PCOD9393740
_publ_section_title
;
Structure prediction by ZEFSAII (Michael W. Deem and Ramdas Pophale) SiO2 
 PCOD9393740
Probable space group: P C C M
;
_chemical_formula_sum "Si O2"
_cell_formula_units_Z 64
_cell_length_a 22.998707
_cell_length_b 5.611095
_cell_length_c 27.551935
_cell_angle_alpha 90.000000
_cell_angle_beta 90.000000
_cell_angle_gamma 90.000000
_cell_volume 3555.520175
_symmetry_space_group_name_H-M "P C C M"
_symmetry_group_IT_number 49
_symmetry_cell_setting 'orthorhombic'
loop_
_space_group_symop_operation_xyz
x,y,z
-x,-y,z
x,-y,1/2-z
-x,y,1/2-z
-x,-y,-z
x,y,-z
-x,y,1/2+z
x,-y,1/2+z
loop_
_atom_site_type_symbol
_atom_site_label
_atom_site_fract_x
_atom_site_fract_y
_atom_site_fract_z
Si Si1 0.753163 0.906882 0.120464
Si Si2 0.732393 0.243102 0.276542
Si Si3 0.559548 0.877763 0.883068
Si Si4 0.339995 0.260179 0.373162
Si Si5 0.131333 0.013062 0.941179
Si Si6 0.066413 0.514737 0.058615
Si Si7 0.654429 0.355128 0.443442
Si Si8 0.393699 0.371638 0.797781
O O1 0.760001 0.753105 0.169335
O O2 0.809327 0.964537 0.089077
O O3 0.704353 0.786784 0.085799
O O4 0.721247 0.145322 0.139041
O O5 0.741176 0.500000 0.250000
O O6 0.661891 0.213256 0.282333
O O7 0.753153 0.000000 0.250000
O O8 0.590409 0.713936 0.923383
O O9 0.557016 0.744031 0.831310
O O10 0.500000 0.000000 0.897364
O O11 0.608409 0.073673 0.873877
O O12 0.335959 0.375150 0.426362
O O13 0.360227 0.450663 0.334141
O O14 0.097267 0.261329 0.930270
O O15 0.098324 0.764487 0.927645
O O16 0.141039 0.006824 0.000000
O O17 0.000000 0.500000 0.076632
O O18 0.064337 0.525505 0.000000
O O19 0.659210 0.316365 0.500000
O O20 0.416306 0.500000 0.750000
#
# Coordination Sequence:
#
# PCOD9393740 Si02
#       8
#     8   8   8   8   8   8   8   8
#     4  11  21  36  55  84 119 145 190 244 294 349
#     4  11  22  35  61  84 111 152 191 227 293 365
#     4  10  22  39  56  74 105 138 186 240 291 350
#     4  10  20  38  54  76 105 146 175 235 293 351
#     4  10  21  32  53  84 117 162 202 242 288 338
#     4   9  18  34  52  77 117 164 208 243 281 331
#     4  10  22  37  55  79 106 147 187 233 296 354
#     4  10  20  34  57  77 102 136 182 227 291 365
#
# _framework density 18.00018
#
# number of rings (size 3 to 8) (size 9 to 14) (size 15 to 20)
#    0.000    1.875    3.750    2.250    1.750    6.250 
#    0.000    2.500    0.000    0.000    0.000    0.000 
#    0.000    7.500    0.000    0.000    0.000    0.000 
#
# Total GULP energy -356534.072404 kJ/mol
# GULP energy per Si atom -5570.844881 kJ/mol
# Density = 1.795921 g / cm^3
# Si number density = 18.000180 Si / 1000 Ang^3
#
#
#
# Elastic Constant Matrix: (Units=GPa)
#
#
# Indices 1 2 3 4 5 6 
#
# 1 89.2799 36.5364 25.6391 0.0000 0.0000 0.0000
# 2 36.5364 95.1898 37.1776 0.0000 0.0000 0.0000
# 3 25.6391 37.1776 106.1474 0.0000 0.0000 0.0000
# 4 0.0000 0.0000 0.0000 13.0676 0.0000 0.0000
# 5 0.0000 0.0000 0.0000 0.0000 11.9778 0.0000
# 6 0.0000 0.0000 0.0000 0.0000 0.0000 6.4890
#
#
#
# Elastic Compliance Matrix: (Units=1/GPa)
#
#
# Indices 1 2 3 4 5 6 
#
# 1 0.013542 -0.004541 -0.001680 0.000000 0.000000 0.000000
# 2 -0.004541 0.013693 -0.003699 0.000000 0.000000 0.000000
# 3 -0.001680 -0.003699 0.011122 0.000000 0.000000 0.000000
# 4 0.000000 0.000000 0.000000 0.076525 0.000000 0.000000
# 5 0.000000 0.000000 0.000000 0.000000 0.083488 0.000000
# 6 0.000000 0.000000 0.000000 0.000000 0.000000 0.154108
#
#
# Mechanical properties :
#
#
# Convention : Reuss Voigt Hill
#
# Bulk Modulus (GPa) = 54.00813 54.36925 54.18869
# Shear Modulus (GPa) = 13.21032 19.05779 16.13406
#
# Velocity S-wave (km/s) = 2.71200 3.25738 2.99712
# Velocity P-wave (km/s) = 6.31474 6.66467 6.49206
#
# Compressibility (1/GPa) = 0.01851573
#
# Stress axis : x y z
#
# Youngs Moduli (GPa) = 73.84547 73.02927 89.90962
#
# Poissons Ratio (x) = 0.33166 0.15108
# Poissons Ratio (y) = 0.33536 0.33258
# Poissons Ratio (z) = 0.12408 0.27014
#
# Static dielectric constant tensor:
#      x y z
#    x 1.589940 0.000000 0.000000 
#    y 0.000000 1.732310 0.000000 
#    z 0.000000 0.000000 1.643220 
# 
# From -- ./inp_files/25227.got.cif
#   From: 2010.05.17/outbox.cif.g08.bks.cpg/sg49_13_cif.got.tgz:25227.got - 2010.06.03 21:02:19.
