data_PCOD9393652
_publ_section_title
;
Structure prediction by ZEFSAII (Michael W. Deem and Ramdas Pophale) SiO2 
 PCOD9393652
Probable space group: P C C M
;
_chemical_formula_sum "Si O2"
_cell_formula_units_Z 40
_cell_length_a 9.761828
_cell_length_b 26.626142
_cell_length_c 8.611469
_cell_angle_alpha 90.000000
_cell_angle_beta 90.000000
_cell_angle_gamma 90.000000
_cell_volume 2238.291460
_symmetry_space_group_name_H-M "P C C M"
_symmetry_group_IT_number 49
_symmetry_cell_setting 'orthorhombic'
loop_
_space_group_symop_operation_xyz
x,y,z
-x,-y,z
x,-y,1/2-z
-x,y,1/2-z
-x,-y,-z
x,y,-z
-x,y,1/2+z
x,-y,1/2+z
loop_
_atom_site_type_symbol
_atom_site_label
_atom_site_fract_x
_atom_site_fract_y
_atom_site_fract_z
Si Si1 0.846864 0.249709 0.814320
Si Si2 0.655238 0.162313 0.686876
Si Si3 0.344751 0.050994 0.814798
Si Si4 0.653803 0.445788 0.186132
Si Si5 0.153843 0.358284 0.813933
O O1 0.747891 0.205442 0.759551
O O2 0.800563 0.303359 0.745377
O O3 0.000000 0.240795 0.750000
O O4 0.851293 0.252930 0.000000
O O5 0.500000 0.166096 0.750000
O O6 0.652901 0.166724 0.500000
O O7 0.710941 0.106200 0.726448
O O8 0.500000 0.051733 0.750000
O O9 0.278110 0.000000 0.750000
O O10 0.350208 0.047183 0.000000
O O11 0.700974 0.500000 0.250000
O O12 0.500000 0.438344 0.250000
O O13 0.749672 0.401621 0.247883
O O14 0.651608 0.446714 0.000000
O O15 0.000000 0.365501 0.750000
O O16 0.152578 0.359079 0.000000
#
# Coordination Sequence:
#
# PCOD9393652 Si02
#       5
#     8   8   8   8   8
#     4  11  22  38  58  80 107 143 180 221 270 324
#     4  10  20  34  52  79 109 140 178 223 268 318
#     4   9  16  26  44  69 101 135 171 213 262 313
#     4  11  22  39  60  86 116 149 184 222 269 321
#     4  11  22  39  60  84 111 143 182 226 269 318
#
# _framework density 17.870774000000001
#
# number of rings (size 3 to 8) (size 9 to 14) (size 15 to 20)
#    0.000    1.600    0.000    9.000    0.000    3.600 
#    0.000    6.000    0.000    0.600    0.000    4.200 
#    0.000    0.000    0.000    0.000    0.000    0.000 
#
# Total GULP energy -223337.763005 kJ/mol
# GULP energy per Si atom -5583.444075 kJ/mol
# Density = 1.783010 g / cm^3
# Si number density = 17.870774 Si / 1000 Ang^3
#
#
#
# Elastic Constant Matrix: (Units=GPa)
#
#
# Indices 1 2 3 4 5 6 
#
# 1 49.6777 87.0417 41.4424 0.0000 0.0000 0.0000
# 2 87.0417 214.4686 91.2596 0.0000 0.0000 0.0000
# 3 41.4424 91.2596 176.0132 0.0000 0.0000 0.0000
# 4 0.0000 0.0000 0.0000 34.3936 0.0000 0.0000
# 5 0.0000 0.0000 0.0000 0.0000 26.8770 0.0000
# 6 0.0000 0.0000 0.0000 0.0000 0.0000 -735.1430
#
#
#
# Elastic Compliance Matrix: (Units=1/GPa)
#
#
# Indices 1 2 3 4 5 6 
#
# 1 0.070370 -0.027598 -0.002260 0.000000 0.000000 0.000000
# 2 -0.027598 0.016806 -0.002216 0.000000 0.000000 0.000000
# 3 -0.002260 -0.002216 0.007362 0.000000 0.000000 0.000000
# 4 0.000000 0.000000 0.000000 0.029075 0.000000 0.000000
# 5 0.000000 0.000000 0.000000 0.000000 0.037206 0.000000
# 6 0.000000 0.000000 0.000000 0.000000 0.000000 -0.001360
#
#
# Mechanical properties :
#
#
# Convention : Reuss Voigt Hill
#
# Bulk Modulus (GPa) = 32.90359 97.73856 65.32108
# Shear Modulus (GPa) = 21.39149 -120.08008 -49.34429
#
# Velocity S-wave (km/s) = 3.46354 -8.20606 -5.26039
# Velocity P-wave (km/s) = 5.86913 5.91399 0.51411
#
# Compressibility (1/GPa) = 0.03039182
#
# Stress axis : x y z
#
# Youngs Moduli (GPa) = 14.21052 59.50191 135.82889
#
# Poissons Ratio (x) = 1.64215 0.30692
# Poissons Ratio (y) = 0.39219 0.30095
# Poissons Ratio (z) = 0.03211 0.13184
#
# Static dielectric constant tensor:
#      x y z
#    x 1.575010 0.000000 0.000000 
#    y 0.000000 1.637420 0.000000 
#    z 0.000000 0.000000 1.594170 
# 
# From -- ./inp_files/1918.got.cif
#   From: 2010.05.17/outbox.cif.g08.bks.cpg/sg49_1_cif.got.tgz:1918.got - 2010.06.03 21:02:19.
