data_PCOD9393889
_publ_section_title
;
Structure prediction by ZEFSAII (Michael W. Deem and Ramdas Pophale) SiO2 
 PCOD9393889
Probable space group: P C C M
;
_chemical_formula_sum "Si O2"
_cell_formula_units_Z 34
_cell_length_a 11.853407
_cell_length_b 10.282143
_cell_length_c 12.096915
_cell_angle_alpha 90.000000
_cell_angle_beta 90.000000
_cell_angle_gamma 90.000000
_cell_volume 1474.352957
_symmetry_space_group_name_H-M "P C C M"
_symmetry_group_IT_number 49
_symmetry_cell_setting 'orthorhombic'
loop_
_space_group_symop_operation_xyz
x,y,z
-x,-y,z
x,-y,1/2-z
-x,y,1/2-z
-x,-y,-z
x,y,-z
-x,y,1/2+z
x,-y,1/2+z
loop_
_atom_site_type_symbol
_atom_site_label
_atom_site_fract_x
_atom_site_fract_y
_atom_site_fract_z
Si Si1 0.000000 0.000000 0.750000
Si Si2 0.069071 0.692256 0.500000
Si Si3 0.832562 0.594667 0.500000
Si Si4 0.195922 0.160381 0.805937
Si Si5 0.350289 0.364971 0.687640
Si Si6 0.528383 0.774570 0.500000
Si Si7 0.679695 0.029004 0.500000
O O1 0.900266 0.106498 0.777574
O O2 0.111190 0.545450 0.500000
O O3 0.122472 0.757612 0.607066
O O4 0.934447 0.696196 0.500000
O O5 0.752469 0.605964 0.604605
O O6 0.297368 0.248159 0.759882
O O7 0.252024 0.052128 0.886880
O O8 0.373765 0.500000 0.750000
O O9 0.451389 0.311958 0.609669
O O10 0.413856 0.855979 0.500000
O O11 0.624171 0.887154 0.500000
#
# Coordination Sequence:
#
# PCOD9393889 Si02
#       7
#     2   4   4   8   8   4   4
#     4  12  24  38  62 102 128 186 220 268 332 390
#     4  10  20  35  57  88 126 179 213 263 321 398
#     4  10  20  36  59  91 132 173 212 255 334 399
#     4  11  23  40  64  95 137 170 224 277 325 393
#     4  11  22  41  68  99 135 174 220 284 335 401
#     4  10  24  45  71  95 128 179 226 270 339 389
#     4  10  24  46  69  94 131 176 223 278 320 393
#
# _framework density 23.060964999999999
#
# number of rings (size 3 to 8) (size 9 to 14) (size 15 to 20)
#    0.000    1.412    2.353    2.824    0.000    4.706 
#    0.000    5.882    0.000    0.000    0.000    0.000 
#    0.000    0.000    0.000    0.000    0.000    0.000 
#
# Total GULP energy -189554.450100 kJ/mol
# GULP energy per Si atom -5575.130885 kJ/mol
# Density = 2.300848 g / cm^3
# Si number density = 23.060965 Si / 1000 Ang^3
#
#
#
# Elastic Constant Matrix: (Units=GPa)
#
#
# Indices 1 2 3 4 5 6 
#
# 1 109.6213 30.1068 37.2833 0.0000 0.0000 0.0000
# 2 30.1068 93.2498 48.2006 0.0000 0.0000 0.0000
# 3 37.2833 48.2006 88.4040 0.0000 0.0000 0.0000
# 4 0.0000 0.0000 0.0000 47.0419 0.0000 0.0000
# 5 0.0000 0.0000 0.0000 0.0000 -3.7687 0.0000
# 6 0.0000 0.0000 0.0000 0.0000 0.0000 35.3105
#
#
#
# Elastic Compliance Matrix: (Units=1/GPa)
#
#
# Indices 1 2 3 4 5 6 
#
# 1 0.010814 -0.001579 -0.003700 0.000000 0.000000 0.000000
# 2 -0.001579 0.015163 -0.007601 0.000000 0.000000 0.000000
# 3 -0.003700 -0.007601 0.017017 0.000000 0.000000 0.000000
# 4 0.000000 0.000000 0.000000 0.021258 0.000000 0.000000
# 5 0.000000 0.000000 0.000000 0.000000 -0.265345 0.000000
# 6 0.000000 0.000000 0.000000 0.000000 0.000000 0.028320
#
#
# Mechanical properties :
#
#
# Convention : Reuss Voigt Hill
#
# Bulk Modulus (GPa) = 58.02737 58.05072 58.03904
# Shear Modulus (GPa) = -35.39356 27.42905 -3.98226
#
# Velocity S-wave (km/s) = -3.92188 3.45253 -1.31552
# Velocity P-wave (km/s) = 2.17003 6.41254 4.78695
#
# Compressibility (1/GPa) = 0.01723325
#
# Stress axis : x y z
#
# Youngs Moduli (GPa) = 92.46967 65.95095 58.76644
#
# Poissons Ratio (x) = 0.10414 0.21743
# Poissons Ratio (y) = 0.14602 0.44670
# Poissons Ratio (z) = 0.34212 0.50131
#
# Static dielectric constant tensor:
#      x y z
#    x 1.837720 0.000000 0.000000 
#    y 0.000000 1.867150 0.000000 
#    z 0.000000 0.000000 1.894090 
# 
# From -- ./inp_files/8631.got.cif
#   From: 2010.05.17/outbox.cif.g08.bks.cpg/sg49_5_cif.got.tgz:8631.got - 2010.06.03 21:02:19.
