data_PCOD9393082
_publ_section_title
;
Structure prediction by ZEFSAII (Michael W. Deem and Ramdas Pophale) SiO2 
 PCOD9393082
Probable space group: P C C M
;
_chemical_formula_sum "Si O2"
_cell_formula_units_Z 64
_cell_length_a 23.839708
_cell_length_b 8.738716
_cell_length_c 15.957980
_cell_angle_alpha 90.000000
_cell_angle_beta 90.000000
_cell_angle_gamma 90.000000
_cell_volume 3324.501043
_symmetry_space_group_name_H-M "P C C M"
_symmetry_group_IT_number 49
_symmetry_cell_setting 'orthorhombic'
loop_
_space_group_symop_operation_xyz
x,y,z
-x,-y,z
x,-y,1/2-z
-x,y,1/2-z
-x,-y,-z
x,y,-z
-x,y,1/2+z
x,-y,1/2+z
loop_
_atom_site_type_symbol
_atom_site_label
_atom_site_fract_x
_atom_site_fract_y
_atom_site_fract_z
Si Si1 0.242620 0.212857 0.335566
Si Si2 0.566227 0.817619 0.745230
Si Si3 0.743197 0.894150 0.906922
Si Si4 0.827673 0.700000 0.827913
Si Si5 0.639386 0.670992 0.598026
Si Si6 0.142462 0.625790 0.905662
Si Si7 0.062134 0.683559 0.234599
Si Si8 0.368251 0.304655 0.905200
O O1 0.216632 0.272330 0.247924
O O2 0.299637 0.292713 0.363719
O O3 0.192833 0.254042 0.399673
O O4 0.255113 0.033223 0.342358
O O5 0.500000 0.786087 0.750000
O O6 0.594749 0.748805 0.661240
O O7 0.594179 0.749432 0.828509
O O8 0.575059 0.000000 0.750000
O O9 0.801066 0.801723 0.900081
O O10 0.692374 0.775358 0.893638
O O11 0.834983 0.525196 0.857006
O O12 0.889002 0.747863 0.794732
O O13 0.735442 0.959451 0.000000
O O14 0.634923 0.721761 0.500000
O O15 0.634231 0.487743 0.598262
O O16 0.088667 0.693222 0.857699
O O17 0.129229 0.583439 0.000000
O O18 0.059489 0.500000 0.250000
O O19 0.000000 0.745525 0.250000
O O20 0.387591 0.262100 0.000000
#
# Coordination Sequence:
#
# PCOD9393082 Si02
#       8
#     8   8   8   8   8   8   8   8
#     4  11  21  35  55  80 113 150 184 222 279 344
#     4  11  25  43  63  88 118 154 196 239 285 342
#     4  11  21  34  54  83 114 144 181 229 279 335
#     4  10  20  33  52  77 108 144 182 229 280 335
#     4  11  23  40  63  91 119 153 195 241 291 347
#     4  10  19  33  54  81 110 144 185 233 283 338
#     4   8  16  32  51  73 103 138 182 228 276 332
#     4  10  23  41  62  87 119 153 190 239 292 343
#
# _framework density 19.251007999999999
#
# number of rings (size 3 to 8) (size 9 to 14) (size 15 to 20)
#    0.000    1.750    0.000    5.625    0.000    5.000 
#    0.000    8.125    0.000    6.000    0.000    4.375 
#    0.000    0.000    0.000    0.000    0.000    0.000 
#
# Total GULP energy -357052.168335 kJ/mol
# GULP energy per Si atom -5578.940130 kJ/mol
# Density = 1.920719 g / cm^3
# Si number density = 19.251008 Si / 1000 Ang^3
#
#
#
# Elastic Constant Matrix: (Units=GPa)
#
#
# Indices 1 2 3 4 5 6 
#
# 1 138.8965 44.4980 83.8745 0.0000 0.0000 0.0000
# 2 44.4980 59.3606 46.9222 0.0000 0.0000 0.0000
# 3 83.8745 46.9222 140.4016 0.0000 0.0000 0.0000
# 4 0.0000 0.0000 0.0000 20.9889 0.0000 0.0000
# 5 0.0000 0.0000 0.0000 0.0000 8.2505 0.0000
# 6 0.0000 0.0000 0.0000 0.0000 0.0000 36.1537
#
#
#
# Elastic Compliance Matrix: (Units=1/GPa)
#
#
# Indices 1 2 3 4 5 6 
#
# 1 0.012109 -0.004565 -0.005708 0.000000 0.000000 0.000000
# 2 -0.004565 0.024615 -0.005499 0.000000 0.000000 0.000000
# 3 -0.005708 -0.005499 0.012370 0.000000 0.000000 0.000000
# 4 0.000000 0.000000 0.000000 0.047644 0.000000 0.000000
# 5 0.000000 0.000000 0.000000 0.000000 0.121205 0.000000
# 6 0.000000 0.000000 0.000000 0.000000 0.000000 0.027660
#
#
# Mechanical properties :
#
#
# Convention : Reuss Voigt Hill
#
# Bulk Modulus (GPa) = 56.98168 76.58312 66.78240
# Shear Modulus (GPa) = 17.66791 23.96955 20.81873
#
# Velocity S-wave (km/s) = 3.03275 3.53243 3.29209
# Velocity P-wave (km/s) = 6.47511 7.51699 7.01542
#
# Compressibility (1/GPa) = 0.01754950
#
# Stress axis : x y z
#
# Youngs Moduli (GPa) = 82.58260 40.62515 80.83885
#
# Poissons Ratio (x) = 0.18546 0.46144
# Poissons Ratio (y) = 0.37700 0.44455
# Poissons Ratio (z) = 0.47140 0.22341
#
# Static dielectric constant tensor:
#      x y z
#    x 1.656200 0.000000 0.000000 
#    y 0.000000 1.692760 0.000000 
#    z 0.000000 0.000000 1.650510 
# 
# From -- ./inp_files/14532.got.cif
#   From: 2010.05.17/outbox.cif.g08.bks.cpg/sg49_8_cif.got.tgz:14532.got - 2010.06.03 21:02:19.
