data_PCOD9393261
_publ_section_title
;
Structure prediction by ZEFSAII (Michael W. Deem and Ramdas Pophale) SiO2 
 PCOD9393261
Probable space group: P C C M
;
_chemical_formula_sum "Si O2"
_cell_formula_units_Z 64
_cell_length_a 31.769875
_cell_length_b 14.707529
_cell_length_c 8.681682
_cell_angle_alpha 90.000000
_cell_angle_beta 90.000000
_cell_angle_gamma 90.000000
_cell_volume 4056.571112
_symmetry_space_group_name_H-M "P C C M"
_symmetry_group_IT_number 49
_symmetry_cell_setting 'orthorhombic'
loop_
_space_group_symop_operation_xyz
x,y,z
-x,-y,z
x,-y,1/2-z
-x,y,1/2-z
-x,-y,-z
x,y,-z
-x,y,1/2+z
x,-y,1/2+z
loop_
_atom_site_type_symbol
_atom_site_label
_atom_site_fract_x
_atom_site_fract_y
_atom_site_fract_z
Si Si1 0.957422 0.102652 0.684083
Si Si2 0.700417 0.898091 0.685519
Si Si3 0.453525 0.099508 0.684637
Si Si4 0.346666 0.598005 0.814950
Si Si5 0.621882 0.216003 0.315919
Si Si6 0.214270 0.210462 0.685742
Si Si7 0.247670 0.403023 0.315010
Si Si8 0.135729 0.102265 0.184304
O O1 0.960830 0.099029 0.500000
O O2 0.911075 0.139153 0.725687
O O3 0.000000 0.146850 0.750000
O O4 0.956688 0.000000 0.750000
O O5 0.696437 0.898956 0.500000
O O6 0.661841 0.841538 0.755421
O O7 0.744320 0.848504 0.725493
O O8 0.700214 0.000000 0.750000
O O9 0.500000 0.119457 0.750000
O O10 0.454622 0.096036 0.500000
O O11 0.419595 0.171306 0.743532
O O12 0.441510 0.000000 0.750000
O O13 0.359763 0.500000 0.750000
O O14 0.371578 0.681206 0.741228
O O15 0.297035 0.609600 0.774186
O O16 0.350110 0.600231 0.000000
O O17 0.620064 0.211847 0.500000
O O18 0.211140 0.210237 0.500000
O O19 0.222389 0.314149 0.737434
O O20 0.172955 0.164733 0.754147
O O21 0.233550 0.500000 0.250000
O O22 0.245669 0.406535 0.500000
O O23 0.140194 0.000000 0.250000
O O24 0.137882 0.096294 0.000000
#
# Coordination Sequence:
#
# PCOD9393261 Si02
#       8
#     8   8   8   8   8   8   8   8
#     4   9  16  26  41  61  85 115 156 202 245 288
#     4  11  22  36  49  69 100 134 171 211 247 290
#     4  11  22  39  60  83 110 139 171 211 253 301
#     4  10  19  35  55  79 106 133 167 211 255 299
#     4  12  23  36  55  80 105 137 174 209 252 299
#     4  10  20  34  49  67  96 131 166 203 244 293
#     4   9  18  33  51  72  96 125 162 205 249 292
#     4  10  20  31  44  65  93 128 167 204 244 293
#
# _framework density 15.776871999999999
#
# number of rings (size 3 to 8) (size 9 to 14) (size 15 to 20)
#    0.000    1.750    1.250    5.250    0.000    4.500 
#    0.000    0.000    0.000    0.375    0.000    2.625 
#    0.000    0.500    0.000    5.500    0.000    4.000 
#
# Total GULP energy -357226.494504 kJ/mol
# GULP energy per Si atom -5581.663977 kJ/mol
# Density = 1.574096 g / cm^3
# Si number density = 15.776872 Si / 1000 Ang^3
#
#
#
# Elastic Constant Matrix: (Units=GPa)
#
#
# Indices 1 2 3 4 5 6 
#
# 1 109.8257 80.6544 50.0716 0.0000 0.0000 0.0000
# 2 80.6544 132.6405 48.1091 0.0000 0.0000 0.0000
# 3 50.0716 48.1091 83.3271 0.0000 0.0000 0.0000
# 4 0.0000 0.0000 0.0000 26.3362 0.0000 0.0000
# 5 0.0000 0.0000 0.0000 0.0000 26.0658 0.0000
# 6 0.0000 0.0000 0.0000 0.0000 0.0000 4.7532
#
#
#
# Elastic Compliance Matrix: (Units=1/GPa)
#
#
# Indices 1 2 3 4 5 6 
#
# 1 0.018449 -0.009104 -0.005830 0.000000 0.000000 0.000000
# 2 -0.009104 0.014028 -0.002629 0.000000 0.000000 0.000000
# 3 -0.005830 -0.002629 0.017022 0.000000 0.000000 0.000000
# 4 0.000000 0.000000 0.000000 0.037971 0.000000 0.000000
# 5 0.000000 0.000000 0.000000 0.000000 0.038365 0.000000
# 6 0.000000 0.000000 0.000000 0.000000 0.000000 0.210384
#
#
# Mechanical properties :
#
#
# Convention : Reuss Voigt Hill
#
# Bulk Modulus (GPa) = 69.56936 75.94039 72.75487
# Shear Modulus (GPa) = 13.29310 21.22824 17.26067
#
# Velocity S-wave (km/s) = 2.90585 3.67212 3.31123
# Velocity P-wave (km/s) = 7.44649 8.13743 7.79961
#
# Compressibility (1/GPa) = 0.01437414
#
# Stress axis : x y z
#
# Youngs Moduli (GPa) = 54.20363 71.28457 58.74754
#
# Poissons Ratio (x) = 0.64895 0.34250
# Poissons Ratio (y) = 0.49345 0.15444
# Poissons Ratio (z) = 0.31601 0.18740
#
# Static dielectric constant tensor:
#      x y z
#    x 1.535180 0.000000 0.000000 
#    y 0.000000 1.507530 0.000000 
#    z 0.000000 0.000000 1.528610 
# 
# From -- ./inp_files/6999.got.cif
#   From: 2010.05.17/outbox.cif.g08.bks.cpg/sg49_4_cif.got.tgz:6999.got - 2010.06.03 21:02:19.
