data_PCOD9393364
_publ_section_title
;
Structure prediction by ZEFSAII (Michael W. Deem and Ramdas Pophale) SiO2 
 PCOD9393364
Probable space group: P C C M
;
_chemical_formula_sum "Si O2"
_cell_formula_units_Z 64
_cell_length_a 15.751238
_cell_length_b 24.339550
_cell_length_c 8.687598
_cell_angle_alpha 90.000000
_cell_angle_beta 90.000000
_cell_angle_gamma 90.000000
_cell_volume 3330.634336
_symmetry_space_group_name_H-M "P C C M"
_symmetry_group_IT_number 49
_symmetry_cell_setting 'orthorhombic'
loop_
_space_group_symop_operation_xyz
x,y,z
-x,-y,z
x,-y,1/2-z
-x,y,1/2-z
-x,-y,-z
x,y,-z
-x,y,1/2+z
x,-y,1/2+z
loop_
_atom_site_type_symbol
_atom_site_label
_atom_site_fract_x
_atom_site_fract_y
_atom_site_fract_z
Si Si1 0.091501 0.060944 0.315512
Si Si2 0.088828 0.324782 0.185481
Si Si3 0.591797 0.938812 0.815542
Si Si4 0.255255 0.133246 0.685020
Si Si5 0.352986 0.558611 0.316001
Si Si6 0.589732 0.326557 0.816531
Si Si7 0.150770 0.557750 0.683723
Si Si8 0.255018 0.744143 0.685331
O O1 0.086003 0.057499 0.500000
O O2 0.167984 0.101625 0.274108
O O3 0.000000 0.078605 0.250000
O O4 0.108830 0.000000 0.250000
O O5 0.105495 0.387239 0.241435
O O6 0.168724 0.287595 0.229747
O O7 0.000000 0.304206 0.250000
O O8 0.085675 0.325949 0.000000
O O9 0.500000 0.921296 0.750000
O O10 0.665994 0.899345 0.757765
O O11 0.607660 0.000000 0.750000
O O12 0.588793 0.940786 0.000000
O O13 0.263117 0.133010 0.500000
O O14 0.254346 0.194940 0.747274
O O15 0.382057 0.500000 0.250000
O O16 0.364556 0.560538 0.500000
O O17 0.396433 0.610740 0.238483
O O18 0.251637 0.562867 0.282932
O O19 0.500000 0.306950 0.750000
O O20 0.665898 0.290391 0.748805
O O21 0.589762 0.324023 0.000000
O O22 0.119820 0.500000 0.750000
O O23 0.142220 0.555781 0.500000
O O24 0.259707 0.745683 0.500000
#
# Coordination Sequence:
#
# PCOD9393364 Si02
#       8
#     8   8   8   8   8   8   8   8
#     4  10  21  37  61  91 128 164 203 250 300 357
#     4  10  22  40  61  86 118 156 199 249 303 361
#     4  11  22  39  64  95 130 168 204 249 302 356
#     4  11  24  41  62  92 124 161 209 256 302 362
#     4  10  19  36  60  89 123 156 196 244 303 364
#     4  12  25  42  65  91 119 157 201 249 306 367
#     4   9  18  34  56  84 118 153 190 240 297 358
#     4  11  24  45  65  86 120 160 204 258 308 357
#
# _framework density 19.21556
#
# number of rings (size 3 to 8) (size 9 to 14) (size 15 to 20)
#    0.000    1.500    1.250    4.875    0.000    6.500 
#    0.000    7.500    0.000    0.000    0.000    0.000 
#    0.000    0.000    0.000    0.000    0.000    0.000 
#
# Total GULP energy -357867.726143 kJ/mol
# GULP energy per Si atom -5591.683221 kJ/mol
# Density = 1.917182 g / cm^3
# Si number density = 19.215560 Si / 1000 Ang^3
#
#
#
# Elastic Constant Matrix: (Units=GPa)
#
#
# Indices 1 2 3 4 5 6 
#
# 1 167.9838 107.7204 69.1701 0.0000 0.0000 0.0000
# 2 107.7204 139.1708 55.8184 0.0000 0.0000 0.0000
# 3 69.1701 55.8184 92.1962 0.0000 0.0000 0.0000
# 4 0.0000 0.0000 0.0000 25.7956 0.0000 0.0000
# 5 0.0000 0.0000 0.0000 0.0000 29.0079 0.0000
# 6 0.0000 0.0000 0.0000 0.0000 0.0000 -11.9447
#
#
#
# Elastic Compliance Matrix: (Units=1/GPa)
#
#
# Indices 1 2 3 4 5 6 
#
# 1 0.013343 -0.008337 -0.004963 0.000000 0.000000 0.000000
# 2 -0.008337 0.014699 -0.002644 0.000000 0.000000 0.000000
# 3 -0.004963 -0.002644 0.016171 0.000000 0.000000 0.000000
# 4 0.000000 0.000000 0.000000 0.038766 0.000000 0.000000
# 5 0.000000 0.000000 0.000000 0.000000 0.034473 0.000000
# 6 0.000000 0.000000 0.000000 0.000000 0.000000 -0.083719
#
#
# Mechanical properties :
#
#
# Convention : Reuss Voigt Hill
#
# Bulk Modulus (GPa) = 81.14255 96.08539 88.61397
# Shear Modulus (GPa) = 71.70648 19.68123 45.69385
#
# Velocity S-wave (km/s) = 6.11538 3.20384 4.88172
# Velocity P-wave (km/s) = 9.60120 7.98740 8.83124
#
# Compressibility (1/GPa) = 0.01232399
#
# Stress axis : x y z
#
# Youngs Moduli (GPa) = 74.94840 68.03234 61.83967
#
# Poissons Ratio (x) = 0.56717 0.30690
# Poissons Ratio (y) = 0.62483 0.16353
# Poissons Ratio (z) = 0.37196 0.17991
#
# Static dielectric constant tensor:
#      x y z
#    x 1.671360 0.000000 0.000000 
#    y 0.000000 1.643790 0.000000 
#    z 0.000000 0.000000 1.643900 
# 
# From -- ./inp_files/4341.got.cif
#   From: 2010.05.17/outbox.cif.g08.bks.cpg/sg49_3_cif.got.tgz:4341.got - 2010.06.03 21:02:19.
