data_PCOD9393179
_publ_section_title
;
Structure prediction by ZEFSAII (Michael W. Deem and Ramdas Pophale) SiO2 
 PCOD9393179
Probable space group: P C C M
;
_chemical_formula_sum "Si O2"
_cell_formula_units_Z 48
_cell_length_a 9.527375
_cell_length_b 32.231530
_cell_length_c 8.615456
_cell_angle_alpha 90.000000
_cell_angle_beta 90.000000
_cell_angle_gamma 90.000000
_cell_volume 2645.650366
_symmetry_space_group_name_H-M "P C C M"
_symmetry_group_IT_number 49
_symmetry_cell_setting 'orthorhombic'
loop_
_space_group_symop_operation_xyz
x,y,z
-x,-y,z
x,-y,1/2-z
-x,y,1/2-z
-x,-y,-z
x,y,-z
-x,y,1/2+z
x,-y,1/2+z
loop_
_atom_site_type_symbol
_atom_site_label
_atom_site_fract_x
_atom_site_fract_y
_atom_site_fract_z
Si Si1 0.341650 0.789993 0.686611
Si Si2 0.842379 0.955834 0.314670
Si Si3 0.842923 0.376440 0.813825
Si Si4 0.659272 0.301039 0.686855
Si Si5 0.659149 0.119289 0.312853
Si Si6 0.343950 0.545092 0.186287
O O1 0.500000 0.790109 0.750000
O O2 0.346033 0.790010 0.500000
O O3 0.283667 0.744932 0.733612
O O4 0.281416 0.834888 0.732896
O O5 0.846185 0.957388 0.500000
O O6 0.748912 0.917834 0.256883
O O7 0.000000 0.950809 0.250000
O O8 0.788804 0.000000 0.250000
O O9 0.755323 0.337353 0.752045
O O10 0.761605 0.418488 0.766688
O O11 0.000000 0.376009 0.750000
O O12 0.845848 0.375005 0.000000
O O13 0.500000 0.305060 0.750000
O O14 0.654920 0.303338 0.500000
O O15 0.500000 0.116792 0.250000
O O16 0.657692 0.116449 0.500000
O O17 0.301656 0.500000 0.250000
O O18 0.500000 0.553985 0.250000
O O19 0.350674 0.543286 0.000000
#
# Coordination Sequence:
#
# PCOD9393179 Si02
#       6
#     8   8   8   8   8   8
#     4   8  16  30  51  78 108 139 174 216 264 313
#     4  11  22  38  57  78 104 139 179 220 266 319
#     4  11  24  39  55  79 110 146 182 223 272 322
#     4  10  19  34  57  83 109 142 182 223 264 315
#     4  10  19  34  55  82 112 141 175 219 267 317
#     4  10  21  37  59  84 109 138 177 220 266 316
#
# _framework density 18.142987999999999
#
# number of rings (size 3 to 8) (size 9 to 14) (size 15 to 20)
#    0.000    2.000    0.000    5.000    0.000    6.000 
#    0.000    4.167    0.000    0.000    0.000    0.000 
#    0.000    0.000    0.000    0.000    0.000    0.000 
#
# Total GULP energy -267810.670240 kJ/mol
# GULP energy per Si atom -5579.388963 kJ/mol
# Density = 1.810169 g / cm^3
# Si number density = 18.142988 Si / 1000 Ang^3
#
#
#
# Elastic Constant Matrix: (Units=GPa)
#
#
# Indices 1 2 3 4 5 6 
#
# 1 80.1287 104.3220 35.8571 0.0000 0.0000 0.0000
# 2 104.3220 222.4184 65.6319 0.0000 0.0000 0.0000
# 3 35.8571 65.6319 80.8006 0.0000 0.0000 0.0000
# 4 0.0000 0.0000 0.0000 28.3722 0.0000 0.0000
# 5 0.0000 0.0000 0.0000 0.0000 27.7085 0.0000
# 6 0.0000 0.0000 0.0000 0.0000 0.0000 -30.8530
#
#
#
# Elastic Compliance Matrix: (Units=1/GPa)
#
#
# Indices 1 2 3 4 5 6 
#
# 1 0.032490 -0.014447 -0.002683 0.000000 0.000000 0.000000
# 2 -0.014447 0.012337 -0.003610 0.000000 0.000000 0.000000
# 3 -0.002683 -0.003610 0.016499 0.000000 0.000000 0.000000
# 4 0.000000 0.000000 0.000000 0.035246 0.000000 0.000000
# 5 0.000000 0.000000 0.000000 0.000000 0.036090 0.000000
# 6 0.000000 0.000000 0.000000 0.000000 0.000000 -0.032412
#
#
# Mechanical properties :
#
#
# Convention : Reuss Voigt Hill
#
# Bulk Modulus (GPa) = 50.38864 88.32996 69.35930
# Shear Modulus (GPa) = 33.70491 16.88132 25.29311
#
# Velocity S-wave (km/s) = 4.31482 3.05365 3.73781
# Velocity P-wave (km/s) = 7.25651 7.82459 7.54590
#
# Compressibility (1/GPa) = 0.01984574
#
# Stress axis : x y z
#
# Youngs Moduli (GPa) = 30.77906 81.05374 60.60868
#
# Poissons Ratio (x) = 1.17099 0.16262
# Poissons Ratio (y) = 0.44467 0.21881
# Poissons Ratio (z) = 0.08258 0.29262
#
# Static dielectric constant tensor:
#      x y z
#    x 1.574510 0.000000 0.000000 
#    y 0.000000 1.659130 0.000000 
#    z 0.000000 0.000000 1.612210 
# 
# From -- ./inp_files/2029.got.cif
#   From: 2010.05.17/outbox.cif.g08.bks.cpg/sg49_2_cif.got.tgz:2029.got - 2010.06.03 21:02:19.
