data_PCOD9393441
_publ_section_title
;
Structure prediction by ZEFSAII (Michael W. Deem and Ramdas Pophale) SiO2 
 PCOD9393441
Probable space group: P C C M
;
_chemical_formula_sum "Si O2"
_cell_formula_units_Z 52
_cell_length_a 9.486895
_cell_length_b 11.801126
_cell_length_c 23.665198
_cell_angle_alpha 90.000000
_cell_angle_beta 90.000000
_cell_angle_gamma 90.000000
_cell_volume 2649.461931
_symmetry_space_group_name_H-M "P C C M"
_symmetry_group_IT_number 49
_symmetry_cell_setting 'orthorhombic'
loop_
_space_group_symop_operation_xyz
x,y,z
-x,-y,z
x,-y,1/2-z
-x,y,1/2-z
-x,-y,-z
x,y,-z
-x,y,1/2+z
x,-y,1/2+z
loop_
_atom_site_type_symbol
_atom_site_label
_atom_site_fract_x
_atom_site_fract_y
_atom_site_fract_z
Si Si1 0.255913 0.638367 0.000000
Si Si2 0.590337 0.896675 0.397796
Si Si3 0.104921 0.721913 0.618641
Si Si4 0.154906 0.949457 0.434795
Si Si5 0.830461 0.622898 0.000000
Si Si6 0.170452 0.485022 0.184836
Si Si7 0.463382 0.754464 0.500000
Si Si8 0.786929 0.289026 0.124909
O O1 0.424418 0.651911 0.000000
O O2 0.211860 0.702041 0.943064
O O3 0.201187 0.510626 0.000000
O O4 0.497076 0.832905 0.445534
O O5 0.665719 0.800774 0.359877
O O6 0.500000 0.000000 0.372234
O O7 0.724247 0.958515 0.426689
O O8 0.174166 0.841807 0.605331
O O9 0.093224 0.656184 0.558353
O O10 0.192974 0.639140 0.659042
O O11 0.946725 0.742202 0.641962
O O12 0.155160 0.911622 0.500000
O O13 0.000000 0.000000 0.423835
O O14 0.686529 0.695026 0.000000
O O15 0.208570 0.500000 0.250000
O O16 0.239470 0.585506 0.148897
O O17 0.000000 0.500000 0.179957
#
# Coordination Sequence:
#
# PCOD9393441 Si02
#       8
#     4   8   8   8   4   8   4   8
#     4  10  20  31  49  76 117 151 176 226 282 341
#     4  11  21  35  51  75 115 158 192 220 270 338
#     4  11  20  31  54  83 118 147 185 230 283 343
#     4  11  21  32  51  81 118 155 189 226 272 335
#     4  12  20  31  48  82 115 154 184 233 286 345
#     4   9  19  36  58  83 111 145 185 238 298 343
#     4  10  22  34  47  72 115 160 193 223 272 337
#     4  10  20  34  52  84 114 148 184 232 284 343
#
# _framework density 19.626626999999999
#
# number of rings (size 3 to 8) (size 9 to 14) (size 15 to 20)
#    0.000    1.538    4.615    1.846    0.000    0.615 
#    0.000    0.000    0.000    0.923    0.000   22.615 
#    0.000    0.000    0.000    0.000    0.000    0.000 
#
# Total GULP energy -290223.122352 kJ/mol
# GULP energy per Si atom -5581.213891 kJ/mol
# Density = 1.958196 g / cm^3
# Si number density = 19.626627 Si / 1000 Ang^3
#
#
#
# Elastic Constant Matrix: (Units=GPa)
#
#
# Indices 1 2 3 4 5 6 
#
# 1 79.2267 29.9680 -3.7072 0.0000 0.0000 0.0000
# 2 29.9680 129.5535 25.0409 0.0000 0.0000 0.0000
# 3 -3.7072 25.0409 57.0228 0.0000 0.0000 0.0000
# 4 0.0000 0.0000 0.0000 7.8911 0.0000 0.0000
# 5 0.0000 0.0000 0.0000 0.0000 -2.3685 0.0000
# 6 0.0000 0.0000 0.0000 0.0000 0.0000 38.3777
#
#
#
# Elastic Compliance Matrix: (Units=1/GPa)
#
#
# Indices 1 2 3 4 5 6 
#
# 1 0.014171 -0.003777 0.002580 0.000000 0.000000 0.000000
# 2 -0.003777 0.009441 -0.004392 0.000000 0.000000 0.000000
# 3 0.002580 -0.004392 0.019633 0.000000 0.000000 0.000000
# 4 0.000000 0.000000 0.000000 0.126725 0.000000 0.000000
# 5 0.000000 0.000000 0.000000 0.000000 -0.422216 0.000000
# 6 0.000000 0.000000 0.000000 0.000000 0.000000 0.026057
#
#
# Mechanical properties :
#
#
# Convention : Reuss Voigt Hill
#
# Bulk Modulus (GPa) = 31.18306 40.93404 36.05855
# Shear Modulus (GPa) = -24.47122 23.08016 -0.69553
#
# Velocity S-wave (km/s) = -3.53489 3.43295 -0.59595
# Velocity P-wave (km/s) = 0.85905 6.05105 4.23540
#
# Compressibility (1/GPa) = 0.03206870
#
# Stress axis : x y z
#
# Youngs Moduli (GPa) = 70.56526 105.91802 50.93447
#
# Poissons Ratio (x) = 0.40002 -0.13140
# Poissons Ratio (y) = 0.26650 0.22368
# Poissons Ratio (z) = -0.18204 0.46514
#
# Static dielectric constant tensor:
#      x y z
#    x 1.728080 0.000000 0.000000 
#    y 0.000000 1.724890 0.000000 
#    z 0.000000 0.000000 1.652690 
# 
# From -- ./inp_files/24539.got.cif
#   From: 2010.05.17/outbox.cif.g08.bks.cpg/sg49_13_cif.got.tgz:24539.got - 2010.06.03 21:02:19.
