data_PCOD9393556
_publ_section_title
;
Structure prediction by ZEFSAII (Michael W. Deem and Ramdas Pophale) SiO2 
 PCOD9393556
Probable space group: P C C M
;
_chemical_formula_sum "Si O2"
_cell_formula_units_Z 58
_cell_length_a 18.398163
_cell_length_b 18.595549
_cell_length_c 9.560371
_cell_angle_alpha 90.000000
_cell_angle_beta 90.000000
_cell_angle_gamma 90.000000
_cell_volume 3270.831809
_symmetry_space_group_name_H-M "P C C M"
_symmetry_group_IT_number 49
_symmetry_cell_setting 'orthorhombic'
loop_
_space_group_symop_operation_xyz
x,y,z
-x,-y,z
x,-y,1/2-z
-x,y,1/2-z
-x,-y,-z
x,y,-z
-x,y,1/2+z
x,-y,1/2+z
loop_
_atom_site_type_symbol
_atom_site_label
_atom_site_fract_x
_atom_site_fract_y
_atom_site_fract_z
Si Si1 0.074420 0.707844 0.664373
Si Si2 0.657520 0.731441 0.166633
Si Si3 0.383625 0.888387 0.657180
Si Si4 0.198911 0.222034 0.661934
Si Si5 0.500000 0.000000 0.250000
Si Si6 0.169711 0.564746 0.659221
Si Si7 0.250028 0.937405 0.158296
Si Si8 0.340565 0.428336 0.833055
O O1 0.063648 0.726012 0.500000
O O2 0.128859 0.759753 0.747027
O O3 0.118460 0.632979 0.669564
O O4 0.000000 0.703109 0.750000
O O5 0.606515 0.802372 0.184937
O O6 0.729348 0.747729 0.258687
O O7 0.628113 0.651344 0.201877
O O8 0.676978 0.727775 0.000000
O O9 0.352896 0.891295 0.500000
O O10 0.450361 0.943507 0.665013
O O11 0.326244 0.917179 0.769155
O O12 0.195515 0.248229 0.500000
O O13 0.206527 0.136325 0.657848
O O14 0.140931 0.500000 0.750000
O O15 0.172388 0.540356 0.500000
O O16 0.253797 0.580184 0.698080
O O17 0.215622 0.000000 0.250000
O O18 0.261830 0.961288 0.000000
O O19 0.365263 0.500000 0.750000
O O20 0.349520 0.440096 0.000000
#
# Coordination Sequence:
#
# PCOD9393556 Si02
#       8
#     8   8   8   8   2   8   8   8
#     4  11  22  36  51  70  96 131 172 213 260 317
#     4   9  17  33  52  72 100 138 178 213 258 313
#     4  10  21  34  52  75 109 150 180 212 250 296
#     4  10  20  33  51  75 100 129 166 215 260 304
#     4  12  22  32  52  86 120 148 188 208 246 300
#     4   9  18  31  46  66  94 128 166 207 256 309
#     4  10  20  34  54  80 106 132 171 211 251 300
#     4   9  16  28  47  72  99 128 167 213 267 317
#
# _framework density 17.732493000000002
#
# number of rings (size 3 to 8) (size 9 to 14) (size 15 to 20)
#    0.000    2.207    2.069    1.448    0.000    4.138 
#    0.000    1.379    0.000    0.414    0.000    3.379 
#    0.000    3.310    0.000    0.000    0.000    0.000 
#
# Total GULP energy -322948.201968 kJ/mol
# GULP energy per Si atom -5568.072448 kJ/mol
# Density = 1.769213 g / cm^3
# Si number density = 17.732493 Si / 1000 Ang^3
#
#
#
# Elastic Constant Matrix: (Units=GPa)
#
#
# Indices 1 2 3 4 5 6 
#
# 1 20.6254 16.9413 14.2773 0.0000 0.0000 0.0000
# 2 16.9413 137.1435 50.9158 0.0000 0.0000 0.0000
# 3 14.2773 50.9158 95.9559 0.0000 0.0000 0.0000
# 4 0.0000 0.0000 0.0000 32.0111 0.0000 0.0000
# 5 0.0000 0.0000 0.0000 0.0000 6.2751 0.0000
# 6 0.0000 0.0000 0.0000 0.0000 0.0000 7.5828
#
#
#
# Elastic Compliance Matrix: (Units=1/GPa)
#
#
# Indices 1 2 3 4 5 6 
#
# 1 0.056482 -0.004803 -0.005855 0.000000 0.000000 0.000000
# 2 -0.004803 0.009489 -0.004320 0.000000 0.000000 0.000000
# 3 -0.005855 -0.004320 0.013585 0.000000 0.000000 0.000000
# 4 0.000000 0.000000 0.000000 0.031239 0.000000 0.000000
# 5 0.000000 0.000000 0.000000 0.000000 0.159361 0.000000
# 6 0.000000 0.000000 0.000000 0.000000 0.000000 0.131878
#
#
# Mechanical properties :
#
#
# Convention : Reuss Voigt Hill
#
# Bulk Modulus (GPa) = 20.16190 46.44375 33.30283
# Shear Modulus (GPa) = 11.14764 20.61314 15.88039
#
# Velocity S-wave (km/s) = 2.51002 3.41317 2.99583
# Velocity P-wave (km/s) = 4.44916 6.46384 5.54870
#
# Compressibility (1/GPa) = 0.04959849
#
# Stress axis : x y z
#
# Youngs Moduli (GPa) = 17.70463 105.38579 73.61022
#
# Poissons Ratio (x) = 0.50621 0.43101
# Poissons Ratio (y) = 0.08504 0.31802
# Poissons Ratio (z) = 0.10366 0.45530
#
# Static dielectric constant tensor:
#      x y z
#    x 1.592210 0.000000 0.000000 
#    y 0.000000 1.655170 0.000000 
#    z 0.000000 0.000000 1.624930 
# 
# From -- ./inp_files/5079.got.cif
#   From: 2010.05.17/outbox.cif.g08.bks.cpg/sg49_3_cif.got.tgz:5079.got - 2010.06.03 21:02:19.
