data_PCOD9393813
_publ_section_title
;
Structure prediction by ZEFSAII (Michael W. Deem and Ramdas Pophale) SiO2 
 PCOD9393813
Probable space group: P C C M
;
_chemical_formula_sum "Si O2"
_cell_formula_units_Z 48
_cell_length_a 9.317798
_cell_length_b 32.358178
_cell_length_c 8.477622
_cell_angle_alpha 90.000000
_cell_angle_beta 90.000000
_cell_angle_gamma 90.000000
_cell_volume 2556.062090
_symmetry_space_group_name_H-M "P C C M"
_symmetry_group_IT_number 49
_symmetry_cell_setting 'orthorhombic'
loop_
_space_group_symop_operation_xyz
x,y,z
-x,-y,z
x,-y,1/2-z
-x,y,1/2-z
-x,-y,-z
x,y,-z
-x,y,1/2+z
x,-y,1/2+z
loop_
_atom_site_type_symbol
_atom_site_label
_atom_site_fract_x
_atom_site_fract_y
_atom_site_fract_z
Si Si1 0.836632 0.133214 0.809344
Si Si2 0.164264 0.957441 0.188472
Si Si3 0.661754 0.375041 0.190613
Si Si4 0.338082 0.213365 0.309192
Si Si5 0.162180 0.455242 0.310715
Si Si6 0.162181 0.705696 0.809384
O O1 0.778633 0.087684 0.761949
O O2 0.739910 0.171330 0.754890
O O3 0.000000 0.137705 0.750000
O O4 0.841005 0.133948 0.000000
O O5 0.000000 0.957176 0.250000
O O6 0.232613 0.000000 0.250000
O O7 0.162198 0.959389 0.000000
O O8 0.500000 0.372356 0.250000
O O9 0.738173 0.417464 0.242386
O O10 0.753934 0.335419 0.243437
O O11 0.660513 0.374873 0.000000
O O12 0.500000 0.215746 0.250000
O O13 0.339325 0.213182 0.500000
O O14 0.247193 0.253321 0.257362
O O15 0.211637 0.500000 0.250000
O O16 0.158847 0.456079 0.500000
O O17 0.000000 0.448907 0.250000
O O18 0.000000 0.705918 0.750000
O O19 0.160095 0.705619 0.000000
#
# Coordination Sequence:
#
# PCOD9393813 Si02
#       6
#     8   8   8   8   8   8
#     4   9  18  31  48  72 100 129 164 206 248 295
#     4   9  15  24  40  64  94 124 157 199 245 290
#     4  10  22  37  54  79 109 140 174 212 255 305
#     4  10  21  36  53  75 103 133 167 206 249 299
#     4  10  20  35  55  79 106 138 178 219 260 305
#     4  10  21  37  57  81 106 133 169 210 252 301
#
# _framework density 18.778886
#
# number of rings (size 3 to 8) (size 9 to 14) (size 15 to 20)
#    0.000    2.333    0.000    3.500    0.000    4.333 
#    0.000    1.667    0.000    0.500    0.000    3.500 
#    0.000    0.000    0.000    0.000    0.000    0.000 
#
# Total GULP energy -267816.628234 kJ/mol
# GULP energy per Si atom -5579.513088 kJ/mol
# Density = 1.873614 g / cm^3
# Si number density = 18.778886 Si / 1000 Ang^3
#
#
#
# Elastic Constant Matrix: (Units=GPa)
#
#
# Indices 1 2 3 4 5 6 
#
# 1 127.9086 116.2503 15.4812 0.0000 0.0000 0.0000
# 2 116.2503 233.7782 33.9644 0.0000 0.0000 0.0000
# 3 15.4812 33.9644 16.8451 0.0000 0.0000 0.0000
# 4 0.0000 0.0000 0.0000 4.8835 0.0000 0.0000
# 5 0.0000 0.0000 0.0000 0.0000 29.3835 0.0000
# 6 0.0000 0.0000 0.0000 0.0000 0.0000 15.3852
#
#
#
# Elastic Compliance Matrix: (Units=1/GPa)
#
#
# Indices 1 2 3 4 5 6 
#
# 1 0.014299 -0.007356 0.001691 0.000000 0.000000 0.000000
# 2 -0.007356 0.009834 -0.013068 0.000000 0.000000 0.000000
# 3 0.001691 -0.013068 0.084159 0.000000 0.000000 0.000000
# 4 0.000000 0.000000 0.000000 0.204770 0.000000 0.000000
# 5 0.000000 0.000000 0.000000 0.000000 0.034033 0.000000
# 6 0.000000 0.000000 0.000000 0.000000 0.000000 0.064998
#
#
# Mechanical properties :
#
#
# Convention : Reuss Voigt Hill
#
# Bulk Modulus (GPa) = 14.11922 78.88041 46.49982
# Shear Modulus (GPa) = 10.56710 24.11951 17.34331
#
# Velocity S-wave (km/s) = 2.37473 3.58773 3.04230
# Velocity P-wave (km/s) = 3.87996 7.69795 6.09560
#
# Compressibility (1/GPa) = 0.07082542
#
# Stress axis : x y z
#
# Youngs Moduli (GPa) = 69.93463 101.68767 11.88234
#
# Poissons Ratio (x) = 0.74802 -0.02009
# Poissons Ratio (y) = 0.51445 0.15527
# Poissons Ratio (z) = -0.11823 1.32882
#
# Static dielectric constant tensor:
#      x y z
#    x 1.591210 0.000000 0.000000 
#    y 0.000000 1.694020 0.000000 
#    z 0.000000 0.000000 1.655800 
# 
# From -- ./inp_files/2101.got.cif
#   From: 2010.05.17/outbox.cif.g08.bks.cpg/sg49_2_cif.got.tgz:2101.got - 2010.06.03 21:02:19.
