data_PCOD9393457
_publ_section_title
;
Structure prediction by ZEFSAII (Michael W. Deem and Ramdas Pophale) SiO2 
 PCOD9393457
Probable space group: P C C M
;
_chemical_formula_sum "Si O2"
_cell_formula_units_Z 56
_cell_length_a 21.504054
_cell_length_b 18.832102
_cell_length_c 8.958704
_cell_angle_alpha 90.000000
_cell_angle_beta 90.000000
_cell_angle_gamma 90.000000
_cell_volume 3627.975347
_symmetry_space_group_name_H-M "P C C M"
_symmetry_group_IT_number 49
_symmetry_cell_setting 'orthorhombic'
loop_
_space_group_symop_operation_xyz
x,y,z
-x,-y,z
x,-y,1/2-z
-x,y,1/2-z
-x,-y,-z
x,y,-z
-x,y,1/2+z
x,-y,1/2+z
loop_
_atom_site_type_symbol
_atom_site_label
_atom_site_fract_x
_atom_site_fract_y
_atom_site_fract_z
Si Si1 0.753370 0.203319 0.670799
Si Si2 0.934691 0.578204 0.320449
Si Si3 0.181515 0.655534 0.319422
Si Si4 0.379141 0.285548 0.171613
Si Si5 0.310927 0.576975 0.680083
Si Si6 0.563990 0.845962 0.677599
Si Si7 0.691589 0.923889 0.322340
O O1 0.766130 0.181975 0.500000
O O2 0.802995 0.262584 0.718337
O O3 0.688203 0.246752 0.669486
O O4 0.741470 0.134619 0.769786
O O5 0.924346 0.500000 0.250000
O O6 0.938468 0.573829 0.500000
O O7 0.877818 0.626256 0.266190
O O8 0.000000 0.603485 0.250000
O O9 0.173526 0.651066 0.500000
O O10 0.242709 0.608613 0.281279
O O11 0.362854 0.364777 0.225678
O O12 0.422087 0.234435 0.268425
O O13 0.401613 0.287768 0.000000
O O14 0.319520 0.500000 0.750000
O O15 0.313171 0.573201 0.500000
O O16 0.500000 0.871071 0.750000
O O17 0.559351 0.847789 0.500000
O O18 0.623567 0.893228 0.723734
O O19 0.692030 0.929532 0.500000
O O20 0.702111 0.000000 0.250000
#
# Coordination Sequence:
#
# PCOD9393457 Si02
#       7
#     8   8   8   8   8   8   8
#     4   8  15  29  48  66  88 117 146 179 220 263
#     4  11  21  32  45  62  89 126 164 200 235 270
#     4   9  17  30  46  66  91 119 152 187 224 267
#     4   8  15  29  45  61  83 111 141 175 216 261
#     4   9  17  27  42  64  88 113 141 177 222 266
#     4  10  20  32  47  66  85 111 145 179 213 257
#     4  10  20  32  47  68  94 120 147 177 215 261
#
# _framework density 15.435606999999999
#
# number of rings (size 3 to 8) (size 9 to 14) (size 15 to 20)
#    0.000    2.714    0.000    4.714    0.000    4.857 
#    0.000    4.286    0.000    0.429    0.000    3.000 
#    0.000    0.571    0.000    6.000    0.000    2.571 
#
# Total GULP energy -312042.162860 kJ/mol
# GULP energy per Si atom -5572.181480 kJ/mol
# Density = 1.540047 g / cm^3
# Si number density = 15.435607 Si / 1000 Ang^3
#
#
#
# Elastic Constant Matrix: (Units=GPa)
#
#
# Indices 1 2 3 4 5 6 
#
# 1 31.3069 14.9107 17.1966 0.0000 0.0000 0.0000
# 2 14.9107 101.0322 33.5367 0.0000 0.0000 0.0000
# 3 17.1966 33.5367 46.9779 0.0000 0.0000 0.0000
# 4 0.0000 0.0000 0.0000 24.6936 0.0000 0.0000
# 5 0.0000 0.0000 0.0000 0.0000 12.6419 0.0000
# 6 0.0000 0.0000 0.0000 0.0000 0.0000 15.6351
#
#
#
# Elastic Compliance Matrix: (Units=1/GPa)
#
#
# Indices 1 2 3 4 5 6 
#
# 1 0.040125 -0.001371 -0.013709 0.000000 0.000000 0.000000
# 2 -0.001371 0.013019 -0.008792 0.000000 0.000000 0.000000
# 3 -0.013709 -0.008792 0.032581 0.000000 0.000000 0.000000
# 4 0.000000 0.000000 0.000000 0.040496 0.000000 0.000000
# 5 0.000000 0.000000 0.000000 0.000000 0.079102 0.000000
# 6 0.000000 0.000000 0.000000 0.000000 0.000000 0.063959
#
#
# Mechanical properties :
#
#
# Convention : Reuss Voigt Hill
#
# Bulk Modulus (GPa) = 26.32919 34.51166 30.42043
# Shear Modulus (GPa) = 15.16590 18.17231 16.66910
#
# Velocity S-wave (km/s) = 3.13793 3.43490 3.28977
# Velocity P-wave (km/s) = 5.49757 6.17563 5.84644
#
# Compressibility (1/GPa) = 0.03798065
#
# Stress axis : x y z
#
# Youngs Moduli (GPa) = 24.92194 76.81347 30.69243
#
# Poissons Ratio (x) = 0.10532 0.42077
# Poissons Ratio (y) = 0.03417 0.26984
# Poissons Ratio (z) = 0.34166 0.67533
#
# Static dielectric constant tensor:
#      x y z
#    x 1.508620 0.000000 0.000000 
#    y 0.000000 1.516050 0.000000 
#    z 0.000000 0.000000 1.515470 
# 
# From -- ./inp_files/5207.got.cif
#   From: 2010.05.17/outbox.cif.g08.bks.cpg/sg49_3_cif.got.tgz:5207.got - 2010.06.03 21:02:19.
