data_PCOD9393432
_publ_section_title
;
Structure prediction by ZEFSAII (Michael W. Deem and Ramdas Pophale) SiO2 
 PCOD9393432
Probable space group: P C C M
;
_chemical_formula_sum "Si O2"
_cell_formula_units_Z 64
_cell_length_a 23.360140
_cell_length_b 18.531977
_cell_length_c 9.101054
_cell_angle_alpha 90.000000
_cell_angle_beta 90.000000
_cell_angle_gamma 90.000000
_cell_volume 3939.933439
_symmetry_space_group_name_H-M "P C C M"
_symmetry_group_IT_number 49
_symmetry_cell_setting 'orthorhombic'
loop_
_space_group_symop_operation_xyz
x,y,z
-x,-y,z
x,-y,1/2-z
-x,y,1/2-z
-x,-y,-z
x,y,-z
-x,y,1/2+z
x,-y,1/2+z
loop_
_atom_site_type_symbol
_atom_site_label
_atom_site_fract_x
_atom_site_fract_y
_atom_site_fract_z
Si Si1 0.234981 0.286881 0.826492
Si Si2 0.761426 0.936573 0.338707
Si Si3 0.323767 0.153967 0.827405
Si Si4 0.557063 0.786845 0.174941
Si Si5 0.688725 0.574749 0.178159
Si Si6 0.853383 0.809889 0.332336
Si Si7 0.062911 0.077756 0.820708
Si Si8 0.559091 0.385060 0.325115
O O1 0.282569 0.223695 0.812900
O O2 0.268475 0.359715 0.779822
O O3 0.178491 0.259358 0.739983
O O4 0.220948 0.293094 0.000000
O O5 0.748751 0.963035 0.500000
O O6 0.704866 0.911049 0.257352
O O7 0.802765 0.868600 0.344379
O O8 0.790324 0.000000 0.250000
O O9 0.385917 0.174927 0.770690
O O10 0.326945 0.137937 0.000000
O O11 0.500000 0.814154 0.250000
O O12 0.561922 0.701050 0.201935
O O13 0.553638 0.795544 0.000000
O O14 0.707735 0.500000 0.250000
O O15 0.621774 0.586858 0.223012
O O16 0.688907 0.571733 0.000000
O O17 0.873930 0.795662 0.500000
O O18 0.899223 0.853820 0.233571
O O19 0.000000 0.088589 0.750000
O O20 0.081435 0.000000 0.750000
O O21 0.062120 0.072820 0.000000
O O22 0.500000 0.411487 0.250000
O O23 0.554089 0.397386 0.500000
#
# Coordination Sequence:
#
# PCOD9393432 Si02
#       8
#     8   8   8   8   8   8   8   8
#     4   9  17  32  50  67  90 123 161 200 243 291
#     4  10  20  31  45  67  93 119 150 188 230 275
#     4   9  16  29  48  64  83 112 145 184 232 281
#     4   9  16  27  44  64  83 107 140 181 228 280
#     4  10  20  33  48  66  93 126 161 200 248 303
#     4  10  20  33  50  74 101 130 167 207 241 281
#     4  11  21  34  52  76 109 148 183 213 244 280
#     4   9  17  30  45  63  87 117 153 193 237 293
#
# _framework density 16.243929999999999
#
# number of rings (size 3 to 8) (size 9 to 14) (size 15 to 20)
#    0.000    2.375    1.250    2.625    0.000    4.250 
#    0.000    1.250    0.000    0.375    0.000    2.625 
#    0.000    0.500    0.000    5.250    0.000    2.875 
#
# Total GULP energy -356363.085129 kJ/mol
# GULP energy per Si atom -5568.173205 kJ/mol
# Density = 1.620696 g / cm^3
# Si number density = 16.243930 Si / 1000 Ang^3
#
#
#
# Elastic Constant Matrix: (Units=GPa)
#
#
# Indices 1 2 3 4 5 6 
#
# 1 89.6899 38.5295 44.4017 0.0000 0.0000 0.0000
# 2 38.5295 66.0776 38.8239 0.0000 0.0000 0.0000
# 3 44.4017 38.8239 72.1711 0.0000 0.0000 0.0000
# 4 0.0000 0.0000 0.0000 22.1700 0.0000 0.0000
# 5 0.0000 0.0000 0.0000 0.0000 18.5977 0.0000
# 6 0.0000 0.0000 0.0000 0.0000 0.0000 13.0695
#
#
#
# Elastic Compliance Matrix: (Units=1/GPa)
#
#
# Indices 1 2 3 4 5 6 
#
# 1 0.017353 -0.005623 -0.007651 0.000000 0.000000 0.000000
# 2 -0.005623 0.023949 -0.009424 0.000000 0.000000 0.000000
# 3 -0.007651 -0.009424 0.023633 0.000000 0.000000 0.000000
# 4 0.000000 0.000000 0.000000 0.045106 0.000000 0.000000
# 5 0.000000 0.000000 0.000000 0.000000 0.053770 0.000000
# 6 0.000000 0.000000 0.000000 0.000000 0.000000 0.076514
#
#
# Mechanical properties :
#
#
# Convention : Reuss Voigt Hill
#
# Bulk Modulus (GPa) = 51.18013 52.38321 51.78167
# Shear Modulus (GPa) = 17.10953 17.84632 17.47793
#
# Velocity S-wave (km/s) = 3.24896 3.31818 3.28375
# Velocity P-wave (km/s) = 6.75648 6.85553 6.80618
#
# Compressibility (1/GPa) = 0.01953883
#
# Stress axis : x y z
#
# Youngs Moduli (GPa) = 57.62753 41.75453 42.31416
#
# Poissons Ratio (x) = 0.23478 0.32375
# Poissons Ratio (y) = 0.32403 0.39877
# Poissons Ratio (z) = 0.44092 0.39350
#
# Static dielectric constant tensor:
#      x y z
#    x 1.554510 0.000000 0.000000 
#    y 0.000000 1.184290 0.000000 
#    z 0.000000 0.000000 1.530530 
# 
# From -- ./inp_files/6621.got.cif
#   From: 2010.05.17/outbox.cif.g08.bks.cpg/sg49_4_cif.got.tgz:6621.got - 2010.06.03 21:02:19.
