data_PCOD9393292
_publ_section_title
;
Structure prediction by ZEFSAII (Michael W. Deem and Ramdas Pophale) SiO2 
 PCOD9393292
Probable space group: P C C M
;
_chemical_formula_sum "Si O2"
_cell_formula_units_Z 40
_cell_length_a 15.954627
_cell_length_b 14.853406
_cell_length_c 8.604226
_cell_angle_alpha 90.000000
_cell_angle_beta 90.000000
_cell_angle_gamma 90.000000
_cell_volume 2039.034231
_symmetry_space_group_name_H-M "P C C M"
_symmetry_group_IT_number 49
_symmetry_cell_setting 'orthorhombic'
loop_
_space_group_symop_operation_xyz
x,y,z
-x,-y,z
x,-y,1/2-z
-x,y,1/2-z
-x,-y,-z
x,y,-z
-x,y,1/2+z
x,-y,1/2+z
loop_
_atom_site_type_symbol
_atom_site_label
_atom_site_fract_x
_atom_site_fract_y
_atom_site_fract_z
Si Si1 0.087991 0.781265 0.186490
Si Si2 0.589294 0.213425 0.812838
Si Si3 0.341884 0.405429 0.313100
Si Si4 0.151903 0.595276 0.314402
Si Si5 0.248533 0.899248 0.187771
O O1 0.102514 0.681285 0.252341
O O2 0.166698 0.842531 0.235503
O O3 0.000000 0.816953 0.250000
O O4 0.086381 0.777326 0.000000
O O5 0.500000 0.182844 0.750000
O O6 0.607283 0.316830 0.765440
O O7 0.667341 0.152514 0.760378
O O8 0.587790 0.211472 0.000000
O O9 0.376240 0.500000 0.250000
O O10 0.337269 0.408706 0.500000
O O11 0.247440 0.396086 0.247897
O O12 0.119305 0.500000 0.250000
O O13 0.152231 0.593497 0.500000
O O14 0.245954 0.000000 0.250000
O O15 0.249292 0.900963 0.000000
#
# Coordination Sequence:
#
# PCOD9393292 Si02
#       5
#     8   8   8   8   8
#     4  11  23  42  64  91 126 159 201 251 300 359
#     4  10  22  40  61  88 123 161 200 250 302 356
#     4  10  19  35  57  85 123 162 204 248 298 352
#     4  11  21  35  59  90 123 164 207 246 297 355
#     4  10  23  44  66  88 121 157 197 252 309 363
#
# _framework density 19.617131000000001
#
# number of rings (size 3 to 8) (size 9 to 14) (size 15 to 20)
#    0.000    1.600    2.000    4.200    0.000    5.600 
#    0.000    8.000    0.000    0.000    0.000    0.000 
#    0.000    0.000    0.000    0.000    0.000    0.000 
#
# Total GULP energy -223593.514768 kJ/mol
# GULP energy per Si atom -5589.837869 kJ/mol
# Density = 1.957248 g / cm^3
# Si number density = 19.617131 Si / 1000 Ang^3
#
#
#
# Elastic Constant Matrix: (Units=GPa)
#
#
# Indices 1 2 3 4 5 6 
#
# 1 157.1148 84.7351 34.1754 0.0000 0.0000 0.0000
# 2 84.7351 145.6599 35.0922 0.0000 0.0000 0.0000
# 3 34.1754 35.0922 63.8697 0.0000 0.0000 0.0000
# 4 0.0000 0.0000 0.0000 40.3723 0.0000 0.0000
# 5 0.0000 0.0000 0.0000 0.0000 37.7331 0.0000
# 6 0.0000 0.0000 0.0000 0.0000 0.0000 -2.0116
#
#
#
# Elastic Compliance Matrix: (Units=1/GPa)
#
#
# Indices 1 2 3 4 5 6 
#
# 1 0.009578 -0.004999 -0.002379 0.000000 0.000000 0.000000
# 2 -0.004999 0.010522 -0.003106 0.000000 0.000000 0.000000
# 3 -0.002379 -0.003106 0.018636 0.000000 0.000000 0.000000
# 4 0.000000 0.000000 0.000000 0.024769 0.000000 0.000000
# 5 0.000000 0.000000 0.000000 0.000000 0.026502 0.000000
# 6 0.000000 0.000000 0.000000 0.000000 0.000000 -0.497105
#
#
# Mechanical properties :
#
#
# Convention : Reuss Voigt Hill
#
# Bulk Modulus (GPa) = 56.27811 74.96108 65.61960
# Shear Modulus (GPa) = -13.15071 29.39486 8.12208
#
# Velocity S-wave (km/s) = -2.59196 3.87515 2.03698
# Velocity P-wave (km/s) = 4.44892 7.63658 6.24941
#
# Compressibility (1/GPa) = 0.01776890
#
# Stress axis : x y z
#
# Youngs Moduli (GPa) = 104.40432 95.04207 53.65901
#
# Poissons Ratio (x) = 0.47511 0.12763
# Poissons Ratio (y) = 0.52191 0.16667
# Poissons Ratio (z) = 0.24833 0.29521
#
# Static dielectric constant tensor:
#      x y z
#    x 1.697920 0.000000 0.000000 
#    y 0.000000 1.672630 0.000000 
#    z 0.000000 0.000000 1.661820 
# 
# From -- ./inp_files/3428.got.cif
#   From: 2010.05.17/outbox.cif.g08.bks.cpg/sg49_2_cif.got.tgz:3428.got - 2010.06.03 21:02:19.
