data_PCOD9393276
_publ_section_title
;
Structure prediction by ZEFSAII (Michael W. Deem and Ramdas Pophale) SiO2 
 PCOD9393276
Probable space group: P C C M
;
_chemical_formula_sum "Si O2"
_cell_formula_units_Z 64
_cell_length_a 12.416985
_cell_length_b 11.035268
_cell_length_c 23.312948
_cell_angle_alpha 90.000000
_cell_angle_beta 90.000000
_cell_angle_gamma 90.000000
_cell_volume 3194.451040
_symmetry_space_group_name_H-M "P C C M"
_symmetry_group_IT_number 49
_symmetry_cell_setting 'orthorhombic'
loop_
_space_group_symop_operation_xyz
x,y,z
-x,-y,z
x,-y,1/2-z
-x,y,1/2-z
-x,-y,-z
x,y,-z
-x,y,1/2+z
x,-y,1/2+z
loop_
_atom_site_type_symbol
_atom_site_label
_atom_site_fract_x
_atom_site_fract_y
_atom_site_fract_z
Si Si1 0.897730 0.570359 0.839189
Si Si2 0.555099 0.717607 0.565696
Si Si3 0.333030 0.982756 0.065692
Si Si4 0.881481 0.846981 0.433419
Si Si5 0.747902 0.652503 0.363270
Si Si6 0.655851 0.217251 0.373971
Si Si7 0.282643 0.357482 0.237378
Si Si8 0.108168 0.761548 0.568429
O O1 0.806939 0.474972 0.857725
O O2 0.838933 0.641469 0.788108
O O3 0.931637 0.646037 0.894893
O O4 0.000000 0.500000 0.817240
O O5 0.556237 0.681965 0.500000
O O6 0.604761 0.854934 0.569389
O O7 0.638996 0.639425 0.601411
O O8 0.435927 0.715288 0.590347
O O9 0.204488 0.956380 0.071010
O O10 0.368897 0.075094 0.114955
O O11 0.351985 0.030306 0.000000
O O12 0.872792 0.807459 0.500000
O O13 0.828695 0.744821 0.393835
O O14 0.009503 0.856916 0.422568
O O15 0.717999 0.699882 0.300050
O O16 0.656840 0.279153 0.311231
O O17 0.774139 0.223507 0.403242
O O18 0.315238 0.500000 0.250000
O O19 0.119651 0.745331 0.500000
#
# Coordination Sequence:
#
# PCOD9393276 Si02
#       8
#     8   8   8   8   8   8   8   8
#     4  10  19  35  56  85 109 146 196 244 294 359
#     4  10  21  37  60  86 115 152 195 243 300 361
#     4   9  18  34  60  88 116 153 196 242 298 363
#     4   9  18  33  53  83 118 149 184 234 298 361
#     4  10  19  36  56  80 110 149 193 241 293 348
#     4  11  21  37  56  83 115 154 199 241 287 355
#     4   9  22  39  57  82 112 150 196 243 293 342
#     4  10  20  32  51  85 121 151 188 240 303 360
#
# _framework density 20.034742999999999
#
# number of rings (size 3 to 8) (size 9 to 14) (size 15 to 20)
#    0.000    2.250    1.250    2.625    0.000    5.500 
#    0.000   11.875    0.000   10.500    0.000    3.500 
#    0.000    0.000    0.000    0.000    0.000    0.000 
#
# Total GULP energy -356555.294605 kJ/mol
# GULP energy per Si atom -5571.176478 kJ/mol
# Density = 1.998914 g / cm^3
# Si number density = 20.034743 Si / 1000 Ang^3
#
#
#
# Elastic Constant Matrix: (Units=GPa)
#
#
# Indices 1 2 3 4 5 6 
#
# 1 120.9327 6.4688 48.8813 0.0000 0.0000 0.0000
# 2 6.4688 33.9984 35.7002 0.0000 0.0000 0.0000
# 3 48.8813 35.7002 127.0621 0.0000 0.0000 0.0000
# 4 0.0000 0.0000 0.0000 33.9430 0.0000 0.0000
# 5 0.0000 0.0000 0.0000 0.0000 26.7489 0.0000
# 6 0.0000 0.0000 0.0000 0.0000 0.0000 18.7855
#
#
#
# Elastic Compliance Matrix: (Units=1/GPa)
#
#
# Indices 1 2 3 4 5 6 
#
# 1 0.010007 0.003033 -0.004702 0.000000 0.000000 0.000000
# 2 0.003033 0.042642 -0.013148 0.000000 0.000000 0.000000
# 3 -0.004702 -0.013148 0.013373 0.000000 0.000000 0.000000
# 4 0.000000 0.000000 0.000000 0.029461 0.000000 0.000000
# 5 0.000000 0.000000 0.000000 0.000000 0.037385 0.000000
# 6 0.000000 0.000000 0.000000 0.000000 0.000000 0.053233
#
#
# Mechanical properties :
#
#
# Convention : Reuss Voigt Hill
#
# Bulk Modulus (GPa) = 27.48053 51.56595 39.52324
# Shear Modulus (GPa) = 21.94288 28.62503 25.28395
#
# Velocity S-wave (km/s) = 3.31303 3.78401 3.55633
# Velocity P-wave (km/s) = 5.32740 6.69968 6.05256
#
# Compressibility (1/GPa) = 0.03638940
#
# Stress axis : x y z
#
# Youngs Moduli (GPa) = 99.92561 23.45100 74.77604
#
# Poissons Ratio (x) = -0.07114 0.35161
# Poissons Ratio (y) = -0.30312 0.98315
# Poissons Ratio (z) = 0.46987 0.30833
#
# Static dielectric constant tensor:
#      x y z
#    x 1.754700 0.000000 0.000000 
#    y 0.000000 1.661470 0.000000 
#    z 0.000000 0.000000 1.696210 
# 
# From -- ./inp_files/23027.got.cif
#   From: 2010.05.17/outbox.cif.g08.bks.cpg/sg49_12_cif.got.tgz:23027.got - 2010.06.03 21:02:19.
