data_PCOD9393962
_publ_section_title
;
Structure prediction by ZEFSAII (Michael W. Deem and Ramdas Pophale) SiO2 
 PCOD9393962
Probable space group: P C C M
;
_chemical_formula_sum "Si O2"
_cell_formula_units_Z 48
_cell_length_a 30.946301
_cell_length_b 9.701509
_cell_length_c 8.574037
_cell_angle_alpha 90.000000
_cell_angle_beta 90.000000
_cell_angle_gamma 90.000000
_cell_volume 2574.147269
_symmetry_space_group_name_H-M "P C C M"
_symmetry_group_IT_number 49
_symmetry_cell_setting 'orthorhombic'
loop_
_space_group_symop_operation_xyz
x,y,z
-x,-y,z
x,-y,1/2-z
-x,y,1/2-z
-x,-y,-z
x,y,-z
-x,y,1/2+z
x,-y,1/2+z
loop_
_atom_site_type_symbol
_atom_site_label
_atom_site_fract_x
_atom_site_fract_y
_atom_site_fract_z
Si Si1 0.951727 0.848903 0.686841
Si Si2 0.373483 0.654346 0.312032
Si Si3 0.294304 0.151877 0.812008
Si Si4 0.547400 0.153266 0.687569
Si Si5 0.123063 0.654939 0.313486
Si Si6 0.198653 0.153264 0.686683
O O1 0.952151 0.851807 0.500000
O O2 0.918494 0.735918 0.748228
O O3 0.000000 0.822624 0.750000
O O4 0.938648 0.000000 0.750000
O O5 0.373575 0.500000 0.250000
O O6 0.373912 0.650592 0.500000
O O7 0.330663 0.738619 0.265127
O O8 0.415716 0.740234 0.261769
O O9 0.247289 0.185364 0.742783
O O10 0.306274 0.000000 0.750000
O O11 0.291380 0.146979 0.000000
O O12 0.500000 0.191673 0.750000
O O13 0.546208 0.148243 0.500000
O O14 0.557235 0.000000 0.750000
O O15 0.123865 0.500000 0.250000
O O16 0.121997 0.654431 0.500000
O O17 0.164841 0.738400 0.254484
O O18 0.188385 0.000000 0.750000
O O19 0.196700 0.848021 0.000000
#
# Coordination Sequence:
#
# PCOD9393962 Si02
#       6
#     8   8   8   8   8   8
#     4  11  22  40  64  92 121 156 198 244 291 342
#     4  10  23  38  55  80 113 148 186 227 278 336
#     4  10  20  37  59  85 112 145 188 236 282 335
#     4  10  20  36  57  83 109 142 184 230 277 330
#     4  12  25  42  61  87 120 157 196 240 291 348
#     4  11  22  39  62  89 117 152 193 239 287 339
#
# _framework density 18.646951999999999
#
# number of rings (size 3 to 8) (size 9 to 14) (size 15 to 20)
#    0.000    1.333    0.000    8.500    0.000    4.000 
#    0.000    5.000    0.000    0.000    0.000    0.000 
#    0.000    0.000    0.000    0.000    0.000    0.000 
#
# Total GULP energy -268444.467557 kJ/mol
# GULP energy per Si atom -5592.593074 kJ/mol
# Density = 1.860451 g / cm^3
# Si number density = 18.646952 Si / 1000 Ang^3
#
#
#
# Elastic Constant Matrix: (Units=GPa)
#
#
# Indices 1 2 3 4 5 6 
#
# 1 141.7932 140.9019 64.7162 0.0000 0.0000 0.0000
# 2 140.9019 181.2877 71.4379 0.0000 0.0000 0.0000
# 3 64.7162 71.4379 151.8178 0.0000 0.0000 0.0000
# 4 0.0000 0.0000 0.0000 37.1395 0.0000 0.0000
# 5 0.0000 0.0000 0.0000 0.0000 29.2079 0.0000
# 6 0.0000 0.0000 0.0000 0.0000 0.0000 -59.6433
#
#
#
# Elastic Compliance Matrix: (Units=1/GPa)
#
#
# Indices 1 2 3 4 5 6 
#
# 1 0.031649 -0.023671 -0.002353 0.000000 0.000000 0.000000
# 2 -0.023671 0.024476 -0.001427 0.000000 0.000000 0.000000
# 3 -0.002353 -0.001427 0.008261 0.000000 0.000000 0.000000
# 4 0.000000 0.000000 0.000000 0.026926 0.000000 0.000000
# 5 0.000000 0.000000 0.000000 0.000000 0.034237 0.000000
# 6 0.000000 0.000000 0.000000 0.000000 0.000000 -0.016766
#
#
# Mechanical properties :
#
#
# Convention : Reuss Voigt Hill
#
# Bulk Modulus (GPa) = 105.43196 114.33452 109.88324
# Shear Modulus (GPa) = 29.96794 14.53033 22.24914
#
# Velocity S-wave (km/s) = 4.01324 2.79450 3.45799
# Velocity P-wave (km/s) = 8.83961 8.47708 8.66024
#
# Compressibility (1/GPa) = 0.00948479
#
# Stress axis : x y z
#
# Youngs Moduli (GPa) = 31.59704 40.85606 121.04923
#
# Poissons Ratio (x) = 0.96711 0.28478
# Poissons Ratio (y) = 0.74794 0.17272
# Poissons Ratio (z) = 0.07433 0.05830
#
# Static dielectric constant tensor:
#      x y z
#    x 1.634500 0.000000 0.000000 
#    y 0.000000 1.607110 0.000000 
#    z 0.000000 0.000000 1.627510 
# 
# From -- ./inp_files/2044.got.cif
#   From: 2010.05.17/outbox.cif.g08.bks.cpg/sg49_2_cif.got.tgz:2044.got - 2010.06.03 21:02:19.
