data_PCOD9393574
_publ_section_title
;
Structure prediction by ZEFSAII (Michael W. Deem and Ramdas Pophale) SiO2 
 PCOD9393574
Probable space group: P C C M
;
_chemical_formula_sum "Si O2"
_cell_formula_units_Z 64
_cell_length_a 18.514019
_cell_length_b 23.642721
_cell_length_c 8.545860
_cell_angle_alpha 90.000000
_cell_angle_beta 90.000000
_cell_angle_gamma 90.000000
_cell_volume 3740.709100
_symmetry_space_group_name_H-M "P C C M"
_symmetry_group_IT_number 49
_symmetry_cell_setting 'orthorhombic'
loop_
_space_group_symop_operation_xyz
x,y,z
-x,-y,z
x,-y,1/2-z
-x,y,1/2-z
-x,-y,-z
x,y,-z
-x,y,1/2+z
x,-y,1/2+z
loop_
_atom_site_type_symbol
_atom_site_label
_atom_site_fract_x
_atom_site_fract_y
_atom_site_fract_z
Si Si1 0.917525 0.058277 0.812637
Si Si2 0.210147 0.750771 0.687435
Si Si3 0.577830 0.936805 0.685155
Si Si4 0.670384 0.842088 0.817225
Si Si5 0.574439 0.751276 0.318444
Si Si6 0.678787 0.659227 0.188319
Si Si7 0.918793 0.183017 0.186759
Si Si8 0.420873 0.564296 0.811115
O O1 0.888969 0.120328 0.764129
O O2 0.000000 0.058630 0.750000
O O3 0.883201 0.000000 0.750000
O O4 0.918495 0.055208 0.000000
O O5 0.207530 0.755377 0.500000
O O6 0.265167 0.801100 0.742343
O O7 0.242750 0.688197 0.720321
O O8 0.133267 0.767558 0.755555
O O9 0.500000 0.915411 0.750000
O O10 0.571929 0.938010 0.500000
O O11 0.646891 0.899370 0.733454
O O12 0.586368 0.000000 0.750000
O O13 0.600751 0.802848 0.787739
O O14 0.681870 0.852710 0.000000
O O15 0.500000 0.730770 0.250000
O O16 0.571342 0.767419 0.500000
O O17 0.629464 0.701134 0.288749
O O18 0.647439 0.598938 0.241603
O O19 0.667406 0.665012 0.000000
O O20 0.000000 0.188594 0.250000
O O21 0.921516 0.182988 0.000000
O O22 0.415889 0.500000 0.750000
O O23 0.500000 0.585611 0.750000
O O24 0.420690 0.566494 0.000000
#
# Coordination Sequence:
#
# PCOD9393574 Si02
#       8
#     8   8   8   8   8   8   8   8
#     4   9  16  26  42  66  91 119 149 186 230 281
#     4   9  20  36  54  73  98 129 162 202 251 300
#     4  11  21  34  51  70  91 119 156 201 249 300
#     4  10  20  35  50  67  91 120 153 195 245 297
#     4  11  20  30  45  67  92 122 159 199 240 286
#     4  10  20  35  51  71 100 134 169 209 253 298
#     4  10  20  33  52  75 101 129 164 205 252 309
#     4  11  21  34  52  76 107 145 185 224 259 296
#
# _framework density 17.109055999999999
#
# number of rings (size 3 to 8) (size 9 to 14) (size 15 to 20)
#    0.000    1.875    0.000    7.500    0.000    4.500 
#    0.000    0.625    0.000    1.500    0.000    0.000 
#    0.000    0.500    0.000    5.250    0.000    2.250 
#
# Total GULP energy -356502.398346 kJ/mol
# GULP energy per Si atom -5570.349974 kJ/mol
# Density = 1.707012 g / cm^3
# Si number density = 17.109056 Si / 1000 Ang^3
#
#
#
# Elastic Constant Matrix: (Units=GPa)
#
#
# Indices 1 2 3 4 5 6 
#
# 1 62.4911 43.0835 26.6830 0.0000 0.0000 0.0000
# 2 43.0835 77.2483 13.6663 0.0000 0.0000 0.0000
# 3 26.6830 13.6663 64.0664 0.0000 0.0000 0.0000
# 4 0.0000 0.0000 0.0000 26.8073 0.0000 0.0000
# 5 0.0000 0.0000 0.0000 0.0000 11.8884 0.0000
# 6 0.0000 0.0000 0.0000 0.0000 0.0000 25.8896
#
#
#
# Elastic Compliance Matrix: (Units=1/GPa)
#
#
# Indices 1 2 3 4 5 6 
#
# 1 0.030704 -0.015445 -0.009493 0.000000 0.000000 0.000000
# 2 -0.015445 0.021222 0.001906 0.000000 0.000000 0.000000
# 3 -0.009493 0.001906 0.019156 0.000000 0.000000 0.000000
# 4 0.000000 0.000000 0.000000 0.037303 0.000000 0.000000
# 5 0.000000 0.000000 0.000000 0.000000 0.084116 0.000000
# 6 0.000000 0.000000 0.000000 0.000000 0.000000 0.038626
#
#
# Mechanical properties :
#
#
# Convention : Reuss Voigt Hill
#
# Bulk Modulus (GPa) = 39.97248 41.18572 40.57910
# Shear Modulus (GPa) = 17.51119 20.94192 19.22656
#
# Velocity S-wave (km/s) = 3.20270 3.50240 3.35590
# Velocity P-wave (km/s) = 6.09019 6.36243 6.22780
#
# Compressibility (1/GPa) = 0.02501721
#
# Stress axis : x y z
#
# Youngs Moduli (GPa) = 32.56888 47.12031 52.20260
#
# Poissons Ratio (x) = 0.72778 0.49557
# Poissons Ratio (y) = 0.50303 -0.09948
# Poissons Ratio (z) = 0.30919 -0.08980
#
# Static dielectric constant tensor:
#      x y z
#    x 1.562190 0.000000 0.000000 
#    y 0.000000 1.642290 0.000000 
#    z 0.000000 0.000000 1.572100 
# 
# From -- ./inp_files/6136.got.cif
#   From: 2010.05.17/outbox.cif.g08.bks.cpg/sg49_4_cif.got.tgz:6136.got - 2010.06.03 21:02:19.
