data_PCOD9393288
_publ_section_title
;
Structure prediction by ZEFSAII (Michael W. Deem and Ramdas Pophale) SiO2 
 PCOD9393288
Probable space group: P C C M
;
_chemical_formula_sum "Si O2"
_cell_formula_units_Z 48
_cell_length_a 8.915011
_cell_length_b 30.315973
_cell_length_c 9.642230
_cell_angle_alpha 90.000000
_cell_angle_beta 90.000000
_cell_angle_gamma 90.000000
_cell_volume 2605.978820
_symmetry_space_group_name_H-M "P C C M"
_symmetry_group_IT_number 49
_symmetry_cell_setting 'orthorhombic'
loop_
_space_group_symop_operation_xyz
x,y,z
-x,-y,z
x,-y,1/2-z
-x,y,1/2-z
-x,-y,-z
x,y,-z
-x,y,1/2+z
x,-y,1/2+z
loop_
_atom_site_type_symbol
_atom_site_label
_atom_site_fract_x
_atom_site_fract_y
_atom_site_fract_z
Si Si1 0.658377 0.539895 0.665847
Si Si2 0.177645 0.047083 0.000000
Si Si3 0.848571 0.288525 0.664700
Si Si4 0.350475 0.799643 0.661771
Si Si5 0.658167 0.639964 0.666677
Si Si6 0.813300 0.053042 0.000000
Si Si7 0.180733 0.112229 0.244018
O O1 0.737718 0.500000 0.750000
O O2 0.500000 0.543331 0.750000
O O3 0.641712 0.530228 0.500000
O O4 0.719562 0.589630 0.675246
O O5 0.220549 0.077236 0.126928
O O6 0.994946 0.046786 0.000000
O O7 0.239583 0.997512 0.000000
O O8 0.872382 0.299154 0.500000
O O9 0.748086 0.244542 0.669760
O O10 0.764579 0.326899 0.750175
O O11 0.000000 0.279994 0.750000
O O12 0.500000 0.793749 0.750000
O O13 0.385333 0.807754 0.500000
O O14 0.258878 0.841343 0.719841
O O15 0.500000 0.641863 0.750000
O O16 0.640491 0.649889 0.500000
O O17 0.770914 0.084286 0.875126
O O18 0.000000 0.118916 0.250000
#
# Coordination Sequence:
#
# PCOD9393288 Si02
#       7
#     8   4   8   8   8   4   8
#     4   9  16  26  45  75 113 153 196 239 284 333
#     4   9  16  32  53  83 121 145 183 233 272 323
#     4  11  24  42  63  87 113 146 189 238 292 352
#     4  11  25  42  60  83 113 148 186 230 282 339
#     4  10  20  35  56  86 121 158 197 242 292 343
#     4   9  18  28  55  89 111 149 187 225 278 323
#     4  10  19  35  57  85 116 146 186 233 277 328
#
# _framework density 18.419183
#
# number of rings (size 3 to 8) (size 9 to 14) (size 15 to 20)
#    0.000    2.000    0.833    3.500    1.167    6.667 
#    0.000    0.000    0.000    3.500    0.000    3.500 
#    0.000    0.000    0.000    0.000    0.000    0.000 
#
# Total GULP energy -267302.540741 kJ/mol
# GULP energy per Si atom -5568.802932 kJ/mol
# Density = 1.837726 g / cm^3
# Si number density = 18.419183 Si / 1000 Ang^3
#
#
#
# Elastic Constant Matrix: (Units=GPa)
#
#
# Indices 1 2 3 4 5 6 
#
# 1 59.9907 40.0251 49.4760 0.0000 0.0000 0.0000
# 2 40.0251 144.3099 89.1983 0.0000 0.0000 0.0000
# 3 49.4760 89.1983 201.9432 0.0000 0.0000 0.0000
# 4 0.0000 0.0000 0.0000 41.2062 0.0000 0.0000
# 5 0.0000 0.0000 0.0000 0.0000 16.8941 0.0000
# 6 0.0000 0.0000 0.0000 0.0000 0.0000 26.8470
#
#
#
# Elastic Compliance Matrix: (Units=1/GPa)
#
#
# Indices 1 2 3 4 5 6 
#
# 1 0.022361 -0.003873 -0.003768 0.000000 0.000000 0.000000
# 2 -0.003873 0.010203 -0.003558 0.000000 0.000000 0.000000
# 3 -0.003768 -0.003558 0.007446 0.000000 0.000000 0.000000
# 4 0.000000 0.000000 0.000000 0.024268 0.000000 0.000000
# 5 0.000000 0.000000 0.000000 0.000000 0.059192 0.000000
# 6 0.000000 0.000000 0.000000 0.000000 0.000000 0.037248
#
#
# Mechanical properties :
#
#
# Convention : Reuss Voigt Hill
#
# Bulk Modulus (GPa) = 56.77611 84.84918 70.81265
# Shear Modulus (GPa) = 26.45702 32.15909 29.30805
#
# Velocity S-wave (km/s) = 3.79408 4.18300 3.99327
# Velocity P-wave (km/s) = 7.07706 8.33640 7.73241
#
# Compressibility (1/GPa) = 0.01761304
#
# Stress axis : x y z
#
# Youngs Moduli (GPa) = 44.72160 98.01295 134.29375
#
# Poissons Ratio (x) = 0.37961 0.50597
# Poissons Ratio (y) = 0.17321 0.47777
# Poissons Ratio (z) = 0.16849 0.34870
#
# Static dielectric constant tensor:
#      x y z
#    x 1.636760 0.000000 0.000000 
#    y 0.000000 1.636010 0.000000 
#    z 0.000000 0.000000 1.602870 
# 
# From -- ./inp_files/2176.got.cif
#   From: 2010.05.17/outbox.cif.g08.bks.cpg/sg49_2_cif.got.tgz:2176.got - 2010.06.03 21:02:19.
