data_PCOD9393388
_publ_section_title
;
Structure prediction by ZEFSAII (Michael W. Deem and Ramdas Pophale) SiO2 
 PCOD9393388
Probable space group: P C C M
;
_chemical_formula_sum "Si O2"
_cell_formula_units_Z 64
_cell_length_a 15.655047
_cell_length_b 11.584478
_cell_length_c 18.105371
_cell_angle_alpha 90.000000
_cell_angle_beta 90.000000
_cell_angle_gamma 90.000000
_cell_volume 3283.509471
_symmetry_space_group_name_H-M "P C C M"
_symmetry_group_IT_number 49
_symmetry_cell_setting 'orthorhombic'
loop_
_space_group_symop_operation_xyz
x,y,z
-x,-y,z
x,-y,1/2-z
-x,y,1/2-z
-x,-y,-z
x,y,-z
-x,y,1/2+z
x,-y,1/2+z
loop_
_atom_site_type_symbol
_atom_site_label
_atom_site_fract_x
_atom_site_fract_y
_atom_site_fract_z
Si Si1 0.815537 0.800903 0.152690
Si Si2 0.010185 0.862486 0.580933
Si Si3 0.469793 0.371834 0.834604
Si Si4 0.581760 0.815660 0.584772
Si Si5 0.749424 0.654131 0.416911
Si Si6 0.724371 0.567206 0.171533
Si Si7 0.148940 0.177789 0.677640
Si Si8 0.699102 0.996347 0.338185
O O1 0.792708 0.667121 0.159342
O O2 0.847230 0.835439 0.234821
O O3 0.730768 0.877385 0.136727
O O4 0.892989 0.828031 0.098346
O O5 0.984630 0.816922 0.500000
O O6 0.944943 0.826778 0.644626
O O7 0.000000 0.000000 0.578620
O O8 0.500000 0.500000 0.862897
O O9 0.500000 0.364917 0.750000
O O10 0.508719 0.261139 0.876359
O O11 0.368211 0.374326 0.831755
O O12 0.559396 0.841227 0.500000
O O13 0.662710 0.728306 0.585831
O O14 0.619444 0.930875 0.624022
O O15 0.784215 0.664515 0.500000
O O16 0.729642 0.524785 0.393897
O O17 0.810184 0.705532 0.353966
O O18 0.731566 0.500000 0.250000
O O19 0.214864 0.080168 0.648039
O O20 0.683252 0.000000 0.250000
#
# Coordination Sequence:
#
# PCOD9393388 Si02
#       8
#     8   8   8   8   8   8   8   8
#     4  11  23  38  65  91 123 165 213 263 315 381
#     4  11  23  39  60  93 128 159 205 259 317 377
#     4  11  21  35  62  94 124 164 219 270 316 374
#     4  10  21  38  61  93 129 165 210 265 325 385
#     4  10  20  35  60  90 120 160 203 250 319 383
#     4  12  22  40  62  91 127 164 210 268 319 379
#     4  10  19  37  63  88 119 156 204 263 311 365
#     4   9  20  35  60  93 122 160 212 259 315 379
#
# _framework density 19.491340000000001
#
# number of rings (size 3 to 8) (size 9 to 14) (size 15 to 20)
#    0.000    1.500    5.000    0.750    3.500    2.750 
#    0.000    1.250    0.000    2.250    0.000    0.000 
#    0.000    0.000    0.000    0.000    0.000    0.000 
#
# Total GULP energy -357048.022930 kJ/mol
# GULP energy per Si atom -5578.875358 kJ/mol
# Density = 1.944698 g / cm^3
# Si number density = 19.491340 Si / 1000 Ang^3
#
#
#
# Elastic Constant Matrix: (Units=GPa)
#
#
# Indices 1 2 3 4 5 6 
#
# 1 54.5933 34.5988 20.2085 0.0000 0.0000 0.0000
# 2 34.5988 79.2754 34.2115 0.0000 0.0000 0.0000
# 3 20.2085 34.2115 65.8400 0.0000 0.0000 0.0000
# 4 0.0000 0.0000 0.0000 17.0225 0.0000 0.0000
# 5 0.0000 0.0000 0.0000 0.0000 23.5768 0.0000
# 6 0.0000 0.0000 0.0000 0.0000 0.0000 54.6035
#
#
#
# Elastic Compliance Matrix: (Units=1/GPa)
#
#
# Indices 1 2 3 4 5 6 
#
# 1 0.025675 -0.010061 -0.002653 0.000000 0.000000 0.000000
# 2 -0.010061 0.020203 -0.007410 0.000000 0.000000 0.000000
# 3 -0.002653 -0.007410 0.019853 0.000000 0.000000 0.000000
# 4 0.000000 0.000000 0.000000 0.058746 0.000000 0.000000
# 5 0.000000 0.000000 0.000000 0.000000 0.042415 0.000000
# 6 0.000000 0.000000 0.000000 0.000000 0.000000 0.018314
#
#
# Mechanical properties :
#
#
# Convention : Reuss Voigt Hill
#
# Bulk Modulus (GPa) = 39.24003 41.97181 40.60592
# Shear Modulus (GPa) = 21.37237 26.41989 23.89613
#
# Velocity S-wave (km/s) = 3.31495 3.68566 3.50521
# Velocity P-wave (km/s) = 5.90149 6.30019 6.10410
#
# Compressibility (1/GPa) = 0.02548418
#
# Stress axis : x y z
#
# Youngs Moduli (GPa) = 38.94784 49.49785 50.37075
#
# Poissons Ratio (x) = 0.49799 0.13363
# Poissons Ratio (y) = 0.39185 0.37323
# Poissons Ratio (z) = 0.10332 0.36677
#
# Static dielectric constant tensor:
#      x y z
#    x 1.690300 0.000000 0.000000 
#    y 0.000000 1.708960 0.000000 
#    z 0.000000 0.000000 1.505070 
# 
# From -- ./inp_files/17989.got.cif
#   From: 2010.05.17/outbox.cif.g08.bks.cpg/sg49_9_cif.got.tgz:17989.got - 2010.06.03 21:02:19.
