data_PCOD9393142
_publ_section_title
;
Structure prediction by ZEFSAII (Michael W. Deem and Ramdas Pophale) SiO2 
 PCOD9393142
Probable space group: P C C M
;
_chemical_formula_sum "Si O2"
_cell_formula_units_Z 64
_cell_length_a 21.127525
_cell_length_b 20.058784
_cell_length_c 8.766318
_cell_angle_alpha 90.000000
_cell_angle_beta 90.000000
_cell_angle_gamma 90.000000
_cell_volume 3715.099474
_symmetry_space_group_name_H-M "P C C M"
_symmetry_group_IT_number 49
_symmetry_cell_setting 'orthorhombic'
loop_
_space_group_symop_operation_xyz
x,y,z
-x,-y,z
x,-y,1/2-z
-x,y,1/2-z
-x,-y,-z
x,y,-z
-x,y,1/2+z
x,-y,1/2+z
loop_
_atom_site_type_symbol
_atom_site_label
_atom_site_fract_x
_atom_site_fract_y
_atom_site_fract_z
Si Si1 0.612979 0.429072 0.182356
Si Si2 0.190187 0.293643 0.815994
Si Si3 0.932688 0.789196 0.183620
Si Si4 0.565792 0.708070 0.182466
Si Si5 0.762613 0.570658 0.681784
Si Si6 0.311928 0.795852 0.316165
Si Si7 0.875806 0.069882 0.316450
Si Si8 0.265796 0.929960 0.817874
O O1 0.591793 0.500000 0.250000
O O2 0.578101 0.365740 0.252285
O O3 0.687859 0.421526 0.220999
O O4 0.606322 0.429676 0.000000
O O5 0.125564 0.257579 0.767214
O O6 0.200297 0.366526 0.747857
O O7 0.250310 0.247826 0.773004
O O8 0.190184 0.298127 0.000000
O O9 0.916076 0.865406 0.227532
O O10 0.000000 0.769131 0.250000
O O11 0.935057 0.787145 0.000000
O O12 0.500000 0.733682 0.250000
O O13 0.625260 0.754692 0.223953
O O14 0.562456 0.704575 0.000000
O O15 0.783618 0.500000 0.750000
O O16 0.767633 0.569002 0.500000
O O17 0.310280 0.804868 0.500000
O O18 0.306335 0.866988 0.235963
O O19 0.872242 0.066156 0.500000
O O20 0.804856 0.079090 0.251416
O O21 0.900308 0.000000 0.250000
O O22 0.289661 0.000000 0.750000
O O23 0.261795 0.933795 0.000000
#
# Coordination Sequence:
#
# PCOD9393142 Si02
#       8
#     8   8   8   8   8   8   8   8
#     4  10  20  34  53  79 112 147 187 226 267 323
#     4  10  19  36  58  80 109 144 182 226 274 323
#     4  10  22  37  54  76 109 147 183 226 273 325
#     4  11  23  38  57  80 111 149 183 226 275 325
#     4  10  20  33  54  84 113 142 179 226 273 324
#     4  10  20  37  59  81 110 145 183 225 275 324
#     4  10  19  34  52  76 109 147 186 224 269 321
#     4  11  21  33  55  84 113 143 180 228 275 323
#
# _framework density 17.226994999999999
#
# number of rings (size 3 to 8) (size 9 to 14) (size 15 to 20)
#    0.000    1.750    2.500    3.375    0.000    4.500 
#    0.000    2.500    0.000    0.750    0.000    5.250 
#    0.000    0.000    0.000    0.000    0.000    0.000 
#
# Total GULP energy -357476.813248 kJ/mol
# GULP energy per Si atom -5585.575207 kJ/mol
# Density = 1.718779 g / cm^3
# Si number density = 17.226995 Si / 1000 Ang^3
#
#
#
# Elastic Constant Matrix: (Units=GPa)
#
#
# Indices 1 2 3 4 5 6 
#
# 1 112.9796 66.6811 37.4663 0.0000 0.0000 0.0000
# 2 66.6811 130.5137 40.6935 0.0000 0.0000 0.0000
# 3 37.4663 40.6935 44.0458 0.0000 0.0000 0.0000
# 4 0.0000 0.0000 0.0000 32.6924 0.0000 0.0000
# 5 0.0000 0.0000 0.0000 0.0000 25.9074 0.0000
# 6 0.0000 0.0000 0.0000 0.0000 0.0000 20.7470
#
#
#
# Elastic Compliance Matrix: (Units=1/GPa)
#
#
# Indices 1 2 3 4 5 6 
#
# 1 0.014277 -0.004927 -0.007592 0.000000 0.000000 0.000000
# 2 -0.004927 0.012463 -0.007323 0.000000 0.000000 0.000000
# 3 -0.007592 -0.007323 0.035927 0.000000 0.000000 0.000000
# 4 0.000000 0.000000 0.000000 0.030588 0.000000 0.000000
# 5 0.000000 0.000000 0.000000 0.000000 0.038599 0.000000
# 6 0.000000 0.000000 0.000000 0.000000 0.000000 0.048200
#
#
# Mechanical properties :
#
#
# Convention : Reuss Voigt Hill
#
# Bulk Modulus (GPa) = 43.51157 64.13565 53.82361
# Shear Modulus (GPa) = 21.98778 25.38256 23.68517
#
# Velocity S-wave (km/s) = 3.57649 3.84268 3.71197
# Velocity P-wave (km/s) = 6.50904 7.54975 7.04863
#
# Compressibility (1/GPa) = 0.02298239
#
# Stress axis : x y z
#
# Youngs Moduli (GPa) = 70.04365 80.24002 27.83389
#
# Poissons Ratio (x) = 0.39534 0.21132
# Poissons Ratio (y) = 0.34511 0.20383
# Poissons Ratio (z) = 0.53178 0.58760
#
# Static dielectric constant tensor:
#      x y z
#    x 1.579640 0.000000 0.000000 
#    y 0.000000 1.574220 0.000000 
#    z 0.000000 0.000000 1.574950 
# 
# From -- ./inp_files/5262.got.cif
#   From: 2010.05.17/outbox.cif.g08.bks.cpg/sg49_3_cif.got.tgz:5262.got - 2010.06.03 21:02:19.
