data_PCOD9393071
_publ_section_title
;
Structure prediction by ZEFSAII (Michael W. Deem and Ramdas Pophale) SiO2 
 PCOD9393071
Probable space group: P C C M
;
_chemical_formula_sum "Si O2"
_cell_formula_units_Z 56
_cell_length_a 14.161279
_cell_length_b 23.860774
_cell_length_c 8.895941
_cell_angle_alpha 90.000000
_cell_angle_beta 90.000000
_cell_angle_gamma 90.000000
_cell_volume 3005.930260
_symmetry_space_group_name_H-M "P C C M"
_symmetry_group_IT_number 49
_symmetry_cell_setting 'orthorhombic'
loop_
_space_group_symop_operation_xyz
x,y,z
-x,-y,z
x,-y,1/2-z
-x,y,1/2-z
-x,-y,-z
x,y,-z
-x,y,1/2+z
x,-y,1/2+z
loop_
_atom_site_type_symbol
_atom_site_label
_atom_site_fract_x
_atom_site_fract_y
_atom_site_fract_z
Si Si1 0.907683 0.937740 0.178751
Si Si2 0.304358 0.938061 0.679662
Si Si3 0.274338 0.269658 0.679215
Si Si4 0.396434 0.380160 0.320308
Si Si5 0.102609 0.669494 0.320903
Si Si6 0.220995 0.558922 0.319854
Si Si7 0.401252 0.834040 0.180144
O O1 0.802664 0.915647 0.209432
O O2 0.000000 0.909038 0.250000
O O3 0.904891 0.000000 0.250000
O O4 0.920165 0.941760 0.000000
O O5 0.316669 0.941521 0.500000
O O6 0.375240 0.894434 0.753468
O O7 0.313163 0.000000 0.750000
O O8 0.257399 0.270050 0.500000
O O9 0.350261 0.319055 0.710539
O O10 0.178015 0.285262 0.762042
O O11 0.320792 0.210814 0.721646
O O12 0.500000 0.384509 0.250000
O O13 0.400627 0.387837 0.500000
O O14 0.322392 0.423521 0.248077
O O15 0.096020 0.672617 0.500000
O O16 0.148608 0.609048 0.280716
O O17 0.000000 0.676002 0.250000
O O18 0.191140 0.500000 0.250000
O O19 0.227335 0.555302 0.500000
O O20 0.500000 0.815057 0.250000
O O21 0.407949 0.836308 0.000000
#
# Coordination Sequence:
#
# PCOD9393071 Si02
#       7
#     8   8   8   8   8   8   8
#     4   9  16  27  47  73 101 133 170 210 253 302
#     4  10  21  37  56  81 113 149 188 230 275 327
#     4   9  20  38  59  83 111 142 180 226 277 331
#     4  10  19  33  54  79 108 143 183 230 281 334
#     4  10  21  37  60  86 114 148 186 229 278 330
#     4  10  21  36  53  78 111 149 191 234 278 327
#     4  11  23  39  60  85 112 144 181 225 275 331
#
# _framework density 18.629840000000002
#
# number of rings (size 3 to 8) (size 9 to 14) (size 15 to 20)
#    0.000    2.143    0.000    3.429    0.000    6.000 
#    0.000    5.000    0.000    1.714    0.000    0.000 
#    0.000    0.000    0.000    0.000    0.000    0.000 
#
# Total GULP energy -312585.397289 kJ/mol
# GULP energy per Si atom -5581.882094 kJ/mol
# Density = 1.858744 g / cm^3
# Si number density = 18.629840 Si / 1000 Ang^3
#
#
#
# Elastic Constant Matrix: (Units=GPa)
#
#
# Indices 1 2 3 4 5 6 
#
# 1 142.5100 47.8154 59.0913 0.0000 0.0000 0.0000
# 2 47.8154 88.2389 39.2237 0.0000 0.0000 0.0000
# 3 59.0913 39.2237 68.0906 0.0000 0.0000 0.0000
# 4 0.0000 0.0000 0.0000 16.0564 0.0000 0.0000
# 5 0.0000 0.0000 0.0000 0.0000 33.9765 0.0000
# 6 0.0000 0.0000 0.0000 0.0000 0.0000 12.5378
#
#
#
# Elastic Compliance Matrix: (Units=1/GPa)
#
#
# Indices 1 2 3 4 5 6 
#
# 1 0.011320 -0.002376 -0.008456 0.000000 0.000000 0.000000
# 2 -0.002376 0.015732 -0.007001 0.000000 0.000000 0.000000
# 3 -0.008456 -0.007001 0.026057 0.000000 0.000000 0.000000
# 4 0.000000 0.000000 0.000000 0.062280 0.000000 0.000000
# 5 0.000000 0.000000 0.000000 0.000000 0.029432 0.000000
# 6 0.000000 0.000000 0.000000 0.000000 0.000000 0.079759
#
#
# Mechanical properties :
#
#
# Convention : Reuss Voigt Hill
#
# Bulk Modulus (GPa) = 57.32162 65.67781 61.49971
# Shear Modulus (GPa) = 18.79273 22.69476 20.74374
#
# Velocity S-wave (km/s) = 3.17952 3.49405 3.34049
# Velocity P-wave (km/s) = 6.65692 7.18390 6.92543
#
# Compressibility (1/GPa) = 0.01744542
#
# Stress axis : x y z
#
# Youngs Moduli (GPa) = 88.33764 63.56384 38.37699
#
# Poissons Ratio (x) = 0.15100 0.32450
# Poissons Ratio (y) = 0.20985 0.26868
# Poissons Ratio (z) = 0.74695 0.44501
#
# Static dielectric constant tensor:
#      x y z
#    x 1.656200 0.000000 0.000000 
#    y 0.000000 1.634210 0.000000 
#    z 0.000000 0.000000 1.617310 
# 
# From -- ./inp_files/4083.got.cif
#   From: 2010.05.17/outbox.cif.g08.bks.cpg/sg49_3_cif.got.tgz:4083.got - 2010.06.03 21:02:19.
