data_PCOD9393817
_publ_section_title
;
Structure prediction by ZEFSAII (Michael W. Deem and Ramdas Pophale) SiO2 
 PCOD9393817
Probable space group: P C C M
;
_chemical_formula_sum "Si O2"
_cell_formula_units_Z 30
_cell_length_a 5.553501
_cell_length_b 8.960304
_cell_length_c 31.747176
_cell_angle_alpha 90.000000
_cell_angle_beta 90.000000
_cell_angle_gamma 90.000000
_cell_volume 1579.773042
_symmetry_space_group_name_H-M "P C C M"
_symmetry_group_IT_number 49
_symmetry_cell_setting 'orthorhombic'
loop_
_space_group_symop_operation_xyz
x,y,z
-x,-y,z
x,-y,1/2-z
-x,y,1/2-z
-x,-y,-z
x,y,-z
-x,y,1/2+z
x,-y,1/2+z
loop_
_atom_site_type_symbol
_atom_site_label
_atom_site_fract_x
_atom_site_fract_y
_atom_site_fract_z
Si Si1 0.131797 0.161984 0.864852
Si Si2 0.172333 0.258729 0.289880
Si Si3 0.500000 0.500000 0.250000
Si Si4 0.500000 0.000000 0.310333
Si Si5 0.749639 0.904163 0.953049
O O1 0.370633 0.123480 0.839062
O O2 0.204091 0.201104 0.912578
O O3 0.966319 0.262104 0.834584
O O4 0.000000 0.000000 0.867483
O O5 0.349376 0.394122 0.280868
O O6 0.305417 0.099510 0.286974
O O7 0.000000 0.264734 0.250000
O O8 0.500000 0.000000 0.945488
O O9 0.720255 0.837531 0.000000
O O10 0.000000 0.000000 0.955140
#
# Coordination Sequence:
#
# PCOD9393817 Si02
#       5
#     8   8   2   4   8
#     4   9  18  31  50  78 109 144 185 228 283 343
#     4  11  24  38  55  77 107 145 192 238 294 344
#     4  12  26  42  52  70 106 150 194 248 288 352
#     4  10  20  35  55  80 106 138 179 232 282 349
#     4   9  16  28  48  78 118 154 185 229 288 348
#
# _framework density 18.990069999999999
#
# number of rings (size 3 to 8) (size 9 to 14) (size 15 to 20)
#    0.000    2.133    1.333    2.000    0.000   12.800 
#    0.000    0.000    0.000    0.000    0.000    0.933 
#    0.000   10.667    0.000    1.600    0.000    2.933 
#
# Total GULP energy -167028.340649 kJ/mol
# GULP energy per Si atom -5567.611355 kJ/mol
# Density = 1.894685 g / cm^3
# Si number density = 18.990070 Si / 1000 Ang^3
#
#
#
# Elastic Constant Matrix: (Units=GPa)
#
#
# Indices 1 2 3 4 5 6 
#
# 1 99.9813 25.7396 55.9748 0.0000 0.0000 0.0000
# 2 25.7396 44.2614 59.2491 0.0000 0.0000 0.0000
# 3 55.9748 59.2491 182.8631 0.0000 0.0000 0.0000
# 4 0.0000 0.0000 0.0000 -6.2270 0.0000 0.0000
# 5 0.0000 0.0000 0.0000 0.0000 -6.7566 0.0000
# 6 0.0000 0.0000 0.0000 0.0000 0.0000 21.3215
#
#
#
# Elastic Compliance Matrix: (Units=1/GPa)
#
#
# Indices 1 2 3 4 5 6 
#
# 1 0.012416 -0.003766 -0.002580 0.000000 0.000000 0.000000
# 2 -0.003766 0.041040 -0.012144 0.000000 0.000000 0.000000
# 3 -0.002580 -0.012144 0.010193 0.000000 0.000000 0.000000
# 4 0.000000 0.000000 0.000000 -0.160591 0.000000 0.000000
# 5 0.000000 0.000000 0.000000 0.000000 -0.148003 0.000000
# 6 0.000000 0.000000 0.000000 0.000000 0.000000 0.046901
#
#
# Mechanical properties :
#
#
# Convention : Reuss Voigt Hill
#
# Bulk Modulus (GPa) = 37.49915 67.67031 52.58473
# Shear Modulus (GPa) = -32.85733 14.07706 -9.39014
#
# Velocity S-wave (km/s) = -4.16413 2.72561 -2.22609
# Velocity P-wave (km/s) = 1.82492 6.75405 4.59820
#
# Compressibility (1/GPa) = 0.02666727
#
# Stress axis : x y z
#
# Youngs Moduli (GPa) = 80.54080 24.36642 98.10407
#
# Poissons Ratio (x) = 0.09178 0.25313
# Poissons Ratio (y) = 0.30335 1.19141
# Poissons Ratio (z) = 0.20781 0.29592
#
# Static dielectric constant tensor:
#      x y z
#    x 0.853120 0.000000 0.000000 
#    y 0.000000 1.610380 0.000000 
#    z 0.000000 0.000000 1.732650 
# 
# From -- ./inp_files/25478.got.cif
#   From: 2010.05.17/outbox.cif.g08.bks.cpg/sg49_13_cif.got.tgz:25478.got - 2010.06.03 21:02:19.
