data_PCOD9393468
_publ_section_title
;
Structure prediction by ZEFSAII (Michael W. Deem and Ramdas Pophale) SiO2 
 PCOD9393468
Probable space group: P C C M
;
_chemical_formula_sum "Si O2"
_cell_formula_units_Z 64
_cell_length_a 14.870291
_cell_length_b 29.210122
_cell_length_c 8.259101
_cell_angle_alpha 90.000000
_cell_angle_beta 90.000000
_cell_angle_gamma 90.000000
_cell_volume 3587.448006
_symmetry_space_group_name_H-M "P C C M"
_symmetry_group_IT_number 49
_symmetry_cell_setting 'orthorhombic'
loop_
_space_group_symop_operation_xyz
x,y,z
-x,-y,z
x,-y,1/2-z
-x,y,1/2-z
-x,-y,-z
x,y,-z
-x,y,1/2+z
x,-y,1/2+z
loop_
_atom_site_type_symbol
_atom_site_label
_atom_site_fract_x
_atom_site_fract_y
_atom_site_fract_z
Si Si1 0.904202 0.831379 0.190987
Si Si2 0.397495 0.050575 0.693759
Si Si3 0.406253 0.330080 0.695685
Si Si4 0.792940 0.360056 0.196118
Si Si5 0.102649 0.550297 0.806466
Si Si6 0.357121 0.766433 0.186758
Si Si7 0.708441 0.139185 0.195497
Si Si8 0.169099 0.735512 0.691856
O O1 0.812825 0.853109 0.261426
O O2 0.899423 0.776615 0.224849
O O3 0.000000 0.849559 0.250000
O O4 0.899237 0.837387 0.000000
O O5 0.500000 0.058210 0.750000
O O6 0.397023 0.050915 0.500000
O O7 0.333459 0.091495 0.752733
O O8 0.369620 0.000000 0.750000
O O9 0.500000 0.352008 0.750000
O O10 0.404674 0.328122 0.500000
O O11 0.311765 0.353092 0.745898
O O12 0.405199 0.277593 0.762564
O O13 0.835055 0.407956 0.250602
O O14 0.849388 0.316876 0.263791
O O15 0.795851 0.358132 0.000000
O O16 0.132344 0.500000 0.750000
O O17 0.000000 0.557052 0.750000
O O18 0.102977 0.550502 0.000000
O O19 0.350692 0.817380 0.258533
O O20 0.254160 0.749357 0.198242
O O21 0.386421 0.770484 0.000000
O O22 0.702531 0.140711 0.000000
O O23 0.192093 0.738001 0.500000
#
# Coordination Sequence:
#
# PCOD9393468 Si02
#       8
#     8   8   8   8   8   8   8   8
#     4  10  20  32  48  72 102 135 168 203 241 285
#     4  10  20  34  53  76 101 129 162 203 252 302
#     4   9  17  29  45  67  95 128 162 194 231 274
#     4   9  19  34  50  68  96 132 162 193 239 290
#     4  10  20  35  54  75  97 121 152 193 242 293
#     4   8  15  29  45  62  91 127 159 193 235 280
#     4   9  18  33  52  72  96 130 168 204 246 294
#     4   9  17  28  44  68  94 122 161 201 232 268
#
# _framework density 17.839979
#
# number of rings (size 3 to 8) (size 9 to 14) (size 15 to 20)
#    0.000    2.750    0.000    3.000    0.000    6.500 
#    0.000    2.500    0.000    0.750    0.000    5.250 
#    0.000    0.000    0.000    0.000    0.000    0.000 
#
# Total GULP energy -356293.008126 kJ/mol
# GULP energy per Si atom -5567.078252 kJ/mol
# Density = 1.779937 g / cm^3
# Si number density = 17.839979 Si / 1000 Ang^3
#
#
#
# Elastic Constant Matrix: (Units=GPa)
#
#
# Indices 1 2 3 4 5 6 
#
# 1 80.5925 67.8597 13.2503 0.0000 0.0000 0.0000
# 2 67.8597 154.4647 20.3596 0.0000 0.0000 0.0000
# 3 13.2503 20.3596 17.7921 0.0000 0.0000 0.0000
# 4 0.0000 0.0000 0.0000 25.9743 0.0000 0.0000
# 5 0.0000 0.0000 0.0000 0.0000 13.3170 0.0000
# 6 0.0000 0.0000 0.0000 0.0000 0.0000 24.5060
#
#
#
# Elastic Compliance Matrix: (Units=1/GPa)
#
#
# Indices 1 2 3 4 5 6 
#
# 1 0.020180 -0.008108 -0.005751 0.000000 0.000000 0.000000
# 2 -0.008108 0.010881 -0.006413 0.000000 0.000000 0.000000
# 3 -0.005751 -0.006413 0.067827 0.000000 0.000000 0.000000
# 4 0.000000 0.000000 0.000000 0.038500 0.000000 0.000000
# 5 0.000000 0.000000 0.000000 0.000000 0.075092 0.000000
# 6 0.000000 0.000000 0.000000 0.000000 0.000000 0.040806
#
#
# Mechanical properties :
#
#
# Convention : Reuss Voigt Hill
#
# Bulk Modulus (GPa) = 17.13983 50.64316 33.89150
# Shear Modulus (GPa) = 15.96022 22.85142 19.40582
#
# Velocity S-wave (km/s) = 2.99429 3.58286 3.30172
# Velocity P-wave (km/s) = 4.64572 6.75018 5.79429
#
# Compressibility (1/GPa) = 0.05834363
#
# Stress axis : x y z
#
# Youngs Moduli (GPa) = 49.55315 91.90193 14.74345
#
# Poissons Ratio (x) = 0.74510 0.08479
# Poissons Ratio (y) = 0.40176 0.09456
# Poissons Ratio (z) = 0.28499 0.58941
#
# Static dielectric constant tensor:
#      x y z
#    x 1.617740 0.000000 0.000000 
#    y 0.000000 1.643650 0.000000 
#    z 0.000000 0.000000 1.628040 
# 
# From -- ./inp_files/4529.got.cif
#   From: 2010.05.17/outbox.cif.g08.bks.cpg/sg49_3_cif.got.tgz:4529.got - 2010.06.03 21:02:19.
