data_PCOD9393073
_publ_section_title
;
Structure prediction by ZEFSAII (Michael W. Deem and Ramdas Pophale) SiO2 
 PCOD9393073
Probable space group: P C C M
;
_chemical_formula_sum "Si O2"
_cell_formula_units_Z 64
_cell_length_a 20.129777
_cell_length_b 21.026579
_cell_length_c 8.879577
_cell_angle_alpha 90.000000
_cell_angle_beta 90.000000
_cell_angle_gamma 90.000000
_cell_volume 3758.372836
_symmetry_space_group_name_H-M "P C C M"
_symmetry_group_IT_number 49
_symmetry_cell_setting 'orthorhombic'
loop_
_space_group_symop_operation_xyz
x,y,z
-x,-y,z
x,-y,1/2-z
-x,y,1/2-z
-x,-y,-z
x,y,-z
-x,y,1/2+z
x,-y,1/2+z
loop_
_atom_site_type_symbol
_atom_site_label
_atom_site_fract_x
_atom_site_fract_y
_atom_site_fract_z
Si Si1 0.569681 0.121768 0.819580
Si Si2 0.709990 0.066847 0.181554
Si Si3 0.068958 0.238907 0.679660
Si Si4 0.294036 0.310832 0.819614
Si Si5 0.206957 0.434722 0.819801
Si Si6 0.212073 0.806259 0.182412
Si Si7 0.570522 0.272114 0.819689
Si Si8 0.070140 0.610331 0.819736
O O1 0.500000 0.100369 0.750000
O O2 0.634765 0.083936 0.768678
O O3 0.579260 0.196701 0.782983
O O4 0.565344 0.117122 0.000000
O O5 0.756736 0.126012 0.224140
O O6 0.730894 0.000000 0.250000
O O7 0.709907 0.063023 0.000000
O O8 0.063905 0.233984 0.500000
O O9 0.135467 0.202798 0.728341
O O10 0.076754 0.314048 0.715383
O O11 0.000000 0.216385 0.750000
O O12 0.253198 0.374528 0.781357
O O13 0.254522 0.250552 0.753509
O O14 0.367378 0.308960 0.749707
O O15 0.297859 0.305784 0.000000
O O16 0.233435 0.500000 0.750000
O O17 0.133796 0.422898 0.751977
O O18 0.202539 0.439429 0.000000
O O19 0.216078 0.800175 0.000000
O O20 0.500000 0.291690 0.750000
O O21 0.569624 0.278013 0.000000
O O22 0.000000 0.588869 0.750000
O O23 0.069635 0.602412 0.000000
#
# Coordination Sequence:
#
# PCOD9393073 Si02
#       8
#     8   8   8   8   8   8   8   8
#     4   9  18  32  50  73 104 141 177 216 256 310
#     4  10  21  36  52  74 106 142 183 223 268 320
#     4   9  18  31  53  80 107 138 173 219 271 322
#     4  11  22  35  56  85 111 139 180 228 271 318
#     4  11  24  39  55  79 111 146 186 227 270 324
#     4  10  19  36  57  78 106 144 182 220 272 327
#     4  10  19  34  56  82 112 143 178 221 271 322
#     4  10  19  33  54  79 110 146 182 221 269 322
#
# _framework density 17.028645999999998
#
# number of rings (size 3 to 8) (size 9 to 14) (size 15 to 20)
#    0.000    2.000    2.500    1.500    0.000    4.500 
#    0.000    2.500    0.000    0.750    0.000    5.250 
#    0.000    0.000    0.000    0.000    0.000    0.000 
#
# Total GULP energy -357302.392414 kJ/mol
# GULP energy per Si atom -5582.849881 kJ/mol
# Density = 1.698989 g / cm^3
# Si number density = 17.028646 Si / 1000 Ang^3
#
#
#
# Elastic Constant Matrix: (Units=GPa)
#
#
# Indices 1 2 3 4 5 6 
#
# 1 138.0913 70.0822 41.0674 0.0000 0.0000 0.0000
# 2 70.0822 111.6631 43.9273 0.0000 0.0000 0.0000
# 3 41.0674 43.9273 32.6687 0.0000 0.0000 0.0000
# 4 0.0000 0.0000 0.0000 23.3737 0.0000 0.0000
# 5 0.0000 0.0000 0.0000 0.0000 30.8834 0.0000
# 6 0.0000 0.0000 0.0000 0.0000 0.0000 19.4655
#
#
#
# Elastic Compliance Matrix: (Units=1/GPa)
#
#
# Indices 1 2 3 4 5 6 
#
# 1 0.012156 -0.003435 -0.010662 0.000000 0.000000 0.000000
# 2 -0.003435 0.019983 -0.022552 0.000000 0.000000 0.000000
# 3 -0.010662 -0.022552 0.074338 0.000000 0.000000 0.000000
# 4 0.000000 0.000000 0.000000 0.042783 0.000000 0.000000
# 5 0.000000 0.000000 0.000000 0.000000 0.032380 0.000000
# 6 0.000000 0.000000 0.000000 0.000000 0.000000 0.051373
#
#
# Mechanical properties :
#
#
# Convention : Reuss Voigt Hill
#
# Bulk Modulus (GPa) = 30.14001 65.84188 47.99094
# Shear Modulus (GPa) = 15.75451 23.23428 19.49439
#
# Velocity S-wave (km/s) = 3.04497 3.69782 3.38716
# Velocity P-wave (km/s) = 5.48639 7.54858 6.59854
#
# Compressibility (1/GPa) = 0.03317849
#
# Stress axis : x y z
#
# Youngs Moduli (GPa) = 82.26675 50.04278 13.45211
#
# Poissons Ratio (x) = 0.17188 0.14343
# Poissons Ratio (y) = 0.28256 0.30337
# Poissons Ratio (z) = 0.87715 1.12856
#
# Static dielectric constant tensor:
#      x y z
#    x 1.572080 0.000000 0.000000 
#    y 0.000000 1.570410 0.000000 
#    z 0.000000 0.000000 1.572650 
# 
# From -- ./inp_files/5346.got.cif
#   From: 2010.05.17/outbox.cif.g08.bks.cpg/sg49_3_cif.got.tgz:5346.got - 2010.06.03 21:02:19.
