data_PCOD9393413
_publ_section_title
;
Structure prediction by ZEFSAII (Michael W. Deem and Ramdas Pophale) SiO2 
 PCOD9393413
Probable space group: P C C M
;
_chemical_formula_sum "Si O2"
_cell_formula_units_Z 48
_cell_length_a 8.849026
_cell_length_b 17.122413
_cell_length_c 15.588498
_cell_angle_alpha 90.000000
_cell_angle_beta 90.000000
_cell_angle_gamma 90.000000
_cell_volume 2361.917429
_symmetry_space_group_name_H-M "P C C M"
_symmetry_group_IT_number 49
_symmetry_cell_setting 'orthorhombic'
loop_
_space_group_symop_operation_xyz
x,y,z
-x,-y,z
x,-y,1/2-z
-x,y,1/2-z
-x,-y,-z
x,y,-z
-x,y,1/2+z
x,-y,1/2+z
loop_
_atom_site_type_symbol
_atom_site_label
_atom_site_fract_x
_atom_site_fract_y
_atom_site_fract_z
Si Si1 0.667206 0.872300 0.278252
Si Si2 0.888935 0.932563 0.401691
Si Si3 0.805359 0.437532 0.500000
Si Si4 0.314722 0.338722 0.851020
Si Si5 0.150281 0.620795 0.000000
Si Si6 0.094582 0.198760 0.834887
Si Si7 0.665183 0.693925 0.655928
O O1 0.500000 0.890486 0.250000
O O2 0.740474 0.930375 0.344999
O O3 0.781240 0.862652 0.199208
O O4 0.670828 0.785848 0.321609
O O5 0.852921 0.946708 0.500000
O O6 0.977470 0.849842 0.391777
O O7 0.000000 0.000000 0.370659
O O8 0.727673 0.408941 0.587346
O O9 0.797812 0.530748 0.500000
O O10 0.970168 0.394939 0.500000
O O11 0.194565 0.269242 0.871296
O O12 0.304891 0.348502 0.747691
O O13 0.490061 0.319096 0.869298
O O14 0.218551 0.665324 0.083306
O O15 0.000000 0.225215 0.750000
#
# Coordination Sequence:
#
# PCOD9393413 Si02
#       7
#     8   8   4   8   4   8   8
#     4  10  19  39  64  96 122 161 218 266 315 378
#     4  10  23  40  60  94 136 172 208 257 328 389
#     4  11  27  41  59  95 131 168 219 260 334 411
#     4  10  21  39  64  94 123 166 215 273 321 387
#     4  11  27  43  59  93 131 172 213 268 336 400
#     4   9  19  34  61  91 122 162 214 265 305 380
#     4  10  21  41  66  92 128 162 218 273 326 390
#
# _framework density 20.322471
#
# number of rings (size 3 to 8) (size 9 to 14) (size 15 to 20)
#    0.000    2.000    3.333    0.500    9.333    5.000 
#    0.000    5.833    0.000    2.000    0.000    0.000 
#    0.000    0.000    0.000    0.000    0.000    0.000 
#
# Total GULP energy -267849.062522 kJ/mol
# GULP energy per Si atom -5580.188803 kJ/mol
# Density = 2.027622 g / cm^3
# Si number density = 20.322471 Si / 1000 Ang^3
#
#
#
# Elastic Constant Matrix: (Units=GPa)
#
#
# Indices 1 2 3 4 5 6 
#
# 1 121.7174 29.3835 34.5897 0.0000 0.0000 0.0000
# 2 29.3835 61.1902 36.0700 0.0000 0.0000 0.0000
# 3 34.5897 36.0700 70.6205 0.0000 0.0000 0.0000
# 4 0.0000 0.0000 0.0000 65.7597 0.0000 0.0000
# 5 0.0000 0.0000 0.0000 0.0000 31.1731 0.0000
# 6 0.0000 0.0000 0.0000 0.0000 0.0000 26.7564
#
#
#
# Elastic Compliance Matrix: (Units=1/GPa)
#
#
# Indices 1 2 3 4 5 6 
#
# 1 0.009846 -0.002697 -0.003445 0.000000 0.000000 0.000000
# 2 -0.002697 0.024121 -0.010999 0.000000 0.000000 0.000000
# 3 -0.003445 -0.010999 0.021465 0.000000 0.000000 0.000000
# 4 0.000000 0.000000 0.000000 0.015207 0.000000 0.000000
# 5 0.000000 0.000000 0.000000 0.000000 0.032079 0.000000
# 6 0.000000 0.000000 0.000000 0.000000 0.000000 0.037374
#
#
# Mechanical properties :
#
#
# Convention : Reuss Voigt Hill
#
# Bulk Modulus (GPa) = 47.28094 50.40163 48.84129
# Shear Modulus (GPa) = 27.55959 34.97017 31.26488
#
# Velocity S-wave (km/s) = 3.68654 4.15271 3.92655
# Velocity P-wave (km/s) = 6.43713 6.91723 6.68149
#
# Compressibility (1/GPa) = 0.02115017
#
# Stress axis : x y z
#
# Youngs Moduli (GPa) = 101.56555 41.45691 46.58683
#
# Poissons Ratio (x) = 0.11183 0.16048
# Poissons Ratio (y) = 0.27396 0.51241
# Poissons Ratio (z) = 0.34987 0.45599
#
# Static dielectric constant tensor:
#      x y z
#    x 1.733310 0.000000 0.000000 
#    y 0.000000 1.731510 0.000000 
#    z 0.000000 0.000000 1.712420 
# 
# From -- ./inp_files/11886.got.cif
#   From: 2010.05.17/outbox.cif.g08.bks.cpg/sg49_6_cif.got.tgz:11886.got - 2010.06.03 21:02:19.
