data_PCOD9393860
_publ_section_title
;
Structure prediction by ZEFSAII (Michael W. Deem and Ramdas Pophale) SiO2 
 PCOD9393860
Probable space group: P C C M
;
_chemical_formula_sum "Si O2"
_cell_formula_units_Z 56
_cell_length_a 21.203411
_cell_length_b 15.535131
_cell_length_c 8.791113
_cell_angle_alpha 90.000000
_cell_angle_beta 90.000000
_cell_angle_gamma 90.000000
_cell_volume 2895.772996
_symmetry_space_group_name_H-M "P C C M"
_symmetry_group_IT_number 49
_symmetry_cell_setting 'orthorhombic'
loop_
_space_group_symop_operation_xyz
x,y,z
-x,-y,z
x,-y,1/2-z
-x,y,1/2-z
-x,-y,-z
x,y,-z
-x,y,1/2+z
x,-y,1/2+z
loop_
_atom_site_type_symbol
_atom_site_label
_atom_site_fract_x
_atom_site_fract_y
_atom_site_fract_z
Si Si1 0.429949 0.407189 0.183439
Si Si2 0.173398 0.866696 0.661808
Si Si3 0.684857 0.909794 0.177528
Si Si4 0.325529 0.717510 0.817338
Si Si5 0.933691 0.596748 0.316211
Si Si6 0.196297 0.334249 0.828536
Si Si7 0.942973 0.092732 0.827581
O O1 0.409179 0.500000 0.250000
O O2 0.500000 0.392699 0.250000
O O3 0.383605 0.333597 0.243744
O O4 0.431330 0.409927 0.000000
O O5 0.143211 0.895109 0.500000
O O6 0.238834 0.914863 0.679810
O O7 0.188782 0.767316 0.650107
O O8 0.125798 0.872216 0.799448
O O9 0.672208 0.817754 0.259928
O O10 0.660902 0.000000 0.250000
O O11 0.665751 0.903616 0.000000
O O12 0.262503 0.665405 0.762160
O O13 0.327515 0.717422 0.000000
O O14 0.932649 0.500000 0.250000
O O15 0.936009 0.598150 0.500000
O O16 0.867337 0.635665 0.256534
O O17 0.000000 0.634963 0.250000
O O18 0.200664 0.373465 0.000000
O O19 0.000000 0.143673 0.750000
O O20 0.939377 0.000000 0.750000
O O21 0.958889 0.085050 0.000000
#
# Coordination Sequence:
#
# PCOD9393860 Si02
#       7
#     8   8   8   8   8   8   8
#     4  11  22  40  65  96 131 168 207 246 292 351
#     4   9  19  34  51  71  98 129 168 216 271 330
#     4  10  20  35  56  83 114 153 196 244 296 351
#     4  11  22  38  60  90 125 162 203 251 303 357
#     4  11  22  38  58  79 104 139 183 233 289 355
#     4  10  21  38  57  80 109 142 182 233 287 342
#     4  11  21  32  46  62  86 118 158 205 259 319
#
# _framework density 19.338532000000001
#
# number of rings (size 3 to 8) (size 9 to 14) (size 15 to 20)
#    0.000    1.571    0.000    8.571    0.000    5.714 
#    0.000    2.857    0.000    0.429    0.000    3.000 
#    0.000    0.000    0.000    0.000    0.000    0.000 
#
# Total GULP energy -312049.100658 kJ/mol
# GULP energy per Si atom -5572.305369 kJ/mol
# Density = 1.929452 g / cm^3
# Si number density = 19.338532 Si / 1000 Ang^3
#
#
#
# Elastic Constant Matrix: (Units=GPa)
#
#
# Indices 1 2 3 4 5 6 
#
# 1 78.9773 48.1048 58.0024 0.0000 0.0000 0.0000
# 2 48.1048 77.1945 49.7998 0.0000 0.0000 0.0000
# 3 58.0024 49.7998 201.6245 0.0000 0.0000 0.0000
# 4 0.0000 0.0000 0.0000 25.7037 0.0000 0.0000
# 5 0.0000 0.0000 0.0000 0.0000 28.6981 0.0000
# 6 0.0000 0.0000 0.0000 0.0000 0.0000 18.0682
#
#
#
# Elastic Compliance Matrix: (Units=1/GPa)
#
#
# Indices 1 2 3 4 5 6 
#
# 1 0.022367 -0.011642 -0.003559 0.000000 0.000000 0.000000
# 2 -0.011642 0.021470 -0.001954 0.000000 0.000000 0.000000
# 3 -0.003559 -0.001954 0.006466 0.000000 0.000000 0.000000
# 4 0.000000 0.000000 0.000000 0.038905 0.000000 0.000000
# 5 0.000000 0.000000 0.000000 0.000000 0.034845 0.000000
# 6 0.000000 0.000000 0.000000 0.000000 0.000000 0.055346
#
#
# Mechanical properties :
#
#
# Convention : Reuss Voigt Hill
#
# Bulk Modulus (GPa) = 62.52743 74.40114 68.46429
# Shear Modulus (GPa) = 22.82692 27.95328 25.39010
#
# Velocity S-wave (km/s) = 3.43940 3.80606 3.62737
# Velocity P-wave (km/s) = 6.94089 7.60732 7.28173
#
# Compressibility (1/GPa) = 0.01599298
#
# Stress axis : x y z
#
# Youngs Moduli (GPa) = 44.70904 46.57720 154.65433
#
# Poissons Ratio (x) = 0.54227 0.55039
# Poissons Ratio (y) = 0.52052 0.30214
# Poissons Ratio (z) = 0.15911 0.09100
#
# Static dielectric constant tensor:
#      x y z
#    x 1.878830 0.000000 0.000000 
#    y 0.000000 1.700150 0.000000 
#    z 0.000000 0.000000 1.731870 
# 
# From -- ./inp_files/5803.got.cif
#   From: 2010.05.17/outbox.cif.g08.bks.cpg/sg49_3_cif.got.tgz:5803.got - 2010.06.03 21:02:19.
