data_PCOD9393657
_publ_section_title
;
Structure prediction by ZEFSAII (Michael W. Deem and Ramdas Pophale) SiO2 
 PCOD9393657
Probable space group: P C C M
;
_chemical_formula_sum "Si O2"
_cell_formula_units_Z 56
_cell_length_a 7.567506
_cell_length_b 22.640620
_cell_length_c 15.507994
_cell_angle_alpha 90.000000
_cell_angle_beta 90.000000
_cell_angle_gamma 90.000000
_cell_volume 2657.031565
_symmetry_space_group_name_H-M "P C C M"
_symmetry_group_IT_number 49
_symmetry_cell_setting 'orthorhombic'
loop_
_space_group_symop_operation_xyz
x,y,z
-x,-y,z
x,-y,1/2-z
-x,y,1/2-z
-x,-y,-z
x,y,-z
-x,y,1/2+z
x,-y,1/2+z
loop_
_atom_site_type_symbol
_atom_site_label
_atom_site_fract_x
_atom_site_fract_y
_atom_site_fract_z
Si Si1 0.212048 0.191751 0.407253
Si Si2 0.786059 0.936057 0.352433
Si Si3 0.786059 0.936057 0.852433
Si Si4 0.707135 0.277085 0.750000
Si Si5 0.283856 0.590071 0.750000
Si Si6 0.715122 0.500000 0.899123
Si Si7 0.787951 0.191751 0.592747
O O1 0.275135 0.213131 0.500000
O O2 0.280540 0.125223 0.390991
O O3 0.250485 0.237309 0.332311
O O4 1.000000 0.186355 0.409189
O O5 0.751665 0.933811 0.250000
O O6 0.000000 0.936510 0.362930
O O7 0.722201 1.000000 0.385163
O O8 0.719460 0.874778 0.890990
O O9 0.500000 0.286338 0.750000
O O10 0.784055 0.342924 0.750000
O O11 0.749515 0.237309 0.667689
O O12 0.500000 0.588662 0.750000
O O13 0.231805 0.555340 0.837739
O O14 0.231805 0.555340 0.662260
O O15 0.500000 0.500000 0.902671
O O16 0.774542 0.500000 0.000000
O O17 0.724865 0.213131 0.500000
#
# Coordination Sequence:
#
# PCOD9393657 Si02
#       7
#     8   8   8   8   8   8   8
#     4  10  20  34  53  75 100 133 173 215 257 303
#     4   8  13  24  46  73  96 119 156 213 270 307
#     4   8  13  24  46  73  96 119 156 213 270 307
#     4  11  22  35  51  73 108 144 169 202 244 298
#     4   8  16  28  43  69  99 129 163 194 239 294
#     4   8  13  25  46  69  95 124 156 200 246 286
#     4  10  20  34  53  75 100 133 173 215 257 303
#
# _framework density 21.076152
#
# number of rings (size 3 to 8) (size 9 to 14) (size 15 to 20)
#    0.000    3.000    1.429    2.143    0.000    2.286 
#    0.000    5.714    0.000    1.714    0.000   10.000 
#    0.000   13.714    0.000    0.000    0.000    0.000 
#
# Total GULP energy -312171.046898 kJ/mol
# GULP energy per Si atom -5574.482980 kJ/mol
# Density = 2.102818 g / cm^3
# Si number density = 21.076152 Si / 1000 Ang^3
#
#
#
# Elastic Constant Matrix: (Units=GPa)
#
#
# Indices 1 2 3 4 5 6 
#
# 1 44.5137 6.1525 7.3976 0.0000 0.0000 0.0000
# 2 6.1525 208.3208 123.0903 0.0000 0.0000 0.0000
# 3 7.3976 123.0903 196.4602 0.0000 0.0000 0.0000
# 4 0.0000 0.0000 0.0000 -49.3267 0.0000 0.0000
# 5 0.0000 0.0000 0.0000 0.0000 -12.9721 0.0000
# 6 0.0000 0.0000 0.0000 0.0000 0.0000 14.5719
#
#
#
# Elastic Compliance Matrix: (Units=1/GPa)
#
#
# Indices 1 2 3 4 5 6 
#
# 1 0.022615 -0.000262 -0.000688 0.000000 0.000000 0.000000
# 2 -0.000262 0.007625 -0.004768 0.000000 0.000000 0.000000
# 3 -0.000688 -0.004768 0.008103 0.000000 0.000000 0.000000
# 4 0.000000 0.000000 0.000000 -0.020273 0.000000 0.000000
# 5 0.000000 0.000000 0.000000 0.000000 -0.077088 0.000000
# 6 0.000000 0.000000 0.000000 0.000000 0.000000 0.068625
#
#
# Mechanical properties :
#
#
# Convention : Reuss Voigt Hill
#
# Bulk Modulus (GPa) = 37.16108 80.28617 58.72362
# Shear Modulus (GPa) = 166.60670 11.29824 88.95247
#
# Velocity S-wave (km/s) = 8.90064 2.31782 6.50361
# Velocity P-wave (km/s) = 11.10400 6.73344 9.18253
#
# Compressibility (1/GPa) = 0.02690988
#
# Stress axis : x y z
#
# Youngs Moduli (GPa) = 44.21761 131.14764 123.41070
#
# Poissons Ratio (x) = 0.03431 0.08487
# Poissons Ratio (y) = 0.01157 0.58836
# Poissons Ratio (z) = 0.03041 0.62525
#
# Static dielectric constant tensor:
#      x y z
#    x 1.831020 0.000000 0.000000 
#    y 0.000000 1.778260 0.000000 
#    z 0.000000 0.000000 1.730180 
# 
# From -- ./inp_files/11976.got.cif
#   From: 2010.05.17/outbox.cif.g08.bks.cpg/sg49_6_cif.got.tgz:11976.got - 2010.06.03 21:02:19.
