data_PCOD9394971
_publ_section_title
;
Structure prediction by ZEFSAII (Michael W. Deem and Ramdas Pophale) SiO2 
 PCOD9394971
Probable space group: P C C M
;
_chemical_formula_sum "Si O2"
_cell_formula_units_Z 64
_cell_length_a 12.101346
_cell_length_b 15.407696
_cell_length_c 18.083355
_cell_angle_alpha 90.000000
_cell_angle_beta 90.000000
_cell_angle_gamma 90.000000
_cell_volume 3371.711348
_symmetry_space_group_name_H-M "P C C M"
_symmetry_group_IT_number 49
_symmetry_cell_setting 'orthorhombic'
loop_
_space_group_symop_operation_xyz
x,y,z
-x,-y,z
x,-y,1/2-z
-x,y,1/2-z
-x,-y,-z
x,y,-z
-x,y,1/2+z
x,-y,1/2+z
loop_
_atom_site_type_symbol
_atom_site_label
_atom_site_fract_x
_atom_site_fract_y
_atom_site_fract_z
Si Si1 0.991328 0.399213 0.661782
Si Si2 0.581617 0.752843 0.088009
Si Si3 0.819486 0.755590 0.164777
Si Si4 0.770339 0.180740 0.832176
Si Si5 0.001125 0.900809 0.339828
Si Si6 0.215806 0.653606 0.087130
Si Si7 0.458252 0.902528 0.831195
Si Si8 0.440345 0.413631 0.590194
O O1 0.887489 0.333979 0.649367
O O2 0.000000 0.500000 0.635212
O O3 0.000000 0.402092 0.750000
O O4 0.100264 0.356141 0.627874
O O5 0.702732 0.753822 0.123923
O O6 0.514954 0.838321 0.111198
O O7 0.510399 0.669801 0.114385
O O8 0.592549 0.747408 0.000000
O O9 0.793394 0.774346 0.252031
O O10 0.898004 0.836621 0.140349
O O11 0.884957 0.141625 0.860032
O O12 0.735332 0.253541 0.890453
O O13 0.673730 0.109794 0.828423
O O14 0.000000 0.903979 0.250000
O O15 0.000000 0.000000 0.366826
O O16 0.311981 0.588336 0.112560
O O17 0.199032 0.645457 0.000000
O O18 0.500000 0.875233 0.750000
O O19 0.500000 0.000000 0.843591
O O20 0.500000 0.500000 0.615671
O O21 0.439722 0.412272 0.500000
#
# Coordination Sequence:
#
# PCOD9394971 Si02
#       8
#     8   8   8   8   8   8   8   8
#     4  11  23  40  62  92 126 164 205 257 316 369
#     4  11  24  40  60  90 126 163 201 257 321 375
#     4  11  21  39  61  87 123 162 198 249 307 368
#     4  11  20  39  64  87 121 156 205 253 304 365
#     4   9  19  33  60  88 110 148 196 245 293 347
#     4  11  22  39  64  89 120 163 210 257 309 375
#     4  11  24  39  64  95 123 163 212 259 309 379
#     4   9  20  39  61  86 117 156 205 255 308 368
#
# _framework density 18.981458
#
# number of rings (size 3 to 8) (size 9 to 14) (size 15 to 20)
#    0.000    1.500    5.000    0.375    3.500    2.000 
#    0.000    0.000    0.000    3.375    0.000    0.000 
#    0.000    0.000    0.000    0.000    0.000    0.000 
#
# Total GULP energy -356873.837358 kJ/mol
# GULP energy per Si atom -5576.153709 kJ/mol
# Density = 1.893826 g / cm^3
# Si number density = 18.981458 Si / 1000 Ang^3
#
#
#
# Elastic Constant Matrix: (Units=GPa)
#
#
# Indices 1 2 3 4 5 6 
#
# 1 138.0934 35.5009 28.3000 0.0000 0.0000 0.0000
# 2 35.5009 85.0420 16.3139 0.0000 0.0000 0.0000
# 3 28.3000 16.3139 32.6639 0.0000 0.0000 0.0000
# 4 0.0000 0.0000 0.0000 14.3697 0.0000 0.0000
# 5 0.0000 0.0000 0.0000 0.0000 20.2974 0.0000
# 6 0.0000 0.0000 0.0000 0.0000 0.0000 26.6264
#
#
#
# Elastic Compliance Matrix: (Units=1/GPa)
#
#
# Indices 1 2 3 4 5 6 
#
# 1 0.009290 -0.002582 -0.006760 0.000000 0.000000 0.000000
# 2 -0.002582 0.013722 -0.004617 0.000000 0.000000 0.000000
# 3 -0.006760 -0.004617 0.038777 0.000000 0.000000 0.000000
# 4 0.000000 0.000000 0.000000 0.069591 0.000000 0.000000
# 5 0.000000 0.000000 0.000000 0.000000 0.049267 0.000000
# 6 0.000000 0.000000 0.000000 0.000000 0.000000 0.037557
#
#
# Mechanical properties :
#
#
# Convention : Reuss Voigt Hill
#
# Bulk Modulus (GPa) = 29.52157 46.22540 37.87348
# Shear Modulus (GPa) = 19.42406 23.97102 21.69754
#
# Velocity S-wave (km/s) = 3.20240 3.55754 3.38463
# Velocity P-wave (km/s) = 5.40929 6.42499 5.93890
#
# Compressibility (1/GPa) = 0.03387354
#
# Stress axis : x y z
#
# Youngs Moduli (GPa) = 107.63717 72.87442 25.78816
#
# Poissons Ratio (x) = 0.18813 0.17433
# Poissons Ratio (y) = 0.27787 0.11906
# Poissons Ratio (z) = 0.72762 0.33645
#
# Static dielectric constant tensor:
#      x y z
#    x 1.671770 0.000000 0.000000 
#    y 0.000000 1.701360 0.000000 
#    z 0.000000 0.000000 1.642000 
# 
# From -- ./inp_files/17352.got.cif
#   From: 2010.05.17/outbox.cif.g08.bks.cpg/sg49_9_cif.got.tgz:17352.got - 2010.06.03 21:02:19.
