data_PCOD9394771
_publ_section_title
;
Structure prediction by ZEFSAII (Michael W. Deem and Ramdas Pophale) SiO2 
 PCOD9394771
Probable space group: P C C M
;
_chemical_formula_sum "Si O2"
_cell_formula_units_Z 40
_cell_length_a 8.327571
_cell_length_b 9.418480
_cell_length_c 23.293154
_cell_angle_alpha 90.000000
_cell_angle_beta 90.000000
_cell_angle_gamma 90.000000
_cell_volume 1826.953367
_symmetry_space_group_name_H-M "P C C M"
_symmetry_group_IT_number 49
_symmetry_cell_setting 'orthorhombic'
loop_
_space_group_symop_operation_xyz
x,y,z
-x,-y,z
x,-y,1/2-z
-x,y,1/2-z
-x,-y,-z
x,y,-z
-x,y,1/2+z
x,-y,1/2+z
loop_
_atom_site_type_symbol
_atom_site_label
_atom_site_fract_x
_atom_site_fract_y
_atom_site_fract_z
Si Si1 0.175738 0.924138 0.883029
Si Si2 0.820825 0.828978 0.739929
Si Si3 0.169639 0.574484 0.435098
Si Si4 0.376272 0.294270 0.436516
Si Si5 0.665670 0.214789 0.355770
O O1 0.198054 0.821504 0.827862
O O2 0.233557 0.822470 0.933540
O O3 0.299107 0.052914 0.873254
O O4 0.000000 0.000000 0.885115
O O5 0.694675 0.773151 0.787102
O O6 0.000000 0.771826 0.750000
O O7 0.824817 0.000000 0.750000
O O8 0.173458 0.634047 0.500000
O O9 0.302034 0.450442 0.430911
O O10 0.200129 0.691338 0.387411
O O11 0.000000 0.500000 0.427074
O O12 0.452922 0.283407 0.500000
O O13 0.502275 0.262854 0.386045
#
# Coordination Sequence:
#
# PCOD9394771 Si02
#       5
#     8   8   8   8   8
#     4  11  21  39  66  92 128 167 218 269 321 383
#     4   9  17  36  63  90 120 156 210 262 316 378
#     4  10  22  41  64  90 125 173 223 266 319 385
#     4  11  25  41  60  95 137 171 214 271 330 383
#     4  11  21  37  66  92 125 169 212 270 325 386
#
# _framework density 21.894373999999999
#
# number of rings (size 3 to 8) (size 9 to 14) (size 15 to 20)
#    0.000    1.600    4.000    3.000    0.000    5.200 
#    0.000    4.000    0.000    2.400    0.000    0.000 
#    0.000    0.000    0.000    0.000    0.000    0.000 
#
# Total GULP energy -223253.094028 kJ/mol
# GULP energy per Si atom -5581.327351 kJ/mol
# Density = 2.184454 g / cm^3
# Si number density = 21.894374 Si / 1000 Ang^3
#
#
#
# Elastic Constant Matrix: (Units=GPa)
#
#
# Indices 1 2 3 4 5 6 
#
# 1 91.9336 5.5870 55.0213 0.0000 0.0000 0.0000
# 2 5.5870 44.8773 29.2813 0.0000 0.0000 0.0000
# 3 55.0213 29.2813 112.5562 0.0000 0.0000 0.0000
# 4 0.0000 0.0000 0.0000 21.7361 0.0000 0.0000
# 5 0.0000 0.0000 0.0000 0.0000 34.9927 0.0000
# 6 0.0000 0.0000 0.0000 0.0000 0.0000 31.6140
#
#
#
# Elastic Compliance Matrix: (Units=1/GPa)
#
#
# Indices 1 2 3 4 5 6 
#
# 1 0.015875 0.003718 -0.008727 0.000000 0.000000 0.000000
# 2 0.003718 0.027709 -0.009026 0.000000 0.000000 0.000000
# 3 -0.008727 -0.009026 0.015499 0.000000 0.000000 0.000000
# 4 0.000000 0.000000 0.000000 0.046006 0.000000 0.000000
# 5 0.000000 0.000000 0.000000 0.000000 0.028577 0.000000
# 6 0.000000 0.000000 0.000000 0.000000 0.000000 0.031632
#
#
# Mechanical properties :
#
#
# Convention : Reuss Voigt Hill
#
# Bulk Modulus (GPa) = 32.24542 47.68291 39.96417
# Shear Modulus (GPa) = 24.54516 28.30040 26.42278
#
# Velocity S-wave (km/s) = 3.35187 3.59916 3.47771
# Velocity P-wave (km/s) = 5.45342 6.25282 5.86675
#
# Compressibility (1/GPa) = 0.03101215
#
# Stress axis : x y z
#
# Youngs Moduli (GPa) = 62.99341 36.08888 64.52120
#
# Poissons Ratio (x) = -0.13418 0.56310
# Poissons Ratio (y) = -0.23421 0.58237
# Poissons Ratio (z) = 0.54976 0.32574
#
# Static dielectric constant tensor:
#      x y z
#    x 1.864880 0.000000 0.000000 
#    y 0.000000 1.755200 0.000000 
#    z 0.000000 0.000000 1.825030 
# 
# From -- ./inp_files/22183.got.cif
#   From: 2010.05.17/outbox.cif.g08.bks.cpg/sg49_12_cif.got.tgz:22183.got - 2010.06.03 21:02:19.
