data_PCOD9394242
_publ_section_title
;
Structure prediction by ZEFSAII (Michael W. Deem and Ramdas Pophale) SiO2 
 PCOD9394242
Probable space group: P C C M
;
_chemical_formula_sum "Si O2"
_cell_formula_units_Z 30
_cell_length_a 5.526789
_cell_length_b 16.968889
_cell_length_c 15.257326
_cell_angle_alpha 90.000000
_cell_angle_beta 90.000000
_cell_angle_gamma 90.000000
_cell_volume 1430.884961
_symmetry_space_group_name_H-M "P C C M"
_symmetry_group_IT_number 49
_symmetry_cell_setting 'orthorhombic'
loop_
_space_group_symop_operation_xyz
x,y,z
-x,-y,z
x,-y,1/2-z
-x,y,1/2-z
-x,-y,-z
x,y,-z
-x,y,1/2+z
x,-y,1/2+z
loop_
_atom_site_type_symbol
_atom_site_label
_atom_site_fract_x
_atom_site_fract_y
_atom_site_fract_z
Si Si1 0.258573 0.348710 0.199683
Si Si2 0.000000 0.885079 0.250000
Si Si3 0.285578 0.796766 0.402657
Si Si4 0.500000 0.500000 0.750000
Si Si5 0.318955 0.073456 0.404166
O O1 0.500000 0.316026 0.250000
O O2 0.266490 0.296553 0.112749
O O3 0.330678 0.440909 0.194332
O O4 0.000000 0.341499 0.250000
O O5 0.852573 0.832340 0.180720
O O6 0.833637 0.932123 0.316763
O O7 0.188802 0.814453 0.500000
O O8 0.541400 0.842658 0.400264
O O9 0.197098 0.068654 0.500000
O O10 0.500000 0.000000 0.402656
#
# Coordination Sequence:
#
# PCOD9394242 Si02
#       5
#     8   4   8   2   8
#     4  10  20  40  66  99 129 173 225 273 341 407
#     4  12  22  41  66  95 122 178 222 275 336 398
#     4  11  24  40  63  97 133 174 222 275 331 402
#     4   8  22  36  72  96 124 180 212 284 332 428
#     4  10  24  44  64  94 133 173 225 280 332 395
#
# _framework density 20.966045999999999
#
# number of rings (size 3 to 8) (size 9 to 14) (size 15 to 20)
#    0.800    0.800    1.333    3.600    0.000    4.267 
#    0.000    4.667    0.000    4.000    0.000    0.000 
#    0.000    0.000    0.000    0.000    0.000    0.000 
#
# Total GULP energy -167049.861560 kJ/mol
# GULP energy per Si atom -5568.328719 kJ/mol
# Density = 2.091833 g / cm^3
# Si number density = 20.966046 Si / 1000 Ang^3
#
#
#
# Elastic Constant Matrix: (Units=GPa)
#
#
# Indices 1 2 3 4 5 6 
#
# 1 98.7589 45.0703 65.2066 0.0000 0.0000 0.0000
# 2 45.0703 131.1560 52.3950 0.0000 0.0000 0.0000
# 3 65.2066 52.3950 208.4723 0.0000 0.0000 0.0000
# 4 0.0000 0.0000 0.0000 -14.0695 0.0000 0.0000
# 5 0.0000 0.0000 0.0000 0.0000 31.9536 0.0000
# 6 0.0000 0.0000 0.0000 0.0000 0.0000 19.9627
#
#
#
# Elastic Compliance Matrix: (Units=1/GPa)
#
#
# Indices 1 2 3 4 5 6 
#
# 1 0.014007 -0.003405 -0.003525 0.000000 0.000000 0.000000
# 2 -0.003405 0.009303 -0.001273 0.000000 0.000000 0.000000
# 3 -0.003525 -0.001273 0.006219 0.000000 0.000000 0.000000
# 4 0.000000 0.000000 0.000000 -0.071076 0.000000 0.000000
# 5 0.000000 0.000000 0.000000 0.000000 0.031295 0.000000
# 6 0.000000 0.000000 0.000000 0.000000 0.000000 0.050093
#
#
# Mechanical properties :
#
#
# Convention : Reuss Voigt Hill
#
# Bulk Modulus (GPa) = 76.20373 84.85899 80.53136
# Shear Modulus (GPa) = 82.47462 25.95038 54.21250
#
# Velocity S-wave (km/s) = 6.27874 3.52196 5.09052
# Velocity P-wave (km/s) = 9.43338 7.55654 8.54664
#
# Compressibility (1/GPa) = 0.01312272
#
# Stress axis : x y z
#
# Youngs Moduli (GPa) = 71.39095 107.48962 160.78526
#
# Poissons Ratio (x) = 0.36601 0.56684
# Poissons Ratio (y) = 0.24309 0.20470
# Poissons Ratio (z) = 0.25169 0.13685
#
# Static dielectric constant tensor:
#      x y z
#    x 1.831970 0.000000 0.000000 
#    y 0.000000 1.803730 0.000000 
#    z 0.000000 0.000000 1.726140 
# 
# From -- ./inp_files/10569.got.cif
#   From: 2010.05.17/outbox.cif.g08.bks.cpg/sg49_6_cif.got.tgz:10569.got - 2010.06.03 21:02:19.
