data_PCOD9394274
_publ_section_title
;
Structure prediction by ZEFSAII (Michael W. Deem and Ramdas Pophale) SiO2 
 PCOD9394274
Probable space group: P C C M
;
_chemical_formula_sum "Si O2"
_cell_formula_units_Z 40
_cell_length_a 5.903787
_cell_length_b 17.568297
_cell_length_c 19.764106
_cell_angle_alpha 90.000000
_cell_angle_beta 90.000000
_cell_angle_gamma 90.000000
_cell_volume 2049.922865
_symmetry_space_group_name_H-M "P C C M"
_symmetry_group_IT_number 49
_symmetry_cell_setting 'orthorhombic'
loop_
_space_group_symop_operation_xyz
x,y,z
-x,-y,z
x,-y,1/2-z
-x,y,1/2-z
-x,-y,-z
x,y,-z
-x,y,1/2+z
x,-y,1/2+z
loop_
_atom_site_type_symbol
_atom_site_label
_atom_site_fract_x
_atom_site_fract_y
_atom_site_fract_z
Si Si1 0.060656 0.843962 0.674411
Si Si2 0.246740 0.472981 0.828719
Si Si3 0.379084 0.303761 0.177646
Si Si4 0.660940 0.928040 0.926058
Si Si5 0.330794 0.217598 0.422992
O O1 0.226643 0.771502 0.681759
O O2 0.170077 0.914019 0.634667
O O3 0.000000 0.866540 0.750000
O O4 0.862001 0.813275 0.626542
O O5 0.500000 0.500000 0.854540
O O6 0.246725 0.500000 0.750000
O O7 0.246531 0.381698 0.833373
O O8 0.000000 0.500000 0.856925
O O9 0.500000 0.311680 0.250000
O O10 0.551638 0.287472 0.116095
O O11 0.509896 0.851592 0.927728
O O12 0.500000 0.000000 0.916713
O O13 0.774106 0.935068 0.000000
O O14 0.255985 0.234811 0.500000
#
# Coordination Sequence:
#
# PCOD9394274 Si02
#       5
#     8   8   8   8   8
#     4  11  22  34  61  89 119 156 207 262 320 372
#     4  10  21  33  57  93 127 161 209 266 319 379
#     4  11  21  37  61  90 122 161 201 264 318 376
#     4   9  20  40  61  82 118 162 205 252 311 384
#     4  10  22  39  61  89 120 160 207 253 313 384
#
# _framework density 19.512930999999998
#
# number of rings (size 3 to 8) (size 9 to 14) (size 15 to 20)
#    0.000    1.800    4.000    0.600    5.600    1.600 
#    0.000    6.000    0.000    1.200    0.000    0.000 
#    0.000    0.000    0.000    0.000    0.000    0.000 
#
# Total GULP energy -223006.592551 kJ/mol
# GULP energy per Si atom -5575.164814 kJ/mol
# Density = 1.946852 g / cm^3
# Si number density = 19.512931 Si / 1000 Ang^3
#
#
#
# Elastic Constant Matrix: (Units=GPa)
#
#
# Indices 1 2 3 4 5 6 
#
# 1 83.7956 18.3738 61.3754 0.0000 0.0000 0.0000
# 2 18.3738 94.6277 48.2889 0.0000 0.0000 0.0000
# 3 61.3754 48.2889 171.2832 0.0000 0.0000 0.0000
# 4 0.0000 0.0000 0.0000 13.8542 0.0000 0.0000
# 5 0.0000 0.0000 0.0000 0.0000 13.8957 0.0000
# 6 0.0000 0.0000 0.0000 0.0000 0.0000 27.8690
#
#
#
# Elastic Compliance Matrix: (Units=1/GPa)
#
#
# Indices 1 2 3 4 5 6 
#
# 1 0.016184 -0.000214 -0.005739 0.000000 0.000000 0.000000
# 2 -0.000214 0.012346 -0.003404 0.000000 0.000000 0.000000
# 3 -0.005739 -0.003404 0.008854 0.000000 0.000000 0.000000
# 4 0.000000 0.000000 0.000000 0.072180 0.000000 0.000000
# 5 0.000000 0.000000 0.000000 0.000000 0.071965 0.000000
# 6 0.000000 0.000000 0.000000 0.000000 0.000000 0.035882
#
#
# Mechanical properties :
#
#
# Convention : Reuss Voigt Hill
#
# Bulk Modulus (GPa) = 53.55871 67.30920 60.43395
# Shear Modulus (GPa) = 20.63138 25.90168 23.26653
#
# Velocity S-wave (km/s) = 3.25517 3.64732 3.45681
# Velocity P-wave (km/s) = 6.45256 7.23234 6.85355
#
# Compressibility (1/GPa) = 0.01867110
#
# Stress axis : x y z
#
# Youngs Moduli (GPa) = 61.78903 80.99536 112.93831
#
# Poissons Ratio (x) = 0.01732 0.64814
# Poissons Ratio (y) = 0.01322 0.38445
# Poissons Ratio (z) = 0.35460 0.27572
#
# Static dielectric constant tensor:
#      x y z
#    x 1.737250 0.000000 0.000000 
#    y 0.000000 1.654340 0.000000 
#    z 0.000000 0.000000 1.690310 
# 
# From -- ./inp_files/15254.got.cif
#   From: 2010.05.17/outbox.cif.g08.bks.cpg/sg49_8_cif.got.tgz:15254.got - 2010.06.03 21:02:19.
