data_PCOD9394501
_publ_section_title
;
Structure prediction by ZEFSAII (Michael W. Deem and Ramdas Pophale) SiO2 
 PCOD9394501
Probable space group: P C C M
;
_chemical_formula_sum "Si O2"
_cell_formula_units_Z 48
_cell_length_a 9.669282
_cell_length_b 13.137708
_cell_length_c 19.170485
_cell_angle_alpha 90.000000
_cell_angle_beta 90.000000
_cell_angle_gamma 90.000000
_cell_volume 2435.268951
_symmetry_space_group_name_H-M "P C C M"
_symmetry_group_IT_number 49
_symmetry_cell_setting 'orthorhombic'
loop_
_space_group_symop_operation_xyz
x,y,z
-x,-y,z
x,-y,1/2-z
-x,y,1/2-z
-x,-y,-z
x,y,-z
-x,y,1/2+z
x,-y,1/2+z
loop_
_atom_site_type_symbol
_atom_site_label
_atom_site_fract_x
_atom_site_fract_y
_atom_site_fract_z
Si Si1 0.661659 0.970849 0.327656
Si Si2 0.697241 0.729932 0.665738
Si Si3 0.989661 0.729493 0.828031
Si Si4 0.434885 0.332168 0.918622
Si Si5 0.734096 0.400346 0.703518
Si Si6 0.781150 0.854518 0.081244
O O1 0.681727 0.851195 0.336705
O O2 0.500000 0.000000 0.332879
O O3 0.708879 0.000000 0.250000
O O4 0.740546 0.040145 0.383018
O O5 0.586350 0.684246 0.612887
O O6 0.675894 0.688360 0.744880
O O7 0.856133 0.702728 0.648913
O O8 0.888319 0.633295 0.817790
O O9 0.910676 0.804465 0.879551
O O10 0.000000 0.776078 0.750000
O O11 0.355964 0.407809 0.866125
O O12 0.345810 0.226761 0.911793
O O13 0.435263 0.360538 0.000000
O O14 0.732335 0.500000 0.750000
O O15 0.809146 0.867352 0.000000
#
# Coordination Sequence:
#
# PCOD9394501 Si02
#       6
#     8   8   8   8   8   8
#     4  11  21  33  58  88 120 166 209 255 300 367
#     4  11  22  36  59  91 123 154 209 260 306 358
#     4   9  20  38  61  88 121 159 206 264 305 368
#     4  10  21  38  61  90 125 159 200 254 311 368
#     4  10  22  42  66  90 117 161 207 256 319 377
#     4  10  21  39  60  86 125 171 208 249 313 376
#
# _framework density 19.710348
#
# number of rings (size 3 to 8) (size 9 to 14) (size 15 to 20)
#    0.000    1.833    1.667    3.500    2.333    6.667 
#    0.000    5.833    0.000    1.000    0.000   25.667 
#    0.000    0.000    0.000    0.000    0.000    0.000 
#
# Total GULP energy -268205.277603 kJ/mol
# GULP energy per Si atom -5587.609950 kJ/mol
# Density = 1.966549 g / cm^3
# Si number density = 19.710348 Si / 1000 Ang^3
#
#
#
# Elastic Constant Matrix: (Units=GPa)
#
#
# Indices 1 2 3 4 5 6 
#
# 1 143.7428 32.6588 85.1908 0.0000 0.0000 0.0000
# 2 32.6588 86.2192 52.5495 0.0000 0.0000 0.0000
# 3 85.1908 52.5495 169.3703 0.0000 0.0000 0.0000
# 4 0.0000 0.0000 0.0000 26.5734 0.0000 0.0000
# 5 0.0000 0.0000 0.0000 0.0000 16.6485 0.0000
# 6 0.0000 0.0000 0.0000 0.0000 0.0000 5.3423
#
#
#
# Elastic Compliance Matrix: (Units=1/GPa)
#
#
# Indices 1 2 3 4 5 6 
#
# 1 0.009966 -0.000888 -0.004737 0.000000 0.000000 0.000000
# 2 -0.000888 0.014382 -0.004016 0.000000 0.000000 0.000000
# 3 -0.004737 -0.004016 0.009533 0.000000 0.000000 0.000000
# 4 0.000000 0.000000 0.000000 0.037632 0.000000 0.000000
# 5 0.000000 0.000000 0.000000 0.000000 0.060065 0.000000
# 6 0.000000 0.000000 0.000000 0.000000 0.000000 0.187187
#
#
# Mechanical properties :
#
#
# Convention : Reuss Voigt Hill
#
# Bulk Modulus (GPa) = 68.49494 82.23674 75.36584
# Shear Modulus (GPa) = 14.58092 24.97505 19.77798
#
# Velocity S-wave (km/s) = 2.72280 3.56350 3.17114
# Velocity P-wave (km/s) = 6.68663 7.66450 7.19221
#
# Compressibility (1/GPa) = 0.01459962
#
# Stress axis : x y z
#
# Youngs Moduli (GPa) = 100.33840 69.53066 104.89813
#
# Poissons Ratio (x) = 0.06172 0.49695
# Poissons Ratio (y) = 0.08907 0.42125
# Poissons Ratio (z) = 0.47535 0.27922
#
# Static dielectric constant tensor:
#      x y z
#    x 1.709080 0.000000 0.000000 
#    y 0.000000 1.698530 0.000000 
#    z 0.000000 0.000000 1.671930 
# 
# From -- ./inp_files/16317.got.cif
#   From: 2010.05.17/outbox.cif.g08.bks.cpg/sg49_9_cif.got.tgz:16317.got - 2010.06.03 21:02:19.
