data_PCOD9394990
_publ_section_title
;
Structure prediction by ZEFSAII (Michael W. Deem and Ramdas Pophale) SiO2 
 PCOD9394990
Probable space group: P C C M
;
_chemical_formula_sum "Si O2"
_cell_formula_units_Z 40
_cell_length_a 19.027723
_cell_length_b 13.758845
_cell_length_c 8.534406
_cell_angle_alpha 90.000000
_cell_angle_beta 90.000000
_cell_angle_gamma 90.000000
_cell_volume 2234.303151
_symmetry_space_group_name_H-M "P C C M"
_symmetry_group_IT_number 49
_symmetry_cell_setting 'orthorhombic'
loop_
_space_group_symop_operation_xyz
x,y,z
-x,-y,z
x,-y,1/2-z
-x,y,1/2-z
-x,-y,-z
x,y,-z
-x,y,1/2+z
x,-y,1/2+z
loop_
_atom_site_type_symbol
_atom_site_label
_atom_site_fract_x
_atom_site_fract_y
_atom_site_fract_z
Si Si1 0.424656 0.389831 0.312457
Si Si2 0.282880 0.300128 0.186769
Si Si3 0.923261 0.802061 0.186931
Si Si4 0.142571 0.393500 0.687007
Si Si5 0.783164 0.105963 0.186826
O O1 0.416964 0.500000 0.250000
O O2 0.500000 0.353682 0.250000
O O3 0.424679 0.390669 0.500000
O O4 0.359065 0.329896 0.247790
O O5 0.222694 0.367420 0.264695
O O6 0.263311 0.190741 0.236082
O O7 0.278344 0.310983 0.000000
O O8 0.904085 0.691610 0.236732
O O9 0.862928 0.868196 0.263413
O O10 0.000000 0.826958 0.250000
O O11 0.919900 0.810542 0.000000
O O12 0.124493 0.500000 0.750000
O O13 0.135783 0.389404 0.500000
O O14 0.764638 0.000000 0.250000
O O15 0.777032 0.110693 0.000000
#
# Coordination Sequence:
#
# PCOD9394990 Si02
#       5
#     8   8   8   8   8
#     4  11  21  35  54  82 116 152 187 224 265 315
#     4  11  21  36  56  81 110 144 181 224 269 318
#     4  11  22  38  56  79 107 139 176 221 271 325
#     4  11  21  35  53  77 106 142 182 223 266 318
#     4  11  22  39  60  84 108 138 177 223 272 323
#
# _framework density 17.902674000000001
#
# number of rings (size 3 to 8) (size 9 to 14) (size 15 to 20)
#    0.000    1.000    0.000   12.600    0.000    0.800 
#    0.000    4.000    0.000    0.600    0.000    4.200 
#    0.000    0.000    0.000    0.000    0.000    0.000 
#
# Total GULP energy -223753.900841 kJ/mol
# GULP energy per Si atom -5593.847521 kJ/mol
# Density = 1.786193 g / cm^3
# Si number density = 17.902674 Si / 1000 Ang^3
#
#
#
# Elastic Constant Matrix: (Units=GPa)
#
#
# Indices 1 2 3 4 5 6 
#
# 1 91.9054 -1.8272 -1.2596 0.0000 0.0000 0.0000
# 2 -1.8272 45.5354 -11.6413 0.0000 0.0000 0.0000
# 3 -1.2596 -11.6413 111.4587 0.0000 0.0000 0.0000
# 4 0.0000 0.0000 0.0000 36.3354 0.0000 0.0000
# 5 0.0000 0.0000 0.0000 0.0000 33.4565 0.0000
# 6 0.0000 0.0000 0.0000 0.0000 0.0000 1.6198
#
#
#
# Elastic Compliance Matrix: (Units=1/GPa)
#
#
# Indices 1 2 3 4 5 6 
#
# 1 0.010893 0.000481 0.000173 0.000000 0.000000 0.000000
# 2 0.000481 0.022585 0.002364 0.000000 0.000000 0.000000
# 3 0.000173 0.002364 0.009221 0.000000 0.000000 0.000000
# 4 0.000000 0.000000 0.000000 0.027521 0.000000 0.000000
# 5 0.000000 0.000000 0.000000 0.000000 0.029890 0.000000
# 6 0.000000 0.000000 0.000000 0.000000 0.000000 0.617372
#
#
# Mechanical properties :
#
#
# Convention : Reuss Voigt Hill
#
# Bulk Modulus (GPa) = 20.51853 24.38257 22.45055
# Shear Modulus (GPa) = 6.87107 31.85752 19.36429
#
# Velocity S-wave (km/s) = 1.96121 4.22297 3.29240
# Velocity P-wave (km/s) = 4.07609 6.11776 5.19815
#
# Compressibility (1/GPa) = 0.04873644
#
# Stress axis : x y z
#
# Youngs Moduli (GPa) = 91.80455 44.27777 108.45006
#
# Poissons Ratio (x) = -0.02132 -0.01880
# Poissons Ratio (y) = -0.04420 -0.25641
# Poissons Ratio (z) = -0.01592 -0.10469
#
# Static dielectric constant tensor:
#      x y z
#    x 1.603820 0.000000 0.000000 
#    y 0.000000 1.600170 0.000000 
#    z 0.000000 0.000000 1.591240 
# 
# From -- ./inp_files/4663.got.cif
#   From: 2010.05.17/outbox.cif.g08.bks.cpg/sg49_3_cif.got.tgz:4663.got - 2010.06.03 21:02:19.
