data_PCOD9394995
_publ_section_title
;
Structure prediction by ZEFSAII (Michael W. Deem and Ramdas Pophale) SiO2 
 PCOD9394995
Probable space group: P C C M
;
_chemical_formula_sum "Si O2"
_cell_formula_units_Z 40
_cell_length_a 9.237018
_cell_length_b 27.110210
_cell_length_c 8.601878
_cell_angle_alpha 90.000000
_cell_angle_beta 90.000000
_cell_angle_gamma 90.000000
_cell_volume 2154.060765
_symmetry_space_group_name_H-M "P C C M"
_symmetry_group_IT_number 49
_symmetry_cell_setting 'orthorhombic'
loop_
_space_group_symop_operation_xyz
x,y,z
-x,-y,z
x,-y,1/2-z
-x,y,1/2-z
-x,-y,-z
x,y,-z
-x,y,1/2+z
x,-y,1/2+z
loop_
_atom_site_type_symbol
_atom_site_label
_atom_site_fract_x
_atom_site_fract_y
_atom_site_fract_z
Si Si1 0.164914 0.050363 0.685831
Si Si2 0.662086 0.646062 0.686080
Si Si3 0.164939 0.157925 0.686828
Si Si4 0.836955 0.553000 0.186301
Si Si5 0.164264 0.739487 0.314222
O O1 0.158337 0.047265 0.500000
O O2 0.229682 0.104084 0.727473
O O3 0.000000 0.051118 0.750000
O O4 0.233756 0.000000 0.750000
O O5 0.500000 0.647743 0.750000
O O6 0.663015 0.644763 0.500000
O O7 0.740554 0.597578 0.752168
O O8 0.746881 0.694182 0.745383
O O9 0.162085 0.162575 0.500000
O O10 0.228065 0.207640 0.759984
O O11 0.000000 0.156514 0.750000
O O12 0.785437 0.500000 0.250000
O O13 0.000000 0.559788 0.250000
O O14 0.839706 0.552270 0.000000
O O15 0.160894 0.737239 0.500000
O O16 0.000000 0.736450 0.250000
#
# Coordination Sequence:
#
# PCOD9394995 Si02
#       5
#     8   8   8   8   8
#     4   9  15  21  32  51  81 119 160 202 253 310
#     4  12  25  42  60  83 113 146 182 225 272 323
#     4   9  16  26  40  62  90 125 167 214 261 313
#     4  11  22  40  64  92 120 151 187 225 266 313
#     4  11  21  35  55  79 105 140 181 225 271 321
#
# _framework density 18.569578
#
# number of rings (size 3 to 8) (size 9 to 14) (size 15 to 20)
#    0.000    1.600    0.000    9.600    0.000    2.800 
#    0.000    2.000    0.000    0.000    0.000    0.000 
#    0.000    0.800    0.000    8.400    0.000    7.600 
#
# Total GULP energy -223262.118353 kJ/mol
# GULP energy per Si atom -5581.552959 kJ/mol
# Density = 1.852731 g / cm^3
# Si number density = 18.569578 Si / 1000 Ang^3
#
#
#
# Elastic Constant Matrix: (Units=GPa)
#
#
# Indices 1 2 3 4 5 6 
#
# 1 44.9863 70.7430 35.0433 0.0000 0.0000 0.0000
# 2 70.7430 234.7326 91.8237 0.0000 0.0000 0.0000
# 3 35.0433 91.8237 182.1323 0.0000 0.0000 0.0000
# 4 0.0000 0.0000 0.0000 50.7290 0.0000 0.0000
# 5 0.0000 0.0000 0.0000 0.0000 21.0162 0.0000
# 6 0.0000 0.0000 0.0000 0.0000 0.0000 -7.6637
#
#
#
# Elastic Compliance Matrix: (Units=1/GPa)
#
#
# Indices 1 2 3 4 5 6 
#
# 1 0.042929 -0.012091 -0.002164 0.000000 0.000000 0.000000
# 2 -0.012091 0.008712 -0.002066 0.000000 0.000000 0.000000
# 3 -0.002164 -0.002066 0.006948 0.000000 0.000000 0.000000
# 4 0.000000 0.000000 0.000000 0.019713 0.000000 0.000000
# 5 0.000000 0.000000 0.000000 0.000000 0.047582 0.000000
# 6 0.000000 0.000000 0.000000 0.000000 0.000000 -0.130486
#
#
# Mechanical properties :
#
#
# Convention : Reuss Voigt Hill
#
# Bulk Modulus (GPa) = 38.53968 95.23014 66.88491
# Shear Modulus (GPa) = 136.27771 30.43238 83.35504
#
# Velocity S-wave (km/s) = 8.57595 4.05264 6.70712
# Velocity P-wave (km/s) = 10.90238 8.56112 9.80190
#
# Compressibility (1/GPa) = 0.02594729
#
# Stress axis : x y z
#
# Youngs Moduli (GPa) = 23.29453 114.77935 143.91729
#
# Poissons Ratio (x) = 1.38782 0.31141
# Poissons Ratio (y) = 0.28166 0.29733
# Poissons Ratio (z) = 0.05040 0.23713
#
# Static dielectric constant tensor:
#      x y z
#    x 1.564720 0.000000 0.000000 
#    y 0.000000 1.701130 0.000000 
#    z 0.000000 0.000000 1.617780 
# 
# From -- ./inp_files/1920.got.cif
#   From: 2010.05.17/outbox.cif.g08.bks.cpg/sg49_1_cif.got.tgz:1920.got - 2010.06.03 21:02:19.
