data_PCOD9394271
_publ_section_title
;
Structure prediction by ZEFSAII (Michael W. Deem and Ramdas Pophale) SiO2 
 PCOD9394271
Probable space group: P C C M
;
_chemical_formula_sum "Si O2"
_cell_formula_units_Z 58
_cell_length_a 14.940227
_cell_length_b 25.883194
_cell_length_c 8.925744
_cell_angle_alpha 90.000000
_cell_angle_beta 90.000000
_cell_angle_gamma 90.000000
_cell_volume 3451.592290
_symmetry_space_group_name_H-M "P C C M"
_symmetry_group_IT_number 49
_symmetry_cell_setting 'orthorhombic'
loop_
_space_group_symop_operation_xyz
x,y,z
-x,-y,z
x,-y,1/2-z
-x,y,1/2-z
-x,-y,-z
x,y,-z
-x,y,1/2+z
x,-y,1/2+z
loop_
_atom_site_type_symbol
_atom_site_label
_atom_site_fract_x
_atom_site_fract_y
_atom_site_fract_z
Si Si1 0.901004 0.666650 0.179982
Si Si2 0.645604 0.916308 0.327904
Si Si3 0.233605 0.756828 0.677753
Si Si4 0.087240 0.155638 0.823523
Si Si5 0.593996 0.197709 0.820127
Si Si6 0.158385 0.946754 0.179906
Si Si7 0.500000 0.000000 0.250000
Si Si8 0.099326 0.550879 0.678904
O O1 0.828706 0.709180 0.227985
O O2 0.865680 0.608486 0.211519
O O3 0.000000 0.673360 0.250000
O O4 0.911540 0.671361 0.000000
O O5 0.667066 0.904682 0.500000
O O6 0.613959 0.861396 0.263210
O O7 0.738792 0.937479 0.263534
O O8 0.568788 0.959778 0.326066
O O9 0.252455 0.750719 0.500000
O O10 0.172473 0.807720 0.696132
O O11 0.324500 0.766680 0.766583
O O12 0.104429 0.102297 0.738238
O O13 0.000000 0.181107 0.750000
O O14 0.073422 0.147294 0.000000
O O15 0.500000 0.213946 0.750000
O O16 0.587423 0.197247 0.000000
O O17 0.125504 0.000000 0.250000
O O18 0.155915 0.950003 0.000000
O O19 0.144259 0.500000 0.750000
O O20 0.093729 0.544533 0.500000
O O21 0.000000 0.552414 0.750000
#
# Coordination Sequence:
#
# PCOD9394271 Si02
#       8
#     8   8   8   8   8   8   2   8
#     4   9  18  31  48  73 106 142 183 222 261 301
#     4  10  21  33  50  74 100 125 151 188 239 297
#     4  10  21  37  55  77 104 136 172 212 257 304
#     4  11  23  38  57  79 100 130 165 206 253 301
#     4  11  22  38  56  78 102 131 166 204 253 306
#     4  11  22  39  56  75  99 125 158 198 245 300
#     4  12  18  36  52  78 102 124 154 192 248 304
#     4   9  15  24  40  64  98 140 180 220 257 299
#
# _framework density 16.803837999999999
#
# number of rings (size 3 to 8) (size 9 to 14) (size 15 to 20)
#    0.000    1.793    2.759    2.690    0.000    1.931 
#    0.000    1.379    0.000    0.000    0.000    0.000 
#    0.000    0.552    0.000    6.345    0.000    1.931 
#
# Total GULP energy -323378.198351 kJ/mol
# GULP energy per Si atom -5575.486178 kJ/mol
# Density = 1.676559 g / cm^3
# Si number density = 16.803838 Si / 1000 Ang^3
#
#
#
# Elastic Constant Matrix: (Units=GPa)
#
#
# Indices 1 2 3 4 5 6 
#
# 1 83.7980 35.5283 34.9162 0.0000 0.0000 0.0000
# 2 35.5283 115.1888 39.1253 0.0000 0.0000 0.0000
# 3 34.9162 39.1253 63.0453 0.0000 0.0000 0.0000
# 4 0.0000 0.0000 0.0000 35.6706 0.0000 0.0000
# 5 0.0000 0.0000 0.0000 0.0000 20.3764 0.0000
# 6 0.0000 0.0000 0.0000 0.0000 0.0000 6.7601
#
#
#
# Elastic Compliance Matrix: (Units=1/GPa)
#
#
# Indices 1 2 3 4 5 6 
#
# 1 0.016039 -0.002445 -0.007365 0.000000 0.000000 0.000000
# 2 -0.002445 0.011373 -0.005704 0.000000 0.000000 0.000000
# 3 -0.007365 -0.005704 0.023480 0.000000 0.000000 0.000000
# 4 0.000000 0.000000 0.000000 0.028034 0.000000 0.000000
# 5 0.000000 0.000000 0.000000 0.000000 0.049076 0.000000
# 6 0.000000 0.000000 0.000000 0.000000 0.000000 0.147927
#
#
# Mechanical properties :
#
#
# Convention : Reuss Voigt Hill
#
# Bulk Modulus (GPa) = 50.34285 53.46351 51.90318
# Shear Modulus (GPa) = 15.94491 22.72559 19.33525
#
# Velocity S-wave (km/s) = 3.08374 3.68149 3.39580
# Velocity P-wave (km/s) = 6.53479 7.06799 6.80661
#
# Compressibility (1/GPa) = 0.01986379
#
# Stress axis : x y z
#
# Youngs Moduli (GPa) = 62.34747 87.92807 42.58872
#
# Poissons Ratio (x) = 0.21501 0.31368
# Poissons Ratio (y) = 0.15246 0.24291
# Poissons Ratio (z) = 0.45921 0.50151
#
# Static dielectric constant tensor:
#      x y z
#    x 1.567680 0.000000 0.000000 
#    y 0.000000 1.600290 0.000000 
#    z 0.000000 0.000000 1.569210 
# 
# From -- ./inp_files/4235.got.cif
#   From: 2010.05.17/outbox.cif.g08.bks.cpg/sg49_3_cif.got.tgz:4235.got - 2010.06.03 21:02:19.
