data_PCOD9394178
_publ_section_title
;
Structure prediction by ZEFSAII (Michael W. Deem and Ramdas Pophale) SiO2 
 PCOD9394178
Probable space group: P C C M
;
_chemical_formula_sum "Si O2"
_cell_formula_units_Z 58
_cell_length_a 10.236256
_cell_length_b 17.544260
_cell_length_c 17.387007
_cell_angle_alpha 90.000000
_cell_angle_beta 90.000000
_cell_angle_gamma 90.000000
_cell_volume 3122.489758
_symmetry_space_group_name_H-M "P C C M"
_symmetry_group_IT_number 49
_symmetry_cell_setting 'orthorhombic'
loop_
_space_group_symop_operation_xyz
x,y,z
-x,-y,z
x,-y,1/2-z
-x,y,1/2-z
-x,-y,-z
x,y,-z
-x,y,1/2+z
x,-y,1/2+z
loop_
_atom_site_type_symbol
_atom_site_label
_atom_site_fract_x
_atom_site_fract_y
_atom_site_fract_z
Si Si1 0.251460 0.305998 0.091491
Si Si2 0.031893 0.722326 0.159552
Si Si3 0.000000 0.000000 0.250000
Si Si4 0.106697 0.565187 0.908753
Si Si5 0.553263 0.914755 0.414224
Si Si6 0.612897 0.186473 0.301939
Si Si7 0.363408 0.468457 0.908242
Si Si8 0.188694 0.875423 0.174014
O O1 0.333644 0.244031 0.136102
O O2 0.303141 0.388454 0.119328
O O3 0.102585 0.287588 0.113240
O O4 0.265716 0.302041 0.000000
O O5 0.103357 0.643799 0.137595
O O6 0.110205 0.800814 0.143826
O O7 0.000000 0.723979 0.250000
O O8 0.908773 0.942983 0.300127
O O9 0.248897 0.529348 0.899565
O O10 0.000000 0.500000 0.885952
O O11 0.081953 0.580367 0.000000
O O12 0.540391 0.880375 0.500000
O O13 0.463262 0.877421 0.349381
O O14 0.702424 0.905705 0.385591
O O15 0.500000 0.000000 0.418863
O O16 0.500000 0.223894 0.250000
O O17 0.727943 0.153449 0.248373
O O18 0.500000 0.500000 0.875844
O O19 0.383664 0.457189 0.000000
#
# Coordination Sequence:
#
# PCOD9394178 Si02
#       8
#     8   8   2   8   8   8   8   8
#     4  11  21  38  63  88 120 165 210 260 321 382
#     4  12  23  39  59  91 130 160 208 269 318 378
#     4  12  20  40  64  84 118 172 208 248 312 400
#     4  10  20  38  63  88 119 169 218 258 320 398
#     4  10  22  40  62  90 122 157 207 263 320 391
#     4  10  21  39  61  87 121 160 200 256 317 386
#     4   9  19  36  58  86 117 156 212 265 312 378
#     4  11  23  39  63  92 124 164 211 257 319 385
#
# _framework density 18.574922000000001
#
# number of rings (size 3 to 8) (size 9 to 14) (size 15 to 20)
#    0.000    1.517    3.448    1.655    0.000    5.517 
#    0.000    1.724    0.000    0.000    0.000    0.000 
#    0.000    0.000    0.000    0.000    0.000    0.000 
#
# Total GULP energy -323474.517381 kJ/mol
# GULP energy per Si atom -5577.146851 kJ/mol
# Density = 1.853264 g / cm^3
# Si number density = 18.574922 Si / 1000 Ang^3
#
#
#
# Elastic Constant Matrix: (Units=GPa)
#
#
# Indices 1 2 3 4 5 6 
#
# 1 109.2954 52.7729 31.7931 0.0000 0.0000 0.0000
# 2 52.7729 104.6304 21.6196 0.0000 0.0000 0.0000
# 3 31.7931 21.6196 54.3183 0.0000 0.0000 0.0000
# 4 0.0000 0.0000 0.0000 28.4139 0.0000 0.0000
# 5 0.0000 0.0000 0.0000 0.0000 53.3754 0.0000
# 6 0.0000 0.0000 0.0000 0.0000 0.0000 53.5794
#
#
#
# Elastic Compliance Matrix: (Units=1/GPa)
#
#
# Indices 1 2 3 4 5 6 
#
# 1 0.013527 -0.005652 -0.005668 0.000000 0.000000 0.000000
# 2 -0.005652 0.012775 -0.001777 0.000000 0.000000 0.000000
# 3 -0.005668 -0.001777 0.022435 0.000000 0.000000 0.000000
# 4 0.000000 0.000000 0.000000 0.035194 0.000000 0.000000
# 5 0.000000 0.000000 0.000000 0.000000 0.018735 0.000000
# 6 0.000000 0.000000 0.000000 0.000000 0.000000 0.018664
#
#
# Mechanical properties :
#
#
# Convention : Reuss Voigt Hill
#
# Bulk Modulus (GPa) = 44.35760 53.40169 48.87964
# Shear Modulus (GPa) = 32.25015 37.87762 35.06389
#
# Velocity S-wave (km/s) = 4.17132 4.52063 4.34948
# Velocity P-wave (km/s) = 6.86528 7.48731 7.18303
#
# Compressibility (1/GPa) = 0.02254405
#
# Stress axis : x y z
#
# Youngs Moduli (GPa) = 73.92526 78.27737 44.57354
#
# Poissons Ratio (x) = 0.44239 0.25265
# Poissons Ratio (y) = 0.41779 0.07920
# Poissons Ratio (z) = 0.41902 0.13908
#
# Static dielectric constant tensor:
#      x y z
#    x 1.673740 0.000000 0.000000 
#    y 0.000000 1.660380 0.000000 
#    z 0.000000 0.000000 1.648950 
# 
# From -- ./inp_files/16491.got.cif
#   From: 2010.05.17/outbox.cif.g08.bks.cpg/sg49_9_cif.got.tgz:16491.got - 2010.06.03 21:02:19.
