data_PCOD9394337
_publ_section_title
;
Structure prediction by ZEFSAII (Michael W. Deem and Ramdas Pophale) SiO2 
 PCOD9394337
Probable space group: P C C M
;
_chemical_formula_sum "Si O2"
_cell_formula_units_Z 56
_cell_length_a 8.972897
_cell_length_b 14.866550
_cell_length_c 21.641558
_cell_angle_alpha 90.000000
_cell_angle_beta 90.000000
_cell_angle_gamma 90.000000
_cell_volume 2886.897745
_symmetry_space_group_name_H-M "P C C M"
_symmetry_group_IT_number 49
_symmetry_cell_setting 'orthorhombic'
loop_
_space_group_symop_operation_xyz
x,y,z
-x,-y,z
x,-y,1/2-z
-x,y,1/2-z
-x,-y,-z
x,y,-z
-x,y,1/2+z
x,-y,1/2+z
loop_
_atom_site_type_symbol
_atom_site_label
_atom_site_fract_x
_atom_site_fract_y
_atom_site_fract_z
Si Si1 0.569075 0.287375 0.929442
Si Si2 0.606232 0.581969 0.160337
Si Si3 0.173895 0.391041 0.261496
Si Si4 0.126808 0.575401 0.429610
Si Si5 0.888763 0.713542 0.384687
Si Si6 0.079410 0.906816 0.928404
Si Si7 0.567779 0.912393 0.571377
O O1 0.492929 0.356521 0.883815
O O2 0.748995 0.293387 0.931201
O O3 0.534077 0.186961 0.904812
O O4 0.515691 0.298569 0.000000
O O5 0.500000 0.500000 0.180869
O O6 0.692020 0.634806 0.215112
O O7 0.740912 0.548620 0.116045
O O8 0.180939 0.500000 0.250000
O O9 0.184495 0.337961 0.325931
O O10 0.000000 0.370090 0.250000
O O11 0.178377 0.587062 0.500000
O O12 0.000000 0.500000 0.428367
O O13 0.037483 0.661764 0.405110
O O14 0.934593 0.818924 0.384819
O O15 0.255552 0.924453 0.929948
O O16 0.032779 0.885059 0.000000
O O17 0.000000 0.000000 0.910204
O O18 0.513770 0.909484 0.500000
O O19 0.500000 0.000000 0.602674
#
# Coordination Sequence:
#
# PCOD9394337 Si02
#       7
#     8   8   8   8   8   8   8
#     4  10  21  36  56  89 126 157 198 256 323 386
#     4  12  25  39  59  88 120 157 205 263 310 372
#     4  11  23  42  64  83 115 161 218 267 304 364
#     4  11  22  36  57  86 121 165 203 249 328 395
#     4  11  21  38  63  87 124 165 212 266 314 373
#     4   9  18  33  57  93 128 161 206 256 311 378
#     4   8  15  30  51  77 115 157 189 234 297 362
#
# _framework density 19.397984999999998
#
# number of rings (size 3 to 8) (size 9 to 14) (size 15 to 20)
#    0.000    1.714    1.429    5.143    0.000    5.429 
#    0.000    2.857    0.000    0.429    0.000    1.000 
#    0.000    0.000    0.000    0.000    0.000    0.000 
#
# Total GULP energy -311850.016105 kJ/mol
# GULP energy per Si atom -5568.750288 kJ/mol
# Density = 1.935383 g / cm^3
# Si number density = 19.397985 Si / 1000 Ang^3
#
#
#
# Elastic Constant Matrix: (Units=GPa)
#
#
# Indices 1 2 3 4 5 6 
#
# 1 75.6321 37.4205 32.2484 0.0000 0.0000 0.0000
# 2 37.4205 119.2454 53.5692 0.0000 0.0000 0.0000
# 3 32.2484 53.5692 101.1696 0.0000 0.0000 0.0000
# 4 0.0000 0.0000 0.0000 16.5927 0.0000 0.0000
# 5 0.0000 0.0000 0.0000 0.0000 25.9914 0.0000
# 6 0.0000 0.0000 0.0000 0.0000 0.0000 33.4321
#
#
#
# Elastic Compliance Matrix: (Units=1/GPa)
#
#
# Indices 1 2 3 4 5 6 
#
# 1 0.016448 -0.003682 -0.003293 0.000000 0.000000 0.000000
# 2 -0.003682 0.011828 -0.005089 0.000000 0.000000 0.000000
# 3 -0.003293 -0.005089 0.013629 0.000000 0.000000 0.000000
# 4 0.000000 0.000000 0.000000 0.060268 0.000000 0.000000
# 5 0.000000 0.000000 0.000000 0.000000 0.038474 0.000000
# 6 0.000000 0.000000 0.000000 0.000000 0.000000 0.029911
#
#
# Mechanical properties :
#
#
# Convention : Reuss Voigt Hill
#
# Bulk Modulus (GPa) = 56.25676 60.28036 58.26856
# Shear Modulus (GPa) = 24.92379 26.72385 25.82382
#
# Velocity S-wave (km/s) = 3.58839 3.71571 3.65261
# Velocity P-wave (km/s) = 6.79949 7.03930 6.92043
#
# Compressibility (1/GPa) = 0.01777564
#
# Stress axis : x y z
#
# Youngs Moduli (GPa) = 60.79823 84.54692 73.37415
#
# Poissons Ratio (x) = 0.31131 0.24163
# Poissons Ratio (y) = 0.22387 0.37341
# Poissons Ratio (z) = 0.20022 0.43027
#
# Static dielectric constant tensor:
#      x y z
#    x 1.686940 0.000000 0.000000 
#    y 0.000000 1.729760 0.000000 
#    z 0.000000 0.000000 1.741130 
# 
# From -- ./inp_files/19883.got.cif
#   From: 2010.05.17/outbox.cif.g08.bks.cpg/sg49_10_cif.got.tgz:19883.got - 2010.06.03 21:02:19.
