data_PCOD9394945
_publ_section_title
;
Structure prediction by ZEFSAII (Michael W. Deem and Ramdas Pophale) SiO2 
 PCOD9394945
Probable space group: P C C M
;
_chemical_formula_sum "Si O2"
_cell_formula_units_Z 38
_cell_length_a 4.887072
_cell_length_b 19.385858
_cell_length_c 16.125062
_cell_angle_alpha 90.000000
_cell_angle_beta 90.000000
_cell_angle_gamma 90.000000
_cell_volume 1527.689726
_symmetry_space_group_name_H-M "P C C M"
_symmetry_group_IT_number 49
_symmetry_cell_setting 'orthorhombic'
loop_
_space_group_symop_operation_xyz
x,y,z
-x,-y,z
x,-y,1/2-z
-x,y,1/2-z
-x,-y,-z
x,y,-z
-x,y,1/2+z
x,-y,1/2+z
loop_
_atom_site_type_symbol
_atom_site_label
_atom_site_fract_x
_atom_site_fract_y
_atom_site_fract_z
Si Si1 0.000000 0.500000 0.250000
Si Si2 0.831179 0.152225 0.859202
Si Si3 0.574595 0.660545 0.500000
Si Si4 0.680409 0.933778 0.902129
Si Si5 0.075908 0.247402 0.000000
Si Si6 0.684367 0.378053 0.669520
Si Si7 0.000000 0.262450 0.250000
O O1 0.172270 0.549864 0.309737
O O2 0.544433 0.125860 0.892084
O O3 0.989693 0.199593 0.924406
O O4 0.787126 0.206383 0.784982
O O5 0.046584 0.088105 0.852267
O O6 0.888130 0.683523 0.500000
O O7 0.483155 0.622918 0.584540
O O8 0.389118 0.729679 0.500000
O O9 0.500000 0.000000 0.875381
O O10 0.752772 0.942990 0.000000
O O11 0.500000 0.365064 0.750000
O O12 0.895618 0.314588 0.678835
#
# Coordination Sequence:
#
# PCOD9394945 Si02
#       7
#     2   8   4   8   4   8   4
#     4  10  26  50  72 106 150 198 236 282 352 424
#     4  12  23  40  64  97 132 176 227 291 357 420
#     4  12  26  43  77 107 151 186 241 296 364 421
#     4  11  23  41  64  92 128 176 234 292 350 427
#     4  12  22  42  65 110 137 176 235 302 352 429
#     4  11  25  48  73 108 147 191 237 296 351 433
#     4  11  26  39  67  98 141 174 228 294 361 414
#
# _framework density 24.87416
#
# number of rings (size 3 to 8) (size 9 to 14) (size 15 to 20)
#    0.000    0.632    4.211    3.474    5.895    2.105 
#    0.000    5.263    0.000    0.000    0.000    0.000 
#    0.000    0.000    0.000    0.000    0.000    0.000 
#
# Total GULP energy -212564.873550 kJ/mol
# GULP energy per Si atom -5593.812462 kJ/mol
# Density = 2.481755 g / cm^3
# Si number density = 24.874160 Si / 1000 Ang^3
#
#
#
# Elastic Constant Matrix: (Units=GPa)
#
#
# Indices 1 2 3 4 5 6 
#
# 1 115.4055 38.9206 20.9023 0.0000 0.0000 0.0000
# 2 38.9206 125.8520 41.8559 0.0000 0.0000 0.0000
# 3 20.9023 41.8559 108.8706 0.0000 0.0000 0.0000
# 4 0.0000 0.0000 0.0000 9.9295 0.0000 0.0000
# 5 0.0000 0.0000 0.0000 0.0000 28.2846 0.0000
# 6 0.0000 0.0000 0.0000 0.0000 0.0000 38.9625
#
#
#
# Elastic Compliance Matrix: (Units=1/GPa)
#
#
# Indices 1 2 3 4 5 6 
#
# 1 0.009737 -0.002740 -0.000816 0.000000 0.000000 0.000000
# 2 -0.002740 0.009882 -0.003273 0.000000 0.000000 0.000000
# 3 -0.000816 -0.003273 0.010600 0.000000 0.000000 0.000000
# 4 0.000000 0.000000 0.000000 0.100710 0.000000 0.000000
# 5 0.000000 0.000000 0.000000 0.000000 0.035355 0.000000
# 6 0.000000 0.000000 0.000000 0.000000 0.000000 0.025666
#
#
# Mechanical properties :
#
#
# Convention : Reuss Voigt Hill
#
# Bulk Modulus (GPa) = 60.38285 61.49839 60.94062
# Shear Modulus (GPa) = 23.68237 31.99861 27.84049
#
# Velocity S-wave (km/s) = 3.08894 3.59056 3.34915
# Velocity P-wave (km/s) = 6.08688 6.47819 6.28558
#
# Compressibility (1/GPa) = 0.01656099
#
# Stress axis : x y z
#
# Youngs Moduli (GPa) = 102.70198 101.19718 94.33747
#
# Poissons Ratio (x) = 0.27726 0.07699
# Poissons Ratio (y) = 0.28138 0.30877
# Poissons Ratio (z) = 0.08381 0.33122
#
# Static dielectric constant tensor:
#      x y z
#    x 1.975490 0.000000 0.000000 
#    y 0.000000 2.071490 0.000000 
#    z 0.000000 0.000000 2.162460 
# 
# From -- ./inp_files/15307.got.cif
#   From: 2010.05.17/outbox.cif.g08.bks.cpg/sg49_8_cif.got.tgz:15307.got - 2010.06.03 21:02:19.
