data_PCOD9394434
_publ_section_title
;
Structure prediction by ZEFSAII (Michael W. Deem and Ramdas Pophale) SiO2 
 PCOD9394434
Probable space group: P C C M
;
_chemical_formula_sum "Si O2"
_cell_formula_units_Z 64
_cell_length_a 16.751416
_cell_length_b 11.788700
_cell_length_c 15.226741
_cell_angle_alpha 90.000000
_cell_angle_beta 90.000000
_cell_angle_gamma 90.000000
_cell_volume 3006.937494
_symmetry_space_group_name_H-M "P C C M"
_symmetry_group_IT_number 49
_symmetry_cell_setting 'orthorhombic'
loop_
_space_group_symop_operation_xyz
x,y,z
-x,-y,z
x,-y,1/2-z
-x,y,1/2-z
-x,-y,-z
x,y,-z
-x,y,1/2+z
x,-y,1/2+z
loop_
_atom_site_type_symbol
_atom_site_label
_atom_site_fract_x
_atom_site_fract_y
_atom_site_fract_z
Si Si1 0.298266 0.970057 0.605308
Si Si2 0.182581 0.632725 0.734625
Si Si3 0.634567 0.630866 0.763865
Si Si4 0.620449 0.204097 0.897619
Si Si5 0.124111 0.981911 0.650935
Si Si6 0.938325 0.252942 0.599043
Si Si7 0.876481 0.240931 0.901334
Si Si8 0.562416 0.204008 0.602723
O O1 0.285778 0.961004 0.500000
O O2 0.322330 0.099204 0.624460
O O3 0.215811 0.938939 0.651254
O O4 0.372211 0.889835 0.628505
O O5 0.165013 0.500000 0.750000
O O6 0.273902 0.640959 0.702588
O O7 0.119428 0.687299 0.668033
O O8 0.174723 0.700792 0.825962
O O9 0.615516 0.500000 0.750000
O O10 0.630568 0.695861 0.671247
O O11 0.577089 0.690868 0.833431
O O12 0.528496 0.162644 0.890067
O O13 0.633210 0.235758 0.000000
O O14 0.125290 0.104372 0.605826
O O15 0.096376 0.000000 0.750000
O O16 0.073243 0.882887 0.607406
O O17 0.917272 0.287120 0.500000
O O18 0.031520 0.277306 0.613904
O O19 0.852152 0.273042 0.000000
O O20 0.575464 0.232747 0.500000
#
# Coordination Sequence:
#
# PCOD9394434 Si02
#       8
#     8   8   8   8   8   8   8   8
#     4  10  21  37  60  91 126 160 199 245 299 365
#     4  11  25  44  65  90 123 161 207 257 306 361
#     4  11  25  42  61  88 119 159 207 251 298 359
#     4  10  22  40  63  91 123 159 200 249 303 358
#     4  12  23  36  61  95 129 163 201 247 305 367
#     4  11  24  42  65  93 125 162 204 251 306 366
#     4  11  24  42  65  93 125 162 204 251 306 366
#     4  10  22  40  63  91 123 159 200 249 303 358
#
# _framework density 21.284113999999999
#
# number of rings (size 3 to 8) (size 9 to 14) (size 15 to 20)
#    0.000    1.250    1.250    4.125    1.750    9.000 
#    0.000    6.250    0.000    0.000    0.000    0.000 
#    0.000    0.000    0.000    0.000    0.000    0.000 
#
# Total GULP energy -358225.251165 kJ/mol
# GULP energy per Si atom -5597.269549 kJ/mol
# Density = 2.123567 g / cm^3
# Si number density = 21.284114 Si / 1000 Ang^3
#
#
#
# Elastic Constant Matrix: (Units=GPa)
#
#
# Indices 1 2 3 4 5 6 
#
# 1 66.2704 -1.2659 13.3474 0.0000 0.0000 0.0000
# 2 -1.2659 64.3365 9.1224 0.0000 0.0000 0.0000
# 3 13.3474 9.1224 58.4495 0.0000 0.0000 0.0000
# 4 0.0000 0.0000 0.0000 -18.5424 0.0000 0.0000
# 5 0.0000 0.0000 0.0000 0.0000 22.4455 0.0000
# 6 0.0000 0.0000 0.0000 0.0000 0.0000 17.5768
#
#
#
# Elastic Compliance Matrix: (Units=1/GPa)
#
#
# Indices 1 2 3 4 5 6 
#
# 1 0.015862 0.000844 -0.003754 0.000000 0.000000 0.000000
# 2 0.000844 0.015940 -0.002681 0.000000 0.000000 0.000000
# 3 -0.003754 -0.002681 0.018384 0.000000 0.000000 0.000000
# 4 0.000000 0.000000 0.000000 -0.053930 0.000000 0.000000
# 5 0.000000 0.000000 0.000000 0.000000 0.044552 0.000000
# 6 0.000000 0.000000 0.000000 0.000000 0.000000 0.056893
#
#
# Mechanical properties :
#
#
# Convention : Reuss Voigt Hill
#
# Bulk Modulus (GPa) = 25.63718 25.71825 25.67772
# Shear Modulus (GPa) = 41.02264 15.48613 28.25439
#
# Velocity S-wave (km/s) = 4.39496 2.70032 3.64742
# Velocity P-wave (km/s) = 6.15025 4.67245 5.46157
#
# Compressibility (1/GPa) = 0.03900585
#
# Stress axis : x y z
#
# Youngs Moduli (GPa) = 63.04413 62.73527 54.39391
#
# Poissons Ratio (x) = -0.05297 0.20419
# Poissons Ratio (y) = -0.05323 0.14581
# Poissons Ratio (z) = 0.23667 0.16817
#
# Static dielectric constant tensor:
#      x y z
#    x 1.774020 0.000000 0.000000 
#    y 0.000000 1.730460 0.000000 
#    z 0.000000 0.000000 1.744290 
# 
# From -- ./inp_files/13058.got.cif
#   From: 2010.05.17/outbox.cif.g08.bks.cpg/sg49_7_cif.got.tgz:13058.got - 2010.06.03 21:02:19.
