data_PCOD9394758
_publ_section_title
;
Structure prediction by ZEFSAII (Michael W. Deem and Ramdas Pophale) SiO2 
 PCOD9394758
Probable space group: P C C M
;
_chemical_formula_sum "Si O2"
_cell_formula_units_Z 48
_cell_length_a 8.649266
_cell_length_b 17.175990
_cell_length_c 14.002439
_cell_angle_alpha 90.000000
_cell_angle_beta 90.000000
_cell_angle_gamma 90.000000
_cell_volume 2080.198226
_symmetry_space_group_name_H-M "P C C M"
_symmetry_group_IT_number 49
_symmetry_cell_setting 'orthorhombic'
loop_
_space_group_symop_operation_xyz
x,y,z
-x,-y,z
x,-y,1/2-z
-x,y,1/2-z
-x,-y,-z
x,y,-z
-x,y,1/2+z
x,-y,1/2+z
loop_
_atom_site_type_symbol
_atom_site_label
_atom_site_fract_x
_atom_site_fract_y
_atom_site_fract_z
Si Si1 0.818638 0.506228 0.609339
Si Si2 0.663629 0.078804 0.200587
Si Si3 0.057998 0.879625 0.500000
Si Si4 0.695051 0.338509 0.174382
Si Si5 0.909761 0.787369 0.338405
Si Si6 0.346805 0.338468 0.891533
Si Si7 0.734399 0.976741 0.500000
O O1 0.805184 0.535609 0.500000
O O2 0.748457 0.572542 0.675574
O O3 0.730250 0.424146 0.610055
O O4 0.000000 0.500000 0.630558
O O5 0.500000 0.099066 0.250000
O O6 0.790166 0.146270 0.197137
O O7 0.643058 0.052116 0.091792
O O8 0.726322 0.000000 0.250000
O O9 0.034033 0.826468 0.407863
O O10 0.900619 0.931986 0.500000
O O11 0.209361 0.933608 0.500000
O O12 0.810991 0.282203 0.118207
O O13 0.531326 0.339103 0.121593
O O14 0.693416 0.306694 0.284403
O O15 0.000000 0.753111 0.250000
O O16 0.310926 0.306465 0.000000
#
# Coordination Sequence:
#
# PCOD9394758 Si02
#       7
#     8   8   4   8   8   8   4
#     4  10  22  40  67  98 130 172 226 284 336 398
#     4  10  22  40  67  96 133 173 217 273 327 401
#     4   9  20  40  68  96 130 176 224 276 327 401
#     4  11  24  40  65  95 131 174 221 282 336 412
#     4  11  25  42  63  99 132 175 221 275 343 402
#     4  10  23  43  65  91 125 178 227 273 339 407
#     4   9  18  39  68 100 130 170 228 268 328 401
#
# _framework density 23.074724
#
# number of rings (size 3 to 8) (size 9 to 14) (size 15 to 20)
#    0.000    1.833    0.000    2.500    7.000    6.333 
#    1.500    0.833    0.000    0.000    0.000    0.000 
#    0.000    0.000    0.000    0.000    0.000    0.000 
#
# Total GULP energy -267894.742627 kJ/mol
# GULP energy per Si atom -5581.140471 kJ/mol
# Density = 2.302220 g / cm^3
# Si number density = 23.074724 Si / 1000 Ang^3
#
#
#
# Elastic Constant Matrix: (Units=GPa)
#
#
# Indices 1 2 3 4 5 6 
#
# 1 97.3927 14.0059 23.8940 0.0000 0.0000 0.0000
# 2 14.0059 33.7758 -11.7654 0.0000 0.0000 0.0000
# 3 23.8940 -11.7654 133.2990 0.0000 0.0000 0.0000
# 4 0.0000 0.0000 0.0000 16.3951 0.0000 0.0000
# 5 0.0000 0.0000 0.0000 0.0000 -140.2200 0.0000
# 6 0.0000 0.0000 0.0000 0.0000 0.0000 36.5124
#
#
#
# Elastic Compliance Matrix: (Units=1/GPa)
#
#
# Indices 1 2 3 4 5 6 
#
# 1 0.011740 -0.005779 -0.002615 0.000000 0.000000 0.000000
# 2 -0.005779 0.033391 0.003983 0.000000 0.000000 0.000000
# 3 -0.002615 0.003983 0.008322 0.000000 0.000000 0.000000
# 4 0.000000 0.000000 0.000000 0.060994 0.000000 0.000000
# 5 0.000000 0.000000 0.000000 0.000000 -0.007132 0.000000
# 6 0.000000 0.000000 0.000000 0.000000 0.000000 0.027388
#
#
# Mechanical properties :
#
#
# Convention : Reuss Voigt Hill
#
# Bulk Modulus (GPa) = 22.40535 35.19294 28.79915
# Shear Modulus (GPa) = 31.56532 -1.57363 14.99585
#
# Velocity S-wave (km/s) = 3.70261 -0.82671 2.55204
# Velocity P-wave (km/s) = 5.29245 3.79125 4.60346
#
# Compressibility (1/GPa) = 0.04463219
#
# Stress axis : x y z
#
# Youngs Moduli (GPa) = 85.17723 29.94833 120.16127
#
# Poissons Ratio (x) = 0.17307 0.31417
# Poissons Ratio (y) = 0.49225 -0.47861
# Poissons Ratio (z) = 0.22270 -0.11929
#
# Static dielectric constant tensor:
#      x y z
#    x 1.818370 0.000000 0.000000 
#    y 0.000000 1.835130 0.000000 
#    z 0.000000 0.000000 1.964010 
# 
# From -- ./inp_files/11899.got.cif
#   From: 2010.05.17/outbox.cif.g08.bks.cpg/sg49_6_cif.got.tgz:11899.got - 2010.06.03 21:02:19.
