data_PCOD9394673
_publ_section_title
;
Structure prediction by ZEFSAII (Michael W. Deem and Ramdas Pophale) SiO2 
 PCOD9394673
Probable space group: P C C M
;
_chemical_formula_sum "Si O2"
_cell_formula_units_Z 58
_cell_length_a 14.192367
_cell_length_b 11.382053
_cell_length_c 18.728148
_cell_angle_alpha 90.000000
_cell_angle_beta 90.000000
_cell_angle_gamma 90.000000
_cell_volume 3025.312692
_symmetry_space_group_name_H-M "P C C M"
_symmetry_group_IT_number 49
_symmetry_cell_setting 'orthorhombic'
loop_
_space_group_symop_operation_xyz
x,y,z
-x,-y,z
x,-y,1/2-z
-x,y,1/2-z
-x,-y,-z
x,y,-z
-x,y,1/2+z
x,-y,1/2+z
loop_
_atom_site_type_symbol
_atom_site_label
_atom_site_fract_x
_atom_site_fract_y
_atom_site_fract_z
Si Si1 0.319201 0.621175 0.293362
Si Si2 0.890103 0.989349 0.081893
Si Si3 0.401676 0.782016 0.177068
Si Si4 0.457798 0.630672 0.580926
Si Si5 0.855013 0.794263 0.186097
Si Si6 0.019116 0.372006 0.664792
Si Si7 0.500000 0.000000 0.250000
Si Si8 0.179870 0.207102 0.654178
O O1 0.304416 0.500000 0.250000
O O2 0.391964 0.698205 0.246365
O O3 0.366192 0.613057 0.370346
O O4 0.223833 0.694190 0.304138
O O5 0.834478 0.902670 0.134748
O O6 0.849674 0.118558 0.093009
O O7 0.884333 0.950425 0.000000
O O8 0.000000 0.000000 0.102700
O O9 0.469780 0.720130 0.119800
O O10 0.438237 0.910073 0.201896
O O11 0.292222 0.785715 0.153883
O O12 0.500000 0.500000 0.578726
O O13 0.438501 0.669670 0.500000
O O14 0.861367 0.837853 0.268543
O O15 0.944963 0.731522 0.149247
O O16 0.124101 0.329589 0.647534
O O17 0.000000 0.500000 0.633358
O O18 0.000000 0.381409 0.750000
#
# Coordination Sequence:
#
# PCOD9394673 Si02
#       8
#     8   8   8   8   8   8   2   8
#     4  11  22  39  67  96 123 162 209 268 332 385
#     4  11  23  40  60  84 125 174 214 251 306 373
#     4  11  24  39  64  90 128 165 214 267 320 382
#     4  11  23  41  65  94 127 168 211 259 325 394
#     4  10  22  35  61  94 120 153 206 265 311 374
#     4   9  18  32  54  88 126 152 191 259 320 371
#     4  12  24  40  60  92 126 172 218 274 324 388
#     4  10  22  37  62  91 120 164 209 263 316 374
#
# _framework density 19.171572000000001
#
# number of rings (size 3 to 8) (size 9 to 14) (size 15 to 20)
#    0.000    1.517    4.138    0.414    9.655    1.655 
#    0.000    0.345    0.000    1.655    0.000    0.000 
#    0.000    0.000    0.000    0.000    0.000    0.000 
#
# Total GULP energy -323271.663626 kJ/mol
# GULP energy per Si atom -5573.649373 kJ/mol
# Density = 1.912794 g / cm^3
# Si number density = 19.171572 Si / 1000 Ang^3
#
#
#
# Elastic Constant Matrix: (Units=GPa)
#
#
# Indices 1 2 3 4 5 6 
#
# 1 100.7118 35.9951 23.8795 0.0000 0.0000 0.0000
# 2 35.9951 112.1750 29.6172 0.0000 0.0000 0.0000
# 3 23.8795 29.6172 82.2643 0.0000 0.0000 0.0000
# 4 0.0000 0.0000 0.0000 16.7589 0.0000 0.0000
# 5 0.0000 0.0000 0.0000 0.0000 3.0263 0.0000
# 6 0.0000 0.0000 0.0000 0.0000 0.0000 28.3263
#
#
#
# Elastic Compliance Matrix: (Units=1/GPa)
#
#
# Indices 1 2 3 4 5 6 
#
# 1 0.011576 -0.003124 -0.002235 0.000000 0.000000 0.000000
# 2 -0.003124 0.010694 -0.002943 0.000000 0.000000 0.000000
# 3 -0.002235 -0.002943 0.013864 0.000000 0.000000 0.000000
# 4 0.000000 0.000000 0.000000 0.059670 0.000000 0.000000
# 5 0.000000 0.000000 0.000000 0.000000 0.330432 0.000000
# 6 0.000000 0.000000 0.000000 0.000000 0.000000 0.035303
#
#
# Mechanical properties :
#
#
# Convention : Reuss Voigt Hill
#
# Bulk Modulus (GPa) = 51.20666 52.68163 51.94414
# Shear Modulus (GPa) = 10.31661 23.33294 16.82478
#
# Velocity S-wave (km/s) = 2.32226 3.49242 2.96563
# Velocity P-wave (km/s) = 5.82736 6.61826 6.23536
#
# Compressibility (1/GPa) = 0.01952871
#
# Stress axis : x y z
#
# Youngs Moduli (GPa) = 86.38554 93.50773 72.12673
#
# Poissons Ratio (x) = 0.29215 0.16123
# Poissons Ratio (y) = 0.26990 0.21229
# Poissons Ratio (z) = 0.19311 0.27522
#
# Static dielectric constant tensor:
#      x y z
#    x 1.701570 0.000000 0.000000 
#    y 0.000000 1.696100 0.000000 
#    z 0.000000 0.000000 1.674800 
# 
# From -- ./inp_files/17887.got.cif
#   From: 2010.05.17/outbox.cif.g08.bks.cpg/sg49_9_cif.got.tgz:17887.got - 2010.06.03 21:02:19.
