data_PCOD9394396
_publ_section_title
;
Structure prediction by ZEFSAII (Michael W. Deem and Ramdas Pophale) SiO2 
 PCOD9394396
Probable space group: P C C M
;
_chemical_formula_sum "Si O2"
_cell_formula_units_Z 58
_cell_length_a 4.954241
_cell_length_b 28.041750
_cell_length_c 20.531287
_cell_angle_alpha 90.000000
_cell_angle_beta 90.000000
_cell_angle_gamma 90.000000
_cell_volume 2852.321110
_symmetry_space_group_name_H-M "P C C M"
_symmetry_group_IT_number 49
_symmetry_cell_setting 'orthorhombic'
loop_
_space_group_symop_operation_xyz
x,y,z
-x,-y,z
x,-y,1/2-z
-x,y,1/2-z
-x,-y,-z
x,y,-z
-x,y,1/2+z
x,-y,1/2+z
loop_
_atom_site_type_symbol
_atom_site_label
_atom_site_fract_x
_atom_site_fract_y
_atom_site_fract_z
Si Si1 0.871783 0.257563 0.577949
Si Si2 0.017360 0.827594 0.173882
Si Si3 0.400479 0.578789 0.386536
Si Si4 0.248008 0.034431 0.426703
Si Si5 0.500000 0.500000 0.000000
Si Si6 0.510153 0.891113 0.825782
Si Si7 0.901196 0.554585 0.682255
Si Si8 0.636886 0.319960 0.923018
O O1 0.909909 0.248054 0.500000
O O2 0.938673 0.212649 0.622621
O O3 0.570990 0.276721 0.587979
O O4 0.072316 0.300739 0.597468
O O5 0.815834 0.873024 0.162825
O O6 0.000000 0.812755 0.250000
O O7 0.324171 0.844445 0.166843
O O8 0.459599 0.541621 0.443989
O O9 0.584428 0.558595 0.327921
O O10 0.515661 0.631580 0.395391
O O11 0.081014 0.578961 0.373868
O O12 0.179568 0.054054 0.500000
O O13 0.365521 0.072229 0.374873
O O14 0.500000 0.000000 0.434783
O O15 0.000000 0.000000 0.405388
O O16 0.500000 0.907619 0.750000
O O17 0.000000 0.500000 0.679639
O O18 0.000000 0.575731 0.750000
O O19 0.651782 0.328674 0.000000
#
# Coordination Sequence:
#
# PCOD9394396 Si02
#       8
#     8   8   8   8   2   8   8   8
#     4  10  21  38  60  84 112 151 192 231 301 372
#     4  10  21  38  59  85 116 149 193 254 306 351
#     4  12  23  40  61  89 118 146 193 242 282 354
#     4  10  21  37  57  85 124 166 206 251 301 353
#     4  12  24  38  62  98 112 150 196 240 300 346
#     4  10  21  37  58  86 119 156 202 252 304 356
#     4  11  23  40  58  79 111 152 186 225 275 330
#     4  10  21  38  57  83 117 148 179 235 293 349
#
# _framework density 20.334316999999999
#
# number of rings (size 3 to 8) (size 9 to 14) (size 15 to 20)
#    0.000    1.517    2.069    2.897    0.000    3.586 
#    0.000    4.828    0.000    0.000    0.000    0.000 
#    0.000    0.000    0.000    0.000    0.000    0.000 
#
# Total GULP energy -322897.826221 kJ/mol
# GULP energy per Si atom -5567.203900 kJ/mol
# Density = 2.028803 g / cm^3
# Si number density = 20.334317 Si / 1000 Ang^3
#
#
#
# Elastic Constant Matrix: (Units=GPa)
#
#
# Indices 1 2 3 4 5 6 
#
# 1 78.4909 -4.0651 2.7143 0.0000 0.0000 0.0000
# 2 -4.0651 70.7897 44.5042 0.0000 0.0000 0.0000
# 3 2.7143 44.5042 87.6249 0.0000 0.0000 0.0000
# 4 0.0000 0.0000 0.0000 1.1500 0.0000 0.0000
# 5 0.0000 0.0000 0.0000 0.0000 12.9650 0.0000
# 6 0.0000 0.0000 0.0000 0.0000 0.0000 5.5064
#
#
#
# Elastic Compliance Matrix: (Units=1/GPa)
#
#
# Indices 1 2 3 4 5 6 
#
# 1 0.012855 0.001452 -0.001136 0.000000 0.000000 0.000000
# 2 0.001452 0.020917 -0.010669 0.000000 0.000000 0.000000
# 3 -0.001136 -0.010669 0.016866 0.000000 0.000000 0.000000
# 4 0.000000 0.000000 0.000000 0.869547 0.000000 0.000000
# 5 0.000000 0.000000 0.000000 0.000000 0.077131 0.000000
# 6 0.000000 0.000000 0.000000 0.000000 0.000000 0.181607
#
#
# Mechanical properties :
#
#
# Convention : Reuss Voigt Hill
#
# Bulk Modulus (GPa) = 33.40746 35.91250 34.65998
# Shear Modulus (GPa) = 4.13358 16.84108 10.48733
#
# Velocity S-wave (km/s) = 1.42731 2.88099 2.27347
# Velocity P-wave (km/s) = 4.37962 5.36341 4.89628
#
# Compressibility (1/GPa) = 0.02993344
#
# Stress axis : x y z
#
# Youngs Moduli (GPa) = 77.79190 47.80833 59.29104
#
# Poissons Ratio (x) = -0.06943 0.06734
# Poissons Ratio (y) = -0.11297 0.63255
# Poissons Ratio (z) = 0.08835 0.51005
#
# Static dielectric constant tensor:
#      x y z
#    x 1.675610 0.000000 0.000000 
#    y 0.000000 1.668030 0.000000 
#    z 0.000000 0.000000 1.752380 
# 
# From -- ./inp_files/15384.got.cif
#   From: 2010.05.17/outbox.cif.g08.bks.cpg/sg49_8_cif.got.tgz:15384.got - 2010.06.03 21:02:19.
