data_PCOD9394029
_publ_section_title
;
Structure prediction by ZEFSAII (Michael W. Deem and Ramdas Pophale) SiO2 
 PCOD9394029
Probable space group: P C C M
;
_chemical_formula_sum "Si O2"
_cell_formula_units_Z 64
_cell_length_a 12.961704
_cell_length_b 16.578314
_cell_length_c 15.298744
_cell_angle_alpha 90.000000
_cell_angle_beta 90.000000
_cell_angle_gamma 90.000000
_cell_volume 3287.443050
_symmetry_space_group_name_H-M "P C C M"
_symmetry_group_IT_number 49
_symmetry_cell_setting 'orthorhombic'
loop_
_space_group_symop_operation_xyz
x,y,z
-x,-y,z
x,-y,1/2-z
-x,y,1/2-z
-x,-y,-z
x,y,-z
-x,y,1/2+z
x,-y,1/2+z
loop_
_atom_site_type_symbol
_atom_site_label
_atom_site_fract_x
_atom_site_fract_y
_atom_site_fract_z
Si Si1 0.826332 0.844749 0.598036
Si Si2 0.479363 0.585421 0.901382
Si Si3 0.599964 0.277618 0.301544
Si Si4 0.717352 0.416571 0.194442
Si Si5 0.213897 0.823655 0.296063
Si Si6 0.959720 0.750692 0.904217
Si Si7 0.884110 0.026140 0.398035
Si Si8 0.956099 0.416046 0.151843
O O1 0.789395 0.818472 0.500000
O O2 0.776513 0.820395 0.690568
O O3 0.944459 0.812405 0.604020
O O4 0.824768 0.941501 0.599787
O O5 0.500000 0.500000 0.854564
O O6 0.540881 0.660776 0.864859
O O7 0.357618 0.590850 0.888594
O O8 0.512763 0.578744 0.000000
O O9 0.500000 0.243218 0.250000
O O10 0.676250 0.340565 0.250922
O O11 0.676789 0.207745 0.333070
O O12 0.706645 0.500000 0.250000
O O13 0.833832 0.413807 0.162412
O O14 0.123188 0.764528 0.328825
O O15 0.171833 0.908584 0.336069
O O16 0.005048 0.661721 0.898388
O O17 0.911359 0.762173 0.000000
O O18 0.891862 0.054410 0.500000
O O19 0.000000 0.000000 0.369178
O O20 0.000000 0.500000 0.115046
O O21 0.000000 0.410336 0.250000
#
# Coordination Sequence:
#
# PCOD9394029 Si02
#       8
#     8   8   8   8   8   8   8   8
#     4  10  21  37  59  90 127 162 207 250 299 388
#     4  10  21  36  58  85 112 149 210 281 335 377
#     4  10  23  39  60  87 116 156 214 269 323 377
#     4  11  19  36  59  79 107 157 209 264 313 377
#     4  12  22  37  64  91 122 169 209 256 330 380
#     4  11  23  36  53  83 124 166 207 255 308 382
#     4  10  20  36  60  96 133 165 205 252 305 383
#     4  11  22  36  55  81 117 161 213 253 310 387
#
# _framework density 19.468017
#
# number of rings (size 3 to 8) (size 9 to 14) (size 15 to 20)
#    0.000    1.375    3.750    3.375    0.000    2.250 
#    0.000    5.000    0.000    1.500    0.000    1.750 
#    0.000    0.000    0.000    0.000    0.000    0.000 
#
# Total GULP energy -356603.784414 kJ/mol
# GULP energy per Si atom -5571.934131 kJ/mol
# Density = 1.942371 g / cm^3
# Si number density = 19.468017 Si / 1000 Ang^3
#
#
#
# Elastic Constant Matrix: (Units=GPa)
#
#
# Indices 1 2 3 4 5 6 
#
# 1 107.7448 51.7087 18.3862 0.0000 0.0000 0.0000
# 2 51.7087 109.8282 30.9197 0.0000 0.0000 0.0000
# 3 18.3862 30.9197 73.9946 0.0000 0.0000 0.0000
# 4 0.0000 0.0000 0.0000 8.0183 0.0000 0.0000
# 5 0.0000 0.0000 0.0000 0.0000 13.1087 0.0000
# 6 0.0000 0.0000 0.0000 0.0000 0.0000 40.5222
#
#
#
# Elastic Compliance Matrix: (Units=1/GPa)
#
#
# Indices 1 2 3 4 5 6 
#
# 1 0.012023 -0.005462 -0.000705 0.000000 0.000000 0.000000
# 2 -0.005462 0.012800 -0.003992 0.000000 0.000000 0.000000
# 3 -0.000705 -0.003992 0.015358 0.000000 0.000000 0.000000
# 4 0.000000 0.000000 0.000000 0.124715 0.000000 0.000000
# 5 0.000000 0.000000 0.000000 0.000000 0.076285 0.000000
# 6 0.000000 0.000000 0.000000 0.000000 0.000000 0.024678
#
#
# Mechanical properties :
#
#
# Convention : Reuss Voigt Hill
#
# Bulk Modulus (GPa) = 50.34359 54.84409 52.59384
# Shear Modulus (GPa) = 17.07662 25.03336 21.05499
#
# Velocity S-wave (km/s) = 2.96491 3.58980 3.29221
# Velocity P-wave (km/s) = 6.13487 6.73904 6.44404
#
# Compressibility (1/GPa) = 0.01986350
#
# Stress axis : x y z
#
# Youngs Moduli (GPa) = 83.17510 78.12196 65.11407
#
# Poissons Ratio (x) = 0.42670 0.04591
# Poissons Ratio (y) = 0.45430 0.25991
# Poissons Ratio (z) = 0.05864 0.31184
#
# Static dielectric constant tensor:
#      x y z
#    x 1.679000 0.000000 0.000000 
#    y 0.000000 1.773080 0.000000 
#    z 0.000000 0.000000 1.707520 
# 
# From -- ./inp_files/13060.got.cif
#   From: 2010.05.17/outbox.cif.g08.bks.cpg/sg49_7_cif.got.tgz:13060.got - 2010.06.03 21:02:19.
