data_PCOD9394464
_publ_section_title
;
Structure prediction by ZEFSAII (Michael W. Deem and Ramdas Pophale) SiO2 
 PCOD9394464
Probable space group: P C C M
;
_chemical_formula_sum "Si O2"
_cell_formula_units_Z 32
_cell_length_a 13.040518
_cell_length_b 13.020284
_cell_length_c 8.643568
_cell_angle_alpha 90.000000
_cell_angle_beta 90.000000
_cell_angle_gamma 90.000000
_cell_volume 1467.602197
_symmetry_space_group_name_H-M "P C C M"
_symmetry_group_IT_number 49
_symmetry_cell_setting 'orthorhombic'
loop_
_space_group_symop_operation_xyz
x,y,z
-x,-y,z
x,-y,1/2-z
-x,y,1/2-z
-x,-y,-z
x,y,-z
-x,y,1/2+z
x,-y,1/2+z
loop_
_atom_site_type_symbol
_atom_site_label
_atom_site_fract_x
_atom_site_fract_y
_atom_site_fract_z
Si Si1 0.392804 0.173174 0.184206
Si Si2 0.823556 0.893808 0.314841
Si Si3 0.333402 0.608068 0.186009
Si Si4 0.105378 0.671613 0.815145
O O1 0.500000 0.132749 0.250000
O O2 0.293352 0.119410 0.256967
O O3 0.383428 0.292495 0.236102
O O4 0.389960 0.164854 0.000000
O O5 0.824097 0.895799 0.500000
O O6 0.880675 0.790201 0.261992
O O7 0.866141 0.000000 0.250000
O O8 0.372288 0.500000 0.250000
O O9 0.211924 0.617031 0.226200
O O10 0.344336 0.614723 0.000000
O O11 0.000000 0.628430 0.750000
O O12 0.099034 0.671277 0.000000
#
# Coordination Sequence:
#
# PCOD9394464 Si02
#       4
#     8   8   8   8
#     4  11  22  38  59  83 111 145 181 225 274 326
#     4  10  21  38  57  82 112 145 184 228 273 324
#     4  10  21  38  57  82 112 145 184 228 273 324
#     4   9  20  36  55  79 111 145 183 227 272 322
#
# _framework density 21.804272999999998
#
# number of rings (size 3 to 8) (size 9 to 14) (size 15 to 20)
#    0.000    2.000    0.000    5.250    0.000    8.000 
#    0.000   10.000    0.000    0.000    0.000    0.000 
#    0.000    0.000    0.000    0.000    0.000    0.000 
#
# Total GULP energy -178955.578177 kJ/mol
# GULP energy per Si atom -5592.361818 kJ/mol
# Density = 2.175465 g / cm^3
# Si number density = 21.804273 Si / 1000 Ang^3
#
#
#
# Elastic Constant Matrix: (Units=GPa)
#
#
# Indices 1 2 3 4 5 6 
#
# 1 96.9848 -15.6506 4.2266 0.0000 0.0000 0.0000
# 2 -15.6506 98.0998 9.6779 0.0000 0.0000 0.0000
# 3 4.2266 9.6779 61.4975 0.0000 0.0000 0.0000
# 4 0.0000 0.0000 0.0000 57.9307 0.0000 0.0000
# 5 0.0000 0.0000 0.0000 0.0000 20.6146 0.0000
# 6 0.0000 0.0000 0.0000 0.0000 0.0000 -13.6766
#
#
#
# Elastic Compliance Matrix: (Units=1/GPa)
#
#
# Indices 1 2 3 4 5 6 
#
# 1 0.010645 0.001798 -0.001015 0.000000 0.000000 0.000000
# 2 0.001798 0.010658 -0.001801 0.000000 0.000000 0.000000
# 3 -0.001015 -0.001801 0.016614 0.000000 0.000000 0.000000
# 4 0.000000 0.000000 0.000000 0.017262 0.000000 0.000000
# 5 0.000000 0.000000 0.000000 0.000000 0.048509 0.000000
# 6 0.000000 0.000000 0.000000 0.000000 0.000000 -0.073117
#
#
# Mechanical properties :
#
#
# Convention : Reuss Voigt Hill
#
# Bulk Modulus (GPa) = 27.86809 28.12109 27.99459
# Shear Modulus (GPa) = 112.19105 30.19562 71.19333
#
# Velocity S-wave (km/s) = 7.18091 3.72539 5.72031
# Velocity P-wave (km/s) = 9.03120 5.60623 7.51640
#
# Compressibility (1/GPa) = 0.03588334
#
# Stress axis : x y z
#
# Youngs Moduli (GPa) = 93.93791 93.82377 60.19029
#
# Poissons Ratio (x) = -0.16873 0.06107
# Poissons Ratio (y) = -0.16894 0.10840
# Poissons Ratio (z) = 0.09531 0.16897
#
# Static dielectric constant tensor:
#      x y z
#    x 1.805570 0.000000 0.000000 
#    y 0.000000 1.834370 0.000000 
#    z 0.000000 0.000000 1.722380 
# 
# From -- ./inp_files/2464.got.cif
#   From: 2010.05.17/outbox.cif.g08.bks.cpg/sg49_2_cif.got.tgz:2464.got - 2010.06.03 21:02:19.
