data_PCOD9394081
_publ_section_title
;
Structure prediction by ZEFSAII (Michael W. Deem and Ramdas Pophale) SiO2 
 PCOD9394081
Probable space group: P C C M
;
_chemical_formula_sum "Si O2"
_cell_formula_units_Z 34
_cell_length_a 7.560751
_cell_length_b 9.272366
_cell_length_c 26.901118
_cell_angle_alpha 90.000000
_cell_angle_beta 90.000000
_cell_angle_gamma 90.000000
_cell_volume 1885.931137
_symmetry_space_group_name_H-M "P C C M"
_symmetry_group_IT_number 49
_symmetry_cell_setting 'orthorhombic'
loop_
_space_group_symop_operation_xyz
x,y,z
-x,-y,z
x,-y,1/2-z
-x,y,1/2-z
-x,-y,-z
x,y,-z
-x,y,1/2+z
x,-y,1/2+z
loop_
_atom_site_type_symbol
_atom_site_label
_atom_site_fract_x
_atom_site_fract_y
_atom_site_fract_z
Si Si1 0.166458 0.157355 0.659813
Si Si2 0.188678 0.149703 0.891697
Si Si3 0.546486 0.333759 0.107822
Si Si4 0.000000 0.000000 0.250000
Si Si5 0.223109 0.083541 0.000000
Si Si6 0.616203 0.222585 0.000000
O O1 0.315321 0.273292 0.648172
O O2 0.977611 0.209327 0.638513
O O3 0.218173 0.012595 0.628826
O O4 0.122915 0.099111 0.714791
O O5 0.366895 0.240620 0.887686
O O6 0.137503 0.136155 0.949325
O O7 0.500000 0.500000 0.114267
O O8 0.625301 0.308432 0.051976
O O9 0.420386 0.151415 0.000000
O O10 0.250443 0.911890 0.000000
#
# Coordination Sequence:
#
# PCOD9394081 Si02
#       6
#     8   8   8   2   4   4
#     4  10  20  37  60  81 104 140 182 244 285 325
#     4   9  19  33  54  83 107 145 192 224 269 316
#     4  11  21  34  54  83 122 156 182 212 273 341
#     4   8  20  40  62  84 100 122 188 254 298 314
#     4   9  14  28  52  78 113 145 190 237 254 306
#     4   9  17  29  49  80 121 157 182 222 259 315
#
# _framework density 18.028230000000001
#
# number of rings (size 3 to 8) (size 9 to 14) (size 15 to 20)
#    0.000    2.588    2.353    1.059    0.000    3.765 
#    0.000    9.412    0.000   22.588    0.000    0.000 
#    0.000    0.000    0.000    0.000    0.000    0.000 
#
# Total GULP energy -189597.867103 kJ/mol
# GULP energy per Si atom -5576.407856 kJ/mol
# Density = 1.798720 g / cm^3
# Si number density = 18.028230 Si / 1000 Ang^3
#
#
#
# Elastic Constant Matrix: (Units=GPa)
#
#
# Indices 1 2 3 4 5 6 
#
# 1 81.5074 28.7935 45.5390 0.0000 0.0000 0.0000
# 2 28.7935 63.7379 40.2216 0.0000 0.0000 0.0000
# 3 45.5390 40.2216 137.0975 0.0000 0.0000 0.0000
# 4 0.0000 0.0000 0.0000 6.8161 0.0000 0.0000
# 5 0.0000 0.0000 0.0000 0.0000 17.3668 0.0000
# 6 0.0000 0.0000 0.0000 0.0000 0.0000 16.1316
#
#
#
# Elastic Compliance Matrix: (Units=1/GPa)
#
#
# Indices 1 2 3 4 5 6 
#
# 1 0.016183 -0.004809 -0.003965 0.000000 0.000000 0.000000
# 2 -0.004809 0.020683 -0.004471 0.000000 0.000000 0.000000
# 3 -0.003965 -0.004471 0.009923 0.000000 0.000000 0.000000
# 4 0.000000 0.000000 0.000000 0.146711 0.000000 0.000000
# 5 0.000000 0.000000 0.000000 0.000000 0.057581 0.000000
# 6 0.000000 0.000000 0.000000 0.000000 0.000000 0.061990
#
#
# Mechanical properties :
#
#
# Convention : Reuss Voigt Hill
#
# Bulk Modulus (GPa) = 49.26050 56.82790 53.04420
# Shear Modulus (GPa) = 14.43733 19.24882 16.84308
#
# Velocity S-wave (km/s) = 2.83294 3.27112 3.05988
# Velocity P-wave (km/s) = 6.17124 6.77178 6.47847
#
# Compressibility (1/GPa) = 0.02030024
#
# Stress axis : x y z
#
# Youngs Moduli (GPa) = 61.79500 48.34958 100.78058
#
# Poissons Ratio (x) = 0.23249 0.39955
# Poissons Ratio (y) = 0.29715 0.45055
# Poissons Ratio (z) = 0.24499 0.21615
#
# Static dielectric constant tensor:
#      x y z
#    x 1.642750 0.000000 0.000000 
#    y 0.000000 1.596320 0.000000 
#    z 0.000000 0.000000 1.635990 
# 
# From -- ./inp_files/24301.got.cif
#   From: 2010.05.17/outbox.cif.g08.bks.cpg/sg49_13_cif.got.tgz:24301.got - 2010.06.03 21:02:19.
