data_PCOD9394572
_publ_section_title
;
Structure prediction by ZEFSAII (Michael W. Deem and Ramdas Pophale) SiO2 
 PCOD9394572
Probable space group: P C C M
;
_chemical_formula_sum "Si O2"
_cell_formula_units_Z 24
_cell_length_a 8.379775
_cell_length_b 4.967875
_cell_length_c 28.010340
_cell_angle_alpha 90.000000
_cell_angle_beta 90.000000
_cell_angle_gamma 90.000000
_cell_volume 1166.061343
_symmetry_space_group_name_H-M "P C C M"
_symmetry_group_IT_number 49
_symmetry_cell_setting 'orthorhombic'
loop_
_space_group_symop_operation_xyz
x,y,z
-x,-y,z
x,-y,1/2-z
-x,y,1/2-z
-x,-y,-z
x,y,-z
-x,y,1/2+z
x,-y,1/2+z
loop_
_atom_site_type_symbol
_atom_site_label
_atom_site_fract_x
_atom_site_fract_y
_atom_site_fract_z
Si Si1 0.820196 0.401170 0.856248
Si Si2 0.680065 0.079482 0.305810
Si Si3 0.384714 0.752988 0.946708
O O1 0.721165 0.621206 0.824566
O O2 0.743297 0.335454 0.907579
O O3 0.000000 0.500000 0.860496
O O4 0.806144 0.118646 0.829674
O O5 0.500000 0.000000 0.320998
O O6 0.687104 0.000000 0.250000
O O7 0.500000 0.500000 0.950605
O O8 0.500000 0.000000 0.932312
O O9 0.319274 0.815070 0.000000
#
# Coordination Sequence:
#
# PCOD9394572 Si02
#       3
#     8   8   8
#     4  12  24  38  61  92 125 157 194 251 312 362
#     4  11  24  42  63  86 117 161 208 249 294 359
#     4  10  21  39  63  88 118 160 206 249 296 358
#
# _framework density 20.58211
#
# number of rings (size 3 to 8) (size 9 to 14) (size 15 to 20)
#    0.000    1.000    0.000    8.000    0.000    7.333 
#    0.000    0.000    0.000   10.000    0.000    0.000 
#    0.000    0.000    0.000    0.000    0.000    0.000 
#
# Total GULP energy -134012.481234 kJ/mol
# GULP energy per Si atom -5583.853385 kJ/mol
# Density = 2.053526 g / cm^3
# Si number density = 20.582110 Si / 1000 Ang^3
#
#
#
# Elastic Constant Matrix: (Units=GPa)
#
#
# Indices 1 2 3 4 5 6 
#
# 1 101.5025 8.6069 36.9991 0.0000 0.0000 0.0000
# 2 8.6069 102.6632 5.6196 0.0000 0.0000 0.0000
# 3 36.9991 5.6196 144.7574 0.0000 0.0000 0.0000
# 4 0.0000 0.0000 0.0000 28.1976 0.0000 0.0000
# 5 0.0000 0.0000 0.0000 0.0000 -84.7141 0.0000
# 6 0.0000 0.0000 0.0000 0.0000 0.0000 35.1618
#
#
#
# Elastic Compliance Matrix: (Units=1/GPa)
#
#
# Indices 1 2 3 4 5 6 
#
# 1 0.010924 -0.000765 -0.002762 0.000000 0.000000 0.000000
# 2 -0.000765 0.009815 -0.000186 0.000000 0.000000 0.000000
# 3 -0.002762 -0.000186 0.007621 0.000000 0.000000 0.000000
# 4 0.000000 0.000000 0.000000 0.035464 0.000000 0.000000
# 5 0.000000 0.000000 0.000000 0.000000 -0.011804 0.000000
# 6 0.000000 0.000000 0.000000 0.000000 0.000000 0.028440
#
#
# Mechanical properties :
#
#
# Convention : Reuss Voigt Hill
#
# Bulk Modulus (GPa) = 47.76727 50.15271 48.95999
# Shear Modulus (GPa) = 52.70765 15.57556 34.14161
#
# Velocity S-wave (km/s) = 5.06597 2.75390 4.07726
# Velocity P-wave (km/s) = 7.58138 5.87639 6.78267
#
# Compressibility (1/GPa) = 0.02093483
#
# Stress axis : x y z
#
# Youngs Moduli (GPa) = 91.54388 101.88643 131.21029
#
# Poissons Ratio (x) = 0.07790 0.36245
# Poissons Ratio (y) = 0.06999 0.02435
# Poissons Ratio (z) = 0.25288 0.01891
#
# Static dielectric constant tensor:
#      x y z
#    x 1.716210 0.000000 0.000000 
#    y 0.000000 2.013770 0.000000 
#    z 0.000000 0.000000 1.855030 
# 
# From -- ./inp_files/21441.got.cif
#   From: 2010.05.17/outbox.cif.g08.bks.cpg/sg49_11_cif.got.tgz:21441.got - 2010.06.03 21:02:19.
