data_PCOD9394165
_publ_section_title
;
Structure prediction by ZEFSAII (Michael W. Deem and Ramdas Pophale) SiO2 
 PCOD9394165
Probable space group: P C C M
;
_chemical_formula_sum "Si O2"
_cell_formula_units_Z 48
_cell_length_a 8.407857
_cell_length_b 9.350690
_cell_length_c 28.895593
_cell_angle_alpha 90.000000
_cell_angle_beta 90.000000
_cell_angle_gamma 90.000000
_cell_volume 2271.750265
_symmetry_space_group_name_H-M "P C C M"
_symmetry_group_IT_number 49
_symmetry_cell_setting 'orthorhombic'
loop_
_space_group_symop_operation_xyz
x,y,z
-x,-y,z
x,-y,1/2-z
-x,y,1/2-z
-x,-y,-z
x,y,-z
-x,y,1/2+z
x,-y,1/2+z
loop_
_atom_site_type_symbol
_atom_site_label
_atom_site_fract_x
_atom_site_fract_y
_atom_site_fract_z
Si Si1 0.654617 0.819816 0.612583
Si Si2 0.800102 0.659373 0.695869
Si Si3 0.721033 0.147012 0.611333
Si Si4 0.818042 0.670878 0.804126
Si Si5 0.916947 0.359020 0.447805
Si Si6 0.642883 0.426447 0.948700
O O1 0.695295 0.758309 0.663031
O O2 0.466189 0.823017 0.600124
O O3 0.725491 0.703708 0.577172
O O4 0.729290 0.976093 0.608653
O O5 0.772713 0.686770 0.750290
O O6 0.770878 0.492503 0.683889
O O7 0.990364 0.681834 0.690254
O O8 0.742843 0.213120 0.662304
O O9 0.861561 0.222029 0.581306
O O10 0.985659 0.332059 0.500000
O O11 0.750236 0.436787 0.454926
O O12 0.000000 0.500000 0.424959
O O13 0.500000 0.500000 0.920723
O O14 0.592589 0.375738 0.000000
#
# Coordination Sequence:
#
# PCOD9394165 Si02
#       6
#     8   8   8   8   8   8
#     4  11  24  38  56  89 125 159 197 243 304 367
#     4   9  20  39  63  87 114 152 203 250 294 357
#     4  11  24  38  57  87 124 162 196 243 307 363
#     4   9  20  39  62  88 114 152 201 250 299 352
#     4  10  22  40  62  88 117 155 203 252 301 357
#     4  10  20  38  62  86 114 154 203 246 291 354
#
# _framework density 21.129083999999999
#
# number of rings (size 3 to 8) (size 9 to 14) (size 15 to 20)
#    0.000    2.000    1.667    2.000    4.667    2.667 
#    0.000    6.667    0.000    3.000    0.000    0.000 
#    0.000    0.000    0.000    0.000    0.000    0.000 
#
# Total GULP energy -267288.118512 kJ/mol
# GULP energy per Si atom -5568.502469 kJ/mol
# Density = 2.108099 g / cm^3
# Si number density = 21.129084 Si / 1000 Ang^3
#
#
#
# Elastic Constant Matrix: (Units=GPa)
#
#
# Indices 1 2 3 4 5 6 
#
# 1 19.3947 11.0903 1.8933 0.0000 0.0000 0.0000
# 2 11.0903 146.0160 55.5787 0.0000 0.0000 0.0000
# 3 1.8933 55.5787 72.7390 0.0000 0.0000 0.0000
# 4 0.0000 0.0000 0.0000 -19.9154 0.0000 0.0000
# 5 0.0000 0.0000 0.0000 0.0000 27.2862 0.0000
# 6 0.0000 0.0000 0.0000 0.0000 0.0000 35.1596
#
#
#
# Elastic Compliance Matrix: (Units=1/GPa)
#
#
# Indices 1 2 3 4 5 6 
#
# 1 0.054209 -0.005049 0.002447 0.000000 0.000000 0.000000
# 2 -0.005049 0.010127 -0.007607 0.000000 0.000000 0.000000
# 3 0.002447 -0.007607 0.019496 0.000000 0.000000 0.000000
# 4 0.000000 0.000000 0.000000 -0.050213 0.000000 0.000000
# 5 0.000000 0.000000 0.000000 0.000000 0.036649 0.000000
# 6 0.000000 0.000000 0.000000 0.000000 0.000000 0.028442
#
#
# Mechanical properties :
#
#
# Convention : Reuss Voigt Hill
#
# Bulk Modulus (GPa) = 15.76919 41.69715 28.73317
# Shear Modulus (GPa) = 35.64655 19.81192 27.72924
#
# Velocity S-wave (km/s) = 4.11187 3.06545 3.62660
# Velocity P-wave (km/s) = 5.47930 5.68389 5.58253
#
# Compressibility (1/GPa) = 0.06341479
#
# Stress axis : x y z
#
# Youngs Moduli (GPa) = 18.44725 98.74172 51.29163
#
# Poissons Ratio (x) = 0.49850 -0.12549
# Poissons Ratio (y) = 0.09313 0.39017
# Poissons Ratio (z) = -0.04513 0.75111
#
# Static dielectric constant tensor:
#      x y z
#    x 1.907870 0.000000 0.000000 
#    y 0.000000 1.739690 0.000000 
#    z 0.000000 0.000000 1.847660 
# 
# From -- ./inp_files/26249.got.cif
#   From: 2010.05.17/outbox.cif.g08.bks.cpg/sg49_14_cif.got.tgz:26249.got - 2010.06.03 21:02:19.
