data_PCOD9394691
_publ_section_title
;
Structure prediction by ZEFSAII (Michael W. Deem and Ramdas Pophale) SiO2 
 PCOD9394691
Probable space group: P C C M
;
_chemical_formula_sum "Si O2"
_cell_formula_units_Z 58
_cell_length_a 18.193673
_cell_length_b 8.616693
_cell_length_c 18.592108
_cell_angle_alpha 90.000000
_cell_angle_beta 90.000000
_cell_angle_gamma 90.000000
_cell_volume 2914.671660
_symmetry_space_group_name_H-M "P C C M"
_symmetry_group_IT_number 49
_symmetry_cell_setting 'orthorhombic'
loop_
_space_group_symop_operation_xyz
x,y,z
-x,-y,z
x,-y,1/2-z
-x,y,1/2-z
-x,-y,-z
x,y,-z
-x,y,1/2+z
x,-y,1/2+z
loop_
_atom_site_type_symbol
_atom_site_label
_atom_site_fract_x
_atom_site_fract_y
_atom_site_fract_z
Si Si1 0.086815 0.014688 0.421448
Si Si2 0.388506 0.312460 0.415719
Si Si3 0.263283 0.487977 0.664763
Si Si4 0.467479 0.832790 0.412696
Si Si5 0.126500 0.275337 0.307965
Si Si6 0.810651 0.191085 0.347578
Si Si7 0.318267 0.966908 0.415092
Si Si8 0.000000 0.500000 0.750000
O O1 0.114295 0.064811 0.500000
O O2 0.105757 0.136996 0.360198
O O3 0.123288 0.851489 0.400468
O O4 0.000000 0.000000 0.423621
O O5 0.390505 0.354533 0.500000
O O6 0.335493 0.427715 0.374358
O O7 0.472847 0.293901 0.389017
O O8 0.352218 0.139742 0.410494
O O9 0.278154 0.500000 0.750000
O O10 0.194569 0.370430 0.659039
O O11 0.232435 0.650867 0.636630
O O12 0.469117 0.829823 0.500000
O O13 0.382194 0.844013 0.393250
O O14 0.500000 0.000000 0.390559
O O15 0.155458 0.209362 0.231595
O O16 0.056608 0.388577 0.293606
O O17 0.750660 0.057388 0.363267
O O18 0.299716 0.941907 0.500000
#
# Coordination Sequence:
#
# PCOD9394691 Si02
#       8
#     8   8   8   8   8   8   8   2
#     4  11  25  42  61  91 124 150 190 250 315 378
#     4   9  17  32  57  85 118 162 206 248 301 368
#     4  10  22  38  54  83 117 156 203 252 297 357
#     4   7  12  26  50  83 116 151 197 245 290 347
#     4  11  23  41  66  86 111 154 203 243 296 367
#     4  11  21  38  58  88 119 156 199 248 297 361
#     4   9  17  31  57  90 123 155 198 255 310 357
#     4  12  20  44  72  88 108 146 206 254 288 364
#
# _framework density 19.899325999999999
#
# number of rings (size 3 to 8) (size 9 to 14) (size 15 to 20)
#    0.000    2.207    2.069    4.138    0.000    4.414 
#    0.000    1.034    0.000    8.276    0.000   11.586 
#    0.000    0.000    0.000    0.000    0.000    0.414 
#
# Total GULP energy -323510.549728 kJ/mol
# GULP energy per Si atom -5577.768099 kJ/mol
# Density = 1.985403 g / cm^3
# Si number density = 19.899326 Si / 1000 Ang^3
#
#
#
# Elastic Constant Matrix: (Units=GPa)
#
#
# Indices 1 2 3 4 5 6 
#
# 1 111.4535 34.4045 46.7855 0.0000 0.0000 0.0000
# 2 34.4045 66.4911 38.8210 0.0000 0.0000 0.0000
# 3 46.7855 38.8210 49.5253 0.0000 0.0000 0.0000
# 4 0.0000 0.0000 0.0000 33.9101 0.0000 0.0000
# 5 0.0000 0.0000 0.0000 0.0000 6.1938 0.0000
# 6 0.0000 0.0000 0.0000 0.0000 0.0000 44.6175
#
#
#
# Elastic Compliance Matrix: (Units=1/GPa)
#
#
# Indices 1 2 3 4 5 6 
#
# 1 0.014900 0.000937 -0.014811 0.000000 0.000000 0.000000
# 2 0.000937 0.027790 -0.022669 0.000000 0.000000 0.000000
# 3 -0.014811 -0.022669 0.051952 0.000000 0.000000 0.000000
# 4 0.000000 0.000000 0.000000 0.029490 0.000000 0.000000
# 5 0.000000 0.000000 0.000000 0.000000 0.161453 0.000000
# 6 0.000000 0.000000 0.000000 0.000000 0.000000 0.022413
#
#
# Mechanical properties :
#
#
# Convention : Reuss Voigt Hill
#
# Bulk Modulus (GPa) = 46.38662 51.94356 49.16509
# Shear Modulus (GPa) = 12.87769 24.10819 18.49294
#
# Velocity S-wave (km/s) = 2.54666 3.48445 3.05179
# Velocity P-wave (km/s) = 5.65761 6.50756 6.09741
#
# Compressibility (1/GPa) = 0.02155794
#
# Stress axis : x y z
#
# Youngs Moduli (GPa) = 67.11338 35.98428 19.24837
#
# Poissons Ratio (x) = -0.03373 0.28508
# Poissons Ratio (y) = -0.06292 0.43634
# Poissons Ratio (z) = 0.99400 0.81573
#
# Static dielectric constant tensor:
#      x y z
#    x 1.725500 0.000000 0.000000 
#    y 0.000000 1.734830 0.000000 
#    z 0.000000 0.000000 1.679950 
# 
# From -- ./inp_files/18203.got.cif
#   From: 2010.05.17/outbox.cif.g08.bks.cpg/sg49_10_cif.got.tgz:18203.got - 2010.06.03 21:02:19.
