data_PCOD9394303
_publ_section_title
;
Structure prediction by ZEFSAII (Michael W. Deem and Ramdas Pophale) SiO2 
 PCOD9394303
Probable space group: P C C M
;
_chemical_formula_sum "Si O2"
_cell_formula_units_Z 48
_cell_length_a 16.616202
_cell_length_b 9.095572
_cell_length_c 14.833692
_cell_angle_alpha 90.000000
_cell_angle_beta 90.000000
_cell_angle_gamma 90.000000
_cell_volume 2241.873155
_symmetry_space_group_name_H-M "P C C M"
_symmetry_group_IT_number 49
_symmetry_cell_setting 'orthorhombic'
loop_
_space_group_symop_operation_xyz
x,y,z
-x,-y,z
x,-y,1/2-z
-x,y,1/2-z
-x,-y,-z
x,y,-z
-x,y,1/2+z
x,-y,1/2+z
loop_
_atom_site_type_symbol
_atom_site_label
_atom_site_fract_x
_atom_site_fract_y
_atom_site_fract_z
Si Si1 0.430844 0.390851 0.101770
Si Si2 0.972801 0.827856 0.894039
Si Si3 0.141278 0.231507 0.606844
Si Si4 0.800627 0.905855 0.110252
Si Si5 0.642195 0.162897 0.725143
Si Si6 0.710800 0.410460 0.159033
O O1 0.500000 0.500000 0.134356
O O2 0.420825 0.253815 0.166651
O O3 0.348143 0.485055 0.103149
O O4 0.449540 0.345448 0.000000
O O5 0.881563 0.819121 0.859686
O O6 0.051148 0.746889 0.854812
O O7 0.964787 0.790371 0.000000
O O8 0.000000 0.000000 0.888869
O O9 0.129473 0.211023 0.500000
O O10 0.204532 0.360616 0.619804
O O11 0.180691 0.075997 0.635952
O O12 0.722473 0.851743 0.162670
O O13 0.791449 0.896889 0.000000
O O14 0.664100 0.262167 0.811531
O O15 0.616577 0.000000 0.750000
O O16 0.725730 0.500000 0.250000
#
# Coordination Sequence:
#
# PCOD9394303 Si02
#       6
#     8   8   8   8   8   8
#     4  10  23  45  68  88 115 157 205 241 288 366
#     4   7  12  23  44  76 109 149 198 245 290 338
#     4   9  15  28  52  79 112 155 206 251 290 342
#     4   9  16  29  53  83 118 155 198 249 296 341
#     4  11  21  36  60  93 125 151 190 246 307 358
#     4  10  21  35  56  83 120 165 197 239 302 374
#
# _framework density 21.410667
#
# number of rings (size 3 to 8) (size 9 to 14) (size 15 to 20)
#    0.000    2.667    1.667    3.000    0.000    3.000 
#    0.000    2.500    0.000    9.000    0.000   15.167 
#    0.000    0.000    0.000    0.000    0.000    0.000 
#
# Total GULP energy -267869.924253 kJ/mol
# GULP energy per Si atom -5580.623422 kJ/mol
# Density = 2.136194 g / cm^3
# Si number density = 21.410667 Si / 1000 Ang^3
#
#
#
# Elastic Constant Matrix: (Units=GPa)
#
#
# Indices 1 2 3 4 5 6 
#
# 1 89.7357 35.4156 16.6437 0.0000 0.0000 0.0000
# 2 35.4156 91.8933 21.0540 0.0000 0.0000 0.0000
# 3 16.6437 21.0540 48.1136 0.0000 0.0000 0.0000
# 4 0.0000 0.0000 0.0000 25.8740 0.0000 0.0000
# 5 0.0000 0.0000 0.0000 0.0000 5.9102 0.0000
# 6 0.0000 0.0000 0.0000 0.0000 0.0000 25.4069
#
#
#
# Elastic Compliance Matrix: (Units=1/GPa)
#
#
# Indices 1 2 3 4 5 6 
#
# 1 0.013440 -0.004573 -0.002648 0.000000 0.000000 0.000000
# 2 -0.004573 0.013651 -0.004392 0.000000 0.000000 0.000000
# 3 -0.002648 -0.004392 0.023622 0.000000 0.000000 0.000000
# 4 0.000000 0.000000 0.000000 0.038649 0.000000 0.000000
# 5 0.000000 0.000000 0.000000 0.000000 0.169199 0.000000
# 6 0.000000 0.000000 0.000000 0.000000 0.000000 0.039359
#
#
# Mechanical properties :
#
#
# Convention : Reuss Voigt Hill
#
# Bulk Modulus (GPa) = 36.38047 41.77436 39.07742
# Shear Modulus (GPa) = 15.13743 21.88019 18.50881
#
# Velocity S-wave (km/s) = 2.66184 3.20023 2.94337
# Velocity P-wave (km/s) = 5.14547 5.76270 5.46281
#
# Compressibility (1/GPa) = 0.02748727
#
# Stress axis : x y z
#
# Youngs Moduli (GPa) = 74.40600 73.25603 42.33370
#
# Poissons Ratio (x) = 0.33500 0.11210
# Poissons Ratio (y) = 0.34026 0.18591
# Poissons Ratio (z) = 0.19703 0.32170
#
# Static dielectric constant tensor:
#      x y z
#    x 1.827040 0.000000 0.000000 
#    y 0.000000 1.766800 0.000000 
#    z 0.000000 0.000000 1.797650 
# 
# From -- ./inp_files/14045.got.cif
#   From: 2010.05.17/outbox.cif.g08.bks.cpg/sg49_8_cif.got.tgz:14045.got - 2010.06.03 21:02:19.
