data_PCOD9394207
_publ_section_title
;
Structure prediction by ZEFSAII (Michael W. Deem and Ramdas Pophale) SiO2 
 PCOD9394207
Probable space group: P C C M
;
_chemical_formula_sum "Si O2"
_cell_formula_units_Z 64
_cell_length_a 9.206944
_cell_length_b 15.118300
_cell_length_c 24.784059
_cell_angle_alpha 90.000000
_cell_angle_beta 90.000000
_cell_angle_gamma 90.000000
_cell_volume 3449.775988
_symmetry_space_group_name_H-M "P C C M"
_symmetry_group_IT_number 49
_symmetry_cell_setting 'orthorhombic'
loop_
_space_group_symop_operation_xyz
x,y,z
-x,-y,z
x,-y,1/2-z
-x,y,1/2-z
-x,-y,-z
x,y,-z
-x,y,1/2+z
x,-y,1/2+z
loop_
_atom_site_type_symbol
_atom_site_label
_atom_site_fract_x
_atom_site_fract_y
_atom_site_fract_z
Si Si1 0.212975 0.810076 0.363140
Si Si2 0.704524 0.212985 0.889137
Si Si3 0.143716 0.378277 0.332381
Si Si4 0.159668 0.346197 0.795317
Si Si5 0.509106 0.894627 0.812167
Si Si6 0.419844 0.689690 0.436277
Si Si7 0.030455 0.894340 0.062330
Si Si8 0.352915 0.461972 0.859461
O O1 0.152446 0.755520 0.311919
O O2 0.337608 0.871931 0.339505
O O3 0.297252 0.746450 0.405288
O O4 0.083617 0.853803 0.395782
O O5 0.803169 0.288902 0.861355
O O6 0.616901 0.154520 0.845546
O O7 0.576798 0.267115 0.920821
O O8 0.810977 0.146310 0.922006
O O9 0.162124 0.367251 0.267571
O O10 0.234859 0.459334 0.357336
O O11 0.969731 0.389414 0.331189
O O12 0.304603 0.385589 0.819245
O O13 0.500000 0.864596 0.750000
O O14 0.500000 0.000000 0.813497
O O15 0.401915 0.693705 0.500000
O O16 0.395263 0.589686 0.414310
O O17 0.002085 0.868513 0.000000
O O18 0.000000 0.000000 0.065283
O O19 0.500000 0.500000 0.836887
#
# Coordination Sequence:
#
# PCOD9394207 Si02
#       8
#     8   8   8   8   8   8   8   8
#     4  10  20  39  61  85 117 158 197 246 296 357
#     4  11  21  39  61  86 121 155 203 248 304 363
#     4  11  21  38  57  86 115 158 189 239 292 354
#     4  10  22  37  60  80 120 153 193 232 292 357
#     4  10  21  37  58  87 122 157 194 242 303 369
#     4  10  22  40  61  84 116 160 201 245 298 352
#     4  11  23  39  62  91 120 155 204 260 311 360
#     4  11  22  38  56  89 115 152 193 246 286 343
#
# _framework density 18.551929000000001
#
# number of rings (size 3 to 8) (size 9 to 14) (size 15 to 20)
#    0.000    1.500    2.500    3.000    0.000    2.250 
#    0.000    0.000    0.000   10.500    0.000    0.000 
#    0.000    0.000    0.000    0.000    0.000    0.000 
#
# Total GULP energy -356558.979545 kJ/mol
# GULP energy per Si atom -5571.234055 kJ/mol
# Density = 1.850970 g / cm^3
# Si number density = 18.551929 Si / 1000 Ang^3
#
#
#
# Elastic Constant Matrix: (Units=GPa)
#
#
# Indices 1 2 3 4 5 6 
#
# 1 70.0399 25.7495 31.2539 0.0000 0.0000 0.0000
# 2 25.7495 86.4749 38.7106 0.0000 0.0000 0.0000
# 3 31.2539 38.7106 90.9185 0.0000 0.0000 0.0000
# 4 0.0000 0.0000 0.0000 137.1986 0.0000 0.0000
# 5 0.0000 0.0000 0.0000 0.0000 18.4665 0.0000
# 6 0.0000 0.0000 0.0000 0.0000 0.0000 31.4265
#
#
#
# Elastic Compliance Matrix: (Units=1/GPa)
#
#
# Indices 1 2 3 4 5 6 
#
# 1 0.017518 -0.003114 -0.004696 0.000000 0.000000 0.000000
# 2 -0.003114 0.014841 -0.005248 0.000000 0.000000 0.000000
# 3 -0.004696 -0.005248 0.014848 0.000000 0.000000 0.000000
# 4 0.000000 0.000000 0.000000 0.007289 0.000000 0.000000
# 5 0.000000 0.000000 0.000000 0.000000 0.054152 0.000000
# 6 0.000000 0.000000 0.000000 0.000000 0.000000 0.031820
#
#
# Mechanical properties :
#
#
# Convention : Reuss Voigt Hill
#
# Bulk Modulus (GPa) = 47.41675 48.76236 48.08956
# Shear Modulus (GPa) = 28.79951 47.53295 38.16623
#
# Velocity S-wave (km/s) = 3.94429 5.06727 4.54063
# Velocity P-wave (km/s) = 6.80865 7.78316 7.31216
#
# Compressibility (1/GPa) = 0.02108959
#
# Stress axis : x y z
#
# Youngs Moduli (GPa) = 57.08428 67.38207 67.35039
#
# Poissons Ratio (x) = 0.20984 0.31628
# Poissons Ratio (y) = 0.17777 0.35347
# Poissons Ratio (z) = 0.26807 0.35364
#
# Static dielectric constant tensor:
#      x y z
#    x 1.901780 0.000000 0.000000 
#    y 0.000000 1.686470 0.000000 
#    z 0.000000 0.000000 1.621530 
# 
# From -- ./inp_files/22579.got.cif
#   From: 2010.05.17/outbox.cif.g08.bks.cpg/sg49_12_cif.got.tgz:22579.got - 2010.06.03 21:02:19.
