data_PCOD9394017
_publ_section_title
;
Structure prediction by ZEFSAII (Michael W. Deem and Ramdas Pophale) SiO2 
 PCOD9394017
Probable space group: P C C M
;
_chemical_formula_sum "Si O2"
_cell_formula_units_Z 40
_cell_length_a 24.525621
_cell_length_b 9.128542
_cell_length_c 9.809093
_cell_angle_alpha 90.000000
_cell_angle_beta 90.000000
_cell_angle_gamma 90.000000
_cell_volume 2196.090751
_symmetry_space_group_name_H-M "P C C M"
_symmetry_group_IT_number 49
_symmetry_cell_setting 'orthorhombic'
loop_
_space_group_symop_operation_xyz
x,y,z
-x,-y,z
x,-y,1/2-z
-x,y,1/2-z
-x,-y,-z
x,y,-z
-x,y,1/2+z
x,-y,1/2+z
loop_
_atom_site_type_symbol
_atom_site_label
_atom_site_fract_x
_atom_site_fract_y
_atom_site_fract_z
Si Si1 0.257547 0.145624 0.339111
Si Si2 0.576624 0.342247 0.500000
Si Si3 0.842864 0.643310 0.659468
Si Si4 0.947836 0.849582 0.665368
Si Si5 0.619799 0.824262 0.738030
Si Si6 0.553549 0.315901 0.000000
O O1 0.254013 0.110100 0.500000
O O2 0.210724 0.262045 0.306430
O O3 0.318133 0.204441 0.308365
O O4 0.249686 0.000000 0.250000
O O5 0.605255 0.265592 0.627527
O O6 0.577618 0.518850 0.500000
O O7 0.511663 0.313344 0.500000
O O8 0.846465 0.500000 0.750000
O O9 0.839393 0.603302 0.500000
O O10 0.896023 0.744640 0.677282
O O11 0.957603 0.871004 0.500000
O O12 0.000000 0.788572 0.750000
O O13 0.936614 0.000000 0.750000
O O14 0.576929 0.767868 0.628881
O O15 0.615114 0.000000 0.750000
#
# Coordination Sequence:
#
# PCOD9394017 Si02
#       6
#     8   4   8   8   8   4
#     4  10  22  41  63  87 117 152 195 244 296 351
#     4  11  25  39  63  87 121 163 196 237 310 359
#     4  10  23  40  58  88 122 158 200 245 295 353
#     4  10  20  36  60  88 120 157 204 249 298 354
#     4  11  23  40  63  90 119 153 202 252 300 355
#     4  11  23  43  59  89 123 157 198 245 294 375
#
# _framework density 18.214182999999998
#
# number of rings (size 3 to 8) (size 9 to 14) (size 15 to 20)
#    0.000    1.600    1.000    3.600    4.200    8.400 
#    0.000    2.000    0.000    0.000    0.000    0.000 
#    0.000    0.000    0.000    0.000    0.000    0.000 
#
# Total GULP energy -223258.644633 kJ/mol
# GULP energy per Si atom -5581.466116 kJ/mol
# Density = 1.817273 g / cm^3
# Si number density = 18.214183 Si / 1000 Ang^3
#
#
#
# Elastic Constant Matrix: (Units=GPa)
#
#
# Indices 1 2 3 4 5 6 
#
# 1 103.2819 64.9581 36.5351 0.0000 0.0000 0.0000
# 2 64.9581 77.9617 39.5990 0.0000 0.0000 0.0000
# 3 36.5351 39.5990 104.7503 0.0000 0.0000 0.0000
# 4 0.0000 0.0000 0.0000 27.2176 0.0000 0.0000
# 5 0.0000 0.0000 0.0000 0.0000 33.7650 0.0000
# 6 0.0000 0.0000 0.0000 0.0000 0.0000 -51.7846
#
#
#
# Elastic Compliance Matrix: (Units=1/GPa)
#
#
# Indices 1 2 3 4 5 6 
#
# 1 0.020404 -0.016567 -0.000854 0.000000 0.000000 0.000000
# 2 -0.016567 0.029327 -0.005308 0.000000 0.000000 0.000000
# 3 -0.000854 -0.005308 0.011851 0.000000 0.000000 0.000000
# 4 0.000000 0.000000 0.000000 0.036741 0.000000 0.000000
# 5 0.000000 0.000000 0.000000 0.000000 0.029616 0.000000
# 6 0.000000 0.000000 0.000000 0.000000 0.000000 -0.019311
#
#
# Mechanical properties :
#
#
# Convention : Reuss Voigt Hill
#
# Bulk Modulus (GPa) = 62.01999 63.13091 62.57545
# Shear Modulus (GPa) = 31.35579 11.49973 21.42776
#
# Velocity S-wave (km/s) = 4.15360 2.51542 3.43364
# Velocity P-wave (km/s) = 7.55827 6.57054 7.08165
#
# Compressibility (1/GPa) = 0.01612383
#
# Stress axis : x y z
#
# Youngs Moduli (GPa) = 49.01038 34.09867 84.38172
#
# Poissons Ratio (x) = 0.56491 0.07203
# Poissons Ratio (y) = 0.81195 0.44791
# Poissons Ratio (z) = 0.04184 0.18100
#
# Static dielectric constant tensor:
#      x y z
#    x 1.614760 0.000000 0.000000 
#    y 0.000000 1.591920 0.000000 
#    z 0.000000 0.000000 1.580870 
# 
# From -- ./inp_files/6215.got.cif
#   From: 2010.05.17/outbox.cif.g08.bks.cpg/sg49_4_cif.got.tgz:6215.got - 2010.06.03 21:02:19.
