data_PCOD9394550
_publ_section_title
;
Structure prediction by ZEFSAII (Michael W. Deem and Ramdas Pophale) SiO2 
 PCOD9394550
Probable space group: P C C M
;
_chemical_formula_sum "Si O2"
_cell_formula_units_Z 40
_cell_length_a 17.797059
_cell_length_b 6.131711
_cell_length_c 18.164390
_cell_angle_alpha 90.000000
_cell_angle_beta 90.000000
_cell_angle_gamma 90.000000
_cell_volume 1982.214896
_symmetry_space_group_name_H-M "P C C M"
_symmetry_group_IT_number 49
_symmetry_cell_setting 'orthorhombic'
loop_
_space_group_symop_operation_xyz
x,y,z
-x,-y,z
x,-y,1/2-z
-x,y,1/2-z
-x,-y,-z
x,y,-z
-x,y,1/2+z
x,-y,1/2+z
loop_
_atom_site_type_symbol
_atom_site_label
_atom_site_fract_x
_atom_site_fract_y
_atom_site_fract_z
Si Si1 0.225126 0.280895 0.913124
Si Si2 0.190005 0.116304 0.324824
Si Si3 0.533839 0.752672 0.411680
Si Si4 0.086100 0.524267 0.160948
Si Si5 0.669817 0.410094 0.174886
O O1 0.146980 0.369265 0.877854
O O2 0.296393 0.404382 0.878234
O O3 0.226484 0.034308 0.886154
O O4 0.224644 0.308243 0.000000
O O5 0.118131 0.237640 0.356477
O O6 0.255136 0.282467 0.301086
O O7 0.166886 0.000000 0.250000
O O8 0.500000 0.500000 0.395294
O O9 0.541218 0.754232 0.500000
O O10 0.612365 0.738534 0.369045
O O11 0.500000 0.000000 0.393459
O O12 0.090504 0.500000 0.250000
O O13 0.000000 0.500000 0.138662
O O14 0.634388 0.500000 0.250000
#
# Coordination Sequence:
#
# PCOD9394550 Si02
#       5
#     8   8   8   8   8
#     4  11  23  39  62  94 126 164 215 273 330 394
#     4  11  20  39  63  91 123 164 221 269 328 398
#     4  10  24  45  68 101 143 183 224 273 336 408
#     4  10  21  39  61  87 124 168 211 264 328 397
#     4  11  23  41  68  96 129 172 218 276 331 396
#
# _framework density 20.179447
#
# number of rings (size 3 to 8) (size 9 to 14) (size 15 to 20)
#    0.000    1.400    4.000    1.800    2.800    5.600 
#    0.000    2.000    0.000    0.000    0.000    0.000 
#    0.000    0.000    0.000    0.000    0.000    0.000 
#
# Total GULP energy -222834.864677 kJ/mol
# GULP energy per Si atom -5570.871617 kJ/mol
# Density = 2.013352 g / cm^3
# Si number density = 20.179447 Si / 1000 Ang^3
#
#
#
# Elastic Constant Matrix: (Units=GPa)
#
#
# Indices 1 2 3 4 5 6 
#
# 1 102.7990 48.6372 27.8945 0.0000 0.0000 0.0000
# 2 48.6372 105.3452 29.6074 0.0000 0.0000 0.0000
# 3 27.8945 29.6074 86.4680 0.0000 0.0000 0.0000
# 4 0.0000 0.0000 0.0000 24.4438 0.0000 0.0000
# 5 0.0000 0.0000 0.0000 0.0000 10.6014 0.0000
# 6 0.0000 0.0000 0.0000 0.0000 0.0000 2.5449
#
#
#
# Elastic Compliance Matrix: (Units=1/GPa)
#
#
# Indices 1 2 3 4 5 6 
#
# 1 0.012861 -0.005280 -0.002341 0.000000 0.000000 0.000000
# 2 -0.005280 0.012671 -0.002635 0.000000 0.000000 0.000000
# 3 -0.002341 -0.002635 0.013223 0.000000 0.000000 0.000000
# 4 0.000000 0.000000 0.000000 0.040910 0.000000 0.000000
# 5 0.000000 0.000000 0.000000 0.000000 0.094327 0.000000
# 6 0.000000 0.000000 0.000000 0.000000 0.000000 0.392942
#
#
# Mechanical properties :
#
#
# Convention : Reuss Voigt Hill
#
# Bulk Modulus (GPa) = 54.81879 56.32113 55.56996
# Shear Modulus (GPa) = 8.42422 20.08290 14.25356
#
# Velocity S-wave (km/s) = 2.04541 3.15813 2.66059
# Velocity P-wave (km/s) = 5.72738 6.42410 6.08572
#
# Compressibility (1/GPa) = 0.01824192
#
# Stress axis : x y z
#
# Youngs Moduli (GPa) = 77.75416 78.92056 75.62824
#
# Poissons Ratio (x) = 0.41669 0.17705
# Poissons Ratio (y) = 0.41053 0.19931
# Poissons Ratio (z) = 0.18203 0.20798
#
# Static dielectric constant tensor:
#      x y z
#    x 1.707560 0.000000 0.000000 
#    y 0.000000 1.891020 0.000000 
#    z 0.000000 0.000000 1.692590 
# 
# From -- ./inp_files/15249.got.cif
#   From: 2010.05.17/outbox.cif.g08.bks.cpg/sg49_8_cif.got.tgz:15249.got - 2010.06.03 21:02:19.
