data_PCOD9394720
_publ_section_title
;
Structure prediction by ZEFSAII (Michael W. Deem and Ramdas Pophale) SiO2 
 PCOD9394720
Probable space group: P C C M
;
_chemical_formula_sum "Si O2"
_cell_formula_units_Z 40
_cell_length_a 8.745616
_cell_length_b 15.265932
_cell_length_c 15.200570
_cell_angle_alpha 90.000000
_cell_angle_beta 90.000000
_cell_angle_gamma 90.000000
_cell_volume 2029.427784
_symmetry_space_group_name_H-M "P C C M"
_symmetry_group_IT_number 49
_symmetry_cell_setting 'orthorhombic'
loop_
_space_group_symop_operation_xyz
x,y,z
-x,-y,z
x,-y,1/2-z
-x,y,1/2-z
-x,-y,-z
x,y,-z
-x,y,1/2+z
x,-y,1/2+z
loop_
_atom_site_type_symbol
_atom_site_label
_atom_site_fract_x
_atom_site_fract_y
_atom_site_fract_z
Si Si1 0.908754 0.412356 0.394373
Si Si2 0.568228 0.096860 0.000000
Si Si3 0.934368 0.217911 0.654648
Si Si4 0.437338 0.411599 0.150847
Si Si5 0.564562 0.218040 0.349180
Si Si6 0.065319 0.901745 0.000000
O O1 0.887356 0.410646 0.500000
O O2 0.979133 0.318912 0.367420
O O3 0.744435 0.417959 0.349357
O O4 0.000000 0.500000 0.371580
O O5 0.506242 0.147529 0.914305
O O6 0.751414 0.095573 0.000000
O O7 0.500000 0.000000 0.000000
O O8 0.749388 0.212501 0.652288
O O9 0.000000 0.196553 0.750000
O O10 0.003746 0.152191 0.583653
O O11 0.500000 0.500000 0.107061
O O12 0.500000 0.410269 0.250000
O O13 0.476710 0.315570 0.114926
O O14 0.500000 0.209225 0.250000
O O15 0.000000 0.000000 0.000000
#
# Coordination Sequence:
#
# PCOD9394720 Si02
#       6
#     8   4   8   8   8   4
#     4  10  22  39  61  93 132 174 220 270 322 382
#     4  12  26  44  69  94 123 168 207 262 326 386
#     4  11  23  42  69  96 131 172 217 269 323 385
#     4   9  20  37  59  89 129 169 214 261 313 372
#     4  10  22  42  64  95 131 166 213 263 318 379
#     4  12  26  46  69  98 131 164 213 268 330 392
#
# _framework density 19.709989
#
# number of rings (size 3 to 8) (size 9 to 14) (size 15 to 20)
#    0.000    1.600    1.000    3.000    4.200   11.200 
#    0.000    4.000    0.000    0.000    0.000    0.000 
#    0.000    0.000    0.000    0.000    0.000    0.000 
#
# Total GULP energy -223496.777505 kJ/mol
# GULP energy per Si atom -5587.419438 kJ/mol
# Density = 1.966513 g / cm^3
# Si number density = 19.709989 Si / 1000 Ang^3
#
#
#
# Elastic Constant Matrix: (Units=GPa)
#
#
# Indices 1 2 3 4 5 6 
#
# 1 111.7215 85.6099 61.9281 0.0000 0.0000 0.0000
# 2 85.6099 220.1452 88.0291 0.0000 0.0000 0.0000
# 3 61.9281 88.0291 135.5682 0.0000 0.0000 0.0000
# 4 0.0000 0.0000 0.0000 13.7923 0.0000 0.0000
# 5 0.0000 0.0000 0.0000 0.0000 32.5085 0.0000
# 6 0.0000 0.0000 0.0000 0.0000 0.0000 33.8671
#
#
#
# Elastic Compliance Matrix: (Units=1/GPa)
#
#
# Indices 1 2 3 4 5 6 
#
# 1 0.014127 -0.003935 -0.003898 0.000000 0.000000 0.000000
# 2 -0.003935 0.007232 -0.002898 0.000000 0.000000 0.000000
# 3 -0.003898 -0.002898 0.011039 0.000000 0.000000 0.000000
# 4 0.000000 0.000000 0.000000 0.072504 0.000000 0.000000
# 5 0.000000 0.000000 0.000000 0.000000 0.030761 0.000000
# 6 0.000000 0.000000 0.000000 0.000000 0.000000 0.029527
#
#
# Mechanical properties :
#
#
# Convention : Reuss Voigt Hill
#
# Bulk Modulus (GPa) = 91.45073 104.28545 97.86809
# Shear Modulus (GPa) = 26.27466 31.49143 28.88304
#
# Velocity S-wave (km/s) = 3.65507 4.00151 3.83221
# Velocity P-wave (km/s) = 8.01945 8.62405 8.32724
#
# Compressibility (1/GPa) = 0.01093485
#
# Stress axis : x y z
#
# Youngs Moduli (GPa) = 70.78741 138.28266 90.58818
#
# Poissons Ratio (x) = 0.54413 0.35312
# Poissons Ratio (y) = 0.27854 0.26255
# Poissons Ratio (z) = 0.27594 0.40078
#
# Static dielectric constant tensor:
#      x y z
#    x 1.660230 0.000000 0.000000 
#    y 0.000000 1.723610 0.000000 
#    z 0.000000 0.000000 1.672440 
# 
# From -- ./inp_files/11623.got.cif
#   From: 2010.05.17/outbox.cif.g08.bks.cpg/sg49_6_cif.got.tgz:11623.got - 2010.06.03 21:02:19.
