data_PCOD9394998
_publ_section_title
;
Structure prediction by ZEFSAII (Michael W. Deem and Ramdas Pophale) SiO2 
 PCOD9394998
Probable space group: P C C M
;
_chemical_formula_sum "Si O2"
_cell_formula_units_Z 48
_cell_length_a 14.193965
_cell_length_b 11.882965
_cell_length_c 15.706834
_cell_angle_alpha 90.000000
_cell_angle_beta 90.000000
_cell_angle_gamma 90.000000
_cell_volume 2649.214978
_symmetry_space_group_name_H-M "P C C M"
_symmetry_group_IT_number 49
_symmetry_cell_setting 'orthorhombic'
loop_
_space_group_symop_operation_xyz
x,y,z
-x,-y,z
x,-y,1/2-z
-x,y,1/2-z
-x,-y,-z
x,y,-z
-x,y,1/2+z
x,-y,1/2+z
loop_
_atom_site_type_symbol
_atom_site_label
_atom_site_fract_x
_atom_site_fract_y
_atom_site_fract_z
Si Si1 0.389838 0.634501 0.750000
Si Si2 0.702088 0.234022 0.904915
Si Si3 0.892384 0.869087 0.852971
Si Si4 0.107616 0.869087 0.852971
Si Si5 0.387424 1.000000 0.850285
Si Si6 0.702088 0.765978 0.095085
O O1 0.385026 0.500000 0.750000
O O2 0.500000 0.669272 0.750000
O O3 0.339459 0.685743 0.832691
O O4 0.339459 0.685743 0.667309
O O5 0.812793 0.209887 0.891315
O O6 0.653518 0.112366 0.891487
O O7 0.683557 0.275401 0.000000
O O8 0.885610 0.863874 0.750000
O O9 0.812793 0.790113 0.891315
O O10 0.000000 0.841606 0.876741
O O11 0.875058 0.000000 0.876979
O O12 0.346482 0.112366 0.891487
O O13 0.500000 0.000000 0.856153
O O14 0.360492 0.000000 0.750000
O O15 0.683557 0.724599 0.000000
#
# Coordination Sequence:
#
# PCOD9394998 Si02
#       6
#     8   8   8   8   8   8
#     4  11  26  47  66  83 110 155 209 258 300 348
#     4  12  23  37  61  91 123 156 193 244 301 358
#     4   9  17  32  56  87 125 164 197 231 281 352
#     4   9  17  32  56  87 125 164 197 231 281 352
#     4  11  21  35  56  84 122 161 192 234 296 362
#     4  12  23  37  61  91 123 156 193 244 301 358
#
# _framework density 18.118575
#
# number of rings (size 3 to 8) (size 9 to 14) (size 15 to 20)
#    0.000    1.333    5.000    2.500    0.000    4.667 
#    0.000    3.333    0.000    2.000    0.000    2.333 
#    0.000    0.000    0.000    0.000    0.000    0.000 
#
# Total GULP energy -268315.645076 kJ/mol
# GULP energy per Si atom -5589.909272 kJ/mol
# Density = 1.807734 g / cm^3
# Si number density = 18.118575 Si / 1000 Ang^3
#
#
#
# Elastic Constant Matrix: (Units=GPa)
#
#
# Indices 1 2 3 4 5 6 
#
# 1 120.0737 40.0056 59.2516 0.0000 0.0000 0.0000
# 2 40.0056 57.1540 39.3082 0.0000 0.0000 0.0000
# 3 59.2516 39.3082 138.4993 0.0000 0.0000 0.0000
# 4 0.0000 0.0000 0.0000 -0.8082 0.0000 0.0000
# 5 0.0000 0.0000 0.0000 0.0000 -14.6218 0.0000
# 6 0.0000 0.0000 0.0000 0.0000 0.0000 13.2569
#
#
#
# Elastic Compliance Matrix: (Units=1/GPa)
#
#
# Indices 1 2 3 4 5 6 
#
# 1 0.012043 -0.006071 -0.003429 0.000000 0.000000 0.000000
# 2 -0.006071 0.024801 -0.004441 0.000000 0.000000 0.000000
# 3 -0.003429 -0.004441 0.009948 0.000000 0.000000 0.000000
# 4 0.000000 0.000000 0.000000 -1.237339 0.000000 0.000000
# 5 0.000000 0.000000 0.000000 0.000000 -0.068391 0.000000
# 6 0.000000 0.000000 0.000000 0.000000 0.000000 0.075432
#
#
# Mechanical properties :
#
#
# Convention : Reuss Voigt Hill
#
# Bulk Modulus (GPa) = 52.88734 65.87308 59.38021
# Shear Modulus (GPa) = -4.35040 11.37616 3.51288
#
# Velocity S-wave (km/s) = -1.55122 2.50846 1.39393
# Velocity P-wave (km/s) = 5.10339 6.69518 5.95273
#
# Compressibility (1/GPa) = 0.01890812
#
# Stress axis : x y z
#
# Youngs Moduli (GPa) = 83.03473 40.32092 100.52474
#
# Poissons Ratio (x) = 0.24480 0.34470
# Poissons Ratio (y) = 0.50414 0.44648
# Poissons Ratio (z) = 0.28473 0.17908
#
# Static dielectric constant tensor:
#      x y z
#    x 1.636220 0.000000 0.000000 
#    y 0.000000 1.572700 0.000000 
#    z 0.000000 0.000000 1.643410 
# 
# From -- ./inp_files/12778.got.cif
#   From: 2010.05.17/outbox.cif.g08.bks.cpg/sg49_7_cif.got.tgz:12778.got - 2010.06.03 21:02:19.
