data_PCOD9394254
_publ_section_title
;
Structure prediction by ZEFSAII (Michael W. Deem and Ramdas Pophale) SiO2 
 PCOD9394254
Probable space group: P C C M
;
_chemical_formula_sum "Si O2"
_cell_formula_units_Z 40
_cell_length_a 8.514025
_cell_length_b 10.366499
_cell_length_c 21.467377
_cell_angle_alpha 90.000000
_cell_angle_beta 90.000000
_cell_angle_gamma 90.000000
_cell_volume 1894.724254
_symmetry_space_group_name_H-M "P C C M"
_symmetry_group_IT_number 49
_symmetry_cell_setting 'orthorhombic'
loop_
_space_group_symop_operation_xyz
x,y,z
-x,-y,z
x,-y,1/2-z
-x,y,1/2-z
-x,-y,-z
x,y,-z
-x,y,1/2+z
x,-y,1/2+z
loop_
_atom_site_type_symbol
_atom_site_label
_atom_site_fract_x
_atom_site_fract_y
_atom_site_fract_z
Si Si1 0.830507 0.706245 0.728661
Si Si2 0.628732 0.386980 0.000000
Si Si3 0.357135 0.898596 0.000000
Si Si4 0.621179 0.615299 0.632792
Si Si5 0.820928 0.945635 0.629871
Si Si6 0.594440 0.165169 0.313991
O O1 0.738763 0.602007 0.689220
O O2 0.835027 0.829918 0.680744
O O3 0.731798 0.743570 0.788947
O O4 0.000000 0.669608 0.750000
O O5 0.500000 0.500000 0.000000
O O6 0.710511 0.392527 0.933199
O O7 0.561734 0.242174 0.000000
O O8 0.246475 0.910675 0.061389
O O9 0.500000 0.000000 0.000000
O O10 0.500000 0.500000 0.634251
O O11 0.521846 0.748709 0.643372
O O12 0.687408 0.045640 0.655741
O O13 0.000000 0.000000 0.625248
O O14 0.500000 0.135220 0.250000
#
# Coordination Sequence:
#
# PCOD9394254 Si02
#       6
#     8   4   4   8   8   8
#     4  11  22  39  64  91 131 175 216 264 344 404
#     4  10  20  41  66  91 128 173 216 278 331 390
#     4  12  25  41  68 105 130 175 231 294 332 400
#     4  10  22  42  67  94 127 172 230 277 323 393
#     4  12  24  41  63  95 140 175 217 277 351 406
#     4  10  23  37  61  95 130 176 222 267 331 400
#
# _framework density 21.111250999999999
#
# number of rings (size 3 to 8) (size 9 to 14) (size 15 to 20)
#    0.000    1.200    4.000    2.100    2.800    6.000 
#    0.000    2.000    0.000    0.000    0.000    8.400 
#    0.000    0.000    0.000    0.000    0.000    0.000 
#
# Total GULP energy -223179.801860 kJ/mol
# GULP energy per Si atom -5579.495047 kJ/mol
# Density = 2.106320 g / cm^3
# Si number density = 21.111251 Si / 1000 Ang^3
#
#
#
# Elastic Constant Matrix: (Units=GPa)
#
#
# Indices 1 2 3 4 5 6 
#
# 1 111.1266 17.6245 30.5484 0.0000 0.0000 0.0000
# 2 17.6245 80.5375 20.3290 0.0000 0.0000 0.0000
# 3 30.5484 20.3290 133.4299 0.0000 0.0000 0.0000
# 4 0.0000 0.0000 0.0000 20.0751 0.0000 0.0000
# 5 0.0000 0.0000 0.0000 0.0000 20.0627 0.0000
# 6 0.0000 0.0000 0.0000 0.0000 0.0000 19.4742
#
#
#
# Elastic Compliance Matrix: (Units=1/GPa)
#
#
# Indices 1 2 3 4 5 6 
#
# 1 0.009808 -0.001643 -0.001995 0.000000 0.000000 0.000000
# 2 -0.001643 0.013188 -0.001633 0.000000 0.000000 0.000000
# 3 -0.001995 -0.001633 0.008200 0.000000 0.000000 0.000000
# 4 0.000000 0.000000 0.000000 0.049813 0.000000 0.000000
# 5 0.000000 0.000000 0.000000 0.000000 0.049844 0.000000
# 6 0.000000 0.000000 0.000000 0.000000 0.000000 0.051350
#
#
# Mechanical properties :
#
#
# Convention : Reuss Voigt Hill
#
# Bulk Modulus (GPa) = 48.41665 51.34420 49.88043
# Shear Modulus (GPa) = 25.04637 29.02855 27.03746
#
# Velocity S-wave (km/s) = 3.44815 3.71216 3.58259
# Velocity P-wave (km/s) = 6.23192 6.53812 6.38686
#
# Compressibility (1/GPa) = 0.02065405
#
# Stress axis : x y z
#
# Youngs Moduli (GPa) = 101.96028 75.82472 121.94820
#
# Poissons Ratio (x) = 0.12455 0.24331
# Poissons Ratio (y) = 0.16749 0.19917
# Poissons Ratio (z) = 0.20343 0.12384
#
# Static dielectric constant tensor:
#      x y z
#    x 1.741530 0.000000 0.000000 
#    y 0.000000 1.841270 0.000000 
#    z 0.000000 0.000000 1.791430 
# 
# From -- ./inp_files/19678.got.cif
#   From: 2010.05.17/outbox.cif.g08.bks.cpg/sg49_10_cif.got.tgz:19678.got - 2010.06.03 21:02:19.
