data_PCOD9394630
_publ_section_title
;
Structure prediction by ZEFSAII (Michael W. Deem and Ramdas Pophale) SiO2 
 PCOD9394630
Probable space group: P C C M
;
_chemical_formula_sum "Si O2"
_cell_formula_units_Z 56
_cell_length_a 6.171551
_cell_length_b 14.219847
_cell_length_c 28.661754
_cell_angle_alpha 90.000000
_cell_angle_beta 90.000000
_cell_angle_gamma 90.000000
_cell_volume 2515.312853
_symmetry_space_group_name_H-M "P C C M"
_symmetry_group_IT_number 49
_symmetry_cell_setting 'orthorhombic'
loop_
_space_group_symop_operation_xyz
x,y,z
-x,-y,z
x,-y,1/2-z
-x,y,1/2-z
-x,-y,-z
x,y,-z
-x,y,1/2+z
x,-y,1/2+z
loop_
_atom_site_type_symbol
_atom_site_label
_atom_site_fract_x
_atom_site_fract_y
_atom_site_fract_z
Si Si1 0.091719 0.405386 0.852089
Si Si2 0.314028 0.576804 0.449046
Si Si3 0.754565 0.968113 0.943883
Si Si4 0.055718 0.890221 0.303040
Si Si5 0.527223 0.790623 0.946920
Si Si6 0.604417 0.739879 0.801150
Si Si7 0.217261 0.238966 0.629959
O O1 0.210272 0.441194 0.898771
O O2 0.223362 0.341072 0.815030
O O3 0.000000 0.500000 0.828995
O O4 0.922739 0.332028 0.874273
O O5 0.500000 0.500000 0.452741
O O6 0.194351 0.574578 0.500000
O O7 0.406250 0.682352 0.444938
O O8 0.725906 0.857195 0.931881
O O9 0.500000 0.000000 0.929968
O O10 0.761079 0.982184 0.000000
O O11 0.000000 0.000000 0.927266
O O12 0.293189 0.844474 0.307977
O O13 0.000000 0.861681 0.250000
O O14 0.909410 0.836856 0.339944
O O15 0.000000 0.000000 0.306847
O O16 0.311692 0.803452 0.917080
O O17 0.478236 0.815366 0.000000
O O18 0.500000 0.730700 0.750000
O O19 0.422313 0.730697 0.839721
#
# Coordination Sequence:
#
# PCOD9394630 Si02
#       7
#     8   8   8   8   8   8   8
#     4  11  25  41  69  99 136 180 232 279 344 425
#     4  10  21  40  68  98 133 176 229 290 349 413
#     4   9  19  38  61  88 127 180 238 294 351 420
#     4  10  22  43  72 105 133 170 225 281 345 420
#     4  10  21  40  66  97 135 183 235 287 354 422
#     4  11  23  45  71  95 139 176 218 287 344 410
#     4  11  23  43  67  99 138 180 224 287 343 415
#
# _framework density 22.263629999999999
#
# number of rings (size 3 to 8) (size 9 to 14) (size 15 to 20)
#    0.000    1.714    2.857    0.857    0.000    2.571 
#    2.571    5.000    0.000    0.429    0.000    0.000 
#    0.000    0.000    0.000    0.000    0.000    0.000 
#
# Total GULP energy -312254.632458 kJ/mol
# GULP energy per Si atom -5575.975580 kJ/mol
# Density = 2.221296 g / cm^3
# Si number density = 22.263630 Si / 1000 Ang^3
#
#
#
# Elastic Constant Matrix: (Units=GPa)
#
#
# Indices 1 2 3 4 5 6 
#
# 1 106.6351 55.9647 39.9310 0.0000 0.0000 0.0000
# 2 55.9647 125.6032 34.1192 0.0000 0.0000 0.0000
# 3 39.9310 34.1192 84.7584 0.0000 0.0000 0.0000
# 4 0.0000 0.0000 0.0000 5.8235 0.0000 0.0000
# 5 0.0000 0.0000 0.0000 0.0000 14.2446 0.0000
# 6 0.0000 0.0000 0.0000 0.0000 0.0000 25.2936
#
#
#
# Elastic Compliance Matrix: (Units=1/GPa)
#
#
# Indices 1 2 3 4 5 6 
#
# 1 0.013587 -0.004845 -0.004451 0.000000 0.000000 0.000000
# 2 -0.004845 0.010667 -0.002011 0.000000 0.000000 0.000000
# 3 -0.004451 -0.002011 0.014705 0.000000 0.000000 0.000000
# 4 0.000000 0.000000 0.000000 0.171719 0.000000 0.000000
# 5 0.000000 0.000000 0.000000 0.000000 0.070202 0.000000
# 6 0.000000 0.000000 0.000000 0.000000 0.000000 0.039536
#
#
# Mechanical properties :
#
#
# Convention : Reuss Voigt Hill
#
# Bulk Modulus (GPa) = 61.18285 64.11406 62.64845
# Shear Modulus (GPa) = 14.34813 21.53779 17.94296
#
# Velocity S-wave (km/s) = 2.54139 3.11368 2.84197
# Velocity P-wave (km/s) = 6.01267 6.46427 6.24256
#
# Compressibility (1/GPa) = 0.01634445
#
# Stress axis : x y z
#
# Youngs Moduli (GPa) = 73.59856 93.74969 68.00534
#
# Poissons Ratio (x) = 0.45422 0.30268
# Poissons Ratio (y) = 0.35658 0.13678
# Poissons Ratio (z) = 0.32757 0.18856
#
# Static dielectric constant tensor:
#      x y z
#    x 2.039050 0.000000 0.000000 
#    y 0.000000 1.758360 0.000000 
#    z 0.000000 0.000000 1.920700 
# 
# From -- ./inp_files/25837.got.cif
#   From: 2010.05.17/outbox.cif.g08.bks.cpg/sg49_13_cif.got.tgz:25837.got - 2010.06.03 21:02:19.
