data_PCOD9394133
_publ_section_title
;
Structure prediction by ZEFSAII (Michael W. Deem and Ramdas Pophale) SiO2 
 PCOD9394133
Probable space group: P C C M
;
_chemical_formula_sum "Si O2"
_cell_formula_units_Z 64
_cell_length_a 15.079702
_cell_length_b 11.760228
_cell_length_c 15.403399
_cell_angle_alpha 90.000000
_cell_angle_beta 90.000000
_cell_angle_gamma 90.000000
_cell_volume 2731.650080
_symmetry_space_group_name_H-M "P C C M"
_symmetry_group_IT_number 49
_symmetry_cell_setting 'orthorhombic'
loop_
_space_group_symop_operation_xyz
x,y,z
-x,-y,z
x,-y,1/2-z
-x,y,1/2-z
-x,-y,-z
x,y,-z
-x,y,1/2+z
x,-y,1/2+z
loop_
_atom_site_type_symbol
_atom_site_label
_atom_site_fract_x
_atom_site_fract_y
_atom_site_fract_z
Si Si1 0.920494 0.059857 0.845358
Si Si2 0.849595 0.423292 0.401738
Si Si3 0.971957 0.696349 0.604415
Si Si4 0.621170 0.779019 0.401988
Si Si5 0.465606 0.625928 0.393762
Si Si6 0.281562 0.739357 0.346534
Si Si7 0.223115 0.364273 0.336928
Si Si8 0.726161 0.002075 0.147467
O O1 0.959383 0.186353 0.844243
O O2 0.914162 0.000000 0.750000
O O3 0.822778 0.045295 0.885715
O O4 0.000000 0.000000 0.895836
O O5 0.858300 0.468322 0.500000
O O6 0.797318 0.305006 0.406027
O O7 0.781703 0.498711 0.343190
O O8 0.946840 0.385727 0.368191
O O9 0.981065 0.713848 0.500000
O O10 0.876261 0.646357 0.626535
O O11 0.593516 0.796638 0.500000
O O12 0.538436 0.715893 0.359146
O O13 0.702263 0.689238 0.398190
O O14 0.654508 0.901354 0.371828
O O15 0.500000 0.500000 0.368807
O O16 0.460956 0.625514 0.500000
O O17 0.371068 0.667880 0.359599
O O18 0.242731 0.710644 0.249550
O O19 0.296299 0.871134 0.371677
O O20 0.734019 0.000000 0.250000
#
# Coordination Sequence:
#
# PCOD9394133 Si02
#       8
#     8   8   8   8   8   8   8   8
#     4  10  20  37  62  93 134 190 240 293 352 423
#     4  11  25  43  67 101 142 189 237 297 358 418
#     4  11  23  41  66 100 141 187 242 293 353 428
#     4  11  23  42  73 105 136 188 241 294 364 438
#     4  10  24  48  76 106 142 185 239 302 368 438
#     4  12  25  44  71 102 142 185 236 297 366 434
#     4  12  23  43  69 102 141 184 233 295 357 432
#     4  11  22  43  65  99 144 185 237 296 364 427
#
# _framework density 23.429062999999999
#
# number of rings (size 3 to 8) (size 9 to 14) (size 15 to 20)
#    0.000    1.000    2.500    4.500    0.000    5.750 
#    0.000    3.750    0.000    0.000    0.000    0.000 
#    0.000    0.000    0.000    0.000    0.000    0.000 
#
# Total GULP energy -356756.040168 kJ/mol
# GULP energy per Si atom -5574.313128 kJ/mol
# Density = 2.337574 g / cm^3
# Si number density = 23.429063 Si / 1000 Ang^3
#
#
#
# Elastic Constant Matrix: (Units=GPa)
#
#
# Indices 1 2 3 4 5 6 
#
# 1 166.8775 67.6998 19.6131 0.0000 0.0000 0.0000
# 2 67.6998 145.8593 27.5522 0.0000 0.0000 0.0000
# 3 19.6131 27.5522 69.4104 0.0000 0.0000 0.0000
# 4 0.0000 0.0000 0.0000 22.4663 0.0000 0.0000
# 5 0.0000 0.0000 0.0000 0.0000 25.8245 0.0000
# 6 0.0000 0.0000 0.0000 0.0000 0.0000 35.3114
#
#
#
# Elastic Compliance Matrix: (Units=1/GPa)
#
#
# Indices 1 2 3 4 5 6 
#
# 1 0.007422 -0.003296 -0.000789 0.000000 0.000000 0.000000
# 2 -0.003296 0.008875 -0.002592 0.000000 0.000000 0.000000
# 3 -0.000789 -0.002592 0.015659 0.000000 0.000000 0.000000
# 4 0.000000 0.000000 0.000000 0.044511 0.000000 0.000000
# 5 0.000000 0.000000 0.000000 0.000000 0.038723 0.000000
# 6 0.000000 0.000000 0.000000 0.000000 0.000000 0.028319
#
#
# Mechanical properties :
#
#
# Convention : Reuss Voigt Hill
#
# Bulk Modulus (GPa) = 53.75457 67.98640 60.87048
# Shear Modulus (GPa) = 30.66277 34.53924 32.60100
#
# Velocity S-wave (km/s) = 3.62159 3.84370 3.73430
# Velocity P-wave (km/s) = 6.36249 6.98425 6.68060
#
# Compressibility (1/GPa) = 0.01860307
#
# Stress axis : x y z
#
# Youngs Moduli (GPa) = 134.72956 112.67238 63.86208
#
# Poissons Ratio (x) = 0.37137 0.05038
# Poissons Ratio (y) = 0.44407 0.16551
# Poissons Ratio (z) = 0.10630 0.29201
#
# Static dielectric constant tensor:
#      x y z
#    x 1.931390 0.000000 0.000000 
#    y 0.000000 3.984360 0.000000 
#    z 0.000000 0.000000 1.857380 
# 
# From -- ./inp_files/17951.got.cif
#   From: 2010.05.17/outbox.cif.g08.bks.cpg/sg49_9_cif.got.tgz:17951.got - 2010.06.03 21:02:19.
