data_PCOD9394576
_publ_section_title
;
Structure prediction by ZEFSAII (Michael W. Deem and Ramdas Pophale) SiO2 
 PCOD9394576
Probable space group: P C C M
;
_chemical_formula_sum "Si O2"
_cell_formula_units_Z 48
_cell_length_a 7.788763
_cell_length_b 14.362448
_cell_length_c 18.936512
_cell_angle_alpha 90.000000
_cell_angle_beta 90.000000
_cell_angle_gamma 90.000000
_cell_volume 2118.346238
_symmetry_space_group_name_H-M "P C C M"
_symmetry_group_IT_number 49
_symmetry_cell_setting 'orthorhombic'
loop_
_space_group_symop_operation_xyz
x,y,z
-x,-y,z
x,-y,1/2-z
-x,y,1/2-z
-x,-y,-z
x,y,-z
-x,y,1/2+z
x,-y,1/2+z
loop_
_atom_site_type_symbol
_atom_site_label
_atom_site_fract_x
_atom_site_fract_y
_atom_site_fract_z
Si Si1 0.773410 0.635978 0.580088
Si Si2 0.374484 0.300419 0.081041
Si Si3 0.299026 0.469475 0.172204
Si Si4 0.095778 0.207708 0.676770
Si Si5 0.692022 0.960581 0.321599
Si Si6 0.817924 0.888628 0.918343
O O1 0.835383 0.643217 0.500000
O O2 0.576454 0.674198 0.581530
O O3 0.778543 0.532314 0.610247
O O4 0.875034 0.698646 0.634672
O O5 0.293460 0.363681 0.143654
O O6 0.328005 0.191867 0.091646
O O7 0.315196 0.323686 0.000000
O O8 0.500000 0.500000 0.173952
O O9 0.232214 0.500000 0.250000
O O10 0.272691 0.148937 0.682522
O O11 0.000000 0.222314 0.750000
O O12 0.974039 0.144290 0.629145
O O13 0.500000 0.000000 0.319796
O O14 0.778912 0.000000 0.250000
O O15 0.763732 0.010837 0.390655
O O16 0.862544 0.890468 0.000000
#
# Coordination Sequence:
#
# PCOD9394576 Si02
#       6
#     8   8   8   8   8   8
#     4  10  21  39  63  92 127 169 215 264 315 370
#     4   9  19  38  63  93 127 165 214 266 316 369
#     4   9  18  32  59  95 127 164 213 266 314 362
#     4  12  25  41  63  92 127 169 205 257 315 381
#     4  11  24  43  66  92 122 161 209 258 313 373
#     4  11  24  41  65  93 126 167 206 256 317 378
#
# _framework density 22.659184
#
# number of rings (size 3 to 8) (size 9 to 14) (size 15 to 20)
#    0.000    1.667    1.667    2.500    2.333    4.333 
#    0.000    0.833    0.000    3.000    0.000    0.000 
#    0.000    0.000    0.000    0.000    0.000    0.000 
#
# Total GULP energy -268126.965469 kJ/mol
# GULP energy per Si atom -5585.978447 kJ/mol
# Density = 2.260761 g / cm^3
# Si number density = 22.659184 Si / 1000 Ang^3
#
#
#
# Elastic Constant Matrix: (Units=GPa)
#
#
# Indices 1 2 3 4 5 6 
#
# 1 50.3872 0.3442 25.0403 0.0000 0.0000 0.0000
# 2 0.3442 70.6945 49.0517 0.0000 0.0000 0.0000
# 3 25.0403 49.0517 178.1405 0.0000 0.0000 0.0000
# 4 0.0000 0.0000 0.0000 51.4157 0.0000 0.0000
# 5 0.0000 0.0000 0.0000 0.0000 32.0066 0.0000
# 6 0.0000 0.0000 0.0000 0.0000 0.0000 23.6920
#
#
#
# Elastic Compliance Matrix: (Units=1/GPa)
#
#
# Indices 1 2 3 4 5 6 
#
# 1 0.021684 0.002484 -0.003732 0.000000 0.000000 0.000000
# 2 0.002484 0.017771 -0.005242 0.000000 0.000000 0.000000
# 3 -0.003732 -0.005242 0.007582 0.000000 0.000000 0.000000
# 4 0.000000 0.000000 0.000000 0.019449 0.000000 0.000000
# 5 0.000000 0.000000 0.000000 0.000000 0.031244 0.000000
# 6 0.000000 0.000000 0.000000 0.000000 0.000000 0.042208
#
#
# Mechanical properties :
#
#
# Convention : Reuss Voigt Hill
#
# Bulk Modulus (GPa) = 29.36393 49.78829 39.57611
# Shear Modulus (GPa) = 30.43763 36.40858 33.42311
#
# Velocity S-wave (km/s) = 3.66905 4.01283 3.84479
# Velocity P-wave (km/s) = 5.56205 6.59475 6.10029
#
# Compressibility (1/GPa) = 0.03405538
#
# Stress axis : x y z
#
# Youngs Moduli (GPa) = 46.11704 56.27228 131.89763
#
# Poissons Ratio (x) = -0.13977 0.49223
# Poissons Ratio (y) = -0.11455 0.69146
# Poissons Ratio (z) = 0.17211 0.29500
#
# Static dielectric constant tensor:
#      x y z
#    x 2.004360 0.000000 0.000000 
#    y 0.000000 1.829360 0.000000 
#    z 0.000000 0.000000 1.829440 
# 
# From -- ./inp_files/16338.got.cif
#   From: 2010.05.17/outbox.cif.g08.bks.cpg/sg49_9_cif.got.tgz:16338.got - 2010.06.03 21:02:19.
