data_PCOD9394221
_publ_section_title
;
Structure prediction by ZEFSAII (Michael W. Deem and Ramdas Pophale) SiO2 
 PCOD9394221
Probable space group: P C C M
;
_chemical_formula_sum "Si O2"
_cell_formula_units_Z 48
_cell_length_a 10.105448
_cell_length_b 14.215968
_cell_length_c 15.593148
_cell_angle_alpha 90.000000
_cell_angle_beta 90.000000
_cell_angle_gamma 90.000000
_cell_volume 2240.091767
_symmetry_space_group_name_H-M "P C C M"
_symmetry_group_IT_number 49
_symmetry_cell_setting 'orthorhombic'
loop_
_space_group_symop_operation_xyz
x,y,z
-x,-y,z
x,-y,1/2-z
-x,y,1/2-z
-x,-y,-z
x,y,-z
-x,y,1/2+z
x,-y,1/2+z
loop_
_atom_site_type_symbol
_atom_site_label
_atom_site_fract_x
_atom_site_fract_y
_atom_site_fract_z
Si Si1 0.648874 0.019656 0.602656
Si Si2 0.597257 0.583389 0.895887
Si Si3 0.915770 0.255610 0.678854
Si Si4 0.621610 0.783491 0.813283
Si Si5 0.093345 0.908797 0.900893
Si Si6 0.882319 0.559809 0.098295
O O1 0.653948 0.009534 0.500000
O O2 0.660857 0.129128 0.625611
O O3 0.500000 0.000000 0.633053
O O4 0.765339 0.949175 0.634705
O O5 0.500000 0.500000 0.871789
O O6 0.573604 0.688069 0.860223
O O7 0.739102 0.549382 0.861728
O O8 0.598382 0.590929 0.000000
O O9 0.770844 0.237555 0.719395
O O10 0.903496 0.328026 0.601122
O O11 0.000000 0.308624 0.750000
O O12 0.006940 0.167353 0.651054
O O13 0.500000 0.808535 0.750000
O O14 0.113108 0.876103 0.000000
O O15 0.000000 0.000000 0.903991
O O16 0.000000 0.500000 0.136849
O O17 0.869609 0.527357 0.000000
#
# Coordination Sequence:
#
# PCOD9394221 Si02
#       6
#     8   8   8   8   8   8
#     4  10  22  41  63  88 117 153 200 253 305 358
#     4   9  19  38  64  89 114 153 203 251 301 361
#     4  11  24  39  58  88 124 161 201 245 304 368
#     4  11  24  40  58  86 124 164 199 245 307 366
#     4  10  20  39  66  89 112 151 204 254 299 356
#     4   9  19  38  63  89 117 152 198 253 306 358
#
# _framework density 21.427693999999999
#
# number of rings (size 3 to 8) (size 9 to 14) (size 15 to 20)
#    0.000    2.000    1.667    1.000    2.333    4.000 
#    0.000    3.333    0.000    0.000    0.000    0.000 
#    0.000    0.000    0.000    0.000    0.000    0.000 
#
# Total GULP energy -267219.423839 kJ/mol
# GULP energy per Si atom -5567.071330 kJ/mol
# Density = 2.137892 g / cm^3
# Si number density = 21.427694 Si / 1000 Ang^3
#
#
#
# Elastic Constant Matrix: (Units=GPa)
#
#
# Indices 1 2 3 4 5 6 
#
# 1 158.6887 62.2755 25.5798 0.0000 0.0000 0.0000
# 2 62.2755 100.6068 13.0433 0.0000 0.0000 0.0000
# 3 25.5798 13.0433 33.7066 0.0000 0.0000 0.0000
# 4 0.0000 0.0000 0.0000 36.9642 0.0000 0.0000
# 5 0.0000 0.0000 0.0000 0.0000 -2.2610 0.0000
# 6 0.0000 0.0000 0.0000 0.0000 0.0000 41.0008
#
#
#
# Elastic Compliance Matrix: (Units=1/GPa)
#
#
# Indices 1 2 3 4 5 6 
#
# 1 0.009044 -0.004957 -0.004945 0.000000 0.000000 0.000000
# 2 -0.004957 0.013182 -0.001339 0.000000 0.000000 0.000000
# 3 -0.004945 -0.001339 0.033939 0.000000 0.000000 0.000000
# 4 0.000000 0.000000 0.000000 0.027053 0.000000 0.000000
# 5 0.000000 0.000000 0.000000 0.000000 -0.442273 0.000000
# 6 0.000000 0.000000 0.000000 0.000000 0.000000 0.024390
#
#
# Mechanical properties :
#
#
# Convention : Reuss Voigt Hill
#
# Bulk Modulus (GPa) = 29.68948 54.97771 42.33360
# Shear Modulus (GPa) = -16.61381 27.94767 5.66693
#
# Velocity S-wave (km/s) = -2.78752 3.61540 1.62801
# Velocity P-wave (km/s) = 1.87760 6.56819 4.83045
#
# Compressibility (1/GPa) = 0.03368196
#
# Stress axis : x y z
#
# Youngs Moduli (GPa) = 110.56793 75.86227 29.46474
#
# Poissons Ratio (x) = 0.37607 0.14571
# Poissons Ratio (y) = 0.54811 0.03945
# Poissons Ratio (z) = 0.54680 0.10157
#
# Static dielectric constant tensor:
#      x y z
#    x 1.843450 0.000000 0.000000 
#    y 0.000000 1.812240 0.000000 
#    z 0.000000 0.000000 1.823970 
# 
# From -- ./inp_files/16331.got.cif
#   From: 2010.05.17/outbox.cif.g08.bks.cpg/sg49_9_cif.got.tgz:16331.got - 2010.06.03 21:02:19.
