data_PCOD9394138
_publ_section_title
;
Structure prediction by ZEFSAII (Michael W. Deem and Ramdas Pophale) SiO2 
 PCOD9394138
Probable space group: P C C M
;
_chemical_formula_sum "Si O2"
_cell_formula_units_Z 64
_cell_length_a 8.987614
_cell_length_b 23.589309
_cell_length_c 14.504709
_cell_angle_alpha 90.000000
_cell_angle_beta 90.000000
_cell_angle_gamma 90.000000
_cell_volume 3075.166618
_symmetry_space_group_name_H-M "P C C M"
_symmetry_group_IT_number 49
_symmetry_cell_setting 'orthorhombic'
loop_
_space_group_symop_operation_xyz
x,y,z
-x,-y,z
x,-y,1/2-z
-x,y,1/2-z
-x,-y,-z
x,y,-z
-x,y,1/2+z
x,-y,1/2+z
loop_
_atom_site_type_symbol
_atom_site_label
_atom_site_fract_x
_atom_site_fract_y
_atom_site_fract_z
Si Si1 0.668551 0.617585 0.280767
Si Si2 0.295050 0.159751 0.106303
Si Si3 0.871045 0.320767 0.104141
Si Si4 0.347043 0.845291 0.103997
Si Si5 0.679302 0.510873 0.396360
Si Si6 0.319360 0.935883 0.244843
Si Si7 0.151137 0.221615 0.257625
Si Si8 0.836775 0.610991 0.897019
O O1 0.500000 0.616932 0.250000
O O2 0.709184 0.656745 0.366803
O O3 0.712995 0.555276 0.316452
O O4 0.760022 0.637852 0.191975
O O5 0.474858 0.161811 0.105937
O O6 0.263477 0.105554 0.173021
O O7 0.225658 0.215059 0.157010
O O8 0.245898 0.154276 0.000000
O O9 0.906602 0.274447 0.180811
O O10 0.989690 0.372750 0.110634
O O11 0.876758 0.299473 0.000000
O O12 0.295995 0.905229 0.146888
O O13 0.277353 0.801470 0.174746
O O14 0.295342 0.837600 0.000000
O O15 0.500000 0.500000 0.389863
O O16 0.704143 0.534594 0.500000
O O17 0.779080 0.454146 0.391381
O O18 0.500000 0.937643 0.250000
O O19 0.263449 0.000000 0.250000
O O20 0.000000 0.185118 0.250000
O O21 0.790234 0.630434 0.000000
#
# Coordination Sequence:
#
# PCOD9394138 Si02
#       8
#     8   8   8   8   8   8   8   8
#     4  12  23  37  64  94 126 154 194 238 297 356
#     4   9  19  35  58  89 122 156 206 260 309 367
#     4  11  26  46  62  85 118 155 197 251 309 366
#     4   9  18  34  57  85 117 156 202 253 304 364
#     4  10  20  37  63  93 123 156 192 230 279 348
#     4   8  14  26  48  83 126 164 199 247 307 364
#     4  11  22  39  61  82 112 152 202 256 312 365
#     4  10  22  40  62  86 122 160 196 238 288 351
#
# _framework density 20.811879999999999
#
# number of rings (size 3 to 8) (size 9 to 14) (size 15 to 20)
#    0.000    2.000    1.250    3.375    0.000    3.500 
#    0.000    6.250    0.000    6.000    0.000    7.000 
#    0.000    0.000    0.000    0.000    0.000    0.000 
#
# Total GULP energy -356361.041634 kJ/mol
# GULP energy per Si atom -5568.141276 kJ/mol
# Density = 2.076451 g / cm^3
# Si number density = 20.811880 Si / 1000 Ang^3
#
#
#
# Elastic Constant Matrix: (Units=GPa)
#
#
# Indices 1 2 3 4 5 6 
#
# 1 41.0472 28.2846 37.7717 0.0000 0.0000 0.0000
# 2 28.2846 50.6677 38.0970 0.0000 0.0000 0.0000
# 3 37.7717 38.0970 167.3679 0.0000 0.0000 0.0000
# 4 0.0000 0.0000 0.0000 10.2332 0.0000 0.0000
# 5 0.0000 0.0000 0.0000 0.0000 25.6186 0.0000
# 6 0.0000 0.0000 0.0000 0.0000 0.0000 -1.1717
#
#
#
# Elastic Compliance Matrix: (Units=1/GPa)
#
#
# Indices 1 2 3 4 5 6 
#
# 1 0.042929 -0.020124 -0.005108 0.000000 0.000000 0.000000
# 2 -0.020124 0.033246 -0.003026 0.000000 0.000000 0.000000
# 3 -0.005108 -0.003026 0.007816 0.000000 0.000000 0.000000
# 4 0.000000 0.000000 0.000000 0.097721 0.000000 0.000000
# 5 0.000000 0.000000 0.000000 0.000000 0.039034 0.000000
# 6 0.000000 0.000000 0.000000 0.000000 0.000000 -0.853454
#
#
# Mechanical properties :
#
#
# Convention : Reuss Voigt Hill
#
# Bulk Modulus (GPa) = 36.39561 51.93217 44.16389
# Shear Modulus (GPa) = -8.81783 17.26465 4.22341
#
# Velocity S-wave (km/s) = -2.06061 2.88333 1.42609
# Velocity P-wave (km/s) = 3.44447 6.00767 4.89676
#
# Compressibility (1/GPa) = 0.02747584
#
# Stress axis : x y z
#
# Youngs Moduli (GPa) = 23.29403 30.07900 127.93797
#
# Poissons Ratio (x) = 0.60532 0.65345
# Poissons Ratio (y) = 0.46878 0.38712
# Poissons Ratio (z) = 0.11897 0.09101
#
# Static dielectric constant tensor:
#      x y z
#    x 1.850940 0.000000 0.000000 
#    y 0.000000 1.873120 0.000000 
#    z 0.000000 0.000000 1.751340 
# 
# From -- ./inp_files/12168.got.cif
#   From: 2010.05.17/outbox.cif.g08.bks.cpg/sg49_7_cif.got.tgz:12168.got - 2010.06.03 21:02:19.
