data_PCOD9394213
_publ_section_title
;
Structure prediction by ZEFSAII (Michael W. Deem and Ramdas Pophale) SiO2 
 PCOD9394213
Probable space group: P C C M
;
_chemical_formula_sum "Si O2"
_cell_formula_units_Z 56
_cell_length_a 32.115621
_cell_length_b 5.158522
_cell_length_c 15.933759
_cell_angle_alpha 90.000000
_cell_angle_beta 90.000000
_cell_angle_gamma 90.000000
_cell_volume 2639.732110
_symmetry_space_group_name_H-M "P C C M"
_symmetry_group_IT_number 49
_symmetry_cell_setting 'orthorhombic'
loop_
_space_group_symop_operation_xyz
x,y,z
-x,-y,z
x,-y,1/2-z
-x,y,1/2-z
-x,-y,-z
x,y,-z
-x,y,1/2+z
x,-y,1/2+z
loop_
_atom_site_type_symbol
_atom_site_label
_atom_site_fract_x
_atom_site_fract_y
_atom_site_fract_z
Si Si1 0.617964 0.374760 0.159486
Si Si2 0.114479 0.749965 0.808464
Si Si3 0.026298 0.750075 0.101302
Si Si4 0.338777 0.137835 0.902958
Si Si5 0.750386 0.343389 0.602464
Si Si6 0.799158 0.158162 0.101350
Si Si7 0.472529 0.242385 0.400888
O O1 0.623983 0.500000 0.250000
O O2 0.629630 0.618666 0.100365
O O3 0.570734 0.283262 0.145886
O O4 0.645566 0.119157 0.143717
O O5 0.117045 0.500000 0.750000
O O6 0.072400 0.741804 0.862304
O O7 0.155658 0.771921 0.864759
O O8 0.112697 0.000000 0.750000
O O9 0.000000 0.500000 0.127233
O O10 0.028956 0.753712 0.000000
O O11 0.000000 0.000000 0.128511
O O12 0.295124 0.251737 0.869785
O O13 0.332974 0.058568 0.000000
O O14 0.748952 0.349069 0.500000
O O15 0.765843 0.625092 0.629756
O O16 0.783701 0.125417 0.628052
O O17 0.800035 0.160993 0.000000
O O18 0.500000 0.500000 0.393572
O O19 0.462934 0.199233 0.500000
O O20 0.500000 0.000000 0.371185
#
# Coordination Sequence:
#
# PCOD9394213 Si02
#       7
#     8   8   8   8   8   8   8
#     4  12  25  41  61  94 134 165 202 254 317 377
#     4  12  25  39  58  88 124 158 195 240 300 363
#     4  10  22  41  64  88 115 153 201 247 294 351
#     4  11  22  41  67  92 122 165 214 258 306 368
#     4   9  19  36  63  91 113 151 208 257 294 346
#     4  10  20  39  62  85 116 155 202 251 297 350
#     4  10  21  39  64  90 116 154 204 250 295 354
#
# _framework density 21.214275000000001
#
# number of rings (size 3 to 8) (size 9 to 14) (size 15 to 20)
#    0.000    1.429    0.000    5.571    0.000    5.429 
#    0.000   13.571    0.000    0.000    0.000    0.000 
#    0.000    0.000    0.000    0.000    0.000    0.000 
#
# Total GULP energy -313355.039213 kJ/mol
# GULP energy per Si atom -5595.625700 kJ/mol
# Density = 2.116599 g / cm^3
# Si number density = 21.214275 Si / 1000 Ang^3
#
#
#
# Elastic Constant Matrix: (Units=GPa)
#
#
# Indices 1 2 3 4 5 6 
#
# 1 91.6877 11.4497 16.4073 0.0000 0.0000 0.0000
# 2 11.4497 124.1559 13.7265 0.0000 0.0000 0.0000
# 3 16.4073 13.7265 28.4341 0.0000 0.0000 0.0000
# 4 0.0000 0.0000 0.0000 -46.9141 0.0000 0.0000
# 5 0.0000 0.0000 0.0000 0.0000 12.3150 0.0000
# 6 0.0000 0.0000 0.0000 0.0000 0.0000 39.2409
#
#
#
# Elastic Compliance Matrix: (Units=1/GPa)
#
#
# Indices 1 2 3 4 5 6 
#
# 1 0.012178 -0.000366 -0.006851 0.000000 0.000000 0.000000
# 2 -0.000366 0.008519 -0.003902 0.000000 0.000000 0.000000
# 3 -0.006851 -0.003902 0.041005 0.000000 0.000000 0.000000
# 4 0.000000 0.000000 0.000000 -0.021316 0.000000 0.000000
# 5 0.000000 0.000000 0.000000 0.000000 0.081202 0.000000
# 6 0.000000 0.000000 0.000000 0.000000 0.000000 0.025484
#
#
# Mechanical properties :
#
#
# Convention : Reuss Voigt Hill
#
# Bulk Modulus (GPa) = 25.33755 36.38273 30.86014
# Shear Modulus (GPa) = 27.40255 14.44131 20.92193
#
# Velocity S-wave (km/s) = 3.59793 2.61192 3.14382
# Velocity P-wave (km/s) = 5.40645 5.12675 5.26845
#
# Compressibility (1/GPa) = 0.03946712
#
# Stress axis : x y z
#
# Youngs Moduli (GPa) = 82.11428 117.37805 24.38698
#
# Poissons Ratio (x) = 0.04292 0.16706
# Poissons Ratio (y) = 0.03003 0.09515
# Poissons Ratio (z) = 0.56253 0.45798
#
# Static dielectric constant tensor:
#      x y z
#    x 1.730340 0.000000 0.000000 
#    y 0.000000 1.727080 0.000000 
#    z 0.000000 0.000000 1.787070 
# 
# From -- ./inp_files/14618.got.cif
#   From: 2010.05.17/outbox.cif.g08.bks.cpg/sg49_8_cif.got.tgz:14618.got - 2010.06.03 21:02:19.
