data_PCOD9394484
_publ_section_title
;
Structure prediction by ZEFSAII (Michael W. Deem and Ramdas Pophale) SiO2 
 PCOD9394484
Probable space group: P C C M
;
_chemical_formula_sum "Si O2"
_cell_formula_units_Z 64
_cell_length_a 17.821262
_cell_length_b 21.157165
_cell_length_c 8.925148
_cell_angle_alpha 90.000000
_cell_angle_beta 90.000000
_cell_angle_gamma 90.000000
_cell_volume 3365.203675
_symmetry_space_group_name_H-M "P C C M"
_symmetry_group_IT_number 49
_symmetry_cell_setting 'orthorhombic'
loop_
_space_group_symop_operation_xyz
x,y,z
-x,-y,z
x,-y,1/2-z
-x,y,1/2-z
-x,-y,-z
x,y,-z
-x,y,1/2+z
x,-y,1/2+z
loop_
_atom_site_type_symbol
_atom_site_label
_atom_site_fract_x
_atom_site_fract_y
_atom_site_fract_z
Si Si1 0.374506 0.798113 0.182648
Si Si2 0.576482 0.339289 0.820303
Si Si3 0.201826 0.935983 0.827304
Si Si4 0.127667 0.566885 0.676539
Si Si5 0.200972 0.798163 0.182764
Si Si6 0.307744 0.567044 0.323487
Si Si7 0.384970 0.935322 0.827215
Si Si8 0.077497 0.696560 0.819955
O O1 0.415716 0.734187 0.226399
O O2 0.287445 0.789599 0.228606
O O3 0.404993 0.866078 0.237552
O O4 0.375155 0.801941 0.000000
O O5 0.500000 0.365365 0.750000
O O6 0.647087 0.377983 0.758870
O O7 0.574715 0.342512 0.000000
O O8 0.176620 0.868145 0.764664
O O9 0.293341 0.934808 0.822927
O O10 0.176421 0.000000 0.750000
O O11 0.179749 0.938990 0.000000
O O12 0.106297 0.500000 0.750000
O O13 0.109747 0.567075 0.500000
O O14 0.217979 0.573978 0.693288
O O15 0.091328 0.626272 0.758669
O O16 0.145903 0.742184 0.227630
O O17 0.201299 0.799799 0.000000
O O18 0.328607 0.500000 0.250000
O O19 0.325072 0.567027 0.500000
O O20 0.409837 0.000000 0.750000
O O21 0.408377 0.938057 0.000000
O O22 0.000000 0.720452 0.750000
O O23 0.073702 0.695771 0.000000
#
# Coordination Sequence:
#
# PCOD9394484 Si02
#       8
#     8   8   8   8   8   8   8   8
#     4   8  15  29  50  73  97 130 170 209 253 308
#     4  11  22  36  54  76 105 140 177 215 258 306
#     4   8  13  23  41  67  96 123 156 201 252 303
#     4  10  21  38  60  85 110 135 167 208 253 303
#     4   8  15  29  50  73  97 130 170 209 253 308
#     4  10  21  38  60  85 110 135 167 208 253 303
#     4   8  13  23  41  67  96 123 156 201 252 303
#     4  11  22  36  54  76 105 140 177 215 258 306
#
# _framework density 19.018166999999998
#
# number of rings (size 3 to 8) (size 9 to 14) (size 15 to 20)
#    0.000    2.750    0.000    3.750    0.000    3.000 
#    0.000    5.000    0.000    6.750    0.000    5.250 
#    0.000    0.000    0.000    0.000    0.000    0.000 
#
# Total GULP energy -356905.837123 kJ/mol
# GULP energy per Si atom -5576.653705 kJ/mol
# Density = 1.897488 g / cm^3
# Si number density = 19.018167 Si / 1000 Ang^3
#
#
#
# Elastic Constant Matrix: (Units=GPa)
#
#
# Indices 1 2 3 4 5 6 
#
# 1 47.2563 30.6516 19.9796 0.0000 0.0000 0.0000
# 2 30.6516 111.6415 28.2458 0.0000 0.0000 0.0000
# 3 19.9796 28.2458 48.7279 0.0000 0.0000 0.0000
# 4 0.0000 0.0000 0.0000 28.3376 0.0000 0.0000
# 5 0.0000 0.0000 0.0000 0.0000 23.9800 0.0000
# 6 0.0000 0.0000 0.0000 0.0000 0.0000 -23.6285
#
#
#
# Elastic Compliance Matrix: (Units=1/GPa)
#
#
# Indices 1 2 3 4 5 6 
#
# 1 0.028371 -0.005679 -0.008341 0.000000 0.000000 0.000000
# 2 -0.005679 0.011633 -0.004415 0.000000 0.000000 0.000000
# 3 -0.008341 -0.004415 0.026501 0.000000 0.000000 0.000000
# 4 0.000000 0.000000 0.000000 0.035289 0.000000 0.000000
# 5 0.000000 0.000000 0.000000 0.000000 0.041701 0.000000
# 6 0.000000 0.000000 0.000000 0.000000 0.000000 -0.042322
#
#
# Mechanical properties :
#
#
# Convention : Reuss Voigt Hill
#
# Bulk Modulus (GPa) = 33.74265 40.59775 37.17020
# Shear Modulus (GPa) = 33.80134 14.32107 24.06120
#
# Velocity S-wave (km/s) = 4.22040 2.74710 3.56078
# Velocity P-wave (km/s) = 6.44437 5.60850 6.04091
#
# Compressibility (1/GPa) = 0.02963609
#
# Stress axis : x y z
#
# Youngs Moduli (GPa) = 35.24686 85.95885 37.73406
#
# Poissons Ratio (x) = 0.48817 0.31474
# Poissons Ratio (y) = 0.20017 0.16659
# Poissons Ratio (z) = 0.29399 0.37950
#
# Static dielectric constant tensor:
#      x y z
#    x 1.653230 0.000000 0.000000 
#    y 0.000000 1.679680 0.000000 
#    z 0.000000 0.000000 1.665590 
# 
# From -- ./inp_files/5293.got.cif
#   From: 2010.05.17/outbox.cif.g08.bks.cpg/sg49_3_cif.got.tgz:5293.got - 2010.06.03 21:02:19.
