data_PCOD9394489
_publ_section_title
;
Structure prediction by ZEFSAII (Michael W. Deem and Ramdas Pophale) SiO2 
 PCOD9394489
Probable space group: P C C M
;
_chemical_formula_sum "Si O2"
_cell_formula_units_Z 64
_cell_length_a 27.560901
_cell_length_b 6.714189
_cell_length_c 19.179226
_cell_angle_alpha 90.000000
_cell_angle_beta 90.000000
_cell_angle_gamma 90.000000
_cell_volume 3549.098478
_symmetry_space_group_name_H-M "P C C M"
_symmetry_group_IT_number 49
_symmetry_cell_setting 'orthorhombic'
loop_
_space_group_symop_operation_xyz
x,y,z
-x,-y,z
x,-y,1/2-z
-x,y,1/2-z
-x,-y,-z
x,y,-z
-x,y,1/2+z
x,-y,1/2+z
loop_
_atom_site_type_symbol
_atom_site_label
_atom_site_fract_x
_atom_site_fract_y
_atom_site_fract_z
Si Si1 0.951561 0.378402 0.080277
Si Si2 0.371009 0.279008 0.582515
Si Si3 0.366358 0.893324 0.326552
Si Si4 0.443382 0.458183 0.831837
Si Si5 0.888951 0.083141 0.828815
Si Si6 0.189680 0.576774 0.824725
Si Si7 0.698423 0.468262 0.672759
Si Si8 0.133472 0.703543 0.421694
O O1 0.932055 0.216835 0.136341
O O2 0.910446 0.546923 0.076793
O O3 0.000000 0.500000 0.099621
O O4 0.957364 0.297703 0.000000
O O5 0.373828 0.278073 0.500000
O O6 0.416148 0.386871 0.618844
O O7 0.326646 0.409701 0.611642
O O8 0.366719 0.062117 0.615387
O O9 0.413533 0.750661 0.338665
O O10 0.317070 0.762085 0.336360
O O11 0.367549 0.000000 0.250000
O O12 0.500000 0.500000 0.846586
O O13 0.437656 0.500000 0.750000
O O14 0.839596 0.217149 0.833713
O O15 0.896898 0.000000 0.750000
O O16 0.881409 0.893086 0.877346
O O17 0.170935 0.500000 0.750000
O O18 0.247683 0.559354 0.822231
O O19 0.175160 0.419936 0.883708
O O20 0.675855 0.500000 0.750000
O O21 0.146364 0.761876 0.500000
#
# Coordination Sequence:
#
# PCOD9394489 Si02
#       8
#     8   8   8   8   8   8   8   8
#     4   9  20  39  62  86 119 161 202 246 298 357
#     4  11  23  39  59  90 124 155 193 249 302 347
#     4  11  19  38  62  86 116 154 199 240 285 347
#     4  10  21  39  63  89 118 158 202 241 289 351
#     4  11  21  37  61  86 121 157 197 250 300 351
#     4  10  21  39  60  87 118 156 196 241 299 357
#     4  10  21  39  63  86 115 156 199 240 295 359
#     4  10  21  38  60  87 118 156 197 245 296 352
#
# _framework density 18.032747000000001
#
# number of rings (size 3 to 8) (size 9 to 14) (size 15 to 20)
#    0.000    1.750    3.750    1.125    0.000    5.250 
#    0.000    5.625    0.000    0.000    0.000    0.000 
#    0.000    0.000    0.000    0.000    0.000    0.000 
#
# Total GULP energy -356274.320474 kJ/mol
# GULP energy per Si atom -5566.786257 kJ/mol
# Density = 1.799170 g / cm^3
# Si number density = 18.032747 Si / 1000 Ang^3
#
#
#
# Elastic Constant Matrix: (Units=GPa)
#
#
# Indices 1 2 3 4 5 6 
#
# 1 59.2481 6.1095 18.0394 0.0000 0.0000 0.0000
# 2 6.1095 99.6891 56.6416 0.0000 0.0000 0.0000
# 3 18.0394 56.6416 148.9523 0.0000 0.0000 0.0000
# 4 0.0000 0.0000 0.0000 30.9862 0.0000 0.0000
# 5 0.0000 0.0000 0.0000 0.0000 16.0858 0.0000
# 6 0.0000 0.0000 0.0000 0.0000 0.0000 25.2609
#
#
#
# Elastic Compliance Matrix: (Units=1/GPa)
#
#
# Indices 1 2 3 4 5 6 
#
# 1 0.017527 0.000168 -0.002187 0.000000 0.000000 0.000000
# 2 0.000168 0.012797 -0.004887 0.000000 0.000000 0.000000
# 3 -0.002187 -0.004887 0.008837 0.000000 0.000000 0.000000
# 4 0.000000 0.000000 0.000000 0.032272 0.000000 0.000000
# 5 0.000000 0.000000 0.000000 0.000000 0.062166 0.000000
# 6 0.000000 0.000000 0.000000 0.000000 0.000000 0.039587
#
#
# Mechanical properties :
#
#
# Convention : Reuss Voigt Hill
#
# Bulk Modulus (GPa) = 39.44713 52.16340 45.80527
# Shear Modulus (GPa) = 25.58237 29.60651 27.59444
#
# Velocity S-wave (km/s) = 3.77060 4.05633 3.91607
# Velocity P-wave (km/s) = 6.39369 7.13641 6.77523
#
# Compressibility (1/GPa) = 0.02535039
#
# Stress axis : x y z
#
# Youngs Moduli (GPa) = 57.05618 78.14029 113.16467
#
# Poissons Ratio (x) = -0.01315 0.24745
# Poissons Ratio (y) = -0.00960 0.55302
# Poissons Ratio (z) = 0.12476 0.38186
#
# Static dielectric constant tensor:
#      x y z
#    x 1.705400 0.000000 0.000000 
#    y 0.000000 1.622020 0.000000 
#    z 0.000000 0.000000 1.617050 
# 
# From -- ./inp_files/18438.got.cif
#   From: 2010.05.17/outbox.cif.g08.bks.cpg/sg49_10_cif.got.tgz:18438.got - 2010.06.03 21:02:19.
