data_PCOD9394415
_publ_section_title
;
Structure prediction by ZEFSAII (Michael W. Deem and Ramdas Pophale) SiO2 
 PCOD9394415
Probable space group: P C C M
;
_chemical_formula_sum "Si O2"
_cell_formula_units_Z 48
_cell_length_a 14.182356
_cell_length_b 17.521788
_cell_length_c 9.324848
_cell_angle_alpha 90.000000
_cell_angle_beta 90.000000
_cell_angle_gamma 90.000000
_cell_volume 2317.226921
_symmetry_space_group_name_H-M "P C C M"
_symmetry_group_IT_number 49
_symmetry_cell_setting 'orthorhombic'
loop_
_space_group_symop_operation_xyz
x,y,z
-x,-y,z
x,-y,1/2-z
-x,y,1/2-z
-x,-y,-z
x,y,-z
-x,y,1/2+z
x,-y,1/2+z
loop_
_atom_site_type_symbol
_atom_site_label
_atom_site_fract_x
_atom_site_fract_y
_atom_site_fract_z
Si Si1 0.576008 0.782396 0.842193
Si Si2 0.625606 0.568362 0.000000
Si Si3 0.594005 0.387425 0.000000
Si Si4 0.635015 0.073068 0.838152
Si Si5 0.099021 0.757381 0.323167
Si Si6 0.137811 0.078981 0.332025
Si Si7 0.717778 0.336108 0.730409
O O1 0.500000 0.736843 0.750000
O O2 0.598943 0.854784 0.747013
O O3 0.669917 0.734909 0.849415
O O4 0.541534 0.800121 0.000000
O O5 0.607090 0.478863 0.000000
O O6 0.523041 0.614461 0.000000
O O7 0.690530 0.591870 0.133667
O O8 0.654532 0.351035 0.129567
O O9 0.748614 0.075996 0.840806
O O10 0.606424 0.000000 0.750000
O O11 0.601180 0.069621 0.000000
O O12 0.098421 0.758274 0.500000
O O13 0.116638 0.843818 0.259280
O O14 0.175665 0.695021 0.264917
O O15 0.000000 0.735697 0.250000
O O16 0.103367 0.082670 0.500000
O O17 0.108890 0.000000 0.250000
#
# Coordination Sequence:
#
# PCOD9394415 Si02
#       7
#     8   4   4   8   8   8   8
#     4  12  24  38  60  90 128 172 222 273 337 405
#     4  11  22  50  69 117 142 189 217 273 333 412
#     4  11  26  40  81 107 152 177 229 263 337 422
#     4  10  21  37  59  86 125 172 223 276 335 398
#     4  12  26  45  70  99 137 184 242 293 351 409
#     4  10  21  39  65  96 133 174 228 290 357 410
#     4  12  25  43  70 102 145 181 222 284 341 402
#
# _framework density 20.714417000000001
#
# number of rings (size 3 to 8) (size 9 to 14) (size 15 to 20)
#    0.000    0.833    3.333    4.000    4.667    3.333 
#    0.000    3.333    0.000    3.000    0.000    0.000 
#    0.000    0.000    0.000    0.000    0.000    0.000 
#
# Total GULP energy -267618.570053 kJ/mol
# GULP energy per Si atom -5575.386876 kJ/mol
# Density = 2.066727 g / cm^3
# Si number density = 20.714417 Si / 1000 Ang^3
#
#
#
# Elastic Constant Matrix: (Units=GPa)
#
#
# Indices 1 2 3 4 5 6 
#
# 1 143.2361 48.7844 43.8485 0.0000 0.0000 0.0000
# 2 48.7844 98.2467 48.3542 0.0000 0.0000 0.0000
# 3 43.8485 48.3542 178.3721 0.0000 0.0000 0.0000
# 4 0.0000 0.0000 0.0000 36.8393 0.0000 0.0000
# 5 0.0000 0.0000 0.0000 0.0000 25.4156 0.0000
# 6 0.0000 0.0000 0.0000 0.0000 0.0000 22.5464
#
#
#
# Elastic Compliance Matrix: (Units=1/GPa)
#
#
# Indices 1 2 3 4 5 6 
#
# 1 0.008586 -0.003721 -0.001102 0.000000 0.000000 0.000000
# 2 -0.003721 0.013358 -0.002706 0.000000 0.000000 0.000000
# 3 -0.001102 -0.002706 0.006611 0.000000 0.000000 0.000000
# 4 0.000000 0.000000 0.000000 0.027145 0.000000 0.000000
# 5 0.000000 0.000000 0.000000 0.000000 0.039346 0.000000
# 6 0.000000 0.000000 0.000000 0.000000 0.000000 0.044353
#
#
# Mechanical properties :
#
#
# Convention : Reuss Voigt Hill
#
# Bulk Modulus (GPa) = 74.09532 77.98101 76.03817
# Shear Modulus (GPa) = 31.45507 35.55145 33.50326
#
# Velocity S-wave (km/s) = 3.90104 4.14728 4.02604
# Velocity P-wave (km/s) = 7.49255 7.78850 7.64196
#
# Compressibility (1/GPa) = 0.01349613
#
# Stress axis : x y z
#
# Youngs Moduli (GPa) = 116.46608 74.86018 151.26669
#
# Poissons Ratio (x) = 0.27856 0.16669
# Poissons Ratio (y) = 0.43338 0.40940
# Poissons Ratio (z) = 0.12834 0.20261
#
# Static dielectric constant tensor:
#      x y z
#    x 1.788750 0.000000 0.000000 
#    y 0.000000 1.931470 0.000000 
#    z 0.000000 0.000000 1.855200 
# 
# From -- ./inp_files/3772.got.cif
#   From: 2010.05.17/outbox.cif.g08.bks.cpg/sg49_2_cif.got.tgz:3772.got - 2010.06.03 21:02:19.
