data_PCOD9394935
_publ_section_title
;
Structure prediction by ZEFSAII (Michael W. Deem and Ramdas Pophale) SiO2 
 PCOD9394935
Probable space group: P C C M
;
_chemical_formula_sum "Si O2"
_cell_formula_units_Z 26
_cell_length_a 5.130129
_cell_length_b 14.271448
_cell_length_c 15.688807
_cell_angle_alpha 90.000000
_cell_angle_beta 90.000000
_cell_angle_gamma 90.000000
_cell_volume 1148.646109
_symmetry_space_group_name_H-M "P C C M"
_symmetry_group_IT_number 49
_symmetry_cell_setting 'orthorhombic'
loop_
_space_group_symop_operation_xyz
x,y,z
-x,-y,z
x,-y,1/2-z
-x,y,1/2-z
-x,-y,-z
x,y,-z
-x,y,1/2+z
x,-y,1/2+z
loop_
_atom_site_type_symbol
_atom_site_label
_atom_site_fract_x
_atom_site_fract_y
_atom_site_fract_z
Si Si1 0.938286 0.296189 0.402396
Si Si2 0.435316 0.397294 0.651138
Si Si3 0.500000 0.000000 0.250000
Si Si4 0.186149 0.089483 0.902445
O O1 0.008346 0.310841 0.500000
O O2 0.638353 0.324086 0.388772
O O3 0.964701 0.186046 0.384485
O O4 0.139284 0.363018 0.354692
O O5 0.500000 0.500000 0.614027
O O6 0.500000 0.400906 0.750000
O O7 0.355693 0.067229 0.181381
O O8 0.305118 0.099596 0.000000
O O9 0.000000 0.000000 0.907863
#
# Coordination Sequence:
#
# PCOD9394935 Si02
#       4
#     8   8   2   8
#     4  11  25  44  70 100 135 182 228 282 348 413
#     4  11  25  44  68 100 138 177 228 288 344 410
#     4  12  24  40  72 100 134 192 240 284 354 426
#     4  10  25  45  66 100 143 181 231 294 350 418
#
# _framework density 22.635341
#
# number of rings (size 3 to 8) (size 9 to 14) (size 15 to 20)
#    0.000    1.231    0.000    3.692    6.462    8.615 
#    0.000    0.000    0.000    0.000    0.000    0.000 
#    0.000    0.000    0.000    0.000    0.000    0.000 
#
# Total GULP energy -145169.156896 kJ/mol
# GULP energy per Si atom -5583.429111 kJ/mol
# Density = 2.258382 g / cm^3
# Si number density = 22.635341 Si / 1000 Ang^3
#
#
#
# Elastic Constant Matrix: (Units=GPa)
#
#
# Indices 1 2 3 4 5 6 
#
# 1 48.3542 -1.0104 24.8418 0.0000 0.0000 0.0000
# 2 -1.0104 103.7559 17.9471 0.0000 0.0000 0.0000
# 3 24.8418 17.9471 143.3252 0.0000 0.0000 0.0000
# 4 0.0000 0.0000 0.0000 23.0582 0.0000 0.0000
# 5 0.0000 0.0000 0.0000 0.0000 39.5332 0.0000
# 6 0.0000 0.0000 0.0000 0.0000 0.0000 31.7438
#
#
#
# Elastic Compliance Matrix: (Units=1/GPa)
#
#
# Indices 1 2 3 4 5 6 
#
# 1 0.022789 0.000925 -0.004066 0.000000 0.000000 0.000000
# 2 0.000925 0.009889 -0.001399 0.000000 0.000000 0.000000
# 3 -0.004066 -0.001399 0.007857 0.000000 0.000000 0.000000
# 4 0.000000 0.000000 0.000000 0.043368 0.000000 0.000000
# 5 0.000000 0.000000 0.000000 0.000000 0.025295 0.000000
# 6 0.000000 0.000000 0.000000 0.000000 0.000000 0.031502
#
#
# Mechanical properties :
#
#
# Convention : Reuss Voigt Hill
#
# Bulk Modulus (GPa) = 31.79008 42.11027 36.95017
# Shear Modulus (GPa) = 31.19845 35.77749 33.48797
#
# Velocity S-wave (km/s) = 3.71658 3.97999 3.85054
# Velocity P-wave (km/s) = 5.70020 6.30592 6.01069
#
# Compressibility (1/GPa) = 0.03145636
#
# Stress axis : x y z
#
# Youngs Moduli (GPa) = 43.88121 101.12302 127.27557
#
# Poissons Ratio (x) = -0.09356 0.51747
# Poissons Ratio (y) = -0.04060 0.17801
# Poissons Ratio (z) = 0.17841 0.14144
#
# Static dielectric constant tensor:
#      x y z
#    x 1.871500 0.000000 0.000000 
#    y 0.000000 1.905180 0.000000 
#    z 0.000000 0.000000 1.857890 
# 
# From -- ./inp_files/14949.got.cif
#   From: 2010.05.17/outbox.cif.g08.bks.cpg/sg49_8_cif.got.tgz:14949.got - 2010.06.03 21:02:19.
