data_PCOD9394711
_publ_section_title
;
Structure prediction by ZEFSAII (Michael W. Deem and Ramdas Pophale) SiO2 
 PCOD9394711
Probable space group: P C C M
;
_chemical_formula_sum "Si O2"
_cell_formula_units_Z 64
_cell_length_a 12.326000
_cell_length_b 15.583621
_cell_length_c 15.175755
_cell_angle_alpha 90.000000
_cell_angle_beta 90.000000
_cell_angle_gamma 90.000000
_cell_volume 2915.015360
_symmetry_space_group_name_H-M "P C C M"
_symmetry_group_IT_number 49
_symmetry_cell_setting 'orthorhombic'
loop_
_space_group_symop_operation_xyz
x,y,z
-x,-y,z
x,-y,1/2-z
-x,y,1/2-z
-x,-y,-z
x,y,-z
-x,y,1/2+z
x,-y,1/2+z
loop_
_atom_site_type_symbol
_atom_site_label
_atom_site_fract_x
_atom_site_fract_y
_atom_site_fract_z
Si Si1 0.940395 0.088772 0.892507
Si Si2 0.505694 0.401760 0.646058
Si Si3 0.271227 0.175679 0.344414
Si Si4 0.668247 0.756830 0.148559
Si Si5 0.050218 0.589139 0.890949
Si Si6 0.268723 0.646046 0.096956
Si Si7 0.496980 0.901333 0.142257
Si Si8 0.918024 0.751610 0.103229
O O1 0.825233 0.106726 0.845291
O O2 0.022689 0.163637 0.862894
O O3 0.923145 0.090723 0.000000
O O4 0.000000 0.000000 0.872267
O O5 0.500000 0.500000 0.608525
O O6 0.500000 0.412022 0.750000
O O7 0.602866 0.332705 0.630664
O O8 0.392221 0.356918 0.624738
O O9 0.306445 0.218613 0.251099
O O10 0.230346 0.255803 0.401290
O O11 0.380856 0.136767 0.383224
O O12 0.592698 0.835800 0.115285
O O13 0.788834 0.751917 0.111261
O O14 0.172648 0.596958 0.854578
O O15 0.000000 0.500000 0.865278
O O16 0.975220 0.667060 0.859766
O O17 0.052810 0.591753 0.000000
O O18 0.271447 0.608591 0.000000
O O19 0.500000 0.902792 0.250000
O O20 0.500000 0.000000 0.112588
O O21 0.942193 0.751549 0.000000
#
# Coordination Sequence:
#
# PCOD9394711 Si02
#       8
#     8   8   8   8   8   8   8   8
#     4  10  22  41  63  89 125 164 202 254 316 368
#     4  11  23  41  61  87 123 162 196 247 320 371
#     4  11  20  39  64  86 120 155 205 251 301 367
#     4  11  22  39  60  88 122 160 196 251 307 368
#     4   9  19  37  60  85 114 151 199 255 306 352
#     4  11  21  38  65  89 115 159 211 254 301 372
#     4   9  19  36  59  83 114 152 192 242 299 349
#     4  10  22  39  57  83 122 161 197 248 310 366
#
# _framework density 21.955286999999998
#
# number of rings (size 3 to 8) (size 9 to 14) (size 15 to 20)
#    0.000    1.750    3.750    0.750    3.500    1.250 
#    0.000    0.625    0.000    2.625    0.000    0.000 
#    0.000    0.000    0.000    0.000    0.000    0.000 
#
# Total GULP energy -356873.559626 kJ/mol
# GULP energy per Si atom -5576.149369 kJ/mol
# Density = 2.190532 g / cm^3
# Si number density = 21.955287 Si / 1000 Ang^3
#
#
#
# Elastic Constant Matrix: (Units=GPa)
#
#
# Indices 1 2 3 4 5 6 
#
# 1 171.8958 65.8577 9.6731 0.0000 0.0000 0.0000
# 2 65.8577 145.1119 13.8613 0.0000 0.0000 0.0000
# 3 9.6731 13.8613 28.0454 0.0000 0.0000 0.0000
# 4 0.0000 0.0000 0.0000 -7.2357 0.0000 0.0000
# 5 0.0000 0.0000 0.0000 0.0000 3.5793 0.0000
# 6 0.0000 0.0000 0.0000 0.0000 0.0000 42.8881
#
#
#
# Elastic Compliance Matrix: (Units=1/GPa)
#
#
# Indices 1 2 3 4 5 6 
#
# 1 0.007063 -0.003120 -0.000894 0.000000 0.000000 0.000000
# 2 -0.003120 0.008611 -0.003180 0.000000 0.000000 0.000000
# 3 -0.000894 -0.003180 0.037536 0.000000 0.000000 0.000000
# 4 0.000000 0.000000 0.000000 -0.138203 0.000000 0.000000
# 5 0.000000 0.000000 0.000000 0.000000 0.279386 0.000000
# 6 0.000000 0.000000 0.000000 0.000000 0.000000 0.023316
#
#
# Mechanical properties :
#
#
# Convention : Reuss Voigt Hill
#
# Bulk Modulus (GPa) = 25.75811 58.20414 41.98113
# Shear Modulus (GPa) = 20.40490 24.89039 22.64764
#
# Velocity S-wave (km/s) = 3.05189 3.37068 3.21524
# Velocity P-wave (km/s) = 4.91693 6.45883 5.73989
#
# Compressibility (1/GPa) = 0.03882272
#
# Stress axis : x y z
#
# Youngs Moduli (GPa) = 141.57875 116.13005 26.64075
#
# Poissons Ratio (x) = 0.36235 0.02382
# Poissons Ratio (y) = 0.44175 0.08471
# Poissons Ratio (z) = 0.12658 0.36927
#
# Static dielectric constant tensor:
#      x y z
#    x 1.848620 0.000000 0.000000 
#    y 0.000000 1.820180 0.000000 
#    z 0.000000 0.000000 1.884200 
# 
# From -- ./inp_files/17323.got.cif
#   From: 2010.05.17/outbox.cif.g08.bks.cpg/sg49_9_cif.got.tgz:17323.got - 2010.06.03 21:02:19.
