data_PCOD9394723
_publ_section_title
;
Structure prediction by ZEFSAII (Michael W. Deem and Ramdas Pophale) SiO2 
 PCOD9394723
Probable space group: P C C M
;
_chemical_formula_sum "Si O2"
_cell_formula_units_Z 64
_cell_length_a 11.351446
_cell_length_b 15.388312
_cell_length_c 16.517437
_cell_angle_alpha 90.000000
_cell_angle_beta 90.000000
_cell_angle_gamma 90.000000
_cell_volume 2885.259168
_symmetry_space_group_name_H-M "P C C M"
_symmetry_group_IT_number 49
_symmetry_cell_setting 'orthorhombic'
loop_
_space_group_symop_operation_xyz
x,y,z
-x,-y,z
x,-y,1/2-z
-x,y,1/2-z
-x,-y,-z
x,y,-z
-x,y,1/2+z
x,-y,1/2+z
loop_
_atom_site_type_symbol
_atom_site_label
_atom_site_fract_x
_atom_site_fract_y
_atom_site_fract_z
Si Si1 0.631576 0.970148 0.342852
Si Si2 0.759365 0.481922 0.093997
Si Si3 0.608488 0.770223 0.314287
Si Si4 0.119771 0.048991 0.097834
Si Si5 0.522705 0.622783 0.588874
Si Si6 0.972902 0.402022 0.154673
Si Si7 0.697532 0.647151 0.183975
Si Si8 0.869305 0.244198 0.404954
O O1 0.646046 0.865989 0.339637
O O2 0.500000 0.000000 0.375406
O O3 0.631026 0.000000 0.250000
O O4 0.751249 0.010279 0.380663
O O5 0.626650 0.446339 0.093311
O O6 0.838660 0.402655 0.125206
O O7 0.770216 0.560188 0.159982
O O8 0.786872 0.507241 0.000000
O O9 0.500000 0.782104 0.250000
O O10 0.572778 0.718451 0.394702
O O11 0.693853 0.703161 0.265570
O O12 0.113746 0.148188 0.129702
O O13 0.114533 0.049878 0.000000
O O14 0.000000 0.000000 0.125810
O O15 0.466649 0.616427 0.500000
O O16 0.431950 0.615178 0.661862
O O17 0.000000 0.500000 0.121901
O O18 0.000000 0.402847 0.250000
O O19 0.039012 0.317729 0.122506
O O20 0.742780 0.717909 0.119881
O O21 0.877643 0.237834 0.500000
#
# Coordination Sequence:
#
# PCOD9394723 Si02
#       8
#     8   8   8   8   8   8   8   8
#     4  11  22  43  71  99 138 177 225 289 354 425
#     4  11  23  41  66  95 134 181 227 279 335 396
#     4  10  22  39  62  96 135 176 214 278 338 400
#     4  10  25  48  70 101 139 179 232 294 356 429
#     4  10  23  39  61  95 134 173 215 264 328 401
#     4  11  25  42  62  92 131 173 226 286 336 397
#     4  11  22  39  66  96 133 174 225 269 326 395
#     4  11  23  42  71  95 129 178 227 279 337 410
#
# _framework density 22.181716999999999
#
# number of rings (size 3 to 8) (size 9 to 14) (size 15 to 20)
#    0.000    1.375    2.500    2.625    3.500    4.000 
#    2.250    4.375    0.000    0.000    0.000    0.000 
#    0.000    0.000    0.000    0.000    0.000    0.000 
#
# Total GULP energy -356805.854814 kJ/mol
# GULP energy per Si atom -5575.091481 kJ/mol
# Density = 2.213123 g / cm^3
# Si number density = 22.181717 Si / 1000 Ang^3
#
#
#
# Elastic Constant Matrix: (Units=GPa)
#
#
# Indices 1 2 3 4 5 6 
#
# 1 118.4606 56.6202 35.9821 0.0000 0.0000 0.0000
# 2 56.6202 110.6619 38.2252 0.0000 0.0000 0.0000
# 3 35.9821 38.2252 54.8819 0.0000 0.0000 0.0000
# 4 0.0000 0.0000 0.0000 5.2104 0.0000 0.0000
# 5 0.0000 0.0000 0.0000 0.0000 31.2387 0.0000
# 6 0.0000 0.0000 0.0000 0.0000 0.0000 10.6357
#
#
#
# Elastic Compliance Matrix: (Units=1/GPa)
#
#
# Indices 1 2 3 4 5 6 
#
# 1 0.012046 -0.004523 -0.004747 0.000000 0.000000 0.000000
# 2 -0.004523 0.013598 -0.006505 0.000000 0.000000 0.000000
# 3 -0.004747 -0.006505 0.025864 0.000000 0.000000 0.000000
# 4 0.000000 0.000000 0.000000 0.191923 0.000000 0.000000
# 5 0.000000 0.000000 0.000000 0.000000 0.032012 0.000000
# 6 0.000000 0.000000 0.000000 0.000000 0.000000 0.094023
#
#
# Mechanical properties :
#
#
# Convention : Reuss Voigt Hill
#
# Bulk Modulus (GPa) = 50.10913 60.62883 55.36898
# Shear Modulus (GPa) = 12.26486 19.62875 15.94681
#
# Velocity S-wave (km/s) = 2.35399 2.97797 2.68417
# Velocity P-wave (km/s) = 5.47975 6.26231 5.88405
#
# Compressibility (1/GPa) = 0.01995644
#
# Stress axis : x y z
#
# Youngs Moduli (GPa) = 83.01851 73.54005 38.66373
#
# Poissons Ratio (x) = 0.33265 0.18353
# Poissons Ratio (y) = 0.37553 0.25152
# Poissons Ratio (z) = 0.39407 0.47840
#
# Static dielectric constant tensor:
#      x y z
#    x 2.022980 0.000000 0.000000 
#    y 0.000000 1.828510 0.000000 
#    z 0.000000 0.000000 1.838420 
# 
# From -- ./inp_files/17263.got.cif
#   From: 2010.05.17/outbox.cif.g08.bks.cpg/sg49_9_cif.got.tgz:17263.got - 2010.06.03 21:02:19.
