data_PCOD9394713
_publ_section_title
;
Structure prediction by ZEFSAII (Michael W. Deem and Ramdas Pophale) SiO2 
 PCOD9394713
Probable space group: P C C M
;
_chemical_formula_sum "Si O2"
_cell_formula_units_Z 52
_cell_length_a 21.132033
_cell_length_b 9.571330
_cell_length_c 14.443061
_cell_angle_alpha 90.000000
_cell_angle_beta 90.000000
_cell_angle_gamma 90.000000
_cell_volume 2921.277514
_symmetry_space_group_name_H-M "P C C M"
_symmetry_group_IT_number 49
_symmetry_cell_setting 'orthorhombic'
loop_
_space_group_symop_operation_xyz
x,y,z
-x,-y,z
x,-y,1/2-z
-x,y,1/2-z
-x,-y,-z
x,y,-z
-x,y,1/2+z
x,-y,1/2+z
loop_
_atom_site_type_symbol
_atom_site_label
_atom_site_fract_x
_atom_site_fract_y
_atom_site_fract_z
Si Si1 0.001033 0.669631 0.895562
Si Si2 0.247604 0.776069 0.253079
Si Si3 0.436603 0.586941 0.111067
Si Si4 0.298165 0.009099 0.610815
Si Si5 0.440588 0.909020 0.887822
Si Si6 0.894075 0.669308 0.750948
Si Si7 0.668685 0.500000 0.750000
O O1 0.938823 0.708709 0.837505
O O2 0.000000 0.500000 0.897317
O O3 0.063857 0.708187 0.838628
O O4 0.000827 0.721862 0.000000
O O5 0.268366 0.876707 0.337193
O O6 0.173630 0.740743 0.254695
O O7 0.287660 0.635071 0.258901
O O8 0.265836 0.856898 0.158657
O O9 0.500000 0.500000 0.131429
O O10 0.442679 0.747964 0.143375
O O11 0.377445 0.518903 0.162439
O O12 0.427569 0.586277 0.000000
O O13 0.291005 0.005664 0.500000
O O14 0.372999 0.022063 0.633849
O O15 0.500000 0.000000 0.855681
O O16 0.444174 0.903833 0.000000
O O17 0.886290 0.500000 0.750000
#
# Coordination Sequence:
#
# PCOD9394713 Si02
#       7
#     8   8   8   8   8   8   4
#     4   8  15  29  52  82 116 151 188 227 277 340
#     4  11  23  38  59  86 118 155 192 235 289 351
#     4  10  22  39  58  83 116 149 187 246 303 343
#     4  10  23  43  59  78 113 158 200 238 284 347
#     4   9  18  36  60  79 101 144 197 240 284 339
#     4   9  17  32  53  83 121 151 180 234 290 334
#     4  12  23  38  58  89 118 148 192 240 296 357
#
# _framework density 17.800429999999999
#
# number of rings (size 3 to 8) (size 9 to 14) (size 15 to 20)
#    0.000    2.308    2.308    1.154    2.154    1.846 
#    0.000    1.538    0.000    7.385    0.000    8.615 
#    0.000    0.000    0.000    0.000    0.000    0.000 
#
# Total GULP energy -290170.754327 kJ/mol
# GULP energy per Si atom -5580.206814 kJ/mol
# Density = 1.775992 g / cm^3
# Si number density = 17.800430 Si / 1000 Ang^3
#
#
#
# Elastic Constant Matrix: (Units=GPa)
#
#
# Indices 1 2 3 4 5 6 
#
# 1 200.7796 77.8407 79.3283 0.0000 0.0000 0.0000
# 2 77.8407 100.8037 49.8770 0.0000 0.0000 0.0000
# 3 79.3283 49.8770 128.0579 0.0000 0.0000 0.0000
# 4 0.0000 0.0000 0.0000 17.4807 0.0000 0.0000
# 5 0.0000 0.0000 0.0000 0.0000 10.0435 0.0000
# 6 0.0000 0.0000 0.0000 0.0000 0.0000 28.9961
#
#
#
# Elastic Compliance Matrix: (Units=1/GPa)
#
#
# Indices 1 2 3 4 5 6 
#
# 1 0.008028 -0.004631 -0.003170 0.000000 0.000000 0.000000
# 2 -0.004631 0.014960 -0.002958 0.000000 0.000000 0.000000
# 3 -0.003170 -0.002958 0.010924 0.000000 0.000000 0.000000
# 4 0.000000 0.000000 0.000000 0.057206 0.000000 0.000000
# 5 0.000000 0.000000 0.000000 0.000000 0.099567 0.000000
# 6 0.000000 0.000000 0.000000 0.000000 0.000000 0.034487
#
#
# Mechanical properties :
#
#
# Convention : Reuss Voigt Hill
#
# Bulk Modulus (GPa) = 80.67359 93.74815 87.21087
# Shear Modulus (GPa) = 19.93446 26.14375 23.03911
#
# Velocity S-wave (km/s) = 3.35010 3.83654 3.60154
# Velocity P-wave (km/s) = 7.77070 8.50917 8.14830
#
# Compressibility (1/GPa) = 0.01239563
#
# Stress axis : x y z
#
# Youngs Moduli (GPa) = 124.55819 66.84475 91.53786
#
# Poissons Ratio (x) = 0.30957 0.29013
# Poissons Ratio (y) = 0.57686 0.27075
# Poissons Ratio (z) = 0.39479 0.19771
#
# Static dielectric constant tensor:
#      x y z
#    x 1.577210 0.000000 0.000000 
#    y 0.000000 1.600040 0.000000 
#    z 0.000000 0.000000 1.620790 
# 
# From -- ./inp_files/14325.got.cif
#   From: 2010.05.17/outbox.cif.g08.bks.cpg/sg49_8_cif.got.tgz:14325.got - 2010.06.03 21:02:19.
