data_PCOD9394408
_publ_section_title
;
Structure prediction by ZEFSAII (Michael W. Deem and Ramdas Pophale) SiO2 
 PCOD9394408
Probable space group: P C C M
;
_chemical_formula_sum "Si O2"
_cell_formula_units_Z 40
_cell_length_a 26.802012
_cell_length_b 9.330518
_cell_length_c 8.697391
_cell_angle_alpha 90.000000
_cell_angle_beta 90.000000
_cell_angle_gamma 90.000000
_cell_volume 2175.014452
_symmetry_space_group_name_H-M "P C C M"
_symmetry_group_IT_number 49
_symmetry_cell_setting 'orthorhombic'
loop_
_space_group_symop_operation_xyz
x,y,z
-x,-y,z
x,-y,1/2-z
-x,y,1/2-z
-x,-y,-z
x,y,-z
-x,y,1/2+z
x,-y,1/2+z
loop_
_atom_site_type_symbol
_atom_site_label
_atom_site_fract_x
_atom_site_fract_y
_atom_site_fract_z
Si Si1 0.349190 0.159708 0.315352
Si Si2 0.256941 0.659805 0.314938
Si Si3 0.446679 0.340909 0.315809
Si Si4 0.160320 0.839266 0.685191
Si Si5 0.050453 0.162123 0.184042
O O1 0.345179 0.156564 0.500000
O O2 0.303696 0.250731 0.247238
O O3 0.401237 0.237161 0.274195
O O4 0.347738 0.000000 0.250000
O O5 0.258547 0.500000 0.250000
O O6 0.258562 0.656171 0.500000
O O7 0.205930 0.739570 0.265867
O O8 0.437268 0.500000 0.250000
O O9 0.500000 0.292150 0.250000
O O10 0.449943 0.350078 0.500000
O O11 0.161437 0.849877 0.500000
O O12 0.105225 0.779711 0.727291
O O13 0.165941 0.000000 0.750000
O O14 0.000000 0.231548 0.250000
O O15 0.051425 0.000000 0.250000
O O16 0.046517 0.156838 0.000000
#
# Coordination Sequence:
#
# PCOD9394408 Si02
#       5
#     8   8   8   8   8
#     4  11  24  40  59  85 114 146 182 226 275 323
#     4  11  23  39  58  80 107 142 182 225 272 327
#     4  10  21  37  59  85 114 148 186 224 267 317
#     4   9  19  33  51  76 106 137 173 218 266 316
#     4   9  15  25  42  68 100 132 167 209 257 310
#
# _framework density 18.390682999999999
#
# number of rings (size 3 to 8) (size 9 to 14) (size 15 to 20)
#    0.000    2.000    0.000    4.800    0.000    9.200 
#    0.000    2.000    0.000    0.600    0.000    4.200 
#    0.000    0.000    0.000    0.000    0.000    0.000 
#
# Total GULP energy -223267.715287 kJ/mol
# GULP energy per Si atom -5581.692882 kJ/mol
# Density = 1.834883 g / cm^3
# Si number density = 18.390683 Si / 1000 Ang^3
#
#
#
# Elastic Constant Matrix: (Units=GPa)
#
#
# Indices 1 2 3 4 5 6 
#
# 1 221.4962 111.5557 65.1932 0.0000 0.0000 0.0000
# 2 111.5557 111.4419 37.7476 0.0000 0.0000 0.0000
# 3 65.1932 37.7476 54.4087 0.0000 0.0000 0.0000
# 4 0.0000 0.0000 0.0000 27.7958 0.0000 0.0000
# 5 0.0000 0.0000 0.0000 0.0000 26.8629 0.0000
# 6 0.0000 0.0000 0.0000 0.0000 0.0000 257.5502
#
#
#
# Elastic Compliance Matrix: (Units=1/GPa)
#
#
# Indices 1 2 3 4 5 6 
#
# 1 0.010896 -0.008477 -0.007174 0.000000 0.000000 0.000000
# 2 -0.008477 0.018324 -0.002556 0.000000 0.000000 0.000000
# 3 -0.007174 -0.002556 0.028749 0.000000 0.000000 0.000000
# 4 0.000000 0.000000 0.000000 0.035977 0.000000 0.000000
# 5 0.000000 0.000000 0.000000 0.000000 0.037226 0.000000
# 6 0.000000 0.000000 0.000000 0.000000 0.000000 0.003883
#
#
# Mechanical properties :
#
#
# Convention : Reuss Voigt Hill
#
# Bulk Modulus (GPa) = 46.39337 90.70443 68.54890
# Shear Modulus (GPa) = 27.98699 73.96511 50.97605
#
# Velocity S-wave (km/s) = 3.90526 6.34871 5.27054
# Velocity P-wave (km/s) = 6.75397 10.15723 8.62512
#
# Compressibility (1/GPa) = 0.02155480
#
# Stress axis : x y z
#
# Youngs Moduli (GPa) = 91.78004 54.57188 34.78343
#
# Poissons Ratio (x) = 0.46259 0.24955
# Poissons Ratio (y) = 0.77799 0.08892
# Poissons Ratio (z) = 0.65846 0.13950
#
# Static dielectric constant tensor:
#      x y z
#    x 1.671490 0.000000 0.000000 
#    y 0.000000 1.586830 0.000000 
#    z 0.000000 0.000000 1.620830 
# 
# From -- ./inp_files/1705.got.cif
#   From: 2010.05.17/outbox.cif.g08.bks.cpg/sg49_1_cif.got.tgz:1705.got - 2010.06.03 21:02:19.
