data_PCOD9394920
_publ_section_title
;
Structure prediction by ZEFSAII (Michael W. Deem and Ramdas Pophale) SiO2 
 PCOD9394920
Probable space group: P C C M
;
_chemical_formula_sum "Si O2"
_cell_formula_units_Z 32
_cell_length_a 11.670644
_cell_length_b 12.667135
_cell_length_c 9.437965
_cell_angle_alpha 90.000000
_cell_angle_beta 90.000000
_cell_angle_gamma 90.000000
_cell_volume 1395.248560
_symmetry_space_group_name_H-M "P C C M"
_symmetry_group_IT_number 49
_symmetry_cell_setting 'orthorhombic'
loop_
_space_group_symop_operation_xyz
x,y,z
-x,-y,z
x,-y,1/2-z
-x,y,1/2-z
-x,-y,-z
x,y,-z
-x,y,1/2+z
x,-y,1/2+z
loop_
_atom_site_type_symbol
_atom_site_label
_atom_site_fract_x
_atom_site_fract_y
_atom_site_fract_z
Si Si1 0.244201 0.703596 0.000000
Si Si2 0.000000 0.000000 0.250000
Si Si3 0.842969 0.535426 0.000000
Si Si4 0.416728 0.604518 0.500000
Si Si5 0.618818 0.217061 0.276191
Si Si6 0.364066 0.044677 0.000000
Si Si7 0.144445 0.095184 0.500000
Si Si8 0.000000 0.500000 0.750000
O O1 0.315701 0.735326 0.858808
O O2 0.137853 0.780056 0.000000
O O3 0.192515 0.587746 0.000000
O O4 0.082201 0.060069 0.358189
O O5 0.717969 0.582289 0.000000
O O6 0.916464 0.560380 0.140381
O O7 0.500000 0.500000 0.500000
O O8 0.425730 0.682546 0.367535
O O9 0.500000 0.158548 0.250000
O O10 0.674062 0.124576 0.370988
O O11 0.500000 0.000000 0.000000
O O12 0.276008 0.946867 0.000000
#
# Coordination Sequence:
#
# PCOD9394920 Si02
#       8
#     4   2   4   4   8   4   4   2
#     4  12  24  38  64  96 128 164 214 266 318 382
#     4  10  24  44  66  86 124 172 216 262 312 378
#     4  11  23  43  65  93 126 167 214 262 319 377
#     4  11  24  43  68  95 130 170 212 265 323 383
#     4  11  23  39  61  96 134 170 209 256 321 390
#     4  11  24  43  68  95 130 170 212 265 323 383
#     4  11  23  43  65  93 126 167 214 262 319 377
#     4  10  24  44  66  86 124 172 216 262 312 378
#
# _framework density 22.934982000000002
#
# number of rings (size 3 to 8) (size 9 to 14) (size 15 to 20)
#    0.000    1.000    0.000    7.500    0.000    6.000 
#    0.000   11.250    0.000    0.000    0.000    0.000 
#    0.000    0.000    0.000    0.000    0.000    0.000 
#
# Total GULP energy -178225.019970 kJ/mol
# GULP energy per Si atom -5569.531874 kJ/mol
# Density = 2.288278 g / cm^3
# Si number density = 22.934982 Si / 1000 Ang^3
#
#
#
# Elastic Constant Matrix: (Units=GPa)
#
#
# Indices 1 2 3 4 5 6 
#
# 1 111.5757 4.9016 36.7535 0.0000 0.0000 0.0000
# 2 4.9016 84.4831 36.1464 0.0000 0.0000 0.0000
# 3 36.7535 36.1464 173.2299 0.0000 0.0000 0.0000
# 4 0.0000 0.0000 0.0000 3.4582 0.0000 0.0000
# 5 0.0000 0.0000 0.0000 0.0000 131.0171 0.0000
# 6 0.0000 0.0000 0.0000 0.0000 0.0000 -14.6387
#
#
#
# Elastic Compliance Matrix: (Units=1/GPa)
#
#
# Indices 1 2 3 4 5 6 
#
# 1 0.009645 0.000347 -0.002119 0.000000 0.000000 0.000000
# 2 0.000347 0.013009 -0.002788 0.000000 0.000000 0.000000
# 3 -0.002119 -0.002788 0.006804 0.000000 0.000000 0.000000
# 4 0.000000 0.000000 0.000000 0.289171 0.000000 0.000000
# 5 0.000000 0.000000 0.000000 0.000000 0.007633 0.000000
# 6 0.000000 0.000000 0.000000 0.000000 0.000000 -0.068312
#
#
# Mechanical properties :
#
#
# Convention : Reuss Voigt Hill
#
# Bulk Modulus (GPa) = 49.16753 58.32131 53.74442
# Shear Modulus (GPa) = 18.25818 43.39980 30.82899
#
# Velocity S-wave (km/s) = 2.82456 4.35477 3.67030
# Velocity P-wave (km/s) = 5.66761 7.12528 6.43783
#
# Compressibility (1/GPa) = 0.02033862
#
# Stress axis : x y z
#
# Youngs Moduli (GPa) = 103.67832 76.86694 146.97250
#
# Poissons Ratio (x) = -0.02667 0.31140
# Poissons Ratio (y) = -0.03597 0.40979
# Poissons Ratio (z) = 0.21967 0.21432
#
# Static dielectric constant tensor:
#      x y z
#    x 2.028630 0.000000 0.000000 
#    y 0.000000 1.845620 0.000000 
#    z 0.000000 0.000000 1.464840 
# 
# From -- ./inp_files/2602.got.cif
#   From: 2010.05.17/outbox.cif.g08.bks.cpg/sg49_2_cif.got.tgz:2602.got - 2010.06.03 21:02:19.
