data_PCOD9394540
_publ_section_title
;
Structure prediction by ZEFSAII (Michael W. Deem and Ramdas Pophale) SiO2 
 PCOD9394540
Probable space group: P C C M
;
_chemical_formula_sum "Si O2"
_cell_formula_units_Z 42
_cell_length_a 11.201421
_cell_length_b 11.816595
_cell_length_c 13.687815
_cell_angle_alpha 90.000000
_cell_angle_beta 90.000000
_cell_angle_gamma 90.000000
_cell_volume 1811.755540
_symmetry_space_group_name_H-M "P C C M"
_symmetry_group_IT_number 49
_symmetry_cell_setting 'orthorhombic'
loop_
_space_group_symop_operation_xyz
x,y,z
-x,-y,z
x,-y,1/2-z
-x,y,1/2-z
-x,-y,-z
x,y,-z
-x,y,1/2+z
x,-y,1/2+z
loop_
_atom_site_type_symbol
_atom_site_label
_atom_site_fract_x
_atom_site_fract_y
_atom_site_fract_z
Si Si1 0.393987 0.688989 0.385184
Si Si2 0.626522 0.942669 0.881633
Si Si3 0.500000 0.500000 0.750000
Si Si4 0.904362 0.677571 0.380880
Si Si5 0.848035 0.440416 0.384209
Si Si6 0.123826 0.065277 0.381297
O O1 0.426479 0.694605 0.500000
O O2 0.386916 0.815185 0.344249
O O3 0.471229 0.597195 0.331057
O O4 0.262387 0.639422 0.373736
O O5 0.500000 0.000000 0.858227
O O6 0.751321 0.003872 0.854036
O O7 0.633073 0.937297 0.000000
O O8 0.897030 0.687020 0.500000
O O9 0.826420 0.568826 0.346236
O O10 0.879394 0.804141 0.344868
O O11 0.034707 0.628474 0.354054
O O12 0.866255 0.457655 0.500000
O O13 0.123477 0.068309 0.500000
O O14 0.000000 0.000000 0.355386
#
# Coordination Sequence:
#
# PCOD9394540 Si02
#       6
#     8   8   2   8   8   8
#     4  10  21  39  60  82 114 152 192 243 300 353
#     4   9  18  32  52  80 115 154 192 233 286 347
#     4  12  26  40  58  84 108 144 202 250 292 356
#     4   8  13  22  42  77 114 146 187 231 276 339
#     4   8  14  26  47  76 111 149 185 230 285 337
#     4   9  15  23  40  70 108 147 188 234 278 328
#
# _framework density 23.181937000000001
#
# number of rings (size 3 to 8) (size 9 to 14) (size 15 to 20)
#    0.000    3.048    0.000    2.571    0.000    6.095 
#    0.000    6.190    0.000    2.286    0.000    0.000 
#    0.000    1.524    0.000    0.571    0.000    7.238 
#
# Total GULP energy -234007.623252 kJ/mol
# GULP energy per Si atom -5571.610077 kJ/mol
# Density = 2.312917 g / cm^3
# Si number density = 23.181937 Si / 1000 Ang^3
#
#
#
# Elastic Constant Matrix: (Units=GPa)
#
#
# Indices 1 2 3 4 5 6 
#
# 1 118.6113 108.6570 9.2318 0.0000 0.0000 0.0000
# 2 108.6570 294.3019 31.4998 0.0000 0.0000 0.0000
# 3 9.2318 31.4998 78.8201 0.0000 0.0000 0.0000
# 4 0.0000 0.0000 0.0000 -49.8899 0.0000 0.0000
# 5 0.0000 0.0000 0.0000 0.0000 -10.0304 0.0000
# 6 0.0000 0.0000 0.0000 0.0000 0.0000 14.8488
#
#
#
# Elastic Compliance Matrix: (Units=1/GPa)
#
#
# Indices 1 2 3 4 5 6 
#
# 1 0.012752 -0.004751 0.000405 0.000000 0.000000 0.000000
# 2 -0.004751 0.005320 -0.001570 0.000000 0.000000 0.000000
# 3 0.000405 -0.001570 0.013267 0.000000 0.000000 0.000000
# 4 0.000000 0.000000 0.000000 -0.020044 0.000000 0.000000
# 5 0.000000 0.000000 0.000000 0.000000 -0.099697 0.000000
# 6 0.000000 0.000000 0.000000 0.000000 0.000000 0.067345
#
#
# Mechanical properties :
#
#
# Convention : Reuss Voigt Hill
#
# Bulk Modulus (GPa) = 51.26228 87.83452 69.54840
# Shear Modulus (GPa) = -1836.59178 13.80869 -911.39155
#
# Velocity S-wave (km/s) = -28.17749 2.44327 -19.84945
# Velocity P-wave (km/s) = 32.19421 6.77724 22.25462
#
# Compressibility (1/GPa) = 0.01950752
#
# Stress axis : x y z
#
# Youngs Moduli (GPa) = 78.41864 187.96536 75.37536
#
# Poissons Ratio (x) = 0.89311 -0.03055
# Poissons Ratio (y) = 0.37260 0.11831
# Poissons Ratio (z) = -0.03178 0.29504
#
# Static dielectric constant tensor:
#      x y z
#    x 1.892640 0.000000 0.000000 
#    y 0.000000 1.833280 0.000000 
#    z 0.000000 0.000000 1.833360 
# 
# From -- ./inp_files/17006.got.cif
#   From: 2010.05.17/outbox.cif.g08.bks.cpg/sg49_9_cif.got.tgz:17006.got - 2010.06.03 21:02:19.
