data_PCOD9394565
_publ_section_title
;
Structure prediction by ZEFSAII (Michael W. Deem and Ramdas Pophale) SiO2 
 PCOD9394565
Probable space group: P C C M
;
_chemical_formula_sum "Si O2"
_cell_formula_units_Z 64
_cell_length_a 24.285918
_cell_length_b 15.829658
_cell_length_c 8.610480
_cell_angle_alpha 90.000000
_cell_angle_beta 90.000000
_cell_angle_gamma 90.000000
_cell_volume 3310.193783
_symmetry_space_group_name_H-M "P C C M"
_symmetry_group_IT_number 49
_symmetry_cell_setting 'orthorhombic'
loop_
_space_group_symop_operation_xyz
x,y,z
-x,-y,z
x,-y,1/2-z
-x,y,1/2-z
-x,-y,-z
x,y,-z
-x,y,1/2+z
x,-y,1/2+z
loop_
_atom_site_type_symbol
_atom_site_label
_atom_site_fract_x
_atom_site_fract_y
_atom_site_fract_z
Si Si1 0.631901 0.590313 0.315020
Si Si2 0.938422 0.248902 0.186448
Si Si3 0.865147 0.410827 0.813870
Si Si4 0.367545 0.909672 0.312643
Si Si5 0.129971 0.908813 0.313326
Si Si6 0.438314 0.746453 0.313238
Si Si7 0.249173 0.154523 0.811563
Si Si8 0.748588 0.647467 0.186681
O O1 0.613156 0.500000 0.250000
O O2 0.630037 0.589785 0.500000
O O3 0.594987 0.666207 0.249842
O O4 0.694311 0.606364 0.258385
O O5 0.903411 0.331876 0.231799
O O6 0.908406 0.166228 0.252838
O O7 0.000000 0.254651 0.250000
O O8 0.939216 0.244093 0.000000
O O9 0.886306 0.500000 0.750000
O O10 0.804415 0.394823 0.745751
O O11 0.862016 0.413911 0.000000
O O12 0.366923 0.912109 0.500000
O O13 0.406308 0.831916 0.265552
O O14 0.305170 0.889856 0.257527
O O15 0.385853 0.000000 0.250000
O O16 0.129112 0.909313 0.500000
O O17 0.192625 0.888632 0.259392
O O18 0.113071 0.000000 0.250000
O O19 0.500000 0.746730 0.250000
O O20 0.438518 0.742996 0.500000
O O21 0.249882 0.253311 0.768566
O O22 0.249455 0.151968 0.000000
O O23 0.745538 0.641851 0.000000
#
# Coordination Sequence:
#
# PCOD9394565 Si02
#       8
#     8   8   8   8   8   8   8   8
#     4  12  25  42  65  95 127 164 207 254 311 371
#     4  11  25  44  65  90 121 160 210 261 310 368
#     4  11  24  41  63  94 127 162 206 253 308 370
#     4  10  21  39  62  91 126 163 205 250 305 364
#     4  11  22  39  64  94 127 164 204 251 310 370
#     4  11  24  44  66  90 124 164 211 263 311 367
#     4   9  18  35  61  91 124 163 199 244 305 366
#     4  11  20  38  65  93 128 166 205 250 308 369
#
# _framework density 19.334216999999999
#
# number of rings (size 3 to 8) (size 9 to 14) (size 15 to 20)
#    0.000    1.250    2.500    3.750    0.000    3.500 
#    0.000    5.625    0.000    0.000    0.000    0.000 
#    0.000    0.000    0.000    0.000    0.000    0.000 
#
# Total GULP energy -357963.502047 kJ/mol
# GULP energy per Si atom -5593.179719 kJ/mol
# Density = 1.929021 g / cm^3
# Si number density = 19.334217 Si / 1000 Ang^3
#
#
#
# Elastic Constant Matrix: (Units=GPa)
#
#
# Indices 1 2 3 4 5 6 
#
# 1 151.8067 85.3651 46.2230 0.0000 0.0000 0.0000
# 2 85.3651 200.2644 56.6352 0.0000 0.0000 0.0000
# 3 46.2230 56.6352 72.7718 0.0000 0.0000 0.0000
# 4 0.0000 0.0000 0.0000 30.6871 0.0000 0.0000
# 5 0.0000 0.0000 0.0000 0.0000 18.5293 0.0000
# 6 0.0000 0.0000 0.0000 0.0000 0.0000 -1.2916
#
#
#
# Elastic Compliance Matrix: (Units=1/GPa)
#
#
# Indices 1 2 3 4 5 6 
#
# 1 0.009361 -0.002960 -0.003642 0.000000 0.000000 0.000000
# 2 -0.002960 0.007339 -0.003831 0.000000 0.000000 0.000000
# 3 -0.003642 -0.003831 0.019036 0.000000 0.000000 0.000000
# 4 0.000000 0.000000 0.000000 0.032587 0.000000 0.000000
# 5 0.000000 0.000000 0.000000 0.000000 0.053969 0.000000
# 6 0.000000 0.000000 0.000000 0.000000 0.000000 -0.774242
#
#
# Mechanical properties :
#
#
# Convention : Reuss Voigt Hill
#
# Bulk Modulus (GPa) = 67.25232 89.03217 78.14224
# Shear Modulus (GPa) = -7.98559 25.35959 8.68700
#
# Velocity S-wave (km/s) = -2.03452 3.62559 2.12199
# Velocity P-wave (km/s) = 5.41670 7.97969 6.81968
#
# Compressibility (1/GPa) = 0.01486938
#
# Stress axis : x y z
#
# Youngs Moduli (GPa) = 106.82763 136.26436 52.53067
#
# Poissons Ratio (x) = 0.40337 0.19132
# Poissons Ratio (y) = 0.31623 0.20125
# Poissons Ratio (z) = 0.38907 0.52205
#
# Static dielectric constant tensor:
#      x y z
#    x 1.648480 0.000000 0.000000 
#    y 0.000000 1.663640 0.000000 
#    z 0.000000 0.000000 1.650190 
# 
# From -- ./inp_files/6547.got.cif
#   From: 2010.05.17/outbox.cif.g08.bks.cpg/sg49_4_cif.got.tgz:6547.got - 2010.06.03 21:02:19.
