data_PCOD9394009
_publ_section_title
;
Structure prediction by ZEFSAII (Michael W. Deem and Ramdas Pophale) SiO2 
 PCOD9394009
Probable space group: P C C M
;
_chemical_formula_sum "Si O2"
_cell_formula_units_Z 64
_cell_length_a 8.636756
_cell_length_b 23.964933
_cell_length_c 15.604225
_cell_angle_alpha 90.000000
_cell_angle_beta 90.000000
_cell_angle_gamma 90.000000
_cell_volume 3229.751238
_symmetry_space_group_name_H-M "P C C M"
_symmetry_group_IT_number 49
_symmetry_cell_setting 'orthorhombic'
loop_
_space_group_symop_operation_xyz
x,y,z
-x,-y,z
x,-y,1/2-z
-x,y,1/2-z
-x,-y,-z
x,y,-z
-x,y,1/2+z
x,-y,1/2+z
loop_
_atom_site_type_symbol
_atom_site_label
_atom_site_fract_x
_atom_site_fract_y
_atom_site_fract_z
Si Si1 0.813215 0.699027 0.759354
Si Si2 0.326559 0.009443 0.647301
Si Si3 0.676007 0.492547 0.895904
Si Si4 0.799892 0.373221 0.098882
Si Si5 0.894084 0.087316 0.335517
Si Si6 0.316758 0.817640 0.744052
Si Si7 0.830384 0.608287 0.901123
Si Si8 0.197684 0.870714 0.905198
O O1 0.761739 0.674871 0.666947
O O2 0.733945 0.756793 0.785770
O O3 0.775708 0.653344 0.832020
O O4 0.000000 0.706756 0.750000
O O5 0.192546 0.965452 0.623353
O O6 0.500000 0.000000 0.613640
O O7 0.332719 0.000000 0.750000
O O8 0.278707 0.071548 0.623093
O O9 0.500000 0.500000 0.867642
O O10 0.732418 0.431912 0.868538
O O11 0.779900 0.546078 0.873297
O O12 0.679382 0.490790 0.000000
O O13 0.984576 0.383899 0.097554
O O14 0.751394 0.362108 0.000000
O O15 0.764535 0.132107 0.307797
O O16 0.000000 0.073033 0.250000
O O17 0.016174 0.116456 0.397275
O O18 0.500000 0.825163 0.750000
O O19 0.244838 0.824088 0.838438
O O20 0.775152 0.616755 0.000000
O O21 0.244088 0.855962 0.000000
#
# Coordination Sequence:
#
# PCOD9394009 Si02
#       8
#     8   8   8   8   8   8   8   8
#     4  10  21  37  57  83 108 144 194 240 285 342
#     4  11  20  34  60  91 123 163 191 225 290 353
#     4   9  17  30  50  77 110 145 178 222 282 340
#     4   9  18  33  54  78 107 145 185 227 279 339
#     4  10  20  36  60  84 113 156 196 230 277 342
#     4  11  23  42  63  83 112 158 197 233 294 362
#     4   9  18  34  55  78 107 141 183 232 281 338
#     4  11  24  39  62  93 120 150 197 248 286 332
#
# _framework density 19.815766
#
# number of rings (size 3 to 8) (size 9 to 14) (size 15 to 20)
#    0.000    2.000    2.500    2.625    0.000    4.750 
#    0.000    8.125    0.000    0.000    0.000    0.000 
#    0.000    0.000    0.000    0.000    0.000    0.000 
#
# Total GULP energy -357141.264482 kJ/mol
# GULP energy per Si atom -5580.332258 kJ/mol
# Density = 1.977066 g / cm^3
# Si number density = 19.815766 Si / 1000 Ang^3
#
#
#
# Elastic Constant Matrix: (Units=GPa)
#
#
# Indices 1 2 3 4 5 6 
#
# 1 59.1969 10.0825 -8.5495 0.0000 0.0000 0.0000
# 2 10.0825 62.2485 -6.5716 0.0000 0.0000 0.0000
# 3 -8.5495 -6.5716 39.6630 0.0000 0.0000 0.0000
# 4 0.0000 0.0000 0.0000 21.9249 0.0000 0.0000
# 5 0.0000 0.0000 0.0000 0.0000 1.3501 0.0000
# 6 0.0000 0.0000 0.0000 0.0000 0.0000 30.9288
#
#
#
# Elastic Compliance Matrix: (Units=1/GPa)
#
#
# Indices 1 2 3 4 5 6 
#
# 1 0.017817 -0.002525 0.003422 0.000000 0.000000 0.000000
# 2 -0.002525 0.016708 0.002224 0.000000 0.000000 0.000000
# 3 0.003422 0.002224 0.026319 0.000000 0.000000 0.000000
# 4 0.000000 0.000000 0.000000 0.045610 0.000000 0.000000
# 5 0.000000 0.000000 0.000000 0.000000 0.740663 0.000000
# 6 0.000000 0.000000 0.000000 0.000000 0.000000 0.032332
#
#
# Mechanical properties :
#
#
# Convention : Reuss Voigt Hill
#
# Bulk Modulus (GPa) = 14.90587 16.78123 15.84355
# Shear Modulus (GPa) = 5.58305 21.91723 13.75014
#
# Velocity S-wave (km/s) = 1.68036 3.32934 2.63705
# Velocity P-wave (km/s) = 3.36205 4.82352 4.15751
#
# Compressibility (1/GPa) = 0.06708767
#
# Stress axis : x y z
#
# Youngs Moduli (GPa) = 56.12605 59.85026 37.99596
#
# Poissons Ratio (x) = 0.15110 -0.13003
# Poissons Ratio (y) = 0.14169 -0.08451
# Poissons Ratio (z) = -0.19208 -0.13312
#
# Static dielectric constant tensor:
#      x y z
#    x 1.705860 0.000000 0.000000 
#    y 0.000000 1.664470 0.000000 
#    z 0.000000 0.000000 1.728950 
# 
# From -- ./inp_files/16583.got.cif
#   From: 2010.05.17/outbox.cif.g08.bks.cpg/sg49_9_cif.got.tgz:16583.got - 2010.06.03 21:02:19.
