data_PCOD9394732
_publ_section_title
;
Structure prediction by ZEFSAII (Michael W. Deem and Ramdas Pophale) SiO2 
 PCOD9394732
Probable space group: P C C M
;
_chemical_formula_sum "Si O2"
_cell_formula_units_Z 48
_cell_length_a 9.615300
_cell_length_b 8.650503
_cell_length_c 29.204847
_cell_angle_alpha 90.000000
_cell_angle_beta 90.000000
_cell_angle_gamma 90.000000
_cell_volume 2429.176859
_symmetry_space_group_name_H-M "P C C M"
_symmetry_group_IT_number 49
_symmetry_cell_setting 'orthorhombic'
loop_
_space_group_symop_operation_xyz
x,y,z
-x,-y,z
x,-y,1/2-z
-x,y,1/2-z
-x,-y,-z
x,y,-z
-x,y,1/2+z
x,-y,1/2+z
loop_
_atom_site_type_symbol
_atom_site_label
_atom_site_fract_x
_atom_site_fract_y
_atom_site_fract_z
Si Si1 0.042822 0.675426 0.053873
Si Si2 0.517688 0.753694 0.700615
Si Si3 0.549085 0.663249 0.101813
Si Si4 0.681192 0.849449 0.446429
Si Si5 0.260007 0.004827 0.199784
Si Si6 0.183613 0.861042 0.604677
O O1 0.205595 0.712010 0.059147
O O2 0.000000 0.500000 0.065196
O O3 0.959344 0.797692 0.084552
O O4 0.008059 0.701017 0.000000
O O5 0.500000 0.675778 0.750000
O O6 0.489298 0.660842 0.655183
O O7 0.394058 0.881524 0.702970
O O8 0.665968 0.838694 0.693290
O O9 0.500000 0.500000 0.081051
O O10 0.458061 0.798736 0.079004
O O11 0.708510 0.717181 0.100149
O O12 0.655200 0.872425 0.500000
O O13 0.750627 0.001186 0.425115
O O14 0.177439 0.070939 0.156359
O O15 0.190763 0.000000 0.250000
#
# Coordination Sequence:
#
# PCOD9394732 Si02
#       6
#     8   8   8   8   8   8
#     4  10  22  40  59  81 112 151 190 232 287 345
#     4   8  14  28  49  76 110 143 177 221 273 329
#     4  11  22  34  52  84 118 147 181 229 288 332
#     4  11  23  38  57  81 111 148 190 233 275 331
#     4   8  14  27  51  81 106 137 178 230 275 322
#     4  11  20  35  59  84 109 147 191 237 275 334
#
# _framework density 19.759778000000001
#
# number of rings (size 3 to 8) (size 9 to 14) (size 15 to 20)
#    0.000    2.167    1.667    3.500    0.000    4.000 
#    0.000    0.000    0.000    2.000    0.000    1.167 
#    0.000    0.000    0.000    0.000    0.000    0.000 
#
# Total GULP energy -267693.650815 kJ/mol
# GULP energy per Si atom -5576.951059 kJ/mol
# Density = 1.971480 g / cm^3
# Si number density = 19.759778 Si / 1000 Ang^3
#
#
#
# Elastic Constant Matrix: (Units=GPa)
#
#
# Indices 1 2 3 4 5 6 
#
# 1 53.1665 0.7718 26.2579 0.0000 0.0000 0.0000
# 2 0.7718 60.7266 8.1459 0.0000 0.0000 0.0000
# 3 26.2579 8.1459 99.6665 0.0000 0.0000 0.0000
# 4 0.0000 0.0000 0.0000 40.9398 0.0000 0.0000
# 5 0.0000 0.0000 0.0000 0.0000 20.5770 0.0000
# 6 0.0000 0.0000 0.0000 0.0000 0.0000 110.1161
#
#
#
# Elastic Compliance Matrix: (Units=1/GPa)
#
#
# Indices 1 2 3 4 5 6 
#
# 1 0.021637 0.000495 -0.005741 0.000000 0.000000 0.000000
# 2 0.000495 0.016661 -0.001492 0.000000 0.000000 0.000000
# 3 -0.005741 -0.001492 0.011668 0.000000 0.000000 0.000000
# 4 0.000000 0.000000 0.000000 0.024426 0.000000 0.000000
# 5 0.000000 0.000000 0.000000 0.000000 0.048598 0.000000
# 6 0.000000 0.000000 0.000000 0.000000 0.000000 0.009081
#
#
# Mechanical properties :
#
#
# Convention : Reuss Voigt Hill
#
# Bulk Modulus (GPa) = 27.40473 31.54564 29.47519
# Shear Modulus (GPa) = 31.70364 46.21885 38.96124
#
# Velocity S-wave (km/s) = 4.00991 4.84161 4.44525
# Velocity P-wave (km/s) = 5.94459 6.87416 6.42621
#
# Compressibility (1/GPa) = 0.03649004
#
# Stress axis : x y z
#
# Youngs Moduli (GPa) = 46.21719 60.01999 85.70518
#
# Poissons Ratio (x) = -0.02972 0.49202
# Poissons Ratio (y) = -0.02288 0.12789
# Poissons Ratio (z) = 0.26533 0.08956
#
# Static dielectric constant tensor:
#      x y z
#    x 1.675990 0.000000 0.000000 
#    y 0.000000 1.743960 0.000000 
#    z 0.000000 0.000000 1.717860 
# 
# From -- ./inp_files/26265.got.cif
#   From: 2010.05.17/outbox.cif.g08.bks.cpg/sg49_14_cif.got.tgz:26265.got - 2010.06.03 21:02:19.
