data_PCOD9394272
_publ_section_title
;
Structure prediction by ZEFSAII (Michael W. Deem and Ramdas Pophale) SiO2 
 PCOD9394272
Probable space group: P C C M
;
_chemical_formula_sum "Si O2"
_cell_formula_units_Z 58
_cell_length_a 17.224914
_cell_length_b 11.720436
_cell_length_c 14.153581
_cell_angle_alpha 90.000000
_cell_angle_beta 90.000000
_cell_angle_gamma 90.000000
_cell_volume 2857.374500
_symmetry_space_group_name_H-M "P C C M"
_symmetry_group_IT_number 49
_symmetry_cell_setting 'orthorhombic'
loop_
_space_group_symop_operation_xyz
x,y,z
-x,-y,z
x,-y,1/2-z
-x,y,1/2-z
-x,-y,-z
x,y,-z
-x,y,1/2+z
x,-y,1/2+z
loop_
_atom_site_type_symbol
_atom_site_label
_atom_site_fract_x
_atom_site_fract_y
_atom_site_fract_z
Si Si1 0.846494 0.201173 0.892780
Si Si2 0.212717 0.435190 0.894526
Si Si3 0.386911 0.479871 0.607515
Si Si4 0.875971 0.067021 0.607971
Si Si5 0.937069 0.410957 0.889161
Si Si6 0.749944 0.786426 0.785783
Si Si7 0.000000 0.000000 0.750000
Si Si8 0.582705 0.302144 0.272052
O O1 0.915098 0.284209 0.855292
O O2 0.773983 0.204293 0.822876
O O3 0.870186 0.069844 0.897108
O O4 0.827561 0.239306 0.000000
O O5 0.294782 0.497611 0.890155
O O6 0.143613 0.521909 0.880154
O O7 0.215758 0.333558 0.821346
O O8 0.204402 0.385201 0.000000
O O9 0.410631 0.458748 0.500000
O O10 0.423520 0.597707 0.648289
O O11 0.400226 0.376475 0.678433
O O12 0.889143 0.109063 0.500000
O O13 0.797682 0.120000 0.653567
O O14 0.945974 0.078706 0.682524
O O15 0.000000 0.500000 0.850493
O O16 0.958497 0.395441 0.000000
O O17 0.656834 0.776418 0.796161
O O18 0.500000 0.244870 0.250000
#
# Coordination Sequence:
#
# PCOD9394272 Si02
#       8
#     8   8   8   8   8   8   2   8
#     4  10  21  39  61  83 111 156 206 249 299 367
#     4   9  18  32  52  80 114 157 202 244 304 380
#     4   9  17  32  53  78 119 170 216 264 319 385
#     4  11  24  43  68  95 124 159 207 263 317 373
#     4   9  18  33  52  78 115 155 196 243 298 360
#     4  11  21  39  60  84 123 162 206 254 320 381
#     4  12  22  44  68  98 120 148 198 260 316 356
#     4  10  21  33  53  87 121 161 216 268 320 387
#
# _framework density 20.298355000000001
#
# number of rings (size 3 to 8) (size 9 to 14) (size 15 to 20)
#    0.000    2.069    1.379    2.276    0.000    6.069 
#    0.000    3.448    0.000    1.655    0.000    1.931 
#    0.000    0.000    0.000    0.000    0.000    0.000 
#
# Total GULP energy -323633.327204 kJ/mol
# GULP energy per Si atom -5579.884952 kJ/mol
# Density = 2.025215 g / cm^3
# Si number density = 20.298355 Si / 1000 Ang^3
#
#
#
# Elastic Constant Matrix: (Units=GPa)
#
#
# Indices 1 2 3 4 5 6 
#
# 1 99.1784 35.9648 33.6864 0.0000 0.0000 0.0000
# 2 35.9648 54.3704 19.9677 0.0000 0.0000 0.0000
# 3 33.6864 19.9677 119.0841 0.0000 0.0000 0.0000
# 4 0.0000 0.0000 0.0000 15.2090 0.0000 0.0000
# 5 0.0000 0.0000 0.0000 0.0000 15.2654 0.0000
# 6 0.0000 0.0000 0.0000 0.0000 0.0000 21.4505
#
#
#
# Elastic Compliance Matrix: (Units=1/GPa)
#
#
# Indices 1 2 3 4 5 6 
#
# 1 0.013959 -0.008294 -0.002558 0.000000 0.000000 0.000000
# 2 -0.008294 0.024528 -0.001766 0.000000 0.000000 0.000000
# 3 -0.002558 -0.001766 0.009417 0.000000 0.000000 0.000000
# 4 0.000000 0.000000 0.000000 0.065751 0.000000 0.000000
# 5 0.000000 0.000000 0.000000 0.000000 0.065508 0.000000
# 6 0.000000 0.000000 0.000000 0.000000 0.000000 0.046619
#
#
# Mechanical properties :
#
#
# Convention : Reuss Voigt Hill
#
# Bulk Modulus (GPa) = 44.11781 50.20785 47.16283
# Shear Modulus (GPa) = 19.33674 22.58590 20.96132
#
# Velocity S-wave (km/s) = 3.08981 3.33933 3.21699
# Velocity P-wave (km/s) = 5.87462 6.29736 6.08966
#
# Compressibility (1/GPa) = 0.02266658
#
# Stress axis : x y z
#
# Youngs Moduli (GPa) = 71.63583 40.77026 106.18833
#
# Poissons Ratio (x) = 0.33817 0.27164
# Poissons Ratio (y) = 0.59418 0.18757
# Poissons Ratio (z) = 0.18325 0.07202
#
# Static dielectric constant tensor:
#      x y z
#    x 1.752700 0.000000 0.000000 
#    y 0.000000 1.717710 0.000000 
#    z 0.000000 0.000000 1.776810 
# 
# From -- ./inp_files/14152.got.cif
#   From: 2010.05.17/outbox.cif.g08.bks.cpg/sg49_8_cif.got.tgz:14152.got - 2010.06.03 21:02:19.
