data_PCOD9394372
_publ_section_title
;
Structure prediction by ZEFSAII (Michael W. Deem and Ramdas Pophale) SiO2 
 PCOD9394372
Probable space group: P C C M
;
_chemical_formula_sum "Si O2"
_cell_formula_units_Z 64
_cell_length_a 25.350880
_cell_length_b 9.028297
_cell_length_c 14.657011
_cell_angle_alpha 90.000000
_cell_angle_beta 90.000000
_cell_angle_gamma 90.000000
_cell_volume 3354.627406
_symmetry_space_group_name_H-M "P C C M"
_symmetry_group_IT_number 49
_symmetry_cell_setting 'orthorhombic'
loop_
_space_group_symop_operation_xyz
x,y,z
-x,-y,z
x,-y,1/2-z
-x,y,1/2-z
-x,-y,-z
x,y,-z
-x,y,1/2+z
x,-y,1/2+z
loop_
_atom_site_type_symbol
_atom_site_label
_atom_site_fract_x
_atom_site_fract_y
_atom_site_fract_z
Si Si1 0.000000 0.319314 0.396178
Si Si2 0.793043 0.321813 0.750000
Si Si3 0.914469 0.319918 0.250000
Si Si4 0.392717 0.670233 0.111016
Si Si5 0.500000 0.829200 0.611391
Si Si6 0.716337 0.174753 0.108999
Si Si7 0.283664 0.825247 0.608999
Si Si8 0.607283 0.670234 0.111016
O O1 0.000000 0.267245 0.500000
O O2 0.051450 0.274010 0.338263
O O3 0.000000 0.500000 0.397558
O O4 0.948550 0.274010 0.338263
O O5 0.791105 0.500000 0.750000
O O6 0.854013 0.272445 0.749999
O O7 0.761925 0.258673 0.836957
O O8 0.761924 0.258674 0.663042
O O9 0.914144 0.500000 0.250000
O O10 0.446811 0.747059 0.140966
O O11 0.340349 0.758948 0.137254
O O12 0.389901 0.500000 0.140493
O O13 0.393728 0.670570 0.000000
O O14 0.500000 0.827251 0.500000
O O15 0.446812 0.747058 0.640966
O O16 0.500000 0.000000 0.639378
O O17 0.717898 0.000000 0.128460
O O18 0.721711 0.195153 0.000000
O O19 0.278289 0.804847 0.500000
O O20 0.340350 0.758949 0.637254
O O21 0.606272 0.670570 0.000000
#
# Coordination Sequence:
#
# PCOD9394372 Si02
#       8
#     8   8   8   8   8   8   8   8
#     4   8  13  25  46  71 105 146 178 210 258 312
#     4  11  22  35  54  81 113 146 181 226 275 322
#     4   8  16  28  43  72 109 141 177 216 259 315
#     4   9  16  27  45  70  99 131 172 224 278 329
#     4   9  15  23  39  66  99 134 172 215 268 332
#     4  10  21  37  55  75 103 142 186 229 275 330
#     4  10  21  37  55  75 103 142 186 229 275 330
#     4   9  16  27  45  70  99 131 172 224 278 329
#
# _framework density 19.078123999999999
#
# number of rings (size 3 to 8) (size 9 to 14) (size 15 to 20)
#    0.000    2.750    0.000    3.000    0.000    7.000 
#    0.000    2.500    0.000    0.750    0.000   12.250 
#    0.000   12.000    0.000    0.000    0.000    0.000 
#
# Total GULP energy -357315.524505 kJ/mol
# GULP energy per Si atom -5583.055070 kJ/mol
# Density = 1.903470 g / cm^3
# Si number density = 19.078124 Si / 1000 Ang^3
#
#
#
# Elastic Constant Matrix: (Units=GPa)
#
#
# Indices 1 2 3 4 5 6 
#
# 1 218.8779 76.7456 71.0557 0.0000 0.0000 0.0000
# 2 76.7456 106.8282 37.9994 0.0000 0.0000 0.0000
# 3 71.0557 37.9994 112.6662 0.0000 0.0000 0.0000
# 4 0.0000 0.0000 0.0000 13.4145 0.0000 0.0000
# 5 0.0000 0.0000 0.0000 0.0000 14.1103 0.0000
# 6 0.0000 0.0000 0.0000 0.0000 0.0000 -11.5645
#
#
#
# Elastic Compliance Matrix: (Units=1/GPa)
#
#
# Indices 1 2 3 4 5 6 
#
# 1 0.006924 -0.003887 -0.003056 0.000000 0.000000 0.000000
# 2 -0.003887 0.012819 -0.001872 0.000000 0.000000 0.000000
# 3 -0.003056 -0.001872 0.011434 0.000000 0.000000 0.000000
# 4 0.000000 0.000000 0.000000 0.074546 0.000000 0.000000
# 5 0.000000 0.000000 0.000000 0.000000 0.070870 0.000000
# 6 0.000000 0.000000 0.000000 0.000000 0.000000 -0.086471
#
#
# Mechanical properties :
#
#
# Convention : Reuss Voigt Hill
#
# Bulk Modulus (GPa) = 73.81364 89.99708 81.90536
# Shear Modulus (GPa) = 44.53646 20.03016 32.28331
#
# Velocity S-wave (km/s) = 4.83683 3.24373 4.11805
# Velocity P-wave (km/s) = 8.36465 7.82971 8.10160
#
# Compressibility (1/GPa) = 0.01354763
#
# Stress axis : x y z
#
# Youngs Moduli (GPa) = 144.43281 78.00782 87.45658
#
# Poissons Ratio (x) = 0.30322 0.26723
# Poissons Ratio (y) = 0.56142 0.16373
# Poissons Ratio (z) = 0.44132 0.14604
#
# Static dielectric constant tensor:
#      x y z
#    x 1.624340 0.000000 0.000000 
#    y 0.000000 1.631130 0.000000 
#    z 0.000000 0.000000 1.717650 
# 
# From -- ./inp_files/14541.got.cif
#   From: 2010.05.17/outbox.cif.g08.bks.cpg/sg49_8_cif.got.tgz:14541.got - 2010.06.03 21:02:19.
