data_PCOD9394187
_publ_section_title
;
Structure prediction by ZEFSAII (Michael W. Deem and Ramdas Pophale) SiO2 
 PCOD9394187
Probable space group: P C C M
;
_chemical_formula_sum "Si O2"
_cell_formula_units_Z 58
_cell_length_a 18.393293
_cell_length_b 16.702839
_cell_length_c 9.183220
_cell_angle_alpha 90.000000
_cell_angle_beta 90.000000
_cell_angle_gamma 90.000000
_cell_volume 2821.270792
_symmetry_space_group_name_H-M "P C C M"
_symmetry_group_IT_number 49
_symmetry_cell_setting 'orthorhombic'
loop_
_space_group_symop_operation_xyz
x,y,z
-x,-y,z
x,-y,1/2-z
-x,y,1/2-z
-x,-y,-z
x,y,-z
-x,y,1/2+z
x,-y,1/2+z
loop_
_atom_site_type_symbol
_atom_site_label
_atom_site_fract_x
_atom_site_fract_y
_atom_site_fract_z
Si Si1 0.575552 0.075887 0.331250
Si Si2 0.777105 0.079735 0.829389
Si Si3 0.924160 0.673053 0.671742
Si Si4 0.500000 0.500000 0.250000
Si Si5 0.929400 0.866003 0.331179
Si Si6 0.348343 0.797874 0.837196
Si Si7 0.793357 0.582386 0.824710
Si Si8 0.641399 0.392949 0.164362
O O1 0.500000 0.084381 0.250000
O O2 0.569584 0.059696 0.500000
O O3 0.613741 0.158502 0.296073
O O4 0.609582 0.000000 0.250000
O O5 0.855997 0.099012 0.767291
O O6 0.731491 0.162824 0.823937
O O7 0.751279 0.000000 0.750000
O O8 0.779943 0.060298 0.000000
O O9 0.922499 0.649099 0.500000
O O10 0.925480 0.769536 0.676275
O O11 0.850884 0.644917 0.754938
O O12 0.000000 0.645792 0.750000
O O13 0.562680 0.437105 0.187725
O O14 0.933433 0.887628 0.500000
O O15 0.000000 0.894614 0.250000
O O16 0.361797 0.703637 0.831294
O O17 0.374729 0.824315 0.000000
O O18 0.817853 0.500000 0.750000
O O19 0.708278 0.590081 0.774635
O O20 0.797545 0.582814 0.000000
O O21 0.665104 0.416073 0.000000
#
# Coordination Sequence:
#
# PCOD9394187 Si02
#       8
#     8   8   8   2   8   8   8   8
#     4  11  22  38  60  88 122 161 203 251 305 367
#     4  10  21  37  58  86 124 168 216 264 319 376
#     4  10  20  38  64  94 130 171 219 273 331 393
#     4  12  26  44  76 110 134 164 214 264 342 408
#     4   9  19  36  58  85 120 165 212 263 319 377
#     4  10  22  41  64  91 124 166 208 257 320 384
#     4  12  25  42  65  93 127 169 217 266 330 401
#     4  11  25  46  71  98 134 172 212 271 336 403
#
# _framework density 20.558111
#
# number of rings (size 3 to 8) (size 9 to 14) (size 15 to 20)
#    0.000    1.517    0.690    4.759    0.966    6.621 
#    0.000    4.138    0.000    0.000    0.000    0.000 
#    0.000    0.000    0.000    0.000    0.000    0.000 
#
# Total GULP energy -322957.032073 kJ/mol
# GULP energy per Si atom -5568.224691 kJ/mol
# Density = 2.051132 g / cm^3
# Si number density = 20.558111 Si / 1000 Ang^3
#
#
#
# Elastic Constant Matrix: (Units=GPa)
#
#
# Indices 1 2 3 4 5 6 
#
# 1 142.3051 31.9045 65.5246 0.0000 0.0000 0.0000
# 2 31.9045 80.3564 38.9159 0.0000 0.0000 0.0000
# 3 65.5246 38.9159 145.0170 0.0000 0.0000 0.0000
# 4 0.0000 0.0000 0.0000 30.9314 0.0000 0.0000
# 5 0.0000 0.0000 0.0000 0.0000 37.9418 0.0000
# 6 0.0000 0.0000 0.0000 0.0000 0.0000 35.6434
#
#
#
# Elastic Compliance Matrix: (Units=1/GPa)
#
#
# Indices 1 2 3 4 5 6 
#
# 1 0.009110 -0.001866 -0.003616 0.000000 0.000000 0.000000
# 2 -0.001866 0.014686 -0.003098 0.000000 0.000000 0.000000
# 3 -0.003616 -0.003098 0.009361 0.000000 0.000000 0.000000
# 4 0.000000 0.000000 0.000000 0.032330 0.000000 0.000000
# 5 0.000000 0.000000 0.000000 0.000000 0.026356 0.000000
# 6 0.000000 0.000000 0.000000 0.000000 0.000000 0.028056
#
#
# Mechanical properties :
#
#
# Convention : Reuss Voigt Hill
#
# Bulk Modulus (GPa) = 62.50896 71.15204 66.83050
# Shear Modulus (GPa) = 35.11485 36.32557 35.72021
#
# Velocity S-wave (km/s) = 4.13737 4.20809 4.17288
# Velocity P-wave (km/s) = 7.30040 7.63519 7.46967
#
# Compressibility (1/GPa) = 0.01599771
#
# Stress axis : x y z
#
# Youngs Moduli (GPa) = 109.76507 68.09340 106.82918
#
# Poissons Ratio (x) = 0.12707 0.38626
# Poissons Ratio (y) = 0.20484 0.33093
# Poissons Ratio (z) = 0.39687 0.21094
#
# Static dielectric constant tensor:
#      x y z
#    x 1.802840 0.000000 0.000000 
#    y 0.000000 1.676480 0.000000 
#    z 0.000000 0.000000 1.701220 
# 
# From -- ./inp_files/5093.got.cif
#   From: 2010.05.17/outbox.cif.g08.bks.cpg/sg49_3_cif.got.tgz:5093.got - 2010.06.03 21:02:19.
