data_PCOD9394900
_publ_section_title
;
Structure prediction by ZEFSAII (Michael W. Deem and Ramdas Pophale) SiO2 
 PCOD9394900
Probable space group: P C C M
;
_chemical_formula_sum "Si O2"
_cell_formula_units_Z 48
_cell_length_a 7.635922
_cell_length_b 8.364201
_cell_length_c 32.477325
_cell_angle_alpha 90.000000
_cell_angle_beta 90.000000
_cell_angle_gamma 90.000000
_cell_volume 2074.274343
_symmetry_space_group_name_H-M "P C C M"
_symmetry_group_IT_number 49
_symmetry_cell_setting 'orthorhombic'
loop_
_space_group_symop_operation_xyz
x,y,z
-x,-y,z
x,-y,1/2-z
-x,y,1/2-z
-x,-y,-z
x,y,-z
-x,y,1/2+z
x,-y,1/2+z
loop_
_atom_site_type_symbol
_atom_site_label
_atom_site_fract_x
_atom_site_fract_y
_atom_site_fract_z
Si Si1 0.713480 0.800012 0.608775
Si Si2 0.688648 0.577127 0.687006
Si Si3 0.814554 0.088918 0.659241
Si Si4 0.802875 0.728437 0.765130
Si Si5 0.932495 0.318927 0.589939
Si Si6 0.431186 0.317003 0.953735
O O1 0.735024 0.665355 0.644737
O O2 0.548325 0.770018 0.580254
O O3 0.893360 0.786846 0.582567
O O4 0.705354 0.966862 0.632181
O O5 0.500000 0.500000 0.680901
O O6 0.689157 0.703289 0.724436
O O7 0.802673 0.434903 0.707408
O O8 0.740955 0.138091 0.703112
O O9 0.852996 0.246469 0.632063
O O10 0.000000 0.000000 0.665945
O O11 0.000000 0.760764 0.750000
O O12 0.773288 0.310922 0.557942
O O13 0.000000 0.500000 0.592332
O O14 0.500000 0.500000 0.952446
O O15 0.458774 0.255794 0.000000
#
# Coordination Sequence:
#
# PCOD9394900 Si02
#       6
#     8   8   8   8   8   8
#     4  11  24  45  70 104 146 189 234 299 363 434
#     4  11  24  41  64  99 141 184 245 298 354 420
#     4  10  24  41  66 102 140 186 245 285 362 432
#     4  11  22  40  65  97 134 187 246 293 348 420
#     4  11  22  42  71 101 137 184 236 287 356 426
#     4  11  25  45  73 111 141 181 240 298 363 438
#
# _framework density 23.140625
#
# number of rings (size 3 to 8) (size 9 to 14) (size 15 to 20)
#    0.000    1.167    1.667    5.500    2.333    5.333 
#    0.000    1.667    3.667    9.000    0.000    0.000 
#    0.000    0.000    0.000    0.000    0.000    0.000 
#
# Total GULP energy -268584.600290 kJ/mol
# GULP energy per Si atom -5595.512506 kJ/mol
# Density = 2.308796 g / cm^3
# Si number density = 23.140625 Si / 1000 Ang^3
#
#
#
# Elastic Constant Matrix: (Units=GPa)
#
#
# Indices 1 2 3 4 5 6 
#
# 1 117.1832 33.3391 53.4942 0.0000 0.0000 0.0000
# 2 33.3391 66.5036 61.6094 0.0000 0.0000 0.0000
# 3 53.4942 61.6094 144.0386 0.0000 0.0000 0.0000
# 4 0.0000 0.0000 0.0000 -375.2958 0.0000 0.0000
# 5 0.0000 0.0000 0.0000 0.0000 19.7358 0.0000
# 6 0.0000 0.0000 0.0000 0.0000 0.0000 12.5474
#
#
#
# Elastic Compliance Matrix: (Units=1/GPa)
#
#
# Indices 1 2 3 4 5 6 
#
# 1 0.010572 -0.002754 -0.002748 0.000000 0.000000 0.000000
# 2 -0.002754 0.025623 -0.009937 0.000000 0.000000 0.000000
# 3 -0.002748 -0.009937 0.012214 0.000000 0.000000 0.000000
# 4 0.000000 0.000000 0.000000 -0.002665 0.000000 0.000000
# 5 0.000000 0.000000 0.000000 0.000000 0.050669 0.000000
# 6 0.000000 0.000000 0.000000 0.000000 0.000000 0.079698
#
#
# Mechanical properties :
#
#
# Convention : Reuss Voigt Hill
#
# Bulk Modulus (GPa) = 57.04418 69.40118 63.22268
# Shear Modulus (GPa) = 23.49272 -56.65033 -16.57880
#
# Velocity S-wave (km/s) = 3.18970 -4.95319 -2.67954
# Velocity P-wave (km/s) = 6.18629 1.62969 4.21985
#
# Compressibility (1/GPa) = 0.01753027
#
# Stress axis : x y z
#
# Youngs Moduli (GPa) = 94.59207 39.02763 81.87559
#
# Poissons Ratio (x) = 0.10746 0.22503
# Poissons Ratio (y) = 0.26046 0.81360
# Poissons Ratio (z) = 0.25998 0.38782
#
# Static dielectric constant tensor:
#      x y z
#    x 1.915520 0.000000 0.000000 
#    y 0.000000 1.938420 0.000000 
#    z 0.000000 0.000000 1.839610 
# 
# From -- ./inp_files/26248.got.cif
#   From: 2010.05.17/outbox.cif.g08.bks.cpg/sg49_14_cif.got.tgz:26248.got - 2010.06.03 21:02:19.
