data_PCOD9394616
_publ_section_title
;
Structure prediction by ZEFSAII (Michael W. Deem and Ramdas Pophale) SiO2 
 PCOD9394616
Probable space group: P C C M
;
_chemical_formula_sum "Si O2"
_cell_formula_units_Z 56
_cell_length_a 15.350706
_cell_length_b 9.893594
_cell_length_c 17.025682
_cell_angle_alpha 90.000000
_cell_angle_beta 90.000000
_cell_angle_gamma 90.000000
_cell_volume 2585.752516
_symmetry_space_group_name_H-M "P C C M"
_symmetry_group_IT_number 49
_symmetry_cell_setting 'orthorhombic'
loop_
_space_group_symop_operation_xyz
x,y,z
-x,-y,z
x,-y,1/2-z
-x,y,1/2-z
-x,-y,-z
x,y,-z
-x,y,1/2+z
x,-y,1/2+z
loop_
_atom_site_type_symbol
_atom_site_label
_atom_site_fract_x
_atom_site_fract_y
_atom_site_fract_z
Si Si1 0.623394 0.333662 0.092740
Si Si2 0.782701 0.155986 0.155578
Si Si3 0.523136 0.144260 0.658883
Si Si4 0.738282 0.435891 0.407138
Si Si5 0.921298 0.409569 0.405013
Si Si6 0.015558 0.845686 0.156264
Si Si7 0.730694 0.149241 0.661757
O O1 0.707800 0.239892 0.111177
O O2 0.536328 0.264855 0.126025
O O3 0.655914 0.480388 0.124976
O O4 0.609031 0.342350 0.000000
O O5 0.883363 0.190005 0.138709
O O6 0.763421 0.173616 0.249001
O O7 0.767621 0.996535 0.138200
O O8 0.500000 0.138387 0.750000
O O9 0.626407 0.149140 0.658447
O O10 0.500000 0.000000 0.619977
O O11 0.734970 0.459816 0.500000
O O12 0.832414 0.479146 0.375233
O O13 0.748097 0.277224 0.392382
O O14 0.918492 0.412958 0.500000
O O15 0.000000 0.500000 0.375729
O O16 0.946685 0.258322 0.380044
O O17 0.000000 0.842698 0.250000
O O18 0.000000 0.000000 0.130045
#
# Coordination Sequence:
#
# PCOD9394616 Si02
#       7
#     8   8   8   8   8   8   8
#     4  11  24  41  62  93 127 162 207 259 310 370
#     4  11  21  39  63  91 123 162 207 265 310 370
#     4  11  20  42  67  93 125 159 205 256 306 371
#     4  10  23  41  59  88 127 162 202 253 310 370
#     4  10  21  40  62  83 118 168 209 248 305 371
#     4  11  22  37  60  92 126 157 206 264 320 367
#     4  11  21  39  66  88 122 162 207 250 318 375
#
# _framework density 21.657138
#
# number of rings (size 3 to 8) (size 9 to 14) (size 15 to 20)
#    0.000    1.286    2.857    5.143    0.000    4.857 
#    0.000    5.000    0.000    0.000    0.000    0.000 
#    0.000    0.000    0.000    0.000    0.000    0.000 
#
# Total GULP energy -312430.981231 kJ/mol
# GULP energy per Si atom -5579.124665 kJ/mol
# Density = 2.160785 g / cm^3
# Si number density = 21.657138 Si / 1000 Ang^3
#
#
#
# Elastic Constant Matrix: (Units=GPa)
#
#
# Indices 1 2 3 4 5 6 
#
# 1 108.5059 8.8251 5.6278 0.0000 0.0000 0.0000
# 2 8.8251 78.7942 3.9771 0.0000 0.0000 0.0000
# 3 5.6278 3.9771 10.4131 0.0000 0.0000 0.0000
# 4 0.0000 0.0000 0.0000 21.5547 0.0000 0.0000
# 5 0.0000 0.0000 0.0000 0.0000 11.6809 0.0000
# 6 0.0000 0.0000 0.0000 0.0000 0.0000 87.8209
#
#
#
# Elastic Compliance Matrix: (Units=1/GPa)
#
#
# Indices 1 2 3 4 5 6 
#
# 1 0.009534 -0.000824 -0.004838 0.000000 0.000000 0.000000
# 2 -0.000824 0.013012 -0.004525 0.000000 0.000000 0.000000
# 3 -0.004838 -0.004525 0.100375 0.000000 0.000000 0.000000
# 4 0.000000 0.000000 0.000000 0.046394 0.000000 0.000000
# 5 0.000000 0.000000 0.000000 0.000000 0.085610 0.000000
# 6 0.000000 0.000000 0.000000 0.000000 0.000000 0.011387
#
#
# Mechanical properties :
#
#
# Convention : Reuss Voigt Hill
#
# Bulk Modulus (GPa) = 9.75147 26.06372 17.90759
# Shear Modulus (GPa) = 15.58277 36.16350 25.87314
#
# Velocity S-wave (km/s) = 2.68530 4.09077 3.46015
# Velocity P-wave (km/s) = 3.75857 5.86288 4.92444
#
# Compressibility (1/GPa) = 0.10254869
#
# Stress axis : x y z
#
# Youngs Moduli (GPa) = 104.88766 76.85265 9.96259
#
# Poissons Ratio (x) = 0.06330 0.04820
# Poissons Ratio (y) = 0.08639 0.04508
# Poissons Ratio (z) = 0.50746 0.34773
#
# Static dielectric constant tensor:
#      x y z
#    x 1.878010 0.000000 0.000000 
#    y 0.000000 1.951120 0.000000 
#    z 0.000000 0.000000 1.744290 
# 
# From -- ./inp_files/20887.got.cif
#   From: 2010.05.17/outbox.cif.g08.bks.cpg/sg49_11_cif.got.tgz:20887.got - 2010.06.03 21:02:19.
