data_PCOD9394991
_publ_section_title
;
Structure prediction by ZEFSAII (Michael W. Deem and Ramdas Pophale) SiO2 
 PCOD9394991
Probable space group: P C C M
;
_chemical_formula_sum "Si O2"
_cell_formula_units_Z 40
_cell_length_a 10.756212
_cell_length_b 8.789347
_cell_length_c 18.295344
_cell_angle_alpha 90.000000
_cell_angle_beta 90.000000
_cell_angle_gamma 90.000000
_cell_volume 1729.643279
_symmetry_space_group_name_H-M "P C C M"
_symmetry_group_IT_number 49
_symmetry_cell_setting 'orthorhombic'
loop_
_space_group_symop_operation_xyz
x,y,z
-x,-y,z
x,-y,1/2-z
-x,y,1/2-z
-x,-y,-z
x,y,-z
-x,y,1/2+z
x,-y,1/2+z
loop_
_atom_site_type_symbol
_atom_site_label
_atom_site_fract_x
_atom_site_fract_y
_atom_site_fract_z
Si Si1 0.175784 0.515509 0.082243
Si Si2 0.815864 0.827741 0.086893
Si Si3 0.670134 0.071120 0.828343
Si Si4 0.441736 0.662976 0.916433
Si Si5 0.058615 0.227565 0.671185
O O1 0.212111 0.347410 0.107982
O O2 0.298265 0.616948 0.076568
O O3 0.086422 0.613840 0.131935
O O4 0.128391 0.497087 0.000000
O O5 0.951375 0.852311 0.122838
O O6 0.707944 0.936368 0.116262
O O7 0.824472 0.843952 0.000000
O O8 0.570486 0.190710 0.862725
O O9 0.806941 0.149564 0.819406
O O10 0.636888 0.000000 0.750000
O O11 0.500000 0.500000 0.891269
O O12 0.490140 0.695363 0.000000
O O13 0.000000 0.246541 0.750000
#
# Coordination Sequence:
#
# PCOD9394991 Si02
#       5
#     8   8   8   8   8
#     4   9  20  37  57  88 126 167 226 281 322 389
#     4  11  22  35  56  87 128 175 223 274 328 393
#     4  11  22  38  58  92 134 171 216 277 344 410
#     4   9  19  40  69  94 122 168 226 287 350 410
#     4  11  21  35  54  87 130 183 224 257 320 399
#
# _framework density 23.126158
#
# number of rings (size 3 to 8) (size 9 to 14) (size 15 to 20)
#    0.000    1.800    2.000    2.400    0.000    6.400 
#    0.000    1.000    0.000    8.400    0.000    0.000 
#    0.000    2.400    0.000    0.000    0.000    0.000 
#
# Total GULP energy -223341.946465 kJ/mol
# GULP energy per Si atom -5583.548662 kJ/mol
# Density = 2.307352 g / cm^3
# Si number density = 23.126158 Si / 1000 Ang^3
#
#
#
# Elastic Constant Matrix: (Units=GPa)
#
#
# Indices 1 2 3 4 5 6 
#
# 1 88.2841 32.0645 37.5957 0.0000 0.0000 0.0000
# 2 32.0645 161.2348 93.2582 0.0000 0.0000 0.0000
# 3 37.5957 93.2582 140.1327 0.0000 0.0000 0.0000
# 4 0.0000 0.0000 0.0000 30.9374 0.0000 0.0000
# 5 0.0000 0.0000 0.0000 0.0000 18.9143 0.0000
# 6 0.0000 0.0000 0.0000 0.0000 0.0000 48.8027
#
#
#
# Elastic Compliance Matrix: (Units=1/GPa)
#
#
# Indices 1 2 3 4 5 6 
#
# 1 0.012870 -0.000914 -0.002845 0.000000 0.000000 0.000000
# 2 -0.000914 0.010148 -0.006509 0.000000 0.000000 0.000000
# 3 -0.002845 -0.006509 0.012231 0.000000 0.000000 0.000000
# 4 0.000000 0.000000 0.000000 0.032323 0.000000 0.000000
# 5 0.000000 0.000000 0.000000 0.000000 0.052870 0.000000
# 6 0.000000 0.000000 0.000000 0.000000 0.000000 0.020491
#
#
# Mechanical properties :
#
#
# Convention : Reuss Voigt Hill
#
# Bulk Modulus (GPa) = 67.95794 79.49871 73.72833
# Shear Modulus (GPa) = 30.05294 34.84645 32.44969
#
# Velocity S-wave (km/s) = 3.60880 3.88596 3.74994
# Velocity P-wave (km/s) = 6.84208 7.38817 7.12036
#
# Compressibility (1/GPa) = 0.01471498
#
# Stress axis : x y z
#
# Youngs Moduli (GPa) = 77.69725 98.53700 81.76176
#
# Poissons Ratio (x) = 0.09009 0.23258
# Poissons Ratio (y) = 0.07103 0.53215
# Poissons Ratio (z) = 0.22101 0.64133
#
# Static dielectric constant tensor:
#      x y z
#    x 1.921830 0.000000 0.000000 
#    y 0.000000 1.850940 0.000000 
#    z 0.000000 0.000000 1.828960 
# 
# From -- ./inp_files/16854.got.cif
#   From: 2010.05.17/outbox.cif.g08.bks.cpg/sg49_9_cif.got.tgz:16854.got - 2010.06.03 21:02:19.
