data_PCOD9394740
_publ_section_title
;
Structure prediction by ZEFSAII (Michael W. Deem and Ramdas Pophale) SiO2 
 PCOD9394740
Probable space group: P C C M
;
_chemical_formula_sum "Si O2"
_cell_formula_units_Z 56
_cell_length_a 8.186697
_cell_length_b 13.681784
_cell_length_c 20.741582
_cell_angle_alpha 90.000000
_cell_angle_beta 90.000000
_cell_angle_gamma 90.000000
_cell_volume 2323.235977
_symmetry_space_group_name_H-M "P C C M"
_symmetry_group_IT_number 49
_symmetry_cell_setting 'orthorhombic'
loop_
_space_group_symop_operation_xyz
x,y,z
-x,-y,z
x,-y,1/2-z
-x,y,1/2-z
-x,-y,-z
x,y,-z
-x,y,1/2+z
x,-y,1/2+z
loop_
_atom_site_type_symbol
_atom_site_label
_atom_site_fract_x
_atom_site_fract_y
_atom_site_fract_z
Si Si1 0.117046 0.280661 0.393100
Si Si2 0.176817 0.249560 0.747636
Si Si3 0.252935 0.653714 0.635186
Si Si4 0.562457 0.827277 0.073360
Si Si5 0.255839 0.054118 0.184372
Si Si6 0.802373 0.085781 0.069730
Si Si7 0.691649 0.470993 0.069002
O O1 0.209829 0.247442 0.327294
O O2 0.082451 0.179374 0.429042
O O3 0.236731 0.362200 0.423319
O O4 0.934051 0.319099 0.381712
O O5 0.293595 0.311891 0.792588
O O6 0.160038 0.145193 0.783695
O O7 0.000000 0.298948 0.750000
O O8 0.377309 0.717245 0.590725
O O9 0.253381 0.538475 0.627053
O O10 0.625309 0.892687 0.133337
O O11 0.374400 0.860593 0.070759
O O12 0.622659 0.846588 0.000000
O O13 0.315898 0.000000 0.250000
O O14 0.175616 0.978007 0.134216
O O15 0.816707 0.034604 0.000000
O O16 0.500000 0.500000 0.066797
O O17 0.759243 0.507348 0.000000
#
# Coordination Sequence:
#
# PCOD9394740 Si02
#       7
#     8   8   8   8   8   8   8
#     4  11  22  41  65  94 127 164 215 262 315 380
#     4   9  21  42  63  90 126 169 206 259 325 378
#     4  10  22  41  66  93 125 168 212 260 315 382
#     4  10  22  40  60  87 129 169 208 263 327 375
#     4  11  21  39  62  91 119 167 219 264 306 383
#     4  11  23  39  60  92 131 170 212 269 326 374
#     4  11  24  42  65  94 128 166 205 256 323 382
#
# _framework density 24.104310999999999
#
# number of rings (size 3 to 8) (size 9 to 14) (size 15 to 20)
#    0.000    1.571    1.429    3.000    0.000    8.286 
#    2.571    5.000    0.000    3.429    0.000    0.000 
#    0.000    0.000    0.000    0.000    0.000    0.000 
#
# Total GULP energy -311886.133183 kJ/mol
# GULP energy per Si atom -5569.395235 kJ/mol
# Density = 2.404945 g / cm^3
# Si number density = 24.104311 Si / 1000 Ang^3
#
#
#
# Elastic Constant Matrix: (Units=GPa)
#
#
# Indices 1 2 3 4 5 6 
#
# 1 59.5384 -5.9506 2.8532 0.0000 0.0000 0.0000
# 2 -5.9506 88.3358 29.5274 0.0000 0.0000 0.0000
# 3 2.8532 29.5274 184.0406 0.0000 0.0000 0.0000
# 4 0.0000 0.0000 0.0000 22.5979 0.0000 0.0000
# 5 0.0000 0.0000 0.0000 0.0000 26.0020 0.0000
# 6 0.0000 0.0000 0.0000 0.0000 0.0000 22.1720
#
#
#
# Elastic Compliance Matrix: (Units=1/GPa)
#
#
# Indices 1 2 3 4 5 6 
#
# 1 0.016948 0.001299 -0.000471 0.000000 0.000000 0.000000
# 2 0.001299 0.012062 -0.001955 0.000000 0.000000 0.000000
# 3 -0.000471 -0.001955 0.005755 0.000000 0.000000 0.000000
# 4 0.000000 0.000000 0.000000 0.044252 0.000000 0.000000
# 5 0.000000 0.000000 0.000000 0.000000 0.038459 0.000000
# 6 0.000000 0.000000 0.000000 0.000000 0.000000 0.045102
#
#
# Mechanical properties :
#
#
# Convention : Reuss Voigt Hill
#
# Bulk Modulus (GPa) = 30.75987 42.75274 36.75630
# Shear Modulus (GPa) = 28.46275 34.52002 31.49139
#
# Velocity S-wave (km/s) = 3.44003 3.78843 3.61842
# Velocity P-wave (km/s) = 5.34483 6.07547 5.72182
#
# Compressibility (1/GPa) = 0.03250989
#
# Stress axis : x y z
#
# Youngs Moduli (GPa) = 59.00288 82.90820 173.77420
#
# Poissons Ratio (x) = -0.10771 0.08188
# Poissons Ratio (y) = -0.07666 0.33978
# Poissons Ratio (z) = 0.02780 0.16211
#
# Static dielectric constant tensor:
#      x y z
#    x 1.975820 0.000000 0.000000 
#    y 0.000000 1.949810 0.000000 
#    z 0.000000 0.000000 2.018500 
# 
# From -- ./inp_files/19897.got.cif
#   From: 2010.05.17/outbox.cif.g08.bks.cpg/sg49_10_cif.got.tgz:19897.got - 2010.06.03 21:02:19.
