data_PCOD9394639
_publ_section_title
;
Structure prediction by ZEFSAII (Michael W. Deem and Ramdas Pophale) SiO2 
 PCOD9394639
Probable space group: P C C M
;
_chemical_formula_sum "Si O2"
_cell_formula_units_Z 56
_cell_length_a 14.180125
_cell_length_b 5.727953
_cell_length_c 29.949774
_cell_angle_alpha 90.000000
_cell_angle_beta 90.000000
_cell_angle_gamma 90.000000
_cell_volume 2432.613175
_symmetry_space_group_name_H-M "P C C M"
_symmetry_group_IT_number 49
_symmetry_cell_setting 'orthorhombic'
loop_
_space_group_symop_operation_xyz
x,y,z
-x,-y,z
x,-y,1/2-z
-x,y,1/2-z
-x,-y,-z
x,y,-z
-x,y,1/2+z
x,-y,1/2+z
loop_
_atom_site_type_symbol
_atom_site_label
_atom_site_fract_x
_atom_site_fract_y
_atom_site_fract_z
Si Si1 0.852129 0.877093 0.049749
Si Si2 0.750000 0.749999 0.398338
Si Si3 0.647870 0.622908 0.049749
Si Si4 0.861139 0.246203 0.731323
Si Si5 0.638861 0.746203 0.231323
Si Si6 0.399252 0.110819 0.135486
Si Si7 0.899252 0.610820 0.864515
O O1 0.750000 0.750001 0.047562
O O2 0.907530 0.745859 0.088568
O O3 0.826000 0.128423 0.069263
O O4 0.892555 0.877789 0.000000
O O5 0.674000 0.628422 0.430737
O O6 0.811520 0.568678 0.369813
O O7 0.688480 0.931320 0.369813
O O8 0.592469 0.754142 0.088568
O O9 0.607445 0.622212 0.000000
O O10 0.896094 0.500000 0.750000
O O11 0.750000 0.250000 0.741796
O O12 0.875324 0.234902 0.678166
O O13 0.898148 0.000000 0.750000
O O14 0.601853 0.500000 0.250000
O O15 0.624676 0.734902 0.178166
O O16 0.603906 0.000000 0.250000
O O17 0.500000 0.000000 0.144621
O O18 0.000000 0.500000 0.855380
#
# Coordination Sequence:
#
# PCOD9394639 Si02
#       7
#     8   8   8   8   8   8   8
#     4   9  19  38  65  97 135 180 231 283 346 418
#     4  10  21  40  70  94 132 184 228 288 347 416
#     4   9  19  38  65  97 135 180 231 283 346 418
#     4  10  23  43  73  98 131 179 230 289 353 418
#     4  10  23  43  73  98 131 179 230 289 353 418
#     4  11  25  42  66 100 137 178 229 289 351 429
#     4  11  25  42  66 100 137 178 229 289 351 429
#
# _framework density 23.020512
#
# number of rings (size 3 to 8) (size 9 to 14) (size 15 to 20)
#    0.000    2.000    0.000    3.000   10.000    3.429 
#    0.000    2.857    0.000    0.000    0.000    0.000 
#    0.000    0.000    0.000    0.000    0.000    0.000 
#
# Total GULP energy -312859.856747 kJ/mol
# GULP energy per Si atom -5586.783156 kJ/mol
# Density = 2.296812 g / cm^3
# Si number density = 23.020512 Si / 1000 Ang^3
#
#
#
# Elastic Constant Matrix: (Units=GPa)
#
#
# Indices 1 2 3 4 5 6 
#
# 1 73.3091 31.4723 19.6008 0.0000 0.0000 0.0000
# 2 31.4723 130.2265 83.5433 0.0000 0.0000 0.0000
# 3 19.6008 83.5433 153.1369 0.0000 0.0000 0.0000
# 4 0.0000 0.0000 0.0000 -17.3336 0.0000 0.0000
# 5 0.0000 0.0000 0.0000 0.0000 415.1169 0.0000
# 6 0.0000 0.0000 0.0000 0.0000 0.0000 -6.8764
#
#
#
# Elastic Compliance Matrix: (Units=1/GPa)
#
#
# Indices 1 2 3 4 5 6 
#
# 1 0.015221 -0.003736 0.000090 0.000000 0.000000 0.000000
# 2 -0.003736 0.012731 -0.006467 0.000000 0.000000 0.000000
# 3 0.000090 -0.006467 0.010047 0.000000 0.000000 0.000000
# 4 0.000000 0.000000 0.000000 -0.057692 0.000000 0.000000
# 5 0.000000 0.000000 0.000000 0.000000 0.002409 0.000000
# 6 0.000000 0.000000 0.000000 0.000000 0.000000 -0.145426
#
#
# Mechanical properties :
#
#
# Convention : Reuss Voigt Hill
#
# Bulk Modulus (GPa) = 56.26884 69.54503 62.90694
# Shear Modulus (GPa) = -36.61377 92.98514 28.18568
#
# Velocity S-wave (km/s) = -3.99241 6.36239 3.50290
# Velocity P-wave (km/s) = 1.80097 9.17872 6.61409
#
# Compressibility (1/GPa) = 0.01777182
#
# Stress axis : x y z
#
# Youngs Moduli (GPa) = 65.69960 78.55130 99.53662
#
# Poissons Ratio (x) = 0.29349 -0.00897
# Poissons Ratio (y) = 0.24547 0.64369
# Poissons Ratio (z) = -0.00592 0.50798
#
# Static dielectric constant tensor:
#      x y z
#    x 1.804990 0.000000 0.000000 
#    y 0.000000 1.926470 0.000000 
#    z 0.000000 0.000000 1.835840 
# 
# From -- ./inp_files/25823.got.cif
#   From: 2010.05.17/outbox.cif.g08.bks.cpg/sg49_13_cif.got.tgz:25823.got - 2010.06.03 21:02:19.
