data_PCOD9394922
_publ_section_title
;
Structure prediction by ZEFSAII (Michael W. Deem and Ramdas Pophale) SiO2 
 PCOD9394922
Probable space group: P C C M
;
_chemical_formula_sum "Si O2"
_cell_formula_units_Z 16
_cell_length_a 4.438472
_cell_length_b 14.562038
_cell_length_c 9.186679
_cell_angle_alpha 90.000000
_cell_angle_beta 90.000000
_cell_angle_gamma 90.000000
_cell_volume 593.764442
_symmetry_space_group_name_H-M "P C C M"
_symmetry_group_IT_number 49
_symmetry_cell_setting 'orthorhombic'
loop_
_space_group_symop_operation_xyz
x,y,z
-x,-y,z
x,-y,1/2-z
-x,y,1/2-z
-x,-y,-z
x,y,-z
-x,y,1/2+z
x,-y,1/2+z
loop_
_atom_site_type_symbol
_atom_site_label
_atom_site_fract_x
_atom_site_fract_y
_atom_site_fract_z
Si Si1 0.500000 0.368310 0.750000
Si Si2 0.184747 0.746290 0.000000
Si Si3 0.500000 0.000000 0.250000
Si Si4 0.000000 0.500000 0.750000
Si Si5 0.323842 0.876617 0.500000
O O1 0.306324 0.308124 0.639005
O O2 0.243720 0.432804 0.825915
O O3 0.325802 0.847685 0.000000
O O4 0.839595 0.777607 0.000000
O O5 0.701316 0.063884 0.355235
#
# Coordination Sequence:
#
# PCOD9394922 Si02
#       5
#     4   4   2   2   4
#     4  11  25  44  71 105 144 190 242 295 359 426
#     4  12  26  46  72 106 145 190 241 298 358 428
#     4  10  26  48  74 108 144 190 240 296 366 432
#     4  10  24  44  72 104 144 190 240 296 356 428
#     4  11  26  46  74 105 145 188 239 299 360 430
#
# _framework density 26.946715000000001
#
# number of rings (size 3 to 8) (size 9 to 14) (size 15 to 20)
#    0.000    1.000    0.000    4.500    0.000   18.000 
#    0.000    2.500    0.000    0.000    0.000    0.000 
#    0.000    0.000    0.000    0.000    0.000    0.000 
#
# Total GULP energy -89429.045741 kJ/mol
# GULP energy per Si atom -5589.315359 kJ/mol
# Density = 2.688538 g / cm^3
# Si number density = 26.946715 Si / 1000 Ang^3
#
#
#
# Elastic Constant Matrix: (Units=GPa)
#
#
# Indices 1 2 3 4 5 6 
#
# 1 124.0202 58.5010 44.6670 0.0000 0.0000 0.0000
# 2 58.5010 143.7574 81.2656 0.0000 0.0000 0.0000
# 3 44.6670 81.2656 184.7850 0.0000 0.0000 0.0000
# 4 0.0000 0.0000 0.0000 52.9573 0.0000 0.0000
# 5 0.0000 0.0000 0.0000 0.0000 34.8972 0.0000
# 6 0.0000 0.0000 0.0000 0.0000 0.0000 94.8520
#
#
#
# Elastic Compliance Matrix: (Units=1/GPa)
#
#
# Indices 1 2 3 4 5 6 
#
# 1 0.010076 -0.003625 -0.000842 0.000000 0.000000 0.000000
# 2 -0.003625 0.010562 -0.003769 0.000000 0.000000 0.000000
# 3 -0.000842 -0.003769 0.007273 0.000000 0.000000 0.000000
# 4 0.000000 0.000000 0.000000 0.018883 0.000000 0.000000
# 5 0.000000 0.000000 0.000000 0.000000 0.028656 0.000000
# 6 0.000000 0.000000 0.000000 0.000000 0.000000 0.010543
#
#
# Mechanical properties :
#
#
# Convention : Reuss Voigt Hill
#
# Bulk Modulus (GPa) = 87.40925 91.26998 89.33961
# Shear Modulus (GPa) = 47.04779 54.41657 50.73218
#
# Velocity S-wave (km/s) = 4.18300 4.49866 4.34370
# Velocity P-wave (km/s) = 7.47250 7.80564 7.64088
#
# Compressibility (1/GPa) = 0.01144044
#
# Stress axis : x y z
#
# Youngs Moduli (GPa) = 99.24508 94.68258 137.50381
#
# Poissons Ratio (x) = 0.34319 0.11572
# Poissons Ratio (y) = 0.35973 0.51821
# Poissons Ratio (z) = 0.08352 0.35683
#
# Static dielectric constant tensor:
#      x y z
#    x 2.042730 0.000000 0.000000 
#    y 0.000000 2.104250 0.000000 
#    z 0.000000 0.000000 2.035570 
# 
# From -- ./inp_files/7227.got.cif
#   From: 2010.05.17/outbox.cif.g08.bks.cpg/sg49_4_cif.got.tgz:7227.got - 2010.06.03 21:02:19.
