data_PCOD9394841
_publ_section_title
;
Structure prediction by ZEFSAII (Michael W. Deem and Ramdas Pophale) SiO2 
 PCOD9394841
Probable space group: P C C M
;
_chemical_formula_sum "Si O2"
_cell_formula_units_Z 40
_cell_length_a 8.216260
_cell_length_b 10.146752
_cell_length_c 19.765848
_cell_angle_alpha 90.000000
_cell_angle_beta 90.000000
_cell_angle_gamma 90.000000
_cell_volume 1647.846185
_symmetry_space_group_name_H-M "P C C M"
_symmetry_group_IT_number 49
_symmetry_cell_setting 'orthorhombic'
loop_
_space_group_symop_operation_xyz
x,y,z
-x,-y,z
x,-y,1/2-z
-x,y,1/2-z
-x,-y,-z
x,y,-z
-x,y,1/2+z
x,-y,1/2+z
loop_
_atom_site_type_symbol
_atom_site_label
_atom_site_fract_x
_atom_site_fract_y
_atom_site_fract_z
Si Si1 0.349893 0.185548 0.205235
Si Si2 0.459129 0.169571 0.426929
Si Si3 0.167808 0.043547 0.359851
Si Si4 0.315113 0.449527 0.424319
Si Si5 0.151523 0.659611 0.200909
O O1 0.500000 0.133876 0.250000
O O2 0.417117 0.211781 0.130961
O O3 0.296020 0.314869 0.245512
O O4 0.212411 0.075162 0.191921
O O5 0.534075 0.147785 0.500000
O O6 0.334404 0.056701 0.402748
O O7 0.340931 0.294263 0.433013
O O8 0.138418 0.189890 0.329281
O O9 0.000000 0.000000 0.394832
O O10 0.500000 0.500000 0.411500
O O11 0.263754 0.502333 0.500000
O O12 0.196224 0.445066 0.358462
O O13 0.000000 0.635111 0.250000
#
# Coordination Sequence:
#
# PCOD9394841 Si02
#       5
#     8   8   8   8   8
#     4  12  22  34  57  89 127 174 217 260 320 390
#     4  10  23  39  57  88 126 168 228 279 318 390
#     4  11  22  33  56  87 130 176 213 254 325 395
#     4   9  19  40  69  95 125 171 225 282 346 398
#     4  11  22  36  60  99 133 167 212 272 327 397
#
# _framework density 24.274108999999999
#
# number of rings (size 3 to 8) (size 9 to 14) (size 15 to 20)
#    0.000    1.400    6.000    1.200    2.800    2.000 
#    0.000    3.000    0.000    2.400    0.000    4.200 
#    0.000    0.800    0.000    0.000    0.000    0.000 
#
# Total GULP energy -222845.798836 kJ/mol
# GULP energy per Si atom -5571.144971 kJ/mol
# Density = 2.421886 g / cm^3
# Si number density = 24.274109 Si / 1000 Ang^3
#
#
#
# Elastic Constant Matrix: (Units=GPa)
#
#
# Indices 1 2 3 4 5 6 
#
# 1 121.6178 5.3721 76.1689 0.0000 0.0000 0.0000
# 2 5.3721 48.7338 24.0099 0.0000 0.0000 0.0000
# 3 76.1689 24.0099 197.1219 0.0000 0.0000 0.0000
# 4 0.0000 0.0000 0.0000 26.6331 0.0000 0.0000
# 5 0.0000 0.0000 0.0000 0.0000 13.8481 0.0000
# 6 0.0000 0.0000 0.0000 0.0000 0.0000 15.1215
#
#
#
# Elastic Compliance Matrix: (Units=1/GPa)
#
#
# Indices 1 2 3 4 5 6 
#
# 1 0.010887 0.000928 -0.004320 0.000000 0.000000 0.000000
# 2 0.000928 0.021909 -0.003027 0.000000 0.000000 0.000000
# 3 -0.004320 -0.003027 0.007111 0.000000 0.000000 0.000000
# 4 0.000000 0.000000 0.000000 0.037547 0.000000 0.000000
# 5 0.000000 0.000000 0.000000 0.000000 0.072212 0.000000
# 6 0.000000 0.000000 0.000000 0.000000 0.000000 0.066131
#
#
# Mechanical properties :
#
#
# Convention : Reuss Voigt Hill
#
# Bulk Modulus (GPa) = 36.94270 64.28612 50.61441
# Shear Modulus (GPa) = 21.03865 28.58204 24.81034
#
# Velocity S-wave (km/s) = 2.94719 3.43515 3.20048
# Velocity P-wave (km/s) = 5.18008 6.50189 5.87826
#
# Compressibility (1/GPa) = 0.02706895
#
# Stress axis : x y z
#
# Youngs Moduli (GPa) = 91.85275 45.64389 140.62858
#
# Poissons Ratio (x) = -0.04237 0.60749
# Poissons Ratio (y) = -0.08525 0.42571
# Poissons Ratio (z) = 0.39679 0.13817
#
# Static dielectric constant tensor:
#      x y z
#    x 2.006290 0.000000 0.000000 
#    y 0.000000 2.019090 0.000000 
#    z 0.000000 0.000000 2.047180 
# 
# From -- ./inp_files/19637.got.cif
#   From: 2010.05.17/outbox.cif.g08.bks.cpg/sg49_10_cif.got.tgz:19637.got - 2010.06.03 21:02:19.
