data_PCOD9394278
_publ_section_title
;
Structure prediction by ZEFSAII (Michael W. Deem and Ramdas Pophale) SiO2 
 PCOD9394278
Probable space group: P C C M
;
_chemical_formula_sum "Si O2"
_cell_formula_units_Z 52
_cell_length_a 29.983871
_cell_length_b 11.553378
_cell_length_c 8.973866
_cell_angle_alpha 90.000000
_cell_angle_beta 90.000000
_cell_angle_gamma 90.000000
_cell_volume 3108.681751
_symmetry_space_group_name_H-M "P C C M"
_symmetry_group_IT_number 49
_symmetry_cell_setting 'orthorhombic'
loop_
_space_group_symop_operation_xyz
x,y,z
-x,-y,z
x,-y,1/2-z
-x,y,1/2-z
-x,-y,-z
x,y,-z
-x,y,1/2+z
x,-y,1/2+z
loop_
_atom_site_type_symbol
_atom_site_label
_atom_site_fract_x
_atom_site_fract_y
_atom_site_fract_z
Si Si1 0.393999 0.626209 0.319322
Si Si2 0.543648 0.827511 0.165931
Si Si3 0.679413 0.214333 0.171727
Si Si4 0.142253 0.128634 0.321151
Si Si5 0.956070 0.871391 0.321955
Si Si6 0.231807 0.128908 0.178999
Si Si7 0.619041 0.000000 0.250000
O O1 0.398203 0.500000 0.250000
O O2 0.392370 0.623670 0.500000
O O3 0.434903 0.709684 0.271648
O O4 0.350541 0.690286 0.254036
O O5 0.500000 0.868095 0.250000
O O6 0.584100 0.919184 0.162230
O O7 0.528712 0.803075 0.000000
O O8 0.724935 0.194717 0.261139
O O9 0.651371 0.093430 0.173326
O O10 0.687796 0.245290 0.000000
O O11 0.148704 0.120582 0.500000
O O12 0.093065 0.181496 0.293722
O O13 0.185659 0.181894 0.242883
O O14 0.140197 0.000000 0.250000
O O15 0.961594 0.881380 0.500000
O O16 0.000000 0.814537 0.250000
O O17 0.954334 0.000000 0.250000
O O18 0.234957 0.000000 0.250000
O O19 0.231026 0.121700 0.000000
#
# Coordination Sequence:
#
# PCOD9394278 Si02
#       7
#     8   8   8   8   8   8   4
#     4  10  22  40  58  77 100 125 161 199 237 282
#     4  10  22  37  54  78 104 131 160 193 231 278
#     4  11  21  34  54  75  99 129 160 196 242 287
#     4   9  16  25  35  50  74 106 144 186 233 280
#     4   9  15  21  31  45  64  94 136 185 231 275
#     4  11  20  29  43  64  91 121 154 192 236 285
#     4  10  21  34  54  76 104 132 163 192 232 282
#
# _framework density 16.727347000000002
#
# number of rings (size 3 to 8) (size 9 to 14) (size 15 to 20)
#    0.000    2.000    0.769    5.308    0.000    7.692 
#    0.000    1.538    0.000    0.000    0.000    0.000 
#    0.000    0.000    0.000    0.000    0.000    0.769 
#
# Total GULP energy -289585.840429 kJ/mol
# GULP energy per Si atom -5568.958470 kJ/mol
# Density = 1.668928 g / cm^3
# Si number density = 16.727347 Si / 1000 Ang^3
#
#
#
# Elastic Constant Matrix: (Units=GPa)
#
#
# Indices 1 2 3 4 5 6 
#
# 1 149.3632 22.7213 58.1620 0.0000 0.0000 0.0000
# 2 22.7213 61.7993 17.4157 0.0000 0.0000 0.0000
# 3 58.1620 17.4157 110.0826 0.0000 0.0000 0.0000
# 4 0.0000 0.0000 0.0000 86.4074 0.0000 0.0000
# 5 0.0000 0.0000 0.0000 0.0000 18.1550 0.0000
# 6 0.0000 0.0000 0.0000 0.0000 0.0000 8.2794
#
#
#
# Elastic Compliance Matrix: (Units=1/GPa)
#
#
# Indices 1 2 3 4 5 6 
#
# 1 0.008655 -0.001982 -0.004259 0.000000 0.000000 0.000000
# 2 -0.001982 0.017390 -0.001704 0.000000 0.000000 0.000000
# 3 -0.004259 -0.001704 0.011604 0.000000 0.000000 0.000000
# 4 0.000000 0.000000 0.000000 0.011573 0.000000 0.000000
# 5 0.000000 0.000000 0.000000 0.000000 0.055081 0.000000
# 6 0.000000 0.000000 0.000000 0.000000 0.000000 0.120782
#
#
# Mechanical properties :
#
#
# Convention : Reuss Voigt Hill
#
# Bulk Modulus (GPa) = 45.95832 57.53812 51.74822
# Shear Modulus (GPa) = 20.14261 37.43142 28.78701
#
# Velocity S-wave (km/s) = 3.47388 4.73561 4.15294
# Velocity P-wave (km/s) = 6.60493 8.02332 7.34842
#
# Compressibility (1/GPa) = 0.02175884
#
# Stress axis : x y z
#
# Youngs Moduli (GPa) = 115.53768 57.50329 86.17600
#
# Poissons Ratio (x) = 0.11396 0.36706
# Poissons Ratio (y) = 0.22898 0.14686
# Poissons Ratio (z) = 0.49212 0.09799
#
# Static dielectric constant tensor:
#      x y z
#    x 1.636060 0.000000 0.000000 
#    y 0.000000 1.537480 0.000000 
#    z 0.000000 0.000000 1.577670 
# 
# From -- ./inp_files/6959.got.cif
#   From: 2010.05.17/outbox.cif.g08.bks.cpg/sg49_4_cif.got.tgz:6959.got - 2010.06.03 21:02:19.
