data_PCOD9394792
_publ_section_title
;
Structure prediction by ZEFSAII (Michael W. Deem and Ramdas Pophale) SiO2 
 PCOD9394792
Probable space group: P C C M
;
_chemical_formula_sum "Si O2"
_cell_formula_units_Z 42
_cell_length_a 13.761230
_cell_length_b 7.449732
_cell_length_c 23.357941
_cell_angle_alpha 90.000000
_cell_angle_beta 90.000000
_cell_angle_gamma 90.000000
_cell_volume 2394.597144
_symmetry_space_group_name_H-M "P C C M"
_symmetry_group_IT_number 49
_symmetry_cell_setting 'orthorhombic'
loop_
_space_group_symop_operation_xyz
x,y,z
-x,-y,z
x,-y,1/2-z
-x,y,1/2-z
-x,-y,-z
x,y,-z
-x,y,1/2+z
x,-y,1/2+z
loop_
_atom_site_type_symbol
_atom_site_label
_atom_site_fract_x
_atom_site_fract_y
_atom_site_fract_z
Si Si1 0.874124 0.804337 0.000000
Si Si2 0.994494 0.718562 0.185035
Si Si3 0.204852 0.723943 0.375310
Si Si4 0.500000 0.000000 0.750000
Si Si5 0.688606 0.972978 0.686634
Si Si6 0.899182 0.766224 0.500000
Si Si7 0.812703 0.692172 0.621426
O O1 0.815598 0.753145 0.942649
O O2 0.984639 0.723130 0.000000
O O3 0.889266 0.018481 0.000000
O O4 0.090261 0.769082 0.151197
O O5 0.000000 0.500000 0.184139
O O6 0.000000 0.778025 0.250000
O O7 0.896319 0.780127 0.155053
O O8 0.290723 0.842274 0.347789
O O9 0.213257 0.512190 0.362938
O O10 0.579394 0.918383 0.706036
O O11 0.737263 0.000000 0.750000
O O12 0.730585 0.821637 0.645416
O O13 0.842850 0.695086 0.555322
#
# Coordination Sequence:
#
# PCOD9394792 Si02
#       7
#     4   8   8   2   8   4   8
#     4  11  21  35  55  86 130 177 209 232 276 337
#     4   9  18  30  47  80 123 162 192 229 278 331
#     4  11  21  35  58  86 123 165 201 237 283 348
#     4   8  24  48  66  84 116 146 188 260 340 362
#     4  10  22  42  62  86 114 146 196 249 314 367
#     4  11  21  35  55  86 130 177 209 232 276 337
#     4  11  21  35  58  86 123 165 201 237 283 348
#
# _framework density 17.539486
#
# number of rings (size 3 to 8) (size 9 to 14) (size 15 to 20)
#    0.571    1.143    3.810    1.714    0.000    3.810 
#    0.000    3.810    0.000    2.286    0.000    2.667 
#    0.000    0.000    0.000    0.000    0.000    0.000 
#
# Total GULP energy -233835.591625 kJ/mol
# GULP energy per Si atom -5567.514086 kJ/mol
# Density = 1.749957 g / cm^3
# Si number density = 17.539486 Si / 1000 Ang^3
#
#
#
# Elastic Constant Matrix: (Units=GPa)
#
#
# Indices 1 2 3 4 5 6 
#
# 1 70.2433 14.2117 30.9373 0.0000 0.0000 0.0000
# 2 14.2117 85.6275 5.4366 0.0000 0.0000 0.0000
# 3 30.9373 5.4366 127.0404 0.0000 0.0000 0.0000
# 4 0.0000 0.0000 0.0000 16.5565 0.0000 0.0000
# 5 0.0000 0.0000 0.0000 0.0000 36.8951 0.0000
# 6 0.0000 0.0000 0.0000 0.0000 0.0000 7.0782
#
#
#
# Elastic Compliance Matrix: (Units=1/GPa)
#
#
# Indices 1 2 3 4 5 6 
#
# 1 0.016457 -0.002484 -0.003901 0.000000 0.000000 0.000000
# 2 -0.002484 0.012085 0.000088 0.000000 0.000000 0.000000
# 3 -0.003901 0.000088 0.008818 0.000000 0.000000 0.000000
# 4 0.000000 0.000000 0.000000 0.060399 0.000000 0.000000
# 5 0.000000 0.000000 0.000000 0.000000 0.027104 0.000000
# 6 0.000000 0.000000 0.000000 0.000000 0.000000 0.141279
#
#
# Mechanical properties :
#
#
# Convention : Reuss Voigt Hill
#
# Bulk Modulus (GPa) = 40.37925 42.67581 41.52753
# Shear Modulus (GPa) = 17.42210 27.59432 22.50821
#
# Velocity S-wave (km/s) = 3.15510 3.97075 3.58619
# Velocity P-wave (km/s) = 6.02866 6.73844 6.39341
#
# Compressibility (1/GPa) = 0.02476520
#
# Stress axis : x y z
#
# Youngs Moduli (GPa) = 60.76430 82.74616 113.40647
#
# Poissons Ratio (x) = 0.20552 0.44244
# Poissons Ratio (y) = 0.15092 -0.00994
# Poissons Ratio (z) = 0.23706 -0.00725
#
# Static dielectric constant tensor:
#      x y z
#    x 1.590760 0.000000 0.000000 
#    y 0.000000 1.641860 0.000000 
#    z 0.000000 0.000000 1.581020 
# 
# From -- ./inp_files/22825.got.cif
#   From: 2010.05.17/outbox.cif.g08.bks.cpg/sg49_12_cif.got.tgz:22825.got - 2010.06.03 21:02:19.
