data_PCOD9394091
_publ_section_title
;
Structure prediction by ZEFSAII (Michael W. Deem and Ramdas Pophale) SiO2 
 PCOD9394091
Probable space group: P C C M
;
_chemical_formula_sum "Si O2"
_cell_formula_units_Z 64
_cell_length_a 11.913389
_cell_length_b 15.189726
_cell_length_c 17.497183
_cell_angle_alpha 90.000000
_cell_angle_beta 90.000000
_cell_angle_gamma 90.000000
_cell_volume 3166.309739
_symmetry_space_group_name_H-M "P C C M"
_symmetry_group_IT_number 49
_symmetry_cell_setting 'orthorhombic'
loop_
_space_group_symop_operation_xyz
x,y,z
-x,-y,z
x,-y,1/2-z
-x,y,1/2-z
-x,-y,-z
x,y,-z
-x,y,1/2+z
x,-y,1/2+z
loop_
_atom_site_type_symbol
_atom_site_label
_atom_site_fract_x
_atom_site_fract_y
_atom_site_fract_z
Si Si1 0.812249 0.331169 0.908363
Si Si2 0.870542 0.994315 0.907143
Si Si3 0.759197 0.807996 0.091863
Si Si4 0.070600 0.648379 0.408444
Si Si5 0.557646 0.595159 0.910411
Si Si6 0.228597 0.515531 0.660752
Si Si7 0.513997 0.776156 0.159404
Si Si8 0.299633 0.851080 0.907327
O O1 0.758939 0.421053 0.878768
O O2 0.754817 0.241588 0.882199
O O3 0.943281 0.330528 0.886895
O O4 0.805239 0.332421 0.000000
O O5 0.784352 0.071044 0.882367
O O6 0.817736 0.900112 0.888284
O O7 0.875295 0.000699 0.000000
O O8 0.000000 0.000000 0.880149
O O9 0.846937 0.729822 0.108600
O O10 0.640950 0.797766 0.134178
O O11 0.738537 0.806580 0.000000
O O12 0.074685 0.633033 0.500000
O O13 0.115230 0.562156 0.366484
O O14 0.500000 0.500000 0.903341
O O15 0.674064 0.581160 0.866762
O O16 0.493098 0.678506 0.875971
O O17 0.577736 0.612323 0.000000
O O18 0.232366 0.500000 0.750000
O O19 0.500000 0.772605 0.250000
O O20 0.425324 0.846043 0.125305
O O21 0.305777 0.853517 0.000000
#
# Coordination Sequence:
#
# PCOD9394091 Si02
#       8
#     8   8   8   8   8   8   8   8
#     4  10  21  37  59  86 120 163 208 256 311 372
#     4   9  18  36  67 103 128 153 202 261 309 363
#     4  10  20  38  65  93 124 161 206 257 313 370
#     4  10  20  37  60  86 120 162 208 257 310 376
#     4  11  24  41  63  86 116 161 212 261 310 369
#     4  12  25  36  56  86 122 160 206 257 312 368
#     4  12  26  40  61  87 124 165 209 259 308 369
#     4  10  21  39  63  92 125 159 204 257 312 369
#
# _framework density 20.212804999999999
#
# number of rings (size 3 to 8) (size 9 to 14) (size 15 to 20)
#    0.000    1.500    1.250    4.125    3.500    7.500 
#    0.000    3.125    0.000    3.000    0.000    0.000 
#    0.000    0.000    0.000    0.000    0.000    0.000 
#
# Total GULP energy -357722.147937 kJ/mol
# GULP energy per Si atom -5589.408562 kJ/mol
# Density = 2.016680 g / cm^3
# Si number density = 20.212805 Si / 1000 Ang^3
#
#
#
# Elastic Constant Matrix: (Units=GPa)
#
#
# Indices 1 2 3 4 5 6 
#
# 1 106.9441 38.1265 29.3997 0.0000 0.0000 0.0000
# 2 38.1265 116.3632 18.4860 0.0000 0.0000 0.0000
# 3 29.3997 18.4860 27.8592 0.0000 0.0000 0.0000
# 4 0.0000 0.0000 0.0000 0.7647 0.0000 0.0000
# 5 0.0000 0.0000 0.0000 0.0000 -75.3634 0.0000
# 6 0.0000 0.0000 0.0000 0.0000 0.0000 39.9727
#
#
#
# Elastic Compliance Matrix: (Units=1/GPa)
#
#
# Indices 1 2 3 4 5 6 
#
# 1 0.013776 -0.002464 -0.012903 0.000000 0.000000 0.000000
# 2 -0.002464 0.010047 -0.004067 0.000000 0.000000 0.000000
# 3 -0.012903 -0.004067 0.052210 0.000000 0.000000 0.000000
# 4 0.000000 0.000000 0.000000 1.307734 0.000000 0.000000
# 5 0.000000 0.000000 0.000000 0.000000 -0.013269 0.000000
# 6 0.000000 0.000000 0.000000 0.000000 0.000000 0.025017
#
#
# Mechanical properties :
#
#
# Convention : Reuss Voigt Hill
#
# Bulk Modulus (GPa) = 26.90641 47.02121 36.96381
# Shear Modulus (GPa) = 3.45597 4.08508 3.77053
#
# Velocity S-wave (km/s) = 1.30901 1.42317 1.36728
# Velocity P-wave (km/s) = 3.95286 5.10041 4.56285
#
# Compressibility (1/GPa) = 0.03716586
#
# Stress axis : x y z
#
# Youngs Moduli (GPa) = 72.58864 99.53085 19.15355
#
# Poissons Ratio (x) = 0.24524 0.24714
# Poissons Ratio (y) = 0.17886 0.07789
# Poissons Ratio (z) = 0.93662 0.40475
#
# Static dielectric constant tensor:
#      x y z
#    x 1.727150 0.000000 0.000000 
#    y 0.000000 1.717970 0.000000 
#    z 0.000000 0.000000 1.686470 
# 
# From -- ./inp_files/17347.got.cif
#   From: 2010.05.17/outbox.cif.g08.bks.cpg/sg49_9_cif.got.tgz:17347.got - 2010.06.03 21:02:19.
