data_PCOD9394185
_publ_section_title
;
Structure prediction by ZEFSAII (Michael W. Deem and Ramdas Pophale) SiO2 
 PCOD9394185
Probable space group: P C C M
;
_chemical_formula_sum "Si O2"
_cell_formula_units_Z 58
_cell_length_a 10.421732
_cell_length_b 16.377686
_cell_length_c 17.108894
_cell_angle_alpha 90.000000
_cell_angle_beta 90.000000
_cell_angle_gamma 90.000000
_cell_volume 2920.211970
_symmetry_space_group_name_H-M "P C C M"
_symmetry_group_IT_number 49
_symmetry_cell_setting 'orthorhombic'
loop_
_space_group_symop_operation_xyz
x,y,z
-x,-y,z
x,-y,1/2-z
-x,y,1/2-z
-x,-y,-z
x,y,-z
-x,y,1/2+z
x,-y,1/2+z
loop_
_atom_site_type_symbol
_atom_site_label
_atom_site_fract_x
_atom_site_fract_y
_atom_site_fract_z
Si Si1 0.770195 0.686345 0.592220
Si Si2 0.706445 0.118765 0.673076
Si Si3 0.500000 0.000000 0.250000
Si Si4 0.934444 0.913977 0.082075
Si Si5 0.734297 0.300323 0.595305
Si Si6 0.887674 0.183778 0.801362
Si Si7 0.016503 0.596439 0.344358
Si Si8 0.485421 0.591549 0.094508
O O1 0.758850 0.706544 0.500000
O O2 0.790239 0.762675 0.648850
O O3 0.646299 0.634924 0.617943
O O4 0.899212 0.636902 0.609185
O O5 0.789985 0.072382 0.608806
O O6 0.707227 0.212302 0.637668
O O7 0.800182 0.126805 0.747776
O O8 0.586173 0.063491 0.698295
O O9 0.021071 0.864357 0.140741
O O10 0.935098 0.868445 0.000000
O O11 0.000000 0.000000 0.076056
O O12 0.745661 0.291127 0.500000
O O13 0.856120 0.352696 0.628284
O O14 0.608866 0.354459 0.612797
O O15 0.000000 0.227758 0.750000
O O16 0.000000 0.500000 0.363856
O O17 0.000000 0.600224 0.250000
O O18 0.500000 0.500000 0.125805
O O19 0.479204 0.586193 0.000000
#
# Coordination Sequence:
#
# PCOD9394185 Si02
#       8
#     8   8   2   8   8   8   8   8
#     4  11  21  35  60  90 118 158 214 267 312 374
#     4  11  24  42  63  91 127 169 219 269 328 405
#     4  12  28  44  64  88 122 184 224 284 336 404
#     4  10  20  38  64  92 120 153 196 260 332 391
#     4  11  23  42  67  94 131 177 218 272 337 396
#     4  10  21  37  61  89 122 155 196 260 321 394
#     4  11  23  39  60  94 137 177 220 270 326 393
#     4   9  20  38  59  87 123 163 209 258 312 376
#
# _framework density 19.861573
#
# number of rings (size 3 to 8) (size 9 to 14) (size 15 to 20)
#    0.000    1.517    0.000    5.793    1.931    4.138 
#    0.000    1.379    0.000    3.310    0.000    0.000 
#    0.000    0.000    0.000    0.000    0.000    0.000 
#
# Total GULP energy -323134.635463 kJ/mol
# GULP energy per Si atom -5571.286818 kJ/mol
# Density = 1.981637 g / cm^3
# Si number density = 19.861573 Si / 1000 Ang^3
#
#
#
# Elastic Constant Matrix: (Units=GPa)
#
#
# Indices 1 2 3 4 5 6 
#
# 1 161.5483 71.5916 40.3187 0.0000 0.0000 0.0000
# 2 71.5916 105.1107 37.6246 0.0000 0.0000 0.0000
# 3 40.3187 37.6246 89.0620 0.0000 0.0000 0.0000
# 4 0.0000 0.0000 0.0000 677.5188 0.0000 0.0000
# 5 0.0000 0.0000 0.0000 0.0000 35.0329 0.0000
# 6 0.0000 0.0000 0.0000 0.0000 0.0000 29.0930
#
#
#
# Elastic Compliance Matrix: (Units=1/GPa)
#
#
# Indices 1 2 3 4 5 6 
#
# 1 0.009097 -0.005563 -0.001768 0.000000 0.000000 0.000000
# 2 -0.005563 0.014611 -0.003654 0.000000 0.000000 0.000000
# 3 -0.001768 -0.003654 0.013572 0.000000 0.000000 0.000000
# 4 0.000000 0.000000 0.000000 0.001476 0.000000 0.000000
# 5 0.000000 0.000000 0.000000 0.000000 0.028545 0.000000
# 6 0.000000 0.000000 0.000000 0.000000 0.000000 0.034373
#
#
# Mechanical properties :
#
#
# Convention : Reuss Voigt Hill
#
# Bulk Modulus (GPa) = 65.31829 72.75454 69.03642
# Shear Modulus (GPa) = 38.83631 162.07467 100.45549
#
# Velocity S-wave (km/s) = 4.42673 9.04319 7.11952
# Velocity P-wave (km/s) = 7.68675 12.07267 10.12016
#
# Compressibility (1/GPa) = 0.01530965
#
# Stress axis : x y z
#
# Youngs Moduli (GPa) = 109.93128 68.44322 73.68027
#
# Poissons Ratio (x) = 0.38074 0.13027
# Poissons Ratio (y) = 0.61154 0.26923
# Poissons Ratio (z) = 0.19436 0.25009
#
# Static dielectric constant tensor:
#      x y z
#    x 1.651070 0.000000 0.000000 
#    y 0.000000 1.758410 0.000000 
#    z 0.000000 0.000000 2.024720 
# 
# From -- ./inp_files/16505.got.cif
#   From: 2010.05.17/outbox.cif.g08.bks.cpg/sg49_9_cif.got.tgz:16505.got - 2010.06.03 21:02:19.
