data_PCOD9394172
_publ_section_title
;
Structure prediction by ZEFSAII (Michael W. Deem and Ramdas Pophale) SiO2 
 PCOD9394172
Probable space group: P C C M
;
_chemical_formula_sum "Si O2"
_cell_formula_units_Z 48
_cell_length_a 18.782516
_cell_length_b 14.094596
_cell_length_c 9.158061
_cell_angle_alpha 90.000000
_cell_angle_beta 90.000000
_cell_angle_gamma 90.000000
_cell_volume 2424.431575
_symmetry_space_group_name_H-M "P C C M"
_symmetry_group_IT_number 49
_symmetry_cell_setting 'orthorhombic'
loop_
_space_group_symop_operation_xyz
x,y,z
-x,-y,z
x,-y,1/2-z
-x,y,1/2-z
-x,-y,-z
x,y,-z
-x,y,1/2+z
x,-y,1/2+z
loop_
_atom_site_type_symbol
_atom_site_label
_atom_site_fract_x
_atom_site_fract_y
_atom_site_fract_z
Si Si1 0.787710 0.098881 0.172845
Si Si2 0.894957 0.584596 0.000000
Si Si3 0.301624 0.403527 0.333402
Si Si4 0.572282 0.292057 0.675785
Si Si5 0.061259 0.367184 0.500000
Si Si6 0.160628 0.702257 0.765547
Si Si7 0.384509 0.098667 0.327906
O O1 0.823160 0.187237 0.256782
O O2 0.701667 0.107581 0.179234
O O3 0.806618 0.000000 0.250000
O O4 0.806928 0.101763 0.000000
O O5 0.900029 0.470738 0.000000
O O6 0.854655 0.631498 0.865987
O O7 0.977496 0.616738 0.000000
O O8 0.283451 0.500000 0.250000
O O9 0.325595 0.420927 0.500000
O O10 0.362035 0.351822 0.239170
O O11 0.232093 0.337591 0.339238
O O12 0.500000 0.329100 0.750000
O O13 0.569468 0.293512 0.500000
O O14 0.583530 0.185869 0.738006
O O15 0.090928 0.310369 0.636634
O O16 0.404567 0.101239 0.500000
O O17 0.404036 0.000000 0.250000
#
# Coordination Sequence:
#
# PCOD9394172 Si02
#       7
#     8   4   8   8   4   8   8
#     4  10  21  38  63  94 129 168 216 273 329 385
#     4  11  26  38  67 101 136 178 224 263 327 405
#     4  12  25  43  67  96 130 169 219 271 325 389
#     4  12  26  44  66  93 130 173 217 270 332 392
#     4  11  22  46  63  97 140 180 216 269 331 393
#     4  12  23  40  68  98 135 174 220 276 330 387
#     4  10  20  38  62  93 129 168 215 271 332 392
#
# _framework density 19.798454
#
# number of rings (size 3 to 8) (size 9 to 14) (size 15 to 20)
#    0.000    0.833    3.333    4.500    3.500    2.667 
#    0.000    3.333    0.000    3.000    0.000    0.000 
#    0.000    0.000    0.000    0.000    0.000    0.000 
#
# Total GULP energy -268255.261385 kJ/mol
# GULP energy per Si atom -5588.651279 kJ/mol
# Density = 1.975339 g / cm^3
# Si number density = 19.798454 Si / 1000 Ang^3
#
#
#
# Elastic Constant Matrix: (Units=GPa)
#
#
# Indices 1 2 3 4 5 6 
#
# 1 69.9949 31.3560 23.0069 0.0000 0.0000 0.0000
# 2 31.3560 111.4031 20.3020 0.0000 0.0000 0.0000
# 3 23.0069 20.3020 128.6029 0.0000 0.0000 0.0000
# 4 0.0000 0.0000 0.0000 29.6723 0.0000 0.0000
# 5 0.0000 0.0000 0.0000 0.0000 31.9760 0.0000
# 6 0.0000 0.0000 0.0000 0.0000 0.0000 19.5144
#
#
#
# Elastic Compliance Matrix: (Units=1/GPa)
#
#
# Indices 1 2 3 4 5 6 
#
# 1 0.017014 -0.004360 -0.002356 0.000000 0.000000 0.000000
# 2 -0.004360 0.010359 -0.000855 0.000000 0.000000 0.000000
# 3 -0.002356 -0.000855 0.008332 0.000000 0.000000 0.000000
# 4 0.000000 0.000000 0.000000 0.033701 0.000000 0.000000
# 5 0.000000 0.000000 0.000000 0.000000 0.031273 0.000000
# 6 0.000000 0.000000 0.000000 0.000000 0.000000 0.051244
#
#
# Mechanical properties :
#
#
# Convention : Reuss Voigt Hill
#
# Bulk Modulus (GPa) = 48.62741 51.03672 49.83207
# Shear Modulus (GPa) = 28.74870 31.92160 30.33515
#
# Velocity S-wave (km/s) = 3.81474 4.01974 3.91858
# Velocity P-wave (km/s) = 6.63457 6.88320 6.76003
#
# Compressibility (1/GPa) = 0.02056453
#
# Stress axis : x y z
#
# Youngs Moduli (GPa) = 58.77513 96.53093 120.01441
#
# Poissons Ratio (x) = 0.42083 0.28270
# Poissons Ratio (y) = 0.25623 0.10267
# Poissons Ratio (z) = 0.13845 0.08258
#
# Static dielectric constant tensor:
#      x y z
#    x 1.680160 0.000000 0.000000 
#    y 0.000000 1.679250 0.000000 
#    z 0.000000 0.000000 1.718690 
# 
# From -- ./inp_files/3749.got.cif
#   From: 2010.05.17/outbox.cif.g08.bks.cpg/sg49_2_cif.got.tgz:3749.got - 2010.06.03 21:02:19.
