data_PCOD9394767
_publ_section_title
;
Structure prediction by ZEFSAII (Michael W. Deem and Ramdas Pophale) SiO2 
 PCOD9394767
Probable space group: P C C M
;
_chemical_formula_sum "Si O2"
_cell_formula_units_Z 38
_cell_length_a 5.181995
_cell_length_b 27.833452
_cell_length_c 13.044280
_cell_angle_alpha 90.000000
_cell_angle_beta 90.000000
_cell_angle_gamma 90.000000
_cell_volume 1881.413147
_symmetry_space_group_name_H-M "P C C M"
_symmetry_group_IT_number 49
_symmetry_cell_setting 'orthorhombic'
loop_
_space_group_symop_operation_xyz
x,y,z
-x,-y,z
x,-y,1/2-z
-x,y,1/2-z
-x,-y,-z
x,y,-z
-x,y,1/2+z
x,-y,1/2+z
loop_
_atom_site_type_symbol
_atom_site_label
_atom_site_fract_x
_atom_site_fract_y
_atom_site_fract_z
Si Si1 0.305197 0.690968 0.000000
Si Si2 0.748448 0.060494 0.321992
Si Si3 0.252294 0.168967 0.820428
Si Si4 0.249203 0.533465 0.000000
Si Si5 0.749453 0.387295 0.822615
Si Si6 0.000000 0.000000 0.500000
Si Si7 0.805828 0.244828 0.500000
O O1 0.266016 0.658196 0.899182
O O2 0.589091 0.713898 0.000000
O O3 0.088181 0.731922 0.000000
O O4 0.500000 0.052485 0.250000
O O5 0.723795 0.114972 0.365430
O O6 0.000000 0.060930 0.250000
O O7 0.809816 0.023125 0.410632
O O8 0.500000 0.176836 0.750000
O O9 0.231913 0.210348 0.903278
O O10 0.000000 0.169960 0.750000
O O11 0.500000 0.500000 0.000000
O O12 0.245901 0.567241 0.899436
O O13 0.000000 0.500000 0.000000
O O14 0.500000 0.388914 0.750000
O O15 0.000000 0.385734 0.750000
#
# Coordination Sequence:
#
# PCOD9394767 Si02
#       7
#     4   8   8   4   8   2   4
#     4  11  26  40  60  95 128 159 212 266 298 374
#     4  10  24  43  63  94 129 163 213 264 315 389
#     4  10  22  41  63  90 125 161 203 260 315 372
#     4  11  24  41  64  98 127 156 216 274 307 367
#     4  11  24  43  64  88 128 174 207 252 322 376
#     4  12  24  42  72  92 126 178 208 258 332 380
#     4  12  23  39  64  94 122 161 213 257 315 374
#
# _framework density 20.197583999999999
#
# number of rings (size 3 to 8) (size 9 to 14) (size 15 to 20)
#    0.000    1.263    0.000    4.737    0.000   14.316 
#    0.000    6.316    0.000    0.000    0.000    0.000 
#    0.000    0.000    0.000    0.000    0.000    0.000 
#
# Total GULP energy -212051.789407 kJ/mol
# GULP energy per Si atom -5580.310248 kJ/mol
# Density = 2.015161 g / cm^3
# Si number density = 20.197584 Si / 1000 Ang^3
#
#
#
# Elastic Constant Matrix: (Units=GPa)
#
#
# Indices 1 2 3 4 5 6 
#
# 1 141.7903 14.5532 58.4318 0.0000 0.0000 0.0000
# 2 14.5532 86.3769 52.3244 0.0000 0.0000 0.0000
# 3 58.4318 52.3244 144.1055 0.0000 0.0000 0.0000
# 4 0.0000 0.0000 0.0000 25.0130 0.0000 0.0000
# 5 0.0000 0.0000 0.0000 0.0000 27.5967 0.0000
# 6 0.0000 0.0000 0.0000 0.0000 0.0000 38.8403
#
#
#
# Elastic Compliance Matrix: (Units=1/GPa)
#
#
# Indices 1 2 3 4 5 6 
#
# 1 0.008515 0.000842 -0.003758 0.000000 0.000000 0.000000
# 2 0.000842 0.014925 -0.005761 0.000000 0.000000 0.000000
# 3 -0.003758 -0.005761 0.010555 0.000000 0.000000 0.000000
# 4 0.000000 0.000000 0.000000 0.039979 0.000000 0.000000
# 5 0.000000 0.000000 0.000000 0.000000 0.036236 0.000000
# 6 0.000000 0.000000 0.000000 0.000000 0.000000 0.025746
#
#
# Mechanical properties :
#
#
# Convention : Reuss Voigt Hill
#
# Bulk Modulus (GPa) = 60.09260 69.21016 64.65138
# Shear Modulus (GPa) = 31.47467 34.75423 33.11445
#
# Velocity S-wave (km/s) = 3.95186 4.15265 4.05350
# Velocity P-wave (km/s) = 7.11617 7.57189 7.34757
#
# Compressibility (1/GPa) = 0.01664098
#
# Stress axis : x y z
#
# Youngs Moduli (GPa) = 117.43847 67.00212 94.74173
#
# Poissons Ratio (x) = -0.05642 0.35608
# Poissons Ratio (y) = -0.09889 0.54577
# Poissons Ratio (z) = 0.44139 0.38598
#
# Static dielectric constant tensor:
#      x y z
#    x 1.671890 0.000000 0.000000 
#    y 0.000000 1.740250 0.000000 
#    z 0.000000 0.000000 1.664200 
# 
# From -- ./inp_files/7558.got.cif
#   From: 2010.05.17/outbox.cif.g08.bks.cpg/sg49_4_cif.got.tgz:7558.got - 2010.06.03 21:02:19.
