data_PCOD9394584
_publ_section_title
;
Structure prediction by ZEFSAII (Michael W. Deem and Ramdas Pophale) SiO2 
 PCOD9394584
Probable space group: P C C M
;
_chemical_formula_sum "Si O2"
_cell_formula_units_Z 48
_cell_length_a 7.818503
_cell_length_b 19.301113
_cell_length_c 16.130490
_cell_angle_alpha 90.000000
_cell_angle_beta 90.000000
_cell_angle_gamma 90.000000
_cell_volume 2434.184657
_symmetry_space_group_name_H-M "P C C M"
_symmetry_group_IT_number 49
_symmetry_cell_setting 'orthorhombic'
loop_
_space_group_symop_operation_xyz
x,y,z
-x,-y,z
x,-y,1/2-z
-x,y,1/2-z
-x,-y,-z
x,y,-z
-x,y,1/2+z
x,-y,1/2+z
loop_
_atom_site_type_symbol
_atom_site_label
_atom_site_fract_x
_atom_site_fract_y
_atom_site_fract_z
Si Si1 0.198477 0.820023 0.098867
Si Si2 0.297244 0.577705 0.500000
Si Si3 0.794539 0.330988 0.658871
Si Si4 0.297244 0.577705 0.000000
Si Si5 0.500000 0.079563 0.849508
Si Si6 0.794539 0.330988 0.158871
Si Si7 0.198477 0.820023 0.598867
O O1 0.330930 0.880139 0.120583
O O2 0.258092 0.748143 0.140393
O O3 0.000000 0.834306 0.123391
O O4 0.199372 0.808911 0.000000
O O5 0.250894 0.619859 0.582645
O O6 0.222514 0.500000 0.500000
O O7 0.500000 0.572066 0.500000
O O8 0.731366 0.353007 0.750000
O O9 0.741908 0.251857 0.640393
O O10 0.000000 0.329364 0.661277
O O11 0.250894 0.619859 0.082645
O O12 0.500000 0.080258 0.750000
O O13 0.330930 0.119861 0.879417
O O14 0.500000 0.000000 0.878302
O O15 0.199372 0.808911 0.500000
#
# Coordination Sequence:
#
# PCOD9394584 Si02
#       7
#     8   4   8   4   8   8   8
#     4  10  21  39  64  92 122 159 209 263 309 364
#     4  11  25  41  59  89 127 164 201 248 310 372
#     4  10  21  39  64  91 119 158 208 257 306 361
#     4  11  25  41  59  89 127 164 201 248 310 372
#     4  11  25  41  59  89 127 168 209 251 311 377
#     4  10  21  39  64  91 119 158 208 257 306 361
#     4  10  21  39  64  92 122 159 209 263 309 364
#
# _framework density 19.719128999999999
#
# number of rings (size 3 to 8) (size 9 to 14) (size 15 to 20)
#    0.000    1.667    1.667    2.000    2.333    6.667 
#    0.000    6.667    0.000    0.000    0.000    0.000 
#    0.000    0.000    0.000    0.000    0.000    0.000 
#
# Total GULP energy -268119.100452 kJ/mol
# GULP energy per Si atom -5585.814593 kJ/mol
# Density = 1.967425 g / cm^3
# Si number density = 19.719129 Si / 1000 Ang^3
#
#
#
# Elastic Constant Matrix: (Units=GPa)
#
#
# Indices 1 2 3 4 5 6 
#
# 1 71.4450 55.4545 32.5549 0.0000 0.0000 0.0000
# 2 55.4545 166.3789 78.2241 0.0000 0.0000 0.0000
# 3 32.5549 78.2241 145.5885 0.0000 0.0000 0.0000
# 4 0.0000 0.0000 0.0000 -43.1964 0.0000 0.0000
# 5 0.0000 0.0000 0.0000 0.0000 17.6422 0.0000
# 6 0.0000 0.0000 0.0000 0.0000 0.0000 41.1095
#
#
#
# Elastic Compliance Matrix: (Units=1/GPa)
#
#
# Indices 1 2 3 4 5 6 
#
# 1 0.019020 -0.005807 -0.001133 0.000000 0.000000 0.000000
# 2 -0.005807 0.009815 -0.003975 0.000000 0.000000 0.000000
# 3 -0.001133 -0.003975 0.009258 0.000000 0.000000 0.000000
# 4 0.000000 0.000000 0.000000 -0.023150 0.000000 0.000000
# 5 0.000000 0.000000 0.000000 0.000000 0.056682 0.000000
# 6 0.000000 0.000000 0.000000 0.000000 0.000000 0.024325
#
#
# Mechanical properties :
#
#
# Convention : Reuss Voigt Hill
#
# Bulk Modulus (GPa) = 61.48933 79.54218 70.51576
# Shear Modulus (GPa) = 40.58418 17.58964 29.08691
#
# Velocity S-wave (km/s) = 4.54156 2.98989 3.84482
# Velocity P-wave (km/s) = 7.66494 7.23494 7.45305
#
# Compressibility (1/GPa) = 0.01626298
#
# Stress axis : x y z
#
# Youngs Moduli (GPa) = 52.57564 101.88895 108.01738
#
# Poissons Ratio (x) = 0.59164 0.12240
# Poissons Ratio (y) = 0.30529 0.42936
# Poissons Ratio (z) = 0.05958 0.40500
#
# Static dielectric constant tensor:
#      x y z
#    x 1.692180 0.000000 0.000000 
#    y 0.000000 1.682010 0.000000 
#    z 0.000000 0.000000 1.740630 
# 
# From -- ./inp_files/11879.got.cif
#   From: 2010.05.17/outbox.cif.g08.bks.cpg/sg49_6_cif.got.tgz:11879.got - 2010.06.03 21:02:19.
