data_PCOD9394907
_publ_section_title
;
Structure prediction by ZEFSAII (Michael W. Deem and Ramdas Pophale) SiO2 
 PCOD9394907
Probable space group: P C C M
;
_chemical_formula_sum "Si O2"
_cell_formula_units_Z 24
_cell_length_a 15.674824
_cell_length_b 7.215349
_cell_length_c 9.749670
_cell_angle_alpha 90.000000
_cell_angle_beta 90.000000
_cell_angle_gamma 90.000000
_cell_volume 1102.681103
_symmetry_space_group_name_H-M "P C C M"
_symmetry_group_IT_number 49
_symmetry_cell_setting 'orthorhombic'
loop_
_space_group_symop_operation_xyz
x,y,z
-x,-y,z
x,-y,1/2-z
-x,y,1/2-z
-x,-y,-z
x,y,-z
-x,y,1/2+z
x,-y,1/2+z
loop_
_atom_site_type_symbol
_atom_site_label
_atom_site_fract_x
_atom_site_fract_y
_atom_site_fract_z
Si Si1 0.222951 0.171762 0.500000
Si Si2 0.500000 0.500000 0.750000
Si Si3 0.870054 0.293310 0.272680
Si Si4 0.000000 0.000000 0.750000
Si Si5 0.612393 0.427229 0.000000
Si Si6 0.732284 0.252194 0.500000
O O1 0.164480 0.207539 0.368346
O O2 0.300551 0.315036 0.500000
O O3 0.265257 0.969338 0.500000
O O4 0.559837 0.607542 0.640162
O O5 0.904118 0.500000 0.250000
O O6 0.788499 0.312206 0.370071
O O7 0.939046 0.146288 0.328518
O O8 0.642418 0.643233 0.000000
#
# Coordination Sequence:
#
# PCOD9394907 Si02
#       6
#     4   2   8   2   4   4
#     4  12  23  43  70  97 129 177 226 266 321 404
#     4  10  24  42  70 106 128 174 192 282 342 382
#     4  12  24  42  64  95 132 180 226 276 332 378
#     4  12  26  42  64  96 148 160 238 290 328 364
#     4  11  22  44  70  95 140 162 220 261 334 400
#     4  12  23  43  70  97 129 177 226 266 321 404
#
# _framework density 21.765131
#
# number of rings (size 3 to 8) (size 9 to 14) (size 15 to 20)
#    0.000    0.333    6.667    2.500    0.000    2.667 
#    0.000    8.333    0.000    0.000    0.000    0.000 
#    0.000    0.000    0.000    0.000    0.000    0.000 
#
# Total GULP energy -134074.455049 kJ/mol
# GULP energy per Si atom -5586.435627 kJ/mol
# Density = 2.171559 g / cm^3
# Si number density = 21.765131 Si / 1000 Ang^3
#
#
#
# Elastic Constant Matrix: (Units=GPa)
#
#
# Indices 1 2 3 4 5 6 
#
# 1 93.9551 36.7886 36.0896 0.0000 0.0000 0.0000
# 2 36.7886 168.7520 11.8205 0.0000 0.0000 0.0000
# 3 36.0896 11.8205 145.1017 0.0000 0.0000 0.0000
# 4 0.0000 0.0000 0.0000 -0.9751 0.0000 0.0000
# 5 0.0000 0.0000 0.0000 0.0000 65.8999 0.0000
# 6 0.0000 0.0000 0.0000 0.0000 0.0000 17.8564
#
#
#
# Elastic Compliance Matrix: (Units=1/GPa)
#
#
# Indices 1 2 3 4 5 6 
#
# 1 0.012796 -0.002581 -0.002972 0.000000 0.000000 0.000000
# 2 -0.002581 0.006481 0.000114 0.000000 0.000000 0.000000
# 3 -0.002972 0.000114 0.007622 0.000000 0.000000 0.000000
# 4 0.000000 0.000000 0.000000 -1.025578 0.000000 0.000000
# 5 0.000000 0.000000 0.000000 0.000000 0.015175 0.000000
# 6 0.000000 0.000000 0.000000 0.000000 0.000000 0.056002
#
#
# Mechanical properties :
#
#
# Convention : Reuss Voigt Hill
#
# Bulk Modulus (GPa) = 62.42565 64.13404 63.27985
# Shear Modulus (GPa) = -5.48676 38.09691 16.30507
#
# Velocity S-wave (km/s) = -1.58946 4.18827 2.74001
# Velocity P-wave (km/s) = 5.03739 7.27456 6.25678
#
# Compressibility (1/GPa) = 0.01601906
#
# Stress axis : x y z
#
# Youngs Moduli (GPa) = 78.15051 154.30656 131.20461
#
# Poissons Ratio (x) = 0.39832 0.38998
# Poissons Ratio (y) = 0.20173 -0.01497
# Poissons Ratio (z) = 0.23229 -0.01761
#
# Static dielectric constant tensor:
#      x y z
#    x 1.785010 0.000000 0.000000 
#    y 0.000000 1.851670 0.000000 
#    z 0.000000 0.000000 1.737610 
# 
# From -- ./inp_files/4599.got.cif
#   From: 2010.05.17/outbox.cif.g08.bks.cpg/sg49_3_cif.got.tgz:4599.got - 2010.06.03 21:02:19.
