data_PCOD9394650
_publ_section_title
;
Structure prediction by ZEFSAII (Michael W. Deem and Ramdas Pophale) SiO2 
 PCOD9394650
Probable space group: P C C M
;
_chemical_formula_sum "Si O2"
_cell_formula_units_Z 48
_cell_length_a 9.192382
_cell_length_b 18.734726
_cell_length_c 13.992206
_cell_angle_alpha 90.000000
_cell_angle_beta 90.000000
_cell_angle_gamma 90.000000
_cell_volume 2409.692355
_symmetry_space_group_name_H-M "P C C M"
_symmetry_group_IT_number 49
_symmetry_cell_setting 'orthorhombic'
loop_
_space_group_symop_operation_xyz
x,y,z
-x,-y,z
x,-y,1/2-z
-x,y,1/2-z
-x,-y,-z
x,y,-z
-x,y,1/2+z
x,-y,1/2+z
loop_
_atom_site_type_symbol
_atom_site_label
_atom_site_fract_x
_atom_site_fract_y
_atom_site_fract_z
Si Si1 0.649795 0.194860 0.803798
Si Si2 0.838141 0.925880 0.793247
Si Si3 0.916953 0.575759 0.112357
Si Si4 0.414965 0.889235 0.000000
Si Si5 0.341214 0.416251 0.258781
Si Si6 0.186543 0.325330 0.609439
Si Si7 0.737796 0.957954 0.000000
O O1 0.500000 0.213316 0.750000
O O2 0.737519 0.138458 0.739918
O O3 0.753967 0.262128 0.824775
O O4 0.613302 0.156805 0.904818
O O5 0.828797 0.936571 0.906534
O O6 0.000000 0.916688 0.750000
O O7 0.778470 0.000000 0.750000
O O8 0.780953 0.596577 0.178427
O O9 0.000000 0.500000 0.138177
O O10 0.027118 0.642182 0.123327
O O11 0.878615 0.568686 0.000000
O O12 0.581700 0.917312 0.000000
O O13 0.308046 0.958392 0.000000
O O14 0.356438 0.500000 0.250000
O O15 0.500000 0.382587 0.250000
O O16 0.283951 0.393130 0.361856
O O17 0.203384 0.303970 0.500000
#
# Coordination Sequence:
#
# PCOD9394650 Si02
#       7
#     8   8   8   4   8   8   4
#     4  12  24  44  69 101 143 188 233 292 358 424
#     4  11  25  41  66 101 142 189 239 298 354 413
#     4  10  21  41  69  97 130 174 224 278 343 424
#     4  11  22  39  76 103 141 185 243 298 347 425
#     4  11  23  39  65  99 132 171 218 280 340 407
#     4  11  24  41  66  97 132 180 225 280 356 424
#     4  11  22  42  71 110 135 191 253 299 347 419
#
# _framework density 19.919554000000002
#
# number of rings (size 3 to 8) (size 9 to 14) (size 15 to 20)
#    0.000    1.000    5.833    1.000    0.000    4.333 
#    0.000    1.667    1.833    0.000    0.000    0.000 
#    0.000    0.000    0.000    0.000    0.000    0.000 
#
# Total GULP energy -267897.808775 kJ/mol
# GULP energy per Si atom -5581.204349 kJ/mol
# Density = 1.987422 g / cm^3
# Si number density = 19.919554 Si / 1000 Ang^3
#
#
#
# Elastic Constant Matrix: (Units=GPa)
#
#
# Indices 1 2 3 4 5 6 
#
# 1 128.5289 40.4511 63.1457 0.0000 0.0000 0.0000
# 2 40.4511 112.4046 41.7425 0.0000 0.0000 0.0000
# 3 63.1457 41.7425 145.3946 0.0000 0.0000 0.0000
# 4 0.0000 0.0000 0.0000 22.5764 0.0000 0.0000
# 5 0.0000 0.0000 0.0000 0.0000 -6.2085 0.0000
# 6 0.0000 0.0000 0.0000 0.0000 0.0000 20.6473
#
#
#
# Elastic Compliance Matrix: (Units=1/GPa)
#
#
# Indices 1 2 3 4 5 6 
#
# 1 0.010401 -0.002312 -0.003854 0.000000 0.000000 0.000000
# 2 -0.002312 0.010472 -0.002002 0.000000 0.000000 0.000000
# 3 -0.003854 -0.002002 0.009126 0.000000 0.000000 0.000000
# 4 0.000000 0.000000 0.000000 0.044294 0.000000 0.000000
# 5 0.000000 0.000000 0.000000 0.000000 -0.161071 0.000000
# 6 0.000000 0.000000 0.000000 0.000000 0.000000 0.048432
#
#
# Mechanical properties :
#
#
# Convention : Reuss Voigt Hill
#
# Bulk Modulus (GPa) = 73.18652 75.22296 74.20474
# Shear Modulus (GPa) = -286.46451 23.46899 -131.49776
#
# Velocity S-wave (km/s) = -12.00512 3.43620 -8.13374
# Velocity P-wave (km/s) = 12.46367 7.32043 7.13283
#
# Compressibility (1/GPa) = 0.01366372
#
# Stress axis : x y z
#
# Youngs Moduli (GPa) = 96.14252 95.49215 109.57322
#
# Poissons Ratio (x) = 0.22078 0.42224
# Poissons Ratio (y) = 0.22229 0.21941
# Poissons Ratio (z) = 0.37049 0.19121
#
# Static dielectric constant tensor:
#      x y z
#    x 1.762740 0.000000 0.000000 
#    y 0.000000 1.711900 0.000000 
#    z 0.000000 0.000000 1.708770 
# 
# From -- ./inp_files/11896.got.cif
#   From: 2010.05.17/outbox.cif.g08.bks.cpg/sg49_6_cif.got.tgz:11896.got - 2010.06.03 21:02:19.
