data_PCOD9394975
_publ_section_title
;
Structure prediction by ZEFSAII (Michael W. Deem and Ramdas Pophale) SiO2 
 PCOD9394975
Probable space group: P C C M
;
_chemical_formula_sum "Si O2"
_cell_formula_units_Z 32
_cell_length_a 7.524844
_cell_length_b 8.007505
_cell_length_c 22.620701
_cell_angle_alpha 90.000000
_cell_angle_beta 90.000000
_cell_angle_gamma 90.000000
_cell_volume 1363.015450
_symmetry_space_group_name_H-M "P C C M"
_symmetry_group_IT_number 49
_symmetry_cell_setting 'orthorhombic'
loop_
_space_group_symop_operation_xyz
x,y,z
-x,-y,z
x,-y,1/2-z
-x,y,1/2-z
-x,-y,-z
x,y,-z
-x,y,1/2+z
x,-y,1/2+z
loop_
_atom_site_type_symbol
_atom_site_label
_atom_site_fract_x
_atom_site_fract_y
_atom_site_fract_z
Si Si1 0.201684 0.299541 0.247000
Si Si2 0.878749 0.297902 0.068592
Si Si3 0.407595 0.175023 0.362419
Si Si4 0.744711 0.344373 0.387247
O O1 0.194841 0.500000 0.250000
O O2 0.330469 0.238036 0.299018
O O3 0.257535 0.275702 0.179748
O O4 0.000000 0.233276 0.250000
O O5 0.762942 0.151547 0.095568
O O6 0.803314 0.460494 0.105365
O O7 0.086904 0.267369 0.079254
O O8 0.849073 0.332063 0.000000
O O9 0.542099 0.295725 0.400282
O O10 0.500000 0.000000 0.353200
#
# Coordination Sequence:
#
# PCOD9394975 Si02
#       4
#     8   8   8   8
#     4  11  20  42  74 101 134 181 233 290 361 428
#     4  11  24  46  73 104 139 191 251 295 338 409
#     4  12  27  43  67 109 146 184 231 289 363 441
#     4  11  22  42  73 101 138 179 241 304 352 410
#
# _framework density 23.477357999999999
#
# number of rings (size 3 to 8) (size 9 to 14) (size 15 to 20)
#    0.000    0.750    5.000    4.500    0.000    7.500 
#    0.000    2.500    0.000    0.000    0.000    0.000 
#    0.000    0.000    0.000    0.000    0.000    0.000 
#
# Total GULP energy -178491.634273 kJ/mol
# GULP energy per Si atom -5577.863571 kJ/mol
# Density = 2.342392 g / cm^3
# Si number density = 23.477358 Si / 1000 Ang^3
#
#
#
# Elastic Constant Matrix: (Units=GPa)
#
#
# Indices 1 2 3 4 5 6 
#
# 1 152.0911 43.1486 49.1842 0.0000 0.0000 0.0000
# 2 43.1486 75.4516 31.6308 0.0000 0.0000 0.0000
# 3 49.1842 31.6308 132.6265 0.0000 0.0000 0.0000
# 4 0.0000 0.0000 0.0000 7.2897 0.0000 0.0000
# 5 0.0000 0.0000 0.0000 0.0000 -13.4673 0.0000
# 6 0.0000 0.0000 0.0000 0.0000 0.0000 30.2255
#
#
#
# Elastic Compliance Matrix: (Units=1/GPa)
#
#
# Indices 1 2 3 4 5 6 
#
# 1 0.008381 -0.003878 -0.002183 0.000000 0.000000 0.000000
# 2 -0.003878 0.016520 -0.002502 0.000000 0.000000 0.000000
# 3 -0.002183 -0.002502 0.008946 0.000000 0.000000 0.000000
# 4 0.000000 0.000000 0.000000 0.137180 0.000000 0.000000
# 5 0.000000 0.000000 0.000000 0.000000 -0.074254 0.000000
# 6 0.000000 0.000000 0.000000 0.000000 0.000000 0.033085
#
#
# Mechanical properties :
#
#
# Convention : Reuss Voigt Hill
#
# Bulk Modulus (GPa) = 59.80276 67.56626 63.68451
# Shear Modulus (GPa) = 32.77438 20.55661 26.66550
#
# Velocity S-wave (km/s) = 3.74036 2.96225 3.37381
# Velocity P-wave (km/s) = 6.64692 6.36724 6.50858
#
# Compressibility (1/GPa) = 0.01672164
#
# Stress axis : x y z
#
# Youngs Moduli (GPa) = 119.31520 60.53312 111.77749
#
# Poissons Ratio (x) = 0.23473 0.24405
# Poissons Ratio (y) = 0.46266 0.27966
# Poissons Ratio (z) = 0.26050 0.15145
#
# Static dielectric constant tensor:
#      x y z
#    x 2.177460 0.000000 0.000000 
#    y 0.000000 1.982940 0.000000 
#    z 0.000000 0.000000 1.895330 
# 
# From -- ./inp_files/22132.got.cif
#   From: 2010.05.17/outbox.cif.g08.bks.cpg/sg49_12_cif.got.tgz:22132.got - 2010.06.03 21:02:19.
