data_PCOD9394558
_publ_section_title
;
Structure prediction by ZEFSAII (Michael W. Deem and Ramdas Pophale) SiO2 
 PCOD9394558
Probable space group: P C C M
;
_chemical_formula_sum "Si O2"
_cell_formula_units_Z 48
_cell_length_a 9.109441
_cell_length_b 30.355331
_cell_length_c 9.805160
_cell_angle_alpha 90.000000
_cell_angle_beta 90.000000
_cell_angle_gamma 90.000000
_cell_volume 2711.323792
_symmetry_space_group_name_H-M "P C C M"
_symmetry_group_IT_number 49
_symmetry_cell_setting 'orthorhombic'
loop_
_space_group_symop_operation_xyz
x,y,z
-x,-y,z
x,-y,1/2-z
-x,y,1/2-z
-x,-y,-z
x,y,-z
-x,y,1/2+z
x,-y,1/2+z
loop_
_atom_site_type_symbol
_atom_site_label
_atom_site_fract_x
_atom_site_fract_y
_atom_site_fract_z
Si Si1 0.145390 0.137458 0.660523
Si Si2 0.155125 0.960155 0.834455
Si Si3 0.655274 0.561296 0.000000
Si Si4 0.354030 0.681829 0.840137
Si Si5 0.175385 0.597430 0.760870
Si Si6 0.355308 0.218334 0.660997
Si Si7 0.686230 0.543973 0.500000
O O1 0.107134 0.139939 0.500000
O O2 0.218962 0.089141 0.679414
O O3 0.245672 0.178968 0.694920
O O4 0.000000 0.139413 0.750000
O O5 0.000000 0.956551 0.750000
O O6 0.230852 0.000000 0.750000
O O7 0.139626 0.968745 0.000000
O O8 0.735034 0.583397 0.127409
O O9 0.678709 0.508606 0.000000
O O10 0.478115 0.564856 0.000000
O O11 0.500000 0.674875 0.750000
O O12 0.234281 0.645212 0.805626
O O13 0.298883 0.731804 0.815378
O O14 0.392674 0.678252 0.000000
O O15 0.226813 0.561908 0.871225
O O16 0.000000 0.597231 0.750000
O O17 0.500000 0.213625 0.750000
O O18 0.389495 0.214904 0.500000
#
# Coordination Sequence:
#
# PCOD9394558 Si02
#       7
#     8   8   4   8   8   8   4
#     4   9  18  31  49  74 106 139 175 222 276 326
#     4   9  15  24  40  65  96 133 173 217 266 320
#     4  11  25  41  67  87 113 157 195 231 266 333
#     4  10  21  39  62  83 109 146 187 226 271 334
#     4  12  25  39  60  91 121 149 183 234 289 328
#     4   9  19  36  56  79 105 139 180 224 267 319
#     4  11  23  45  63  87 117 153 199 227 270 329
#
# _framework density 17.703530000000001
#
# number of rings (size 3 to 8) (size 9 to 14) (size 15 to 20)
#    0.000    2.000    0.833    3.500    1.167    5.333 
#    0.000    0.000    0.000    0.500    0.000    3.500 
#    0.000    0.000    0.000    0.000    0.000    0.000 
#
# Total GULP energy -267476.498449 kJ/mol
# GULP energy per Si atom -5572.427051 kJ/mol
# Density = 1.766324 g / cm^3
# Si number density = 17.703530 Si / 1000 Ang^3
#
#
#
# Elastic Constant Matrix: (Units=GPa)
#
#
# Indices 1 2 3 4 5 6 
#
# 1 80.8081 57.0473 31.2161 0.0000 0.0000 0.0000
# 2 57.0473 135.0221 41.9279 0.0000 0.0000 0.0000
# 3 31.2161 41.9279 88.9460 0.0000 0.0000 0.0000
# 4 0.0000 0.0000 0.0000 31.2782 0.0000 0.0000
# 5 0.0000 0.0000 0.0000 0.0000 22.3305 0.0000
# 6 0.0000 0.0000 0.0000 0.0000 0.0000 23.5822
#
#
#
# Elastic Compliance Matrix: (Units=1/GPa)
#
#
# Indices 1 2 3 4 5 6 
#
# 1 0.018415 -0.006763 -0.003275 0.000000 0.000000 0.000000
# 2 -0.006763 0.011160 -0.002887 0.000000 0.000000 0.000000
# 3 -0.003275 -0.002887 0.013753 0.000000 0.000000 0.000000
# 4 0.000000 0.000000 0.000000 0.031971 0.000000 0.000000
# 5 0.000000 0.000000 0.000000 0.000000 0.044782 0.000000
# 6 0.000000 0.000000 0.000000 0.000000 0.000000 0.042405
#
#
# Mechanical properties :
#
#
# Convention : Reuss Voigt Hill
#
# Bulk Modulus (GPa) = 57.21583 62.79543 60.00563
# Shear Modulus (GPa) = 25.75170 27.07717 26.41443
#
# Velocity S-wave (km/s) = 3.81807 3.91510 3.86689
# Velocity P-wave (km/s) = 7.19902 7.48231 7.34203
#
# Compressibility (1/GPa) = 0.01747768
#
# Stress axis : x y z
#
# Youngs Moduli (GPa) = 54.30451 89.60338 72.71163
#
# Poissons Ratio (x) = 0.60603 0.23810
# Poissons Ratio (y) = 0.36728 0.20993
# Poissons Ratio (z) = 0.17782 0.25870
#
# Static dielectric constant tensor:
#      x y z
#    x 1.563110 0.000000 0.000000 
#    y 0.000000 1.650980 0.000000 
#    z 0.000000 0.000000 1.557010 
# 
# From -- ./inp_files/2163.got.cif
#   From: 2010.05.17/outbox.cif.g08.bks.cpg/sg49_2_cif.got.tgz:2163.got - 2010.06.03 21:02:19.
