data_PCOD9394887
_publ_section_title
;
Structure prediction by ZEFSAII (Michael W. Deem and Ramdas Pophale) SiO2 
 PCOD9394887
Probable space group: P C C M
;
_chemical_formula_sum "Si O2"
_cell_formula_units_Z 64
_cell_length_a 9.411809
_cell_length_b 14.221244
_cell_length_c 21.712306
_cell_angle_alpha 90.000000
_cell_angle_beta 90.000000
_cell_angle_gamma 90.000000
_cell_volume 2906.140749
_symmetry_space_group_name_H-M "P C C M"
_symmetry_group_IT_number 49
_symmetry_cell_setting 'orthorhombic'
loop_
_space_group_symop_operation_xyz
x,y,z
-x,-y,z
x,-y,1/2-z
-x,y,1/2-z
-x,-y,-z
x,y,-z
-x,y,1/2+z
x,-y,1/2+z
loop_
_atom_site_type_symbol
_atom_site_label
_atom_site_fract_x
_atom_site_fract_y
_atom_site_fract_z
Si Si1 0.345649 0.152358 0.731215
Si Si2 0.470937 0.733618 0.878641
Si Si3 0.231981 0.605015 0.929123
Si Si4 0.621796 0.921249 0.930529
Si Si5 0.020421 0.779376 0.072282
Si Si6 0.836306 0.472777 0.684519
Si Si7 0.849066 0.957321 0.357960
Si Si8 0.231966 0.728335 0.341915
O O1 0.500000 0.113576 0.750000
O O2 0.383373 0.234813 0.681937
O O3 0.245776 0.079011 0.697878
O O4 0.269245 0.195363 0.790394
O O5 0.371499 0.670253 0.920528
O O6 0.538456 0.829832 0.905877
O O7 0.617544 0.683445 0.862063
O O8 0.103826 0.680378 0.919983
O O9 0.227051 0.525590 0.875903
O O10 0.224180 0.569346 0.000000
O O11 0.500000 0.000000 0.930393
O O12 0.752825 0.967251 0.894076
O O13 0.668610 0.902274 0.000000
O O14 0.111739 0.864879 0.101259
O O15 0.868254 0.769973 0.105336
O O16 0.004712 0.796759 0.000000
O O17 0.766603 0.500000 0.750000
O O18 0.845214 0.360728 0.684975
O O19 0.000000 0.500000 0.684230
O O20 0.000000 0.000000 0.339444
#
# Coordination Sequence:
#
# PCOD9394887 Si02
#       8
#     8   8   8   8   8   8   8   8
#     4  10  23  46  70  94 139 189 235 293 353 419
#     4  11  22  44  68  99 137 188 235 283 350 417
#     4  11  23  43  73 104 142 185 227 291 360 420
#     4  11  22  41  70 100 138 191 244 288 345 426
#     4  11  24  44  69 101 143 182 226 291 359 418
#     4  11  24  43  71 105 136 178 234 287 352 428
#     4  12  25  43  70 105 139 184 241 300 352 412
#     4  11  25  44  71 100 134 184 231 285 349 432
#
# _framework density 22.022333
#
# number of rings (size 3 to 8) (size 9 to 14) (size 15 to 20)
#    0.000    1.000    3.750    2.250    0.000    6.750 
#    0.000   13.125    0.000    0.000    0.000    0.000 
#    0.000    0.000    0.000    0.000    0.000    0.000 
#
# Total GULP energy -357774.196400 kJ/mol
# GULP energy per Si atom -5590.221819 kJ/mol
# Density = 2.197221 g / cm^3
# Si number density = 22.022333 Si / 1000 Ang^3
#
#
#
# Elastic Constant Matrix: (Units=GPa)
#
#
# Indices 1 2 3 4 5 6 
#
# 1 107.2914 5.9540 68.1399 0.0000 0.0000 0.0000
# 2 5.9540 54.2124 58.7363 0.0000 0.0000 0.0000
# 3 68.1399 58.7363 165.8276 0.0000 0.0000 0.0000
# 4 0.0000 0.0000 0.0000 59.0444 0.0000 0.0000
# 5 0.0000 0.0000 0.0000 0.0000 32.5255 0.0000
# 6 0.0000 0.0000 0.0000 0.0000 0.0000 27.0799
#
#
#
# Elastic Compliance Matrix: (Units=1/GPa)
#
#
# Indices 1 2 3 4 5 6 
#
# 1 0.014410 0.007842 -0.008699 0.000000 0.000000 0.000000
# 2 0.007842 0.034201 -0.015336 0.000000 0.000000 0.000000
# 3 -0.008699 -0.015336 0.015037 0.000000 0.000000 0.000000
# 4 0.000000 0.000000 0.000000 0.016936 0.000000 0.000000
# 5 0.000000 0.000000 0.000000 0.000000 0.030745 0.000000
# 6 0.000000 0.000000 0.000000 0.000000 0.000000 0.036928
#
#
# Mechanical properties :
#
#
# Convention : Reuss Voigt Hill
#
# Bulk Modulus (GPa) = 31.98836 65.88798 48.93817
# Shear Modulus (GPa) = 26.16937 36.69672 31.43305
#
# Velocity S-wave (km/s) = 3.45093 4.08651 3.78210
# Velocity P-wave (km/s) = 5.51684 7.22840 6.42982
#
# Compressibility (1/GPa) = 0.03126137
#
# Stress axis : x y z
#
# Youngs Moduli (GPa) = 69.39758 29.23912 66.50317
#
# Poissons Ratio (x) = -0.22929 0.57849
# Poissons Ratio (y) = -0.54422 1.01991
# Poissons Ratio (z) = 0.60367 0.44842
#
# Static dielectric constant tensor:
#      x y z
#    x 1.769080 0.000000 0.000000 
#    y 0.000000 1.840730 0.000000 
#    z 0.000000 0.000000 1.837110 
# 
# From -- ./inp_files/22571.got.cif
#   From: 2010.05.17/outbox.cif.g08.bks.cpg/sg49_12_cif.got.tgz:22571.got - 2010.06.03 21:02:19.
