data_PCOD9394808
_publ_section_title
;
Structure prediction by ZEFSAII (Michael W. Deem and Ramdas Pophale) SiO2 
 PCOD9394808
Probable space group: P C C M
;
_chemical_formula_sum "Si O2"
_cell_formula_units_Z 48
_cell_length_a 19.011244
_cell_length_b 8.674937
_cell_length_c 14.498005
_cell_angle_alpha 90.000000
_cell_angle_beta 90.000000
_cell_angle_gamma 90.000000
_cell_volume 2391.030470
_symmetry_space_group_name_H-M "P C C M"
_symmetry_group_IT_number 49
_symmetry_cell_setting 'orthorhombic'
loop_
_space_group_symop_operation_xyz
x,y,z
-x,-y,z
x,-y,1/2-z
-x,y,1/2-z
-x,-y,-z
x,y,-z
-x,y,1/2+z
x,-y,1/2+z
loop_
_atom_site_type_symbol
_atom_site_label
_atom_site_fract_x
_atom_site_fract_y
_atom_site_fract_z
Si Si1 0.802790 0.152409 0.897659
Si Si2 0.838009 0.660152 0.785633
Si Si3 0.672232 0.946104 0.147034
Si Si4 0.583003 0.447386 0.000000
Si Si5 0.427351 0.084388 0.500000
Si Si6 0.071335 0.917006 0.393146
Si Si7 0.312887 0.413953 0.152978
O O1 0.803005 0.257495 0.805451
O O2 0.744853 0.018063 0.889538
O O3 0.874841 0.059214 0.895520
O O4 0.793962 0.227856 0.000000
O O5 0.871796 0.500000 0.750000
O O6 0.891833 0.780217 0.833732
O O7 0.773093 0.606409 0.852386
O O8 0.665677 0.763837 0.144257
O O9 0.666930 0.000000 0.250000
O O10 0.613144 0.025023 0.088341
O O11 0.500000 0.500000 0.000000
O O12 0.574055 0.265726 0.000000
O O13 0.634059 0.499101 0.915832
O O14 0.500000 0.000000 0.500000
O O15 0.060587 0.863961 0.500000
O O16 0.000000 0.000000 0.359584
O O17 0.322722 0.500000 0.250000
#
# Coordination Sequence:
#
# PCOD9394808 Si02
#       7
#     8   8   8   4   4   8   8
#     4  11  22  40  67  99 136 184 239 290 338 421
#     4  11  24  40  66 108 141 184 243 296 367 417
#     4  12  21  40  70  96 131 178 236 283 339 422
#     4  12  28  48  70 102 146 183 227 297 381 436
#     4  12  28  46  68 102 134 181 237 281 355 443
#     4  10  22  42  69 102 144 193 241 292 353 427
#     4  11  24  42  67 104 141 182 229 299 362 421
#
# _framework density 20.075026000000001
#
# number of rings (size 3 to 8) (size 9 to 14) (size 15 to 20)
#    0.000    0.833    4.167    3.000    3.500    2.667 
#    0.000    5.000    0.000    3.000    0.000    0.000 
#    0.000    0.000    0.000    0.000    0.000    0.000 
#
# Total GULP energy -267628.046699 kJ/mol
# GULP energy per Si atom -5575.584306 kJ/mol
# Density = 2.002933 g / cm^3
# Si number density = 20.075026 Si / 1000 Ang^3
#
#
#
# Elastic Constant Matrix: (Units=GPa)
#
#
# Indices 1 2 3 4 5 6 
#
# 1 161.0769 58.6973 63.1969 0.0000 0.0000 0.0000
# 2 58.6973 159.7233 42.9967 0.0000 0.0000 0.0000
# 3 63.1969 42.9967 113.1774 0.0000 0.0000 0.0000
# 4 0.0000 0.0000 0.0000 32.1096 0.0000 0.0000
# 5 0.0000 0.0000 0.0000 0.0000 26.5939 0.0000
# 6 0.0000 0.0000 0.0000 0.0000 0.0000 38.2237
#
#
#
# Elastic Compliance Matrix: (Units=1/GPa)
#
#
# Indices 1 2 3 4 5 6 
#
# 1 0.008518 -0.002061 -0.003974 0.000000 0.000000 0.000000
# 2 -0.002061 0.007473 -0.001688 0.000000 0.000000 0.000000
# 3 -0.003974 -0.001688 0.011696 0.000000 0.000000 0.000000
# 4 0.000000 0.000000 0.000000 0.031143 0.000000 0.000000
# 5 0.000000 0.000000 0.000000 0.000000 0.037603 0.000000
# 6 0.000000 0.000000 0.000000 0.000000 0.000000 0.026162
#
#
# Mechanical properties :
#
#
# Convention : Reuss Voigt Hill
#
# Bulk Modulus (GPa) = 81.68848 84.86216 83.27532
# Shear Modulus (GPa) = 35.18158 37.32453 36.25306
#
# Velocity S-wave (km/s) = 4.19083 4.31658 4.25417
# Velocity P-wave (km/s) = 8.01233 8.19806 8.10572
#
# Compressibility (1/GPa) = 0.01224163
#
# Stress axis : x y z
#
# Youngs Moduli (GPa) = 117.39672 133.82266 85.50053
#
# Poissons Ratio (x) = 0.27577 0.33974
# Poissons Ratio (y) = 0.24192 0.14434
# Poissons Ratio (z) = 0.46648 0.22592
#
# Static dielectric constant tensor:
#      x y z
#    x 1.696470 0.000000 0.000000 
#    y 0.000000 1.685430 0.000000 
#    z 0.000000 0.000000 1.740970 
# 
# From -- ./inp_files/14065.got.cif
#   From: 2010.05.17/outbox.cif.g08.bks.cpg/sg49_8_cif.got.tgz:14065.got - 2010.06.03 21:02:19.
