data_PCOD9394844
_publ_section_title
;
Structure prediction by ZEFSAII (Michael W. Deem and Ramdas Pophale) SiO2 
 PCOD9394844
Probable space group: P C C M
;
_chemical_formula_sum "Si O2"
_cell_formula_units_Z 32
_cell_length_a 5.039715
_cell_length_b 9.950406
_cell_length_c 29.981890
_cell_angle_alpha 90.000000
_cell_angle_beta 90.000000
_cell_angle_gamma 90.000000
_cell_volume 1503.508145
_symmetry_space_group_name_H-M "P C C M"
_symmetry_group_IT_number 49
_symmetry_cell_setting 'orthorhombic'
loop_
_space_group_symop_operation_xyz
x,y,z
-x,-y,z
x,-y,1/2-z
-x,y,1/2-z
-x,-y,-z
x,y,-z
-x,y,1/2+z
x,-y,1/2+z
loop_
_atom_site_type_symbol
_atom_site_label
_atom_site_fract_x
_atom_site_fract_y
_atom_site_fract_z
Si Si1 0.710184 0.229969 0.595568
Si Si2 0.500000 0.000000 0.839358
Si Si3 0.748441 0.775248 0.281585
Si Si4 0.255329 0.901231 0.500000
Si Si5 0.200515 0.626357 0.128688
O O1 0.632134 0.108779 0.628344
O O2 0.715130 0.188252 0.544230
O O3 0.492993 0.347755 0.607148
O O4 0.013250 0.261087 0.607286
O O5 0.305390 0.914418 0.807799
O O6 0.500000 0.748920 0.250000
O O7 0.770542 0.660109 0.319092
O O8 0.000000 0.782693 0.250000
O O9 0.500000 0.000000 0.500000
O O10 0.000000 0.000000 0.500000
O O11 0.000000 0.500000 0.123022
#
# Coordination Sequence:
#
# PCOD9394844 Si02
#       5
#     8   4   8   4   8
#     4  11  24  42  68  99 130 174 216 268 340 400
#     4  10  23  39  64  92 134 164 208 267 341 402
#     4  11  24  40  62  94 127 169 218 274 329 387
#     4  12  24  42  69 106 141 162 212 273 333 412
#     4  11  25  46  66  90 132 181 226 272 324 392
#
# _framework density 21.283555
#
# number of rings (size 3 to 8) (size 9 to 14) (size 15 to 20)
#    0.000    1.000    1.250    5.625    3.500    8.500 
#    0.000    7.500    0.000    0.000    0.000    0.000 
#    0.000    0.000    0.000    0.000    0.000    0.000 
#
# Total GULP energy -178765.021233 kJ/mol
# GULP energy per Si atom -5586.406914 kJ/mol
# Density = 2.123511 g / cm^3
# Si number density = 21.283555 Si / 1000 Ang^3
#
#
#
# Elastic Constant Matrix: (Units=GPa)
#
#
# Indices 1 2 3 4 5 6 
#
# 1 152.3272 2.6778 52.7098 0.0000 0.0000 0.0000
# 2 2.6778 24.7021 7.6075 0.0000 0.0000 0.0000
# 3 52.7098 7.6075 169.4389 0.0000 0.0000 0.0000
# 4 0.0000 0.0000 0.0000 7.7262 0.0000 0.0000
# 5 0.0000 0.0000 0.0000 0.0000 29.9716 0.0000
# 6 0.0000 0.0000 0.0000 0.0000 0.0000 36.2784
#
#
#
# Elastic Compliance Matrix: (Units=1/GPa)
#
#
# Indices 1 2 3 4 5 6 
#
# 1 0.007357 -0.000094 -0.002284 0.000000 0.000000 0.000000
# 2 -0.000094 0.041051 -0.001814 0.000000 0.000000 0.000000
# 3 -0.002284 -0.001814 0.006694 0.000000 0.000000 0.000000
# 4 0.000000 0.000000 0.000000 0.129429 0.000000 0.000000
# 5 0.000000 0.000000 0.000000 0.000000 0.033365 0.000000
# 6 0.000000 0.000000 0.000000 0.000000 0.000000 0.027565
#
#
# Mechanical properties :
#
#
# Convention : Reuss Voigt Hill
#
# Bulk Modulus (GPa) = 21.40528 52.49539 36.95033
# Shear Modulus (GPa) = 18.55852 33.69345 26.12598
#
# Velocity S-wave (km/s) = 2.95611 3.98310 3.50740
# Velocity P-wave (km/s) = 4.66159 6.77287 5.81387
#
# Compressibility (1/GPa) = 0.04671745
#
# Stress axis : x y z
#
# Youngs Moduli (GPa) = 135.92605 24.35984 149.38940
#
# Poissons Ratio (x) = 0.00229 0.34127
# Poissons Ratio (y) = 0.01278 0.27098
# Poissons Ratio (z) = 0.31051 0.04419
#
# Static dielectric constant tensor:
#      x y z
#    x 1.735160 0.000000 0.000000 
#    y 0.000000 1.833420 0.000000 
#    z 0.000000 0.000000 1.677190 
# 
# From -- ./inp_files/25570.got.cif
#   From: 2010.05.17/outbox.cif.g08.bks.cpg/sg49_13_cif.got.tgz:25570.got - 2010.06.03 21:02:19.
