data_PCOD9394649
_publ_section_title
;
Structure prediction by ZEFSAII (Michael W. Deem and Ramdas Pophale) SiO2 
 PCOD9394649
Probable space group: P C C M
;
_chemical_formula_sum "Si O2"
_cell_formula_units_Z 32
_cell_length_a 12.136207
_cell_length_b 8.696227
_cell_length_c 14.247316
_cell_angle_alpha 90.000000
_cell_angle_beta 90.000000
_cell_angle_gamma 90.000000
_cell_volume 1503.650489
_symmetry_space_group_name_H-M "P C C M"
_symmetry_group_IT_number 49
_symmetry_cell_setting 'orthorhombic'
loop_
_space_group_symop_operation_xyz
x,y,z
-x,-y,z
x,-y,1/2-z
-x,y,1/2-z
-x,-y,-z
x,y,-z
-x,y,1/2+z
x,-y,1/2+z
loop_
_atom_site_type_symbol
_atom_site_label
_atom_site_fract_x
_atom_site_fract_y
_atom_site_fract_z
Si Si1 0.045206 0.747221 0.000000
Si Si2 0.376801 0.558495 0.610058
Si Si3 0.828718 0.073333 0.500000
Si Si4 0.833889 0.369469 0.821447
Si Si5 0.713718 0.857279 0.194944
O O1 0.084877 0.660665 0.092972
O O2 0.916847 0.787606 0.000000
O O3 0.108548 0.910973 0.000000
O O4 0.500000 0.500000 0.623180
O O5 0.360809 0.594342 0.500000
O O6 0.282492 0.436166 0.638458
O O7 0.360953 0.711570 0.670663
O O8 0.760227 0.086264 0.404587
O O9 0.873010 0.500000 0.750000
O O10 0.808771 0.215217 0.761991
O O11 0.662336 0.000000 0.250000
#
# Coordination Sequence:
#
# PCOD9394649 Si02
#       5
#     4   8   4   8   8
#     4  11  22  43  65  94 138 177 224 271 334 397
#     4  10  21  41  69  96 132 176 217 268 336 395
#     4  11  24  41  67  96 132 178 219 275 333 387
#     4  10  22  39  65  95 133 177 216 278 329 386
#     4  11  22  41  67  98 133 168 222 275 326 396
#
# _framework density 21.281542000000002
#
# number of rings (size 3 to 8) (size 9 to 14) (size 15 to 20)
#    0.000    1.500    5.000    0.000    0.000    5.500 
#    0.000   16.250    0.000    4.500    0.000    0.000 
#    0.000    0.000    0.000    0.000    0.000    0.000 
#
# Total GULP energy -179017.982973 kJ/mol
# GULP energy per Si atom -5594.311968 kJ/mol
# Density = 2.123310 g / cm^3
# Si number density = 21.281542 Si / 1000 Ang^3
#
#
#
# Elastic Constant Matrix: (Units=GPa)
#
#
# Indices 1 2 3 4 5 6 
#
# 1 64.4679 9.2542 36.6605 0.0000 0.0000 0.0000
# 2 9.2542 69.8168 45.1381 0.0000 0.0000 0.0000
# 3 36.6605 45.1381 165.6550 0.0000 0.0000 0.0000
# 4 0.0000 0.0000 0.0000 42.2470 0.0000 0.0000
# 5 0.0000 0.0000 0.0000 0.0000 0.6578 0.0000
# 6 0.0000 0.0000 0.0000 0.0000 0.0000 14.5918
#
#
#
# Elastic Compliance Matrix: (Units=1/GPa)
#
#
# Indices 1 2 3 4 5 6 
#
# 1 0.017748 0.000227 -0.003989 0.000000 0.000000 0.000000
# 2 0.000227 0.017389 -0.004788 0.000000 0.000000 0.000000
# 3 -0.003989 -0.004788 0.008224 0.000000 0.000000 0.000000
# 4 0.000000 0.000000 0.000000 0.023670 0.000000 0.000000
# 5 0.000000 0.000000 0.000000 0.000000 1.520122 0.000000
# 6 0.000000 0.000000 0.000000 0.000000 0.000000 0.068532
#
#
# Mechanical properties :
#
#
# Convention : Reuss Voigt Hill
#
# Bulk Modulus (GPa) = 38.08242 53.56058 45.82150
# Shear Modulus (GPa) = 2.97347 25.42513 14.19930
#
# Velocity S-wave (km/s) = 1.18332 3.46020 2.58585
# Velocity P-wave (km/s) = 4.44976 6.41765 5.52208
#
# Compressibility (1/GPa) = 0.02625884
#
# Stress axis : x y z
#
# Youngs Moduli (GPa) = 56.34535 57.50791 121.59111
#
# Poissons Ratio (x) = -0.01304 0.48509
# Poissons Ratio (y) = -0.01278 0.58222
# Poissons Ratio (z) = 0.22479 0.27537
#
# Static dielectric constant tensor:
#      x y z
#    x 1.734180 0.000000 0.000000 
#    y 0.000000 1.773720 0.000000 
#    z 0.000000 0.000000 1.761380 
# 
# From -- ./inp_files/11235.got.cif
#   From: 2010.05.17/outbox.cif.g08.bks.cpg/sg49_6_cif.got.tgz:11235.got - 2010.06.03 21:02:19.
