data_PCOD9394109
_publ_section_title
;
Structure prediction by ZEFSAII (Michael W. Deem and Ramdas Pophale) SiO2 
 PCOD9394109
Probable space group: P C C M
;
_chemical_formula_sum "Si O2"
_cell_formula_units_Z 56
_cell_length_a 7.900128
_cell_length_b 14.332795
_cell_length_c 22.807262
_cell_angle_alpha 90.000000
_cell_angle_beta 90.000000
_cell_angle_gamma 90.000000
_cell_volume 2582.487147
_symmetry_space_group_name_H-M "P C C M"
_symmetry_group_IT_number 49
_symmetry_cell_setting 'orthorhombic'
loop_
_space_group_symop_operation_xyz
x,y,z
-x,-y,z
x,-y,1/2-z
-x,y,1/2-z
-x,-y,-z
x,y,-z
-x,y,1/2+z
x,-y,1/2+z
loop_
_atom_site_type_symbol
_atom_site_label
_atom_site_fract_x
_atom_site_fract_y
_atom_site_fract_z
Si Si1 0.684651 0.826090 0.641281
Si Si2 0.683442 0.465756 0.156523
Si Si3 0.295369 0.313832 0.257147
Si Si4 0.224109 0.327480 0.565391
Si Si5 0.288667 0.220547 0.861458
Si Si6 0.163188 0.616479 0.567193
Si Si7 0.199445 0.016733 0.183071
O O1 0.746424 0.773038 0.700323
O O2 0.784768 0.777640 0.588527
O O3 0.489061 0.797907 0.635899
O O4 0.711391 0.935355 0.646212
O O5 0.500000 0.500000 0.176008
O O6 0.765017 0.408820 0.211030
O O7 0.656149 0.383190 0.109397
O O8 0.773782 0.545030 0.117586
O O9 0.500000 0.319031 0.250000
O O10 0.233878 0.287134 0.193017
O O11 0.287863 0.332309 0.500000
O O12 0.040058 0.374688 0.569189
O O13 0.231637 0.280047 0.917446
O O14 0.221694 0.118522 0.844563
O O15 0.209859 0.588476 0.500000
O O16 0.263614 0.000000 0.250000
O O17 0.000000 0.000000 0.184315
#
# Coordination Sequence:
#
# PCOD9394109 Si02
#       7
#     8   8   8   8   8   8   8
#     4  10  20  37  61  92 120 154 207 247 303 360
#     4  11  22  37  61  89 118 157 208 253 299 368
#     4   9  19  35  57  87 121 155 191 246 307 354
#     4  10  22  41  62  85 120 161 205 258 310 360
#     4  11  22  38  64  90 123 163 202 255 298 363
#     4  11  24  41  60  86 122 164 207 254 312 362
#     4  11  22  37  61  93 128 164 199 242 298 367
#
# _framework density 21.684522999999999
#
# number of rings (size 3 to 8) (size 9 to 14) (size 15 to 20)
#    0.000    1.571    1.429    4.714    0.000    6.571 
#    0.000    0.714    0.000   14.571    0.000    0.000 
#    0.000    0.000    0.000    0.000    0.000    0.000 
#
# Total GULP energy -312715.962160 kJ/mol
# GULP energy per Si atom -5584.213610 kJ/mol
# Density = 2.163517 g / cm^3
# Si number density = 21.684523 Si / 1000 Ang^3
#
#
#
# Elastic Constant Matrix: (Units=GPa)
#
#
# Indices 1 2 3 4 5 6 
#
# 1 32.8355 19.7303 8.7197 0.0000 0.0000 0.0000
# 2 19.7303 169.6756 56.8285 0.0000 0.0000 0.0000
# 3 8.7197 56.8285 60.9542 0.0000 0.0000 0.0000
# 4 0.0000 0.0000 0.0000 20.2020 0.0000 0.0000
# 5 0.0000 0.0000 0.0000 0.0000 0.8517 0.0000
# 6 0.0000 0.0000 0.0000 0.0000 0.0000 36.8668
#
#
#
# Elastic Compliance Matrix: (Units=1/GPa)
#
#
# Indices 1 2 3 4 5 6 
#
# 1 0.032857 -0.003266 -0.001655 0.000000 0.000000 0.000000
# 2 -0.003266 0.008894 -0.007825 0.000000 0.000000 0.000000
# 3 -0.001655 -0.007825 0.023938 0.000000 0.000000 0.000000
# 4 0.000000 0.000000 0.000000 0.049500 0.000000 0.000000
# 5 0.000000 0.000000 0.000000 0.000000 1.174058 0.000000
# 6 0.000000 0.000000 0.000000 0.000000 0.000000 0.027125
#
#
# Mechanical properties :
#
#
# Convention : Reuss Voigt Hill
#
# Bulk Modulus (GPa) = 24.87784 48.22472 36.55128
# Shear Modulus (GPa) = 3.68932 23.46323 13.57627
#
# Velocity S-wave (km/s) = 1.30578 3.29299 2.50488
# Velocity P-wave (km/s) = 3.71092 6.06184 5.02577
#
# Compressibility (1/GPa) = 0.04019642
#
# Stress axis : x y z
#
# Youngs Moduli (GPa) = 30.43482 112.43319 41.77498
#
# Poissons Ratio (x) = 0.36725 0.06914
# Poissons Ratio (y) = 0.09941 0.32688
# Poissons Ratio (z) = 0.05037 0.87978
#
# Static dielectric constant tensor:
#      x y z
#    x 1.796400 0.000000 0.000000 
#    y 0.000000 1.839470 0.000000 
#    z 0.000000 0.000000 1.820110 
# 
# From -- ./inp_files/19909.got.cif
#   From: 2010.05.17/outbox.cif.g08.bks.cpg/sg49_10_cif.got.tgz:19909.got - 2010.06.03 21:02:19.
