data_PCOD9394412
_publ_section_title
;
Structure prediction by ZEFSAII (Michael W. Deem and Ramdas Pophale) SiO2 
 PCOD9394412
Probable space group: P C C M
;
_chemical_formula_sum "Si O2"
_cell_formula_units_Z 40
_cell_length_a 9.329538
_cell_length_b 26.063560
_cell_length_c 8.699751
_cell_angle_alpha 90.000000
_cell_angle_beta 90.000000
_cell_angle_gamma 90.000000
_cell_volume 2115.439922
_symmetry_space_group_name_H-M "P C C M"
_symmetry_group_IT_number 49
_symmetry_cell_setting 'orthorhombic'
loop_
_space_group_symop_operation_xyz
x,y,z
-x,-y,z
x,-y,1/2-z
-x,y,1/2-z
-x,-y,-z
x,y,-z
-x,y,1/2+z
x,-y,1/2+z
loop_
_atom_site_type_symbol
_atom_site_label
_atom_site_fract_x
_atom_site_fract_y
_atom_site_fract_z
Si Si1 0.659719 0.749426 0.816057
Si Si2 0.158900 0.148742 0.184485
Si Si3 0.341667 0.056050 0.684229
Si Si4 0.840415 0.345115 0.184346
Si Si5 0.658921 0.555111 0.684386
O O1 0.500000 0.751243 0.750000
O O2 0.745016 0.801546 0.778030
O O3 0.745369 0.701319 0.748233
O O4 0.653425 0.744753 0.000000
O O5 0.232309 0.098913 0.258083
O O6 0.000000 0.155705 0.250000
O O7 0.153944 0.143291 0.000000
O O8 0.500000 0.068258 0.750000
O O9 0.347417 0.054288 0.500000
O O10 0.303069 0.000000 0.750000
O O11 0.764788 0.398849 0.227150
O O12 0.000000 0.342172 0.250000
O O13 0.845085 0.341934 0.000000
O O14 0.705321 0.500000 0.750000
O O15 0.500000 0.565495 0.750000
O O16 0.650027 0.552051 0.500000
#
# Coordination Sequence:
#
# PCOD9394412 Si02
#       5
#     8   8   8   8   8
#     4  11  24  41  64  90 119 155 197 243 292 349
#     4  11  24  41  61  89 122 157 197 243 295 351
#     4  11  22  39  63  90 121 158 200 246 294 348
#     4  11  24  40  60  87 120 156 196 242 296 352
#     4  10  21  37  59  86 115 152 195 242 291 346
#
# _framework density 18.908597
#
# number of rings (size 3 to 8) (size 9 to 14) (size 15 to 20)
#    0.000    1.200    0.000    7.200    0.000   12.000 
#    0.000    4.000    0.000    0.000    0.000    0.000 
#    0.000    0.000    0.000    0.000    0.000    0.000 
#
# Total GULP energy -223802.949773 kJ/mol
# GULP energy per Si atom -5595.073744 kJ/mol
# Density = 1.886556 g / cm^3
# Si number density = 18.908597 Si / 1000 Ang^3
#
#
#
# Elastic Constant Matrix: (Units=GPa)
#
#
# Indices 1 2 3 4 5 6 
#
# 1 184.4257 132.1460 76.9477 0.0000 0.0000 0.0000
# 2 132.1460 151.0822 78.0524 0.0000 0.0000 0.0000
# 3 76.9477 78.0524 100.6861 0.0000 0.0000 0.0000
# 4 0.0000 0.0000 0.0000 30.7765 0.0000 0.0000
# 5 0.0000 0.0000 0.0000 0.0000 35.8764 0.0000
# 6 0.0000 0.0000 0.0000 0.0000 0.0000 -78.1288
#
#
#
# Elastic Compliance Matrix: (Units=1/GPa)
#
#
# Indices 1 2 3 4 5 6 
#
# 1 0.014794 -0.011841 -0.002127 0.000000 0.000000 0.000000
# 2 -0.011841 0.020518 -0.006856 0.000000 0.000000 0.000000
# 3 -0.002127 -0.006856 0.016872 0.000000 0.000000 0.000000
# 4 0.000000 0.000000 0.000000 0.032492 0.000000 0.000000
# 5 0.000000 0.000000 0.000000 0.000000 0.027873 0.000000
# 6 0.000000 0.000000 0.000000 0.000000 0.000000 -0.012799
#
#
# Mechanical properties :
#
#
# Convention : Reuss Voigt Hill
#
# Bulk Modulus (GPa) = 94.91360 112.27626 103.59493
# Shear Modulus (GPa) = 34.50393 7.64134 21.07263
#
# Velocity S-wave (km/s) = 4.27637 2.01245 3.34196
# Velocity P-wave (km/s) = 8.64223 8.05651 8.35450
#
# Compressibility (1/GPa) = 0.01053590
#
# Stress axis : x y z
#
# Youngs Moduli (GPa) = 67.59489 48.73797 59.26854
#
# Poissons Ratio (x) = 0.57710 0.12606
# Poissons Ratio (y) = 0.80039 0.40636
# Poissons Ratio (z) = 0.14377 0.33416
#
# Static dielectric constant tensor:
#      x y z
#    x 1.614890 0.000000 0.000000 
#    y 0.000000 1.636170 0.000000 
#    z 0.000000 0.000000 1.632100 
# 
# From -- ./inp_files/1676.got.cif
#   From: 2010.05.17/outbox.cif.g08.bks.cpg/sg49_1_cif.got.tgz:1676.got - 2010.06.03 21:02:19.
