data_PCOD9394644
_publ_section_title
;
Structure prediction by ZEFSAII (Michael W. Deem and Ramdas Pophale) SiO2 
 PCOD9394644
Probable space group: P C C M
;
_chemical_formula_sum "Si O2"
_cell_formula_units_Z 48
_cell_length_a 7.508384
_cell_length_b 10.498409
_cell_length_c 29.163477
_cell_angle_alpha 90.000000
_cell_angle_beta 90.000000
_cell_angle_gamma 90.000000
_cell_volume 2298.842751
_symmetry_space_group_name_H-M "P C C M"
_symmetry_group_IT_number 49
_symmetry_cell_setting 'orthorhombic'
loop_
_space_group_symop_operation_xyz
x,y,z
-x,-y,z
x,-y,1/2-z
-x,y,1/2-z
-x,-y,-z
x,y,-z
-x,y,1/2+z
x,-y,1/2+z
loop_
_atom_site_type_symbol
_atom_site_label
_atom_site_fract_x
_atom_site_fract_y
_atom_site_fract_z
Si Si1 0.590335 0.134220 0.393340
Si Si2 0.714788 0.486224 0.448708
Si Si3 0.203319 0.840418 0.799010
Si Si4 0.901905 0.209353 0.446977
Si Si5 0.249466 0.272904 0.604922
Si Si6 0.777427 0.855053 0.801825
O O1 0.754128 0.114153 0.427549
O O2 0.436296 0.221696 0.414878
O O3 0.674990 0.192238 0.346661
O O4 0.500000 0.000000 0.382927
O O5 0.500000 0.500000 0.448064
O O6 0.771519 0.531049 0.500000
O O7 0.801243 0.347162 0.442723
O O8 0.778068 0.581736 0.409454
O O9 0.269729 0.759078 0.841597
O O10 0.275587 0.805970 0.748604
O O11 0.988924 0.830075 0.802507
O O12 0.243258 0.991168 0.803417
O O13 0.944086 0.188934 0.500000
O O14 0.078079 0.203723 0.416298
#
# Coordination Sequence:
#
# PCOD9394644 Si02
#       6
#     8   8   8   8   8   8
#     4  12  24  38  63  93 132 166 212 255 314 380
#     4  10  21  41  67  92 117 156 216 270 316 375
#     4   9  18  34  64  88 121 163 207 252 310 366
#     4  11  25  44  64  89 125 167 215 267 318 378
#     4  12  22  37  65  95 121 163 208 264 317 373
#     4   9  18  37  57  90 126 163 204 252 301 375
#
# _framework density 20.88007
#
# number of rings (size 3 to 8) (size 9 to 14) (size 15 to 20)
#    0.000    1.500    5.000    2.000    0.000    3.667 
#    0.000    0.833    0.000    1.000    0.000    0.000 
#    0.000    0.000    0.000    0.000    0.000    0.000 
#
# Total GULP energy -267890.190064 kJ/mol
# GULP energy per Si atom -5581.045626 kJ/mol
# Density = 2.083255 g / cm^3
# Si number density = 20.880070 Si / 1000 Ang^3
#
#
#
# Elastic Constant Matrix: (Units=GPa)
#
#
# Indices 1 2 3 4 5 6 
#
# 1 90.9808 7.9535 22.1615 0.0000 0.0000 0.0000
# 2 7.9535 25.9236 23.7854 0.0000 0.0000 0.0000
# 3 22.1615 23.7854 102.4797 0.0000 0.0000 0.0000
# 4 0.0000 0.0000 0.0000 43.8319 0.0000 0.0000
# 5 0.0000 0.0000 0.0000 0.0000 5.5765 0.0000
# 6 0.0000 0.0000 0.0000 0.0000 0.0000 22.4753
#
#
#
# Elastic Compliance Matrix: (Units=1/GPa)
#
#
# Indices 1 2 3 4 5 6 
#
# 1 0.011655 -0.001605 -0.002148 0.000000 0.000000 0.000000
# 2 -0.001605 0.049233 -0.011080 0.000000 0.000000 0.000000
# 3 -0.002148 -0.011080 0.012794 0.000000 0.000000 0.000000
# 4 0.000000 0.000000 0.000000 0.022814 0.000000 0.000000
# 5 0.000000 0.000000 0.000000 0.000000 0.179324 0.000000
# 6 0.000000 0.000000 0.000000 0.000000 0.000000 0.044493
#
#
# Mechanical properties :
#
#
# Convention : Reuss Voigt Hill
#
# Bulk Modulus (GPa) = 22.71868 36.35390 29.53629
# Shear Modulus (GPa) = 13.71170 25.40899 19.56035
#
# Velocity S-wave (km/s) = 2.56537 3.49220 3.06403
# Velocity P-wave (km/s) = 4.43611 5.80596 5.16663
#
# Compressibility (1/GPa) = 0.04401664
#
# Stress axis : x y z
#
# Youngs Moduli (GPa) = 85.80131 20.31146 78.16082
#
# Poissons Ratio (x) = 0.03260 0.16788
# Poissons Ratio (y) = 0.13772 0.86601
# Poissons Ratio (z) = 0.18429 0.22505
#
# Static dielectric constant tensor:
#      x y z
#    x 1.806560 0.000000 0.000000 
#    y 0.000000 1.761170 0.000000 
#    z 0.000000 0.000000 1.792270 
# 
# From -- ./inp_files/24467.got.cif
#   From: 2010.05.17/outbox.cif.g08.bks.cpg/sg49_13_cif.got.tgz:24467.got - 2010.06.03 21:02:19.
