data_PCOD9394811
_publ_section_title
;
Structure prediction by ZEFSAII (Michael W. Deem and Ramdas Pophale) SiO2 
 PCOD9394811
Probable space group: P C C M
;
_chemical_formula_sum "Si O2"
_cell_formula_units_Z 32
_cell_length_a 15.078534
_cell_length_b 5.242855
_cell_length_c 18.268126
_cell_angle_alpha 90.000000
_cell_angle_beta 90.000000
_cell_angle_gamma 90.000000
_cell_volume 1444.178798
_symmetry_space_group_name_H-M "P C C M"
_symmetry_group_IT_number 49
_symmetry_cell_setting 'orthorhombic'
loop_
_space_group_symop_operation_xyz
x,y,z
-x,-y,z
x,-y,1/2-z
-x,y,1/2-z
-x,-y,-z
x,y,-z
-x,y,1/2+z
x,-y,1/2+z
loop_
_atom_site_type_symbol
_atom_site_label
_atom_site_fract_x
_atom_site_fract_y
_atom_site_fract_z
Si Si1 0.605841 0.003567 0.917973
Si Si2 0.049980 0.244377 0.911102
Si Si3 0.239224 0.405763 0.915149
Si Si4 0.289296 0.754244 0.797790
O O1 0.667505 0.749143 0.907714
O O2 0.500000 0.000000 0.921437
O O3 0.626096 0.165810 0.845864
O O4 0.633181 0.099336 0.000000
O O5 0.154298 0.237764 0.894341
O O6 0.000000 0.500000 0.886347
O O7 0.043699 0.241883 0.000000
O O8 0.000000 0.000000 0.881523
O O9 0.229301 0.652806 0.864331
O O10 0.229860 0.473273 0.000000
O O11 0.302405 0.500000 0.750000
O O12 0.263174 0.000000 0.750000
#
# Coordination Sequence:
#
# PCOD9394811 Si02
#       4
#     8   8   8   8
#     4  10  23  45  71 101 134 174 228 284 342 407
#     4   9  19  34  60 100 135 166 216 279 337 394
#     4  10  22  42  70 101 140 183 228 286 350 406
#     4  12  25  45  65  98 137 183 229 277 333 410
#
# _framework density 22.157921000000002
#
# number of rings (size 3 to 8) (size 9 to 14) (size 15 to 20)
#    0.000    1.750    2.500    0.750    3.500    1.500 
#    4.500    3.750    0.000    0.750    6.500    0.000 
#    0.000    0.000    0.000    0.000    0.000    1.250 
#
# Total GULP energy -178263.459422 kJ/mol
# GULP energy per Si atom -5570.733107 kJ/mol
# Density = 2.210749 g / cm^3
# Si number density = 22.157921 Si / 1000 Ang^3
#
#
#
# Elastic Constant Matrix: (Units=GPa)
#
#
# Indices 1 2 3 4 5 6 
#
# 1 118.3505 72.4858 25.7954 0.0000 0.0000 0.0000
# 2 72.4858 171.6735 69.5956 0.0000 0.0000 0.0000
# 3 25.7954 69.5956 116.2285 0.0000 0.0000 0.0000
# 4 0.0000 0.0000 0.0000 -7.6996 0.0000 0.0000
# 5 0.0000 0.0000 0.0000 0.0000 -84.7705 0.0000
# 6 0.0000 0.0000 0.0000 0.0000 0.0000 24.1856
#
#
#
# Elastic Compliance Matrix: (Units=1/GPa)
#
#
# Indices 1 2 3 4 5 6 
#
# 1 0.011416 -0.005009 0.000466 0.000000 0.000000 0.000000
# 2 -0.005009 0.009890 -0.004810 0.000000 0.000000 0.000000
# 3 0.000466 -0.004810 0.011381 0.000000 0.000000 0.000000
# 4 0.000000 0.000000 0.000000 -0.129878 0.000000 0.000000
# 5 0.000000 0.000000 0.000000 0.000000 -0.011797 0.000000
# 6 0.000000 0.000000 0.000000 0.000000 0.000000 0.041347
#
#
# Mechanical properties :
#
#
# Convention : Reuss Voigt Hill
#
# Bulk Modulus (GPa) = 71.53369 82.44513 76.98941
# Shear Modulus (GPa) = -112.93297 2.23482 -55.34908
#
# Velocity S-wave (km/s) = -7.14688 1.00537 -5.00336
# Velocity P-wave (km/s) = 5.97915 6.21582 1.20128
#
# Compressibility (1/GPa) = 0.01397943
#
# Stress axis : x y z
#
# Youngs Moduli (GPa) = 87.59832 101.11253 87.86784
#
# Poissons Ratio (x) = 0.50646 -0.04091
# Poissons Ratio (y) = 0.43877 0.42267
# Poissons Ratio (z) = -0.04079 0.48638
#
# Static dielectric constant tensor:
#      x y z
#    x 1.848490 0.000000 0.000000 
#    y 0.000000 2.100940 0.000000 
#    z 0.000000 0.000000 1.846600 
# 
# From -- ./inp_files/17439.got.cif
#   From: 2010.05.17/outbox.cif.g08.bks.cpg/sg49_9_cif.got.tgz:17439.got - 2010.06.03 21:02:19.
