data_PCOD9394783
_publ_section_title
;
Structure prediction by ZEFSAII (Michael W. Deem and Ramdas Pophale) SiO2 
 PCOD9394783
Probable space group: P C C M
;
_chemical_formula_sum "Si O2"
_cell_formula_units_Z 56
_cell_length_a 15.636662
_cell_length_b 9.406104
_cell_length_c 19.687947
_cell_angle_alpha 90.000000
_cell_angle_beta 90.000000
_cell_angle_gamma 90.000000
_cell_volume 2895.704603
_symmetry_space_group_name_H-M "P C C M"
_symmetry_group_IT_number 49
_symmetry_cell_setting 'orthorhombic'
loop_
_space_group_symop_operation_xyz
x,y,z
-x,-y,z
x,-y,1/2-z
-x,y,1/2-z
-x,-y,-z
x,y,-z
-x,y,1/2+z
x,-y,1/2+z
loop_
_atom_site_type_symbol
_atom_site_label
_atom_site_fract_x
_atom_site_fract_y
_atom_site_fract_z
Si Si1 0.491061 0.828555 0.329845
Si Si2 0.651629 0.190531 0.079460
Si Si3 0.950573 0.360024 0.180122
Si Si4 0.238958 0.920043 0.579991
Si Si5 0.749235 0.628722 0.678295
Si Si6 0.308526 0.306204 0.176219
Si Si7 0.923099 0.889762 0.576199
O O1 0.500000 0.797302 0.250000
O O2 0.567589 0.773521 0.377124
O O3 0.401061 0.753214 0.345655
O O4 0.500000 0.000000 0.336655
O O5 0.728153 0.282484 0.111286
O O6 0.679640 0.025587 0.087385
O O7 0.639573 0.217582 0.000000
O O8 0.849944 0.390847 0.191301
O O9 0.949835 0.233352 0.126865
O O10 0.000000 0.500000 0.154500
O O11 0.000000 0.322548 0.250000
O O12 0.231913 0.881226 0.500000
O O13 0.245462 0.785667 0.629151
O O14 0.158550 0.018338 0.598548
O O15 0.710352 0.713136 0.743268
O O16 0.705599 0.474785 0.669309
O O17 0.904698 0.834478 0.500000
O O18 0.000000 0.000000 0.572156
#
# Coordination Sequence:
#
# PCOD9394783 Si02
#       7
#     8   8   8   8   8   8   8
#     4  11  22  39  64  96 123 163 221 265 317 381
#     4  11  23  43  66  94 132 172 213 270 329 385
#     4  11  24  43  65  94 134 169 222 272 330 390
#     4  10  22  41  66  94 129 170 215 271 327 394
#     4  11  25  43  64  96 129 177 213 271 325 395
#     4  11  23  41  67  90 131 168 220 263 327 382
#     4  10  23  42  64  95 130 167 217 272 333 395
#
# _framework density 19.338988000000001
#
# number of rings (size 3 to 8) (size 9 to 14) (size 15 to 20)
#    0.000    1.286    4.286    1.714    4.000    3.143 
#    0.000    0.714    0.000    0.000    0.000    0.000 
#    0.000    0.000    0.000    0.000    0.000    0.000 
#
# Total GULP energy -312449.130007 kJ/mol
# GULP energy per Si atom -5579.448750 kJ/mol
# Density = 1.929497 g / cm^3
# Si number density = 19.338988 Si / 1000 Ang^3
#
#
#
# Elastic Constant Matrix: (Units=GPa)
#
#
# Indices 1 2 3 4 5 6 
#
# 1 131.1701 36.4762 45.0664 0.0000 0.0000 0.0000
# 2 36.4762 94.4135 74.1300 0.0000 0.0000 0.0000
# 3 45.0664 74.1300 107.4686 0.0000 0.0000 0.0000
# 4 0.0000 0.0000 0.0000 110.5465 0.0000 0.0000
# 5 0.0000 0.0000 0.0000 0.0000 29.0895 0.0000
# 6 0.0000 0.0000 0.0000 0.0000 0.0000 25.1640
#
#
#
# Elastic Compliance Matrix: (Units=1/GPa)
#
#
# Indices 1 2 3 4 5 6 
#
# 1 0.008961 -0.001116 -0.002988 0.000000 0.000000 0.000000
# 2 -0.001116 0.023244 -0.015566 0.000000 0.000000 0.000000
# 3 -0.002988 -0.015566 0.021295 0.000000 0.000000 0.000000
# 4 0.000000 0.000000 0.000000 0.009046 0.000000 0.000000
# 5 0.000000 0.000000 0.000000 0.000000 0.034377 0.000000
# 6 0.000000 0.000000 0.000000 0.000000 0.000000 0.039739
#
#
# Mechanical properties :
#
#
# Convention : Reuss Voigt Hill
#
# Bulk Modulus (GPa) = 70.61614 71.59969 71.10791
# Shear Modulus (GPa) = 27.66698 44.78531 36.22614
#
# Velocity S-wave (km/s) = 3.78647 4.81750 4.33276
# Velocity P-wave (km/s) = 7.46396 8.24914 7.86635
#
# Compressibility (1/GPa) = 0.01416107
#
# Stress axis : x y z
#
# Youngs Moduli (GPa) = 111.60051 43.02107 46.95966
#
# Poissons Ratio (x) = 0.04801 0.14031
# Poissons Ratio (y) = 0.12454 0.73096
# Poissons Ratio (z) = 0.33344 0.66965
#
# Static dielectric constant tensor:
#      x y z
#    x 1.720800 0.000000 0.000000 
#    y 0.000000 1.661290 0.000000 
#    z 0.000000 0.000000 1.672170 
# 
# From -- ./inp_files/20876.got.cif
#   From: 2010.05.17/outbox.cif.g08.bks.cpg/sg49_11_cif.got.tgz:20876.got - 2010.06.03 21:02:19.
