data_PCOD9394782
_publ_section_title
;
Structure prediction by ZEFSAII (Michael W. Deem and Ramdas Pophale) SiO2 
 PCOD9394782
Probable space group: P C C M
;
_chemical_formula_sum "Si O2"
_cell_formula_units_Z 30
_cell_length_a 12.406279
_cell_length_b 5.446198
_cell_length_c 19.480877
_cell_angle_alpha 90.000000
_cell_angle_beta 90.000000
_cell_angle_gamma 90.000000
_cell_volume 1316.265427
_symmetry_space_group_name_H-M "P C C M"
_symmetry_group_IT_number 49
_symmetry_cell_setting 'orthorhombic'
loop_
_space_group_symop_operation_xyz
x,y,z
-x,-y,z
x,-y,1/2-z
-x,y,1/2-z
-x,-y,-z
x,y,-z
-x,y,1/2+z
x,-y,1/2+z
loop_
_atom_site_type_symbol
_atom_site_label
_atom_site_fract_x
_atom_site_fract_y
_atom_site_fract_z
Si Si1 0.428419 0.250649 0.500000
Si Si2 0.000000 0.500000 0.750000
Si Si3 0.288450 0.000000 0.250000
Si Si4 0.929013 0.748352 0.000000
Si Si5 0.430140 0.252539 0.651444
Si Si6 0.888001 0.844877 0.146716
O O1 0.500000 0.500000 0.500000
O O2 0.372275 0.254889 0.575465
O O3 0.500000 0.000000 0.500000
O O4 0.921099 0.635256 0.801256
O O5 0.360992 0.220003 0.279342
O O6 0.212076 0.036731 0.184361
O O7 0.863610 0.756993 0.070385
O O8 0.000000 0.500000 0.000000
O O9 0.000000 0.000000 0.000000
O O10 0.500000 0.500000 0.653902
O O11 0.500000 0.000000 0.650424
O O12 0.000000 0.000000 0.144671
#
# Coordination Sequence:
#
# PCOD9394782 Si02
#       6
#     4   2   4   4   8   8
#     4   8  16  37  66  85 121 170 213 273 338 391
#     4  12  18  38  72  86 142 170 222 280 342 394
#     4  12  24  40  68 100 138 182 228 288 344 408
#     4  10  22  41  66  93 137 188 221 277 338 403
#     4  10  23  43  64  95 132 173 225 282 339 402
#     4  11  23  42  63 101 138 179 228 280 342 412
#
# _framework density 22.791757
#
# number of rings (size 3 to 8) (size 9 to 14) (size 15 to 20)
#    0.000    1.600    4.000    0.400    0.000    5.333 
#    0.000    0.000    0.000    9.600    0.000    2.800 
#    0.000    0.000    0.000    0.000    0.000    0.000 
#
# Total GULP energy -167194.026226 kJ/mol
# GULP energy per Si atom -5573.134208 kJ/mol
# Density = 2.273988 g / cm^3
# Si number density = 22.791757 Si / 1000 Ang^3
#
#
#
# Elastic Constant Matrix: (Units=GPa)
#
#
# Indices 1 2 3 4 5 6 
#
# 1 46.4516 29.2404 51.5847 0.0000 0.0000 0.0000
# 2 29.2404 126.7105 46.3894 0.0000 0.0000 0.0000
# 3 51.5847 46.3894 247.7789 0.0000 0.0000 0.0000
# 4 0.0000 0.0000 0.0000 29.3074 0.0000 0.0000
# 5 0.0000 0.0000 0.0000 0.0000 -202.3651 0.0000
# 6 0.0000 0.0000 0.0000 0.0000 0.0000 18.1622
#
#
#
# Elastic Compliance Matrix: (Units=1/GPa)
#
#
# Indices 1 2 3 4 5 6 
#
# 1 0.030804 -0.005111 -0.005456 0.000000 0.000000 0.000000
# 2 -0.005111 0.009321 -0.000681 0.000000 0.000000 0.000000
# 3 -0.005456 -0.000681 0.005299 0.000000 0.000000 0.000000
# 4 0.000000 0.000000 0.000000 0.034121 0.000000 0.000000
# 5 0.000000 0.000000 0.000000 0.000000 -0.004942 0.000000
# 6 0.000000 0.000000 0.000000 0.000000 0.000000 0.055059
#
#
# Mechanical properties :
#
#
# Convention : Reuss Voigt Hill
#
# Bulk Modulus (GPa) = 43.61506 75.04109 59.32808
# Shear Modulus (GPa) = 31.28871 -11.39734 9.94569
#
# Velocity S-wave (km/s) = 3.70916 -2.23864 2.09122
# Velocity P-wave (km/s) = 6.12550 5.12973 5.64960
#
# Compressibility (1/GPa) = 0.02292786
#
# Stress axis : x y z
#
# Youngs Moduli (GPa) = 32.46310 107.28732 188.70533
#
# Poissons Ratio (x) = 0.54835 1.02961
# Poissons Ratio (y) = 0.16592 0.12851
# Poissons Ratio (z) = 0.17712 0.07306
#
# Static dielectric constant tensor:
#      x y z
#    x 1.976530 0.000000 0.000000 
#    y 0.000000 1.839650 0.000000 
#    z 0.000000 0.000000 1.887760 
# 
# From -- ./inp_files/20206.got.cif
#   From: 2010.05.17/outbox.cif.g08.bks.cpg/sg49_11_cif.got.tgz:20206.got - 2010.06.03 21:02:19.
