data_PCOD9394402
_publ_section_title
;
Structure prediction by ZEFSAII (Michael W. Deem and Ramdas Pophale) SiO2 
 PCOD9394402
Probable space group: P C C M
;
_chemical_formula_sum "Si O2"
_cell_formula_units_Z 64
_cell_length_a 12.511439
_cell_length_b 11.360365
_cell_length_c 22.583260
_cell_angle_alpha 90.000000
_cell_angle_beta 90.000000
_cell_angle_gamma 90.000000
_cell_volume 3209.860678
_symmetry_space_group_name_H-M "P C C M"
_symmetry_group_IT_number 49
_symmetry_cell_setting 'orthorhombic'
loop_
_space_group_symop_operation_xyz
x,y,z
-x,-y,z
x,-y,1/2-z
-x,y,1/2-z
-x,-y,-z
x,y,-z
-x,y,1/2+z
x,-y,1/2+z
loop_
_atom_site_type_symbol
_atom_site_label
_atom_site_fract_x
_atom_site_fract_y
_atom_site_fract_z
Si Si1 0.022131 0.361605 0.068234
Si Si2 0.842447 0.169477 0.068246
Si Si3 0.794806 0.292642 0.350615
Si Si4 0.745513 0.068604 0.570930
Si Si5 0.557310 0.112250 0.653440
Si Si6 0.371491 0.507187 0.679710
Si Si7 0.653355 0.747756 0.366048
Si Si8 0.740653 0.138467 0.252639
O O1 0.927813 0.269092 0.087057
O O2 0.000000 0.500000 0.062812
O O3 0.107279 0.359262 0.120839
O O4 0.055086 0.325820 0.000000
O O5 0.723023 0.220024 0.077161
O O6 0.826239 0.035460 0.091895
O O7 0.867625 0.151534 0.000000
O O8 0.777811 0.191190 0.399783
O O9 0.693526 0.380382 0.344166
O O10 0.818692 0.225127 0.288805
O O11 0.741685 0.070547 0.500000
O O12 0.627571 0.057411 0.599855
O O13 0.469098 0.207310 0.634197
O O14 0.636758 0.153860 0.704784
O O15 0.500000 0.000000 0.680371
O O16 0.500000 0.500000 0.673103
O O17 0.349413 0.500000 0.750000
O O18 0.334815 0.389083 0.647392
O O19 0.710869 0.815296 0.311623
O O20 0.768492 0.000000 0.250000
#
# Coordination Sequence:
#
# PCOD9394402 Si02
#       8
#     8   8   8   8   8   8   8   8
#     4  10  22  43  71  95 118 159 214 267 320 384
#     4  10  22  40  63  93 121 157 208 263 322 377
#     4  11  22  41  62  91 121 164 209 259 323 377
#     4  10  21  37  58  91 129 159 202 257 320 383
#     4  11  20  32  56  91 122 169 207 250 306 376
#     4  11  23  38  58  88 126 166 210 254 304 377
#     4  12  21  36  59  85 125 164 206 260 306 372
#     4  11  21  34  56  88 122 155 203 247 304 374
#
# _framework density 19.938559999999999
#
# number of rings (size 3 to 8) (size 9 to 14) (size 15 to 20)
#    0.000    1.250    3.750    3.750    1.750    1.250 
#    0.000    3.125    0.000    4.875    0.000    0.000 
#    0.000    0.000    0.000    0.000    0.000    0.000 
#
# Total GULP energy -356372.268901 kJ/mol
# GULP energy per Si atom -5568.316702 kJ/mol
# Density = 1.989318 g / cm^3
# Si number density = 19.938560 Si / 1000 Ang^3
#
#
#
# Elastic Constant Matrix: (Units=GPa)
#
#
# Indices 1 2 3 4 5 6 
#
# 1 53.4215 32.0384 25.1793 0.0000 0.0000 0.0000
# 2 32.0384 147.7607 22.0659 0.0000 0.0000 0.0000
# 3 25.1793 22.0659 52.9771 0.0000 0.0000 0.0000
# 4 0.0000 0.0000 0.0000 31.9864 0.0000 0.0000
# 5 0.0000 0.0000 0.0000 0.0000 17.3712 0.0000
# 6 0.0000 0.0000 0.0000 0.0000 0.0000 37.5954
#
#
#
# Elastic Compliance Matrix: (Units=1/GPa)
#
#
# Indices 1 2 3 4 5 6 
#
# 1 0.026245 -0.004082 -0.010774 0.000000 0.000000 0.000000
# 2 -0.004082 0.007851 -0.001330 0.000000 0.000000 0.000000
# 3 -0.010774 -0.001330 0.024551 0.000000 0.000000 0.000000
# 4 0.000000 0.000000 0.000000 0.031263 0.000000 0.000000
# 5 0.000000 0.000000 0.000000 0.000000 0.057567 0.000000
# 6 0.000000 0.000000 0.000000 0.000000 0.000000 0.026599
#
#
# Mechanical properties :
#
#
# Convention : Reuss Voigt Hill
#
# Bulk Modulus (GPa) = 38.05802 45.85851 41.95827
# Shear Modulus (GPa) = 23.23353 29.04897 26.14125
#
# Velocity S-wave (km/s) = 3.41729 3.82111 3.62483
# Velocity P-wave (km/s) = 5.89063 6.52056 6.21358
#
# Compressibility (1/GPa) = 0.02627567
#
# Stress axis : x y z
#
# Youngs Moduli (GPa) = 38.10243 127.36620 40.73186
#
# Poissons Ratio (x) = 0.51987 0.43884
# Poissons Ratio (y) = 0.15552 0.05418
# Poissons Ratio (z) = 0.41051 0.16943
#
# Static dielectric constant tensor:
#      x y z
#    x 1.829610 0.000000 0.000000 
#    y 0.000000 1.778290 0.000000 
#    z 0.000000 0.000000 1.712450 
# 
# From -- ./inp_files/23003.got.cif
#   From: 2010.05.17/outbox.cif.g08.bks.cpg/sg49_12_cif.got.tgz:23003.got - 2010.06.03 21:02:19.
