data_PCOD9394116
_publ_section_title
;
Structure prediction by ZEFSAII (Michael W. Deem and Ramdas Pophale) SiO2 
 PCOD9394116
Probable space group: P C C M
;
_chemical_formula_sum "Si O2"
_cell_formula_units_Z 56
_cell_length_a 16.074299
_cell_length_b 9.824049
_cell_length_c 19.145567
_cell_angle_alpha 90.000000
_cell_angle_beta 90.000000
_cell_angle_gamma 90.000000
_cell_volume 3023.366489
_symmetry_space_group_name_H-M "P C C M"
_symmetry_group_IT_number 49
_symmetry_cell_setting 'orthorhombic'
loop_
_space_group_symop_operation_xyz
x,y,z
-x,-y,z
x,-y,1/2-z
-x,y,1/2-z
-x,-y,-z
x,y,-z
-x,y,1/2+z
x,-y,1/2+z
loop_
_atom_site_type_symbol
_atom_site_label
_atom_site_fract_x
_atom_site_fract_y
_atom_site_fract_z
Si Si1 0.430108 0.193834 0.582950
Si Si2 0.608986 0.127107 0.416821
Si Si3 0.000000 0.736778 0.750000
Si Si4 0.777374 0.155287 0.333734
Si Si5 0.167401 0.402628 0.920162
Si Si6 0.167212 0.146051 0.313313
Si Si7 0.000000 0.500000 0.864634
Si Si8 0.737891 0.333989 0.083634
O O1 0.436142 0.219399 0.500000
O O2 0.525133 0.203015 0.608708
O O3 0.353682 0.285991 0.608005
O O4 0.405380 0.035328 0.590887
O O5 0.620687 0.153018 0.500000
O O6 0.690226 0.160173 0.373376
O O7 0.078924 0.826245 0.775085
O O8 0.993959 0.631523 0.814717
O O9 0.829703 0.276140 0.368131
O O10 0.768986 0.171995 0.250660
O O11 0.820659 0.007333 0.340606
O O12 0.242238 0.507565 0.905181
O O13 0.083238 0.489215 0.909876
O O14 0.173154 0.355112 0.000000
O O15 0.193272 0.247420 0.374663
O O16 0.744403 0.308299 0.000000
#
# Coordination Sequence:
#
# PCOD9394116 Si02
#       8
#     8   8   4   8   8   8   4   8
#     4   8  15  30  57  87 116 159 206 252 300 359
#     4   9  16  31  57  87 122 160 202 251 305 358
#     4  11  22  41  64  86 113 161 208 250 297 365
#     4  11  23  36  56  91 123 159 195 248 310 364
#     4  11  23  39  61  91 123 156 200 257 311 366
#     4  11  23  40  62  85 120 160 204 250 305 367
#     4  11  21  40  64  88 113 157 204 252 306 366
#     4  10  20  37  62  89 117 157 211 256 302 366
#
# _framework density 18.522399
#
# number of rings (size 3 to 8) (size 9 to 14) (size 15 to 20)
#    0.000    1.857    4.286    1.500    0.000    2.286 
#    0.000    1.429    0.000    4.286    0.000    2.000 
#    0.000    0.000    0.000    0.000    0.000    0.000 
#
# Total GULP energy -311930.995087 kJ/mol
# GULP energy per Si atom -5570.196341 kJ/mol
# Density = 1.848024 g / cm^3
# Si number density = 18.522399 Si / 1000 Ang^3
#
#
#
# Elastic Constant Matrix: (Units=GPa)
#
#
# Indices 1 2 3 4 5 6 
#
# 1 134.8311 43.2211 27.2694 0.0000 0.0000 0.0000
# 2 43.2211 89.6943 48.0068 0.0000 0.0000 0.0000
# 3 27.2694 48.0068 56.8402 0.0000 0.0000 0.0000
# 4 0.0000 0.0000 0.0000 18.4955 0.0000 0.0000
# 5 0.0000 0.0000 0.0000 0.0000 29.6446 0.0000
# 6 0.0000 0.0000 0.0000 0.0000 0.0000 27.1991
#
#
#
# Elastic Compliance Matrix: (Units=1/GPa)
#
#
# Indices 1 2 3 4 5 6 
#
# 1 0.008814 -0.003621 -0.001171 0.000000 0.000000 0.000000
# 2 -0.003621 0.021834 -0.016704 0.000000 0.000000 0.000000
# 3 -0.001171 -0.016704 0.032263 0.000000 0.000000 0.000000
# 4 0.000000 0.000000 0.000000 0.054067 0.000000 0.000000
# 5 0.000000 0.000000 0.000000 0.000000 0.033733 0.000000
# 6 0.000000 0.000000 0.000000 0.000000 0.000000 0.036766
#
#
# Mechanical properties :
#
#
# Convention : Reuss Voigt Hill
#
# Bulk Modulus (GPa) = 50.19930 57.59559 53.89745
# Shear Modulus (GPa) = 21.08754 25.92574 23.50664
#
# Velocity S-wave (km/s) = 3.37781 3.74531 3.56630
# Velocity P-wave (km/s) = 6.50950 7.06157 6.79115
#
# Compressibility (1/GPa) = 0.01992060
#
# Stress axis : x y z
#
# Youngs Moduli (GPa) = 113.45477 45.80018 30.99568
#
# Poissons Ratio (x) = 0.16583 0.03628
# Poissons Ratio (y) = 0.41079 0.51774
# Poissons Ratio (z) = 0.13280 0.76503
#
# Static dielectric constant tensor:
#      x y z
#    x 1.673460 0.000000 0.000000 
#    y 0.000000 1.636160 0.000000 
#    z 0.000000 0.000000 1.625960 
# 
# From -- ./inp_files/20904.got.cif
#   From: 2010.05.17/outbox.cif.g08.bks.cpg/sg49_11_cif.got.tgz:20904.got - 2010.06.03 21:02:19.
