data_PCOD9394857
_publ_section_title
;
Structure prediction by ZEFSAII (Michael W. Deem and Ramdas Pophale) SiO2 
 PCOD9394857
Probable space group: P C C M
;
_chemical_formula_sum "Si O2"
_cell_formula_units_Z 64
_cell_length_a 10.088830
_cell_length_b 16.436920
_cell_length_c 16.868883
_cell_angle_alpha 90.000000
_cell_angle_beta 90.000000
_cell_angle_gamma 90.000000
_cell_volume 2797.354918
_symmetry_space_group_name_H-M "P C C M"
_symmetry_group_IT_number 49
_symmetry_cell_setting 'orthorhombic'
loop_
_space_group_symop_operation_xyz
x,y,z
-x,-y,z
x,-y,1/2-z
-x,y,1/2-z
-x,-y,-z
x,y,-z
-x,y,1/2+z
x,-y,1/2+z
loop_
_atom_site_type_symbol
_atom_site_label
_atom_site_fract_x
_atom_site_fract_y
_atom_site_fract_z
Si Si1 0.046282 0.854151 0.590602
Si Si2 0.843629 0.480603 0.584619
Si Si3 0.696924 0.923116 0.852373
Si Si4 0.143114 0.606454 0.206289
Si Si5 0.472057 0.223721 0.844390
Si Si6 0.195972 0.302939 0.860756
Si Si7 0.260044 0.269535 0.407224
Si Si8 0.207042 0.902969 0.173223
O O1 0.995322 0.847853 0.500000
O O2 0.189272 0.896065 0.587723
O O3 0.082199 0.764971 0.626802
O O4 0.947393 0.906154 0.646670
O O5 0.786859 0.509826 0.500000
O O6 0.799787 0.524161 0.666419
O O7 0.827742 0.384148 0.589653
O O8 0.000000 0.500000 0.584388
O O9 0.560208 0.872911 0.860628
O O10 0.760270 0.897343 0.766409
O O11 0.704861 0.020452 0.853715
O O12 0.212053 0.661405 0.272328
O O13 0.160257 0.665416 0.130606
O O14 0.000000 0.594038 0.250000
O O15 0.500000 0.228855 0.750000
O O16 0.334745 0.260634 0.875346
O O17 0.414805 0.277619 0.614276
O O18 0.242347 0.268968 0.500000
O O19 0.240150 0.181225 0.368708
#
# Coordination Sequence:
#
# PCOD9394857 Si02
#       8
#     8   8   8   8   8   8   8   8
#     4  11  23  39  62  96 138 175 217 281 358 428
#     4  11  24  41  64 103 145 174 213 275 349 413
#     4  10  23  41  66  91 128 178 232 282 341 412
#     4  12  23  42  69 101 137 179 226 275 342 422
#     4  11  22  46  69  97 127 181 244 289 335 404
#     4  11  23  41  72  96 132 181 236 281 335 417
#     4  12  26  44  69 101 137 177 229 294 353 405
#     4  11  22  40  62  96 130 176 224 281 347 424
#
# _framework density 22.878755999999999
#
# number of rings (size 3 to 8) (size 9 to 14) (size 15 to 20)
#    0.000    0.875    3.750    3.750    0.000    5.500 
#    0.000    1.250    0.000    1.500    0.000    0.000 
#    0.000    0.000    0.000    0.000    0.000    0.000 
#
# Total GULP energy -356795.459812 kJ/mol
# GULP energy per Si atom -5574.929060 kJ/mol
# Density = 2.282668 g / cm^3
# Si number density = 22.878756 Si / 1000 Ang^3
#
#
#
# Elastic Constant Matrix: (Units=GPa)
#
#
# Indices 1 2 3 4 5 6 
#
# 1 69.9284 17.0290 -2.4654 0.0000 0.0000 0.0000
# 2 17.0290 134.1262 36.9294 0.0000 0.0000 0.0000
# 3 -2.4654 36.9294 104.4591 0.0000 0.0000 0.0000
# 4 0.0000 0.0000 0.0000 -45.8927 0.0000 0.0000
# 5 0.0000 0.0000 0.0000 0.0000 9.1257 0.0000
# 6 0.0000 0.0000 0.0000 0.0000 0.0000 22.8320
#
#
#
# Elastic Compliance Matrix: (Units=1/GPa)
#
#
# Indices 1 2 3 4 5 6 
#
# 1 0.014876 -0.002199 0.001129 0.000000 0.000000 0.000000
# 2 -0.002199 0.008585 -0.003087 0.000000 0.000000 0.000000
# 3 0.001129 -0.003087 0.010691 0.000000 0.000000 0.000000
# 4 0.000000 0.000000 0.000000 -0.021790 0.000000 0.000000
# 5 0.000000 0.000000 0.000000 0.000000 0.109581 0.000000
# 6 0.000000 0.000000 0.000000 0.000000 0.000000 0.043798
#
#
# Mechanical properties :
#
#
# Convention : Reuss Voigt Hill
#
# Bulk Modulus (GPa) = 38.70525 45.72222 42.21373
# Shear Modulus (GPa) = 27.37205 14.34770 20.85988
#
# Velocity S-wave (km/s) = 3.46265 2.50695 3.02281
# Velocity P-wave (km/s) = 5.73941 5.32989 5.53844
#
# Compressibility (1/GPa) = 0.02583629
#
# Stress axis : x y z
#
# Youngs Moduli (GPa) = 67.22360 116.48446 93.53598
#
# Poissons Ratio (x) = 0.25620 -0.10557
# Poissons Ratio (y) = 0.14785 0.28874
# Poissons Ratio (z) = -0.07587 0.35958
#
# Static dielectric constant tensor:
#      x y z
#    x 2.052610 0.000000 0.000000 
#    y 0.000000 1.920100 0.000000 
#    z 0.000000 0.000000 1.905400 
# 
# From -- ./inp_files/17397.got.cif
#   From: 2010.05.17/outbox.cif.g08.bks.cpg/sg49_9_cif.got.tgz:17397.got - 2010.06.03 21:02:19.
