data_PCOD9394726
_publ_section_title
;
Structure prediction by ZEFSAII (Michael W. Deem and Ramdas Pophale) SiO2 
 PCOD9394726
Probable space group: P C C M
;
_chemical_formula_sum "Si O2"
_cell_formula_units_Z 36
_cell_length_a 19.715439
_cell_length_b 5.470005
_cell_length_c 14.489521
_cell_angle_alpha 90.000000
_cell_angle_beta 90.000000
_cell_angle_gamma 90.000000
_cell_volume 1562.601381
_symmetry_space_group_name_H-M "P C C M"
_symmetry_group_IT_number 49
_symmetry_cell_setting 'orthorhombic'
loop_
_space_group_symop_operation_xyz
x,y,z
-x,-y,z
x,-y,1/2-z
-x,y,1/2-z
-x,-y,-z
x,y,-z
-x,y,1/2+z
x,-y,1/2+z
loop_
_atom_site_type_symbol
_atom_site_label
_atom_site_fract_x
_atom_site_fract_y
_atom_site_fract_z
Si Si1 0.196881 0.613120 0.647327
Si Si2 0.578520 0.000419 0.362304
Si Si3 0.934110 0.332266 0.900177
Si Si4 0.652605 0.497819 0.637331
Si Si5 0.127085 0.000000 0.750000
O O1 0.196654 0.500000 0.750000
O O2 0.132775 0.500405 0.597276
O O3 0.269781 0.547420 0.607863
O O4 0.177520 0.890737 0.671701
O O5 0.619028 0.755358 0.391187
O O6 0.500000 0.000000 0.390243
O O7 0.579927 0.000000 0.250000
O O8 0.611501 0.256687 0.391368
O O9 0.000000 0.500000 0.890357
O O10 0.921584 0.172732 0.809501
O O11 0.938753 0.201121 0.000000
O O12 0.652371 0.500000 0.750000
#
# Coordination Sequence:
#
# PCOD9394726 Si02
#       5
#     8   8   8   8   4
#     4   9  20  33  55  84 117 157 207 259 321 383
#     4   9  16  25  40  67 107 155 202 253 318 381
#     4  10  23  42  63  92 128 164 210 268 326 388
#     4   9  17  26  45  69 109 154 202 256 317 383
#     4  10  22  39  66  90 121 170 220 264 327 402
#
# _framework density 23.038506000000002
#
# number of rings (size 3 to 8) (size 9 to 14) (size 15 to 20)
#    0.000    2.667    0.000    0.667   10.889    9.333 
#    0.000    2.222    0.000    0.667    0.000    0.000 
#    0.000    5.333    0.000    2.889    0.000    1.333 
#
# Total GULP energy -200942.922847 kJ/mol
# GULP energy per Si atom -5581.747857 kJ/mol
# Density = 2.298607 g / cm^3
# Si number density = 23.038506 Si / 1000 Ang^3
#
#
#
# Elastic Constant Matrix: (Units=GPa)
#
#
# Indices 1 2 3 4 5 6 
#
# 1 239.6429 102.4903 39.2665 0.0000 0.0000 0.0000
# 2 102.4903 144.6510 30.4928 0.0000 0.0000 0.0000
# 3 39.2665 30.4928 106.7911 0.0000 0.0000 0.0000
# 4 0.0000 0.0000 0.0000 -6.9086 0.0000 0.0000
# 5 0.0000 0.0000 0.0000 0.0000 -185.4208 0.0000
# 6 0.0000 0.0000 0.0000 0.0000 0.0000 32.9209
#
#
#
# Elastic Compliance Matrix: (Units=1/GPa)
#
#
# Indices 1 2 3 4 5 6 
#
# 1 0.006101 -0.004096 -0.001074 0.000000 0.000000 0.000000
# 2 -0.004096 0.010106 -0.001380 0.000000 0.000000 0.000000
# 3 -0.001074 -0.001380 0.010153 0.000000 0.000000 0.000000
# 4 0.000000 0.000000 0.000000 -0.144748 0.000000 0.000000
# 5 0.000000 0.000000 0.000000 0.000000 -0.005393 0.000000
# 6 0.000000 0.000000 0.000000 0.000000 0.000000 0.030376
#
#
# Mechanical properties :
#
#
# Convention : Reuss Voigt Hill
#
# Bulk Modulus (GPa) = 75.40898 92.84269 84.12583
# Shear Modulus (GPa) = -65.88789 -10.62599 -38.25694
#
# Velocity S-wave (km/s) = -5.35361 -2.14995 -4.07942
# Velocity P-wave (km/s) = 2.32638 5.85007 3.79548
#
# Compressibility (1/GPa) = 0.01326102
#
# Stress axis : x y z
#
# Youngs Moduli (GPa) = 163.91703 98.94802 98.49565
#
# Poissons Ratio (x) = 0.40531 0.10574
# Poissons Ratio (y) = 0.67144 0.13588
# Poissons Ratio (z) = 0.17597 0.13651
#
# Static dielectric constant tensor:
#      x y z
#    x 1.817980 0.000000 0.000000 
#    y 0.000000 2.069430 0.000000 
#    z 0.000000 0.000000 1.808980 
# 
# From -- ./inp_files/18070.got.cif
#   From: 2010.05.17/outbox.cif.g08.bks.cpg/sg49_10_cif.got.tgz:18070.got - 2010.06.03 21:02:19.
