data_PCOD9394290
_publ_section_title
;
Structure prediction by ZEFSAII (Michael W. Deem and Ramdas Pophale) SiO2 
 PCOD9394290
Probable space group: P C C M
;
_chemical_formula_sum "Si O2"
_cell_formula_units_Z 64
_cell_length_a 9.468696
_cell_length_b 20.162191
_cell_length_c 14.338947
_cell_angle_alpha 90.000000
_cell_angle_beta 90.000000
_cell_angle_gamma 90.000000
_cell_volume 2737.443457
_symmetry_space_group_name_H-M "P C C M"
_symmetry_group_IT_number 49
_symmetry_cell_setting 'orthorhombic'
loop_
_space_group_symop_operation_xyz
x,y,z
-x,-y,z
x,-y,1/2-z
-x,y,1/2-z
-x,-y,-z
x,y,-z
-x,y,1/2+z
x,-y,1/2+z
loop_
_atom_site_type_symbol
_atom_site_label
_atom_site_fract_x
_atom_site_fract_y
_atom_site_fract_z
Si Si1 0.245600 0.810239 0.106827
Si Si2 0.082377 0.935141 0.103408
Si Si3 0.322658 0.711097 0.386979
Si Si4 0.638770 0.672115 0.386477
Si Si5 0.190135 0.549145 0.886180
Si Si6 0.876820 0.594822 0.113714
Si Si7 0.438423 0.150602 0.850063
Si Si8 0.341366 0.984374 0.640415
O O1 0.133106 0.864221 0.148299
O O2 0.269152 0.735836 0.146396
O O3 0.410465 0.835100 0.101778
O O4 0.197010 0.803259 0.000000
O O5 0.234443 0.968072 0.092087
O O6 0.018448 0.923382 0.000000
O O7 0.000000 0.000000 0.145610
O O8 0.314118 0.718694 0.500000
O O9 0.474528 0.679187 0.364143
O O10 0.198002 0.662425 0.355721
O O11 0.343555 0.784118 0.346058
O O12 0.648180 0.674253 0.500000
O O13 0.695737 0.601775 0.354130
O O14 0.202113 0.472842 0.856390
O O15 0.038498 0.580565 0.860100
O O16 0.192479 0.547302 0.000000
O O17 0.873398 0.596874 0.000000
O O18 0.500000 0.129351 0.750000
O O19 0.334216 0.092916 0.882177
O O20 0.500000 0.000000 0.614526
O O21 0.321820 0.000000 0.750000
#
# Coordination Sequence:
#
# PCOD9394290 Si02
#       8
#     8   8   8   8   8   8   8   8
#     4   9  17  31  49  69  99 130 157 196 248 301
#     4  10  21  35  50  74 105 132 162 206 258 311
#     4   9  18  30  44  69 100 126 154 198 248 293
#     4   8  14  24  40  62  88 123 159 185 228 282
#     4   8  13  23  41  64  93 130 159 188 232 281
#     4   8  14  25  40  64  99 127 154 194 237 277
#     4  11  19  32  52  73  96 124 165 211 252 295
#     4  11  20  36  55  75  94 127 175 215 250 300
#
# _framework density 23.379477999999999
#
# number of rings (size 3 to 8) (size 9 to 14) (size 15 to 20)
#    0.000    2.750    2.500    1.875    0.000    2.000 
#    2.250    2.500    0.000    0.000    0.000    7.000 
#    0.000    8.000    0.000    0.500    0.000    0.000 
#
# Total GULP energy -356552.366979 kJ/mol
# GULP energy per Si atom -5571.130734 kJ/mol
# Density = 2.332626 g / cm^3
# Si number density = 23.379478 Si / 1000 Ang^3
#
#
#
# Elastic Constant Matrix: (Units=GPa)
#
#
# Indices 1 2 3 4 5 6 
#
# 1 16.8946 8.4867 -15.5141 0.0000 0.0000 0.0000
# 2 8.4867 98.8567 -27.4261 0.0000 0.0000 0.0000
# 3 -15.5141 -27.4261 52.2274 0.0000 0.0000 0.0000
# 4 0.0000 0.0000 0.0000 16.5459 0.0000 0.0000
# 5 0.0000 0.0000 0.0000 0.0000 7.1391 0.0000
# 6 0.0000 0.0000 0.0000 0.0000 0.0000 50.0652
#
#
#
# Elastic Compliance Matrix: (Units=1/GPa)
#
#
# Indices 1 2 3 4 5 6 
#
# 1 0.081401 -0.000328 0.024008 0.000000 0.000000 0.000000
# 2 -0.000328 0.011842 0.006121 0.000000 0.000000 0.000000
# 3 0.024008 0.006121 0.029493 0.000000 0.000000 0.000000
# 4 0.000000 0.000000 0.000000 0.060438 0.000000 0.000000
# 5 0.000000 0.000000 0.000000 0.000000 0.140073 0.000000
# 6 0.000000 0.000000 0.000000 0.000000 0.000000 0.019974
#
#
# Mechanical properties :
#
#
# Convention : Reuss Voigt Hill
#
# Bulk Modulus (GPa) = 5.48425 11.00799 8.24612
# Shear Modulus (GPa) = 14.51811 28.24554 21.38183
#
# Velocity S-wave (km/s) = 2.49464 3.47959 3.02744
# Velocity P-wave (km/s) = 3.26321 4.56750 3.96929
#
# Compressibility (1/GPa) = 0.18234026
#
# Stress axis : x y z
#
# Youngs Moduli (GPa) = 12.28481 84.44515 33.90624
#
# Poissons Ratio (x) = 0.02766 -0.81403
# Poissons Ratio (y) = 0.00402 -0.20755
# Poissons Ratio (z) = -0.29494 -0.51691
#
# Static dielectric constant tensor:
#      x y z
#    x 1.850090 0.000000 0.000000 
#    y 0.000000 1.935410 0.000000 
#    z 0.000000 0.000000 1.984560 
# 
# From -- ./inp_files/16596.got.cif
#   From: 2010.05.17/outbox.cif.g08.bks.cpg/sg49_9_cif.got.tgz:16596.got - 2010.06.03 21:02:19.
