data_PCOD9394951
_publ_section_title
;
Structure prediction by ZEFSAII (Michael W. Deem and Ramdas Pophale) SiO2 
 PCOD9394951
Probable space group: P C C M
;
_chemical_formula_sum "Si O2"
_cell_formula_units_Z 28
_cell_length_a 7.167390
_cell_length_b 19.422686
_cell_length_c 7.581481
_cell_angle_alpha 90.000000
_cell_angle_beta 90.000000
_cell_angle_gamma 90.000000
_cell_volume 1055.417708
_symmetry_space_group_name_H-M "P C C M"
_symmetry_group_IT_number 49
_symmetry_cell_setting 'orthorhombic'
loop_
_space_group_symop_operation_xyz
x,y,z
-x,-y,z
x,-y,1/2-z
-x,y,1/2-z
-x,-y,-z
x,y,-z
-x,y,1/2+z
x,-y,1/2+z
loop_
_atom_site_type_symbol
_atom_site_label
_atom_site_fract_x
_atom_site_fract_y
_atom_site_fract_z
Si Si1 0.793661 0.775483 0.695345
Si Si2 0.646415 0.311598 0.500000
Si Si3 0.280146 0.076393 0.205914
Si Si4 0.222100 0.421166 0.291296
O O1 0.745174 0.749577 0.500000
O O2 0.663173 0.748712 0.847685
O O3 0.799775 0.858040 0.693940
O O4 0.000000 0.749994 0.750000
O O5 0.677656 0.370103 0.343326
O O6 0.500000 0.076111 0.250000
O O7 0.210422 0.000000 0.250000
O O8 0.251936 0.088159 0.000000
O O9 0.273152 0.500000 0.250000
O O10 0.253272 0.406897 0.500000
O O11 0.000000 0.414994 0.250000
#
# Coordination Sequence:
#
# PCOD9394951 Si02
#       4
#     8   4   8   8
#     4  12  24  39  57  89 125 165 200 245 309 365
#     4  12  22  35  52  76 124 154 204 244 300 364
#     4  11  22  42  66  92 118 158 206 254 299 353
#     4  11  19  30  47  73 106 154 205 241 291 353
#
# _framework density 26.529779999999999
#
# number of rings (size 3 to 8) (size 9 to 14) (size 15 to 20)
#    0.000    0.571    5.714    6.000    0.000    0.571 
#    0.000    2.857    0.000    0.000    0.000    0.000 
#    0.000    3.429    0.000    0.286    0.000    0.000 
#
# Total GULP energy -156178.210818 kJ/mol
# GULP energy per Si atom -5577.793243 kJ/mol
# Density = 2.646940 g / cm^3
# Si number density = 26.529780 Si / 1000 Ang^3
#
#
#
# Elastic Constant Matrix: (Units=GPa)
#
#
# Indices 1 2 3 4 5 6 
#
# 1 103.4808 -12.2718 30.6934 0.0000 0.0000 0.0000
# 2 -12.2718 220.6459 62.1180 0.0000 0.0000 0.0000
# 3 30.6934 62.1180 335.9660 0.0000 0.0000 0.0000
# 4 0.0000 0.0000 0.0000 41.3546 0.0000 0.0000
# 5 0.0000 0.0000 0.0000 0.0000 24.1098 0.0000
# 6 0.0000 0.0000 0.0000 0.0000 0.0000 -190.7642
#
#
#
# Elastic Compliance Matrix: (Units=1/GPa)
#
#
# Indices 1 2 3 4 5 6 
#
# 1 0.010087 0.000866 -0.001082 0.000000 0.000000 0.000000
# 2 0.000866 0.004855 -0.000977 0.000000 0.000000 0.000000
# 3 -0.001082 -0.000977 0.003256 0.000000 0.000000 0.000000
# 4 0.000000 0.000000 0.000000 0.024181 0.000000 0.000000
# 5 0.000000 0.000000 0.000000 0.000000 0.041477 0.000000
# 6 0.000000 0.000000 0.000000 0.000000 0.000000 -0.005242
#
#
# Mechanical properties :
#
#
# Convention : Reuss Voigt Hill
#
# Bulk Modulus (GPa) = 63.24082 91.24132 77.24107
# Shear Modulus (GPa) = 57.95714 13.57693 35.76703
#
# Velocity S-wave (km/s) = 4.67905 2.26467 3.67575
# Velocity P-wave (km/s) = 7.28565 6.42690 6.86971
#
# Compressibility (1/GPa) = 0.01581257
#
# Stress axis : x y z
#
# Youngs Moduli (GPa) = 99.13683 205.96143 307.13448
#
# Poissons Ratio (x) = -0.17826 0.33219
# Poissons Ratio (y) = -0.08580 0.30000
# Poissons Ratio (z) = 0.10722 0.20118
#
# Static dielectric constant tensor:
#      x y z
#    x 2.154070 0.000000 0.000000 
#    y 0.000000 2.027540 0.000000 
#    z 0.000000 0.000000 1.959920 
# 
# From -- ./inp_files/2393.got.cif
#   From: 2010.05.17/outbox.cif.g08.bks.cpg/sg49_2_cif.got.tgz:2393.got - 2010.06.03 21:02:19.
