data_PCOD9394281
_publ_section_title
;
Structure prediction by ZEFSAII (Michael W. Deem and Ramdas Pophale) SiO2 
 PCOD9394281
Probable space group: P C C M
;
_chemical_formula_sum "Si O2"
_cell_formula_units_Z 58
_cell_length_a 11.860885
_cell_length_b 9.615076
_cell_length_c 24.947778
_cell_angle_alpha 90.000000
_cell_angle_beta 90.000000
_cell_angle_gamma 90.000000
_cell_volume 2845.127198
_symmetry_space_group_name_H-M "P C C M"
_symmetry_group_IT_number 49
_symmetry_cell_setting 'orthorhombic'
loop_
_space_group_symop_operation_xyz
x,y,z
-x,-y,z
x,-y,1/2-z
-x,y,1/2-z
-x,-y,-z
x,y,-z
-x,y,1/2+z
x,-y,1/2+z
loop_
_atom_site_type_symbol
_atom_site_label
_atom_site_fract_x
_atom_site_fract_y
_atom_site_fract_z
Si Si1 0.603539 0.894873 0.557807
Si Si2 0.865760 0.481869 0.188371
Si Si3 0.152324 0.839348 0.838076
Si Si4 0.000000 0.000000 0.750000
Si Si5 0.369099 0.986297 0.686668
Si Si6 0.461408 0.346692 0.935487
Si Si7 0.155919 0.977736 0.436194
Si Si8 0.756757 0.260286 0.372971
O O1 0.636344 0.833519 0.500000
O O2 0.553549 0.761793 0.587296
O O3 0.710320 0.989852 0.568193
O O4 0.500000 0.000000 0.553305
O O5 0.827179 0.500000 0.250000
O O6 0.845080 0.326584 0.166179
O O7 0.810857 0.607159 0.155294
O O8 0.000000 0.500000 0.187735
O O9 0.109385 0.903682 0.895366
O O10 0.077219 0.905488 0.789638
O O11 0.280258 0.894950 0.830684
O O12 0.307021 0.843965 0.668525
O O13 0.500000 0.000000 0.667067
O O14 0.374897 0.000000 0.750000
O O15 0.500000 0.500000 0.921576
O O16 0.340084 0.311541 0.912644
O O17 0.454128 0.333889 0.000000
O O18 0.126047 0.979318 0.500000
O O19 0.150957 0.829793 0.406065
#
# Coordination Sequence:
#
# PCOD9394281 Si02
#       8
#     8   8   8   2   8   8   8   8
#     4   9  16  31  55  86 125 173 221 260 305 383
#     4  11  26  46  70  95 129 172 236 301 347 398
#     4  11  25  41  76 102 133 172 234 290 341 392
#     4  12  24  48  78 104 120 176 250 320 320 392
#     4  10  22  40  63  98 137 172 217 272 343 416
#     4  10  21  34  55  88 129 173 216 262 317 400
#     4  10  22  39  64  98 138 175 217 273 342 417
#     4  11  23  37  64  93 130 178 219 272 346 404
#
# _framework density 20.385732000000001
#
# number of rings (size 3 to 8) (size 9 to 14) (size 15 to 20)
#    0.000    1.655    2.069    2.069   11.586    0.000 
#    0.000    1.034    0.000    4.552    0.000    0.000 
#    0.000    0.000    0.000    0.000    0.000    0.000 
#
# Total GULP energy -323293.353721 kJ/mol
# GULP energy per Si atom -5574.023340 kJ/mol
# Density = 2.033933 g / cm^3
# Si number density = 20.385732 Si / 1000 Ang^3
#
#
#
# Elastic Constant Matrix: (Units=GPa)
#
#
# Indices 1 2 3 4 5 6 
#
# 1 98.9333 50.3513 13.7706 0.0000 0.0000 0.0000
# 2 50.3513 196.6556 72.2218 0.0000 0.0000 0.0000
# 3 13.7706 72.2218 130.2430 0.0000 0.0000 0.0000
# 4 0.0000 0.0000 0.0000 25.0821 0.0000 0.0000
# 5 0.0000 0.0000 0.0000 0.0000 3.5802 0.0000
# 6 0.0000 0.0000 0.0000 0.0000 0.0000 29.1419
#
#
#
# Elastic Compliance Matrix: (Units=1/GPa)
#
#
# Indices 1 2 3 4 5 6 
#
# 1 0.011651 -0.003178 0.000530 0.000000 0.000000 0.000000
# 2 -0.003178 0.007252 -0.003685 0.000000 0.000000 0.000000
# 3 0.000530 -0.003685 0.009666 0.000000 0.000000 0.000000
# 4 0.000000 0.000000 0.000000 0.039869 0.000000 0.000000
# 5 0.000000 0.000000 0.000000 0.000000 0.279315 0.000000
# 6 0.000000 0.000000 0.000000 0.000000 0.000000 0.034315
#
#
# Mechanical properties :
#
#
# Convention : Reuss Voigt Hill
#
# Bulk Modulus (GPa) = 62.88140 77.61323 70.24732
# Shear Modulus (GPa) = 12.49889 30.86007 21.67948
#
# Velocity S-wave (km/s) = 2.47881 3.89499 3.26462
# Velocity P-wave (km/s) = 6.25343 7.64087 6.98170
#
# Compressibility (1/GPa) = 0.01590295
#
# Stress axis : x y z
#
# Youngs Moduli (GPa) = 85.82657 137.88938 103.46054
#
# Poissons Ratio (x) = 0.43821 -0.05487
# Poissons Ratio (y) = 0.27275 0.38130
# Poissons Ratio (z) = -0.04552 0.50818
#
# Static dielectric constant tensor:
#      x y z
#    x 1.779210 0.000000 0.000000 
#    y 0.000000 1.735820 0.000000 
#    z 0.000000 0.000000 1.867060 
# 
# From -- ./inp_files/24844.got.cif
#   From: 2010.05.17/outbox.cif.g08.bks.cpg/sg49_13_cif.got.tgz:24844.got - 2010.06.03 21:02:19.
