data_PCOD9394110
_publ_section_title
;
Structure prediction by ZEFSAII (Michael W. Deem and Ramdas Pophale) SiO2 
 PCOD9394110
Probable space group: P C C M
;
_chemical_formula_sum "Si O2"
_cell_formula_units_Z 32
_cell_length_a 13.313268
_cell_length_b 9.485371
_cell_length_c 11.258165
_cell_angle_alpha 90.000000
_cell_angle_beta 90.000000
_cell_angle_gamma 90.000000
_cell_volume 1421.695556
_symmetry_space_group_name_H-M "P C C M"
_symmetry_group_IT_number 49
_symmetry_cell_setting 'orthorhombic'
loop_
_space_group_symop_operation_xyz
x,y,z
-x,-y,z
x,-y,1/2-z
-x,y,1/2-z
-x,-y,-z
x,y,-z
-x,y,1/2+z
x,-y,1/2+z
loop_
_atom_site_type_symbol
_atom_site_label
_atom_site_fract_x
_atom_site_fract_y
_atom_site_fract_z
Si Si1 0.731963 0.838815 0.213723
Si Si2 0.522979 0.787992 0.874693
Si Si3 0.335530 0.598261 0.134563
Si Si4 0.957429 0.838654 0.870641
O O1 0.642528 0.777264 0.132327
O O2 0.726806 0.739964 0.330857
O O3 0.838116 0.838521 0.148552
O O4 0.711794 0.000000 0.250000
O O5 0.500000 0.859210 0.750000
O O6 0.452086 0.650061 0.868422
O O7 0.493493 0.852970 0.000000
O O8 0.320180 0.500000 0.250000
O O9 0.311526 0.548839 0.000000
O O10 0.000000 0.770795 0.750000
O O11 0.982870 0.777000 0.000000
O O12 0.000000 0.000000 0.872219
#
# Coordination Sequence:
#
# PCOD9394110 Si02
#       4
#     8   8   8   8
#     4  11  22  39  64 101 134 172 220 284 340 399
#     4   9  20  37  57  86 124 169 214 262 316 380
#     4  10  24  44  67  96 137 186 235 275 326 400
#     4  10  20  37  61  94 129 170 214 268 335 404
#
# _framework density 22.508334999999999
#
# number of rings (size 3 to 8) (size 9 to 14) (size 15 to 20)
#    0.000    2.000    2.500    0.750    0.000   17.000 
#    0.000   22.500    0.000    0.750    0.000    3.500 
#    0.000    0.000    0.000    0.000    0.000    0.000 
#
# Total GULP energy -178151.455482 kJ/mol
# GULP energy per Si atom -5567.232984 kJ/mol
# Density = 2.245711 g / cm^3
# Si number density = 22.508335 Si / 1000 Ang^3
#
#
#
# Elastic Constant Matrix: (Units=GPa)
#
#
# Indices 1 2 3 4 5 6 
#
# 1 99.7813 1.0158 26.1911 0.0000 0.0000 0.0000
# 2 1.0158 92.6689 46.8139 0.0000 0.0000 0.0000
# 3 26.1911 46.8139 273.0483 0.0000 0.0000 0.0000
# 4 0.0000 0.0000 0.0000 -54.9035 0.0000 0.0000
# 5 0.0000 0.0000 0.0000 0.0000 -6.0976 0.0000
# 6 0.0000 0.0000 0.0000 0.0000 0.0000 -3.5306
#
#
#
# Elastic Compliance Matrix: (Units=1/GPa)
#
#
# Indices 1 2 3 4 5 6 
#
# 1 0.010296 0.000423 -0.001060 0.000000 0.000000 0.000000
# 2 0.000423 0.011832 -0.002069 0.000000 0.000000 0.000000
# 3 -0.001060 -0.002069 0.004119 0.000000 0.000000 0.000000
# 4 0.000000 0.000000 0.000000 -0.018214 0.000000 0.000000
# 5 0.000000 0.000000 0.000000 0.000000 -0.164000 0.000000
# 6 0.000000 0.000000 0.000000 0.000000 0.000000 -0.283236
#
#
# Mechanical properties :
#
#
# Convention : Reuss Voigt Hill
#
# Bulk Modulus (GPa) = 47.99984 68.17112 58.08548
# Shear Modulus (GPa) = -11.71384 13.19218 0.73917
#
# Velocity S-wave (km/s) = -2.28375 2.42358 0.57368
# Velocity P-wave (km/s) = 3.79706 6.17936 5.12845
#
# Compressibility (1/GPa) = 0.02083340
#
# Stress axis : x y z
#
# Youngs Moduli (GPa) = 97.12640 84.51852 242.79030
#
# Poissons Ratio (x) = -0.03572 0.25737
# Poissons Ratio (y) = -0.04105 0.50235
# Poissons Ratio (z) = 0.10296 0.17488
#
# Static dielectric constant tensor:
#      x y z
#    x 1.859960 0.000000 0.000000 
#    y 0.000000 1.860760 0.000000 
#    z 0.000000 0.000000 1.905240 
# 
# From -- ./inp_files/8539.got.cif
#   From: 2010.05.17/outbox.cif.g08.bks.cpg/sg49_5_cif.got.tgz:8539.got - 2010.06.03 21:02:19.
