data_PCOD9394799
_publ_section_title
;
Structure prediction by ZEFSAII (Michael W. Deem and Ramdas Pophale) SiO2 
 PCOD9394799
Probable space group: P C C M
;
_chemical_formula_sum "Si O2"
_cell_formula_units_Z 26
_cell_length_a 5.278659
_cell_length_b 15.185142
_cell_length_c 15.430745
_cell_angle_alpha 90.000000
_cell_angle_beta 90.000000
_cell_angle_gamma 90.000000
_cell_volume 1236.885105
_symmetry_space_group_name_H-M "P C C M"
_symmetry_group_IT_number 49
_symmetry_cell_setting 'orthorhombic'
loop_
_space_group_symop_operation_xyz
x,y,z
-x,-y,z
x,-y,1/2-z
-x,y,1/2-z
-x,-y,-z
x,y,-z
-x,y,1/2+z
x,-y,1/2+z
loop_
_atom_site_type_symbol
_atom_site_label
_atom_site_fract_x
_atom_site_fract_y
_atom_site_fract_z
Si Si1 0.746194 0.245947 0.690339
Si Si2 0.705295 0.419846 0.595100
Si Si3 0.748985 0.944731 0.895650
Si Si4 0.000000 0.500000 0.250000
O O1 0.500000 0.248427 0.750000
O O2 0.670880 0.316440 0.614472
O O3 0.768757 0.149740 0.648838
O O4 0.000000 0.262332 0.750000
O O5 0.500000 0.500000 0.592265
O O6 0.830580 0.423927 0.500000
O O7 0.843968 0.442540 0.683851
O O8 0.500000 0.000000 0.869252
O O9 0.736802 0.933110 0.000000
O O10 0.000000 0.000000 0.875127
#
# Coordination Sequence:
#
# PCOD9394799 Si02
#       4
#     8   8   8   2
#     4  12  25  43  68 100 138 180 233 294 347 418
#     4  11  25  44  68  98 137 185 230 287 357 422
#     4  10  22  42  66  96 136 180 229 287 350 421
#     4  12  20  44  68  96 134 168 228 292 338 418
#
# _framework density 21.020546
#
# number of rings (size 3 to 8) (size 9 to 14) (size 15 to 20)
#    0.000    0.923    1.538    5.538    0.000    3.692 
#    0.000    3.077    0.000    0.000    0.000    0.000 
#    0.000    0.000    0.000    0.000    0.000    0.000 
#
# Total GULP energy -144777.827922 kJ/mol
# GULP energy per Si atom -5568.377997 kJ/mol
# Density = 2.097270 g / cm^3
# Si number density = 21.020546 Si / 1000 Ang^3
#
#
#
# Elastic Constant Matrix: (Units=GPa)
#
#
# Indices 1 2 3 4 5 6 
#
# 1 129.4099 58.7482 51.1000 0.0000 0.0000 0.0000
# 2 58.7482 178.7756 72.2095 0.0000 0.0000 0.0000
# 3 51.1000 72.2095 151.8531 0.0000 0.0000 0.0000
# 4 0.0000 0.0000 0.0000 50.0763 0.0000 0.0000
# 5 0.0000 0.0000 0.0000 0.0000 19.0911 0.0000
# 6 0.0000 0.0000 0.0000 0.0000 0.0000 12.8140
#
#
#
# Elastic Compliance Matrix: (Units=1/GPa)
#
#
# Indices 1 2 3 4 5 6 
#
# 1 0.009616 -0.002293 -0.002145 0.000000 0.000000 0.000000
# 2 -0.002293 0.007470 -0.002781 0.000000 0.000000 0.000000
# 3 -0.002145 -0.002781 0.008629 0.000000 0.000000 0.000000
# 4 0.000000 0.000000 0.000000 0.019970 0.000000 0.000000
# 5 0.000000 0.000000 0.000000 0.000000 0.052381 0.000000
# 6 0.000000 0.000000 0.000000 0.000000 0.000000 0.078040
#
#
# Mechanical properties :
#
#
# Convention : Reuss Voigt Hill
#
# Bulk Modulus (GPa) = 88.67536 91.57266 90.12401
# Shear Modulus (GPa) = 25.73310 34.92833 30.33071
#
# Velocity S-wave (km/s) = 3.50264 4.08073 3.80268
# Velocity P-wave (km/s) = 7.65732 8.11549 7.88973
#
# Compressibility (1/GPa) = 0.01127709
#
# Stress axis : x y z
#
# Youngs Moduli (GPa) = 103.99807 133.86276 115.88266
#
# Poissons Ratio (x) = 0.30699 0.24859
# Poissons Ratio (y) = 0.23850 0.32222
# Poissons Ratio (z) = 0.22310 0.37222
#
# Static dielectric constant tensor:
#      x y z
#    x 1.821530 0.000000 0.000000 
#    y 0.000000 1.953640 0.000000 
#    z 0.000000 0.000000 1.832590 
# 
# From -- ./inp_files/10444.got.cif
#   From: 2010.05.17/outbox.cif.g08.bks.cpg/sg49_6_cif.got.tgz:10444.got - 2010.06.03 21:02:19.
