data_PCOD9394219
_publ_section_title
;
Structure prediction by ZEFSAII (Michael W. Deem and Ramdas Pophale) SiO2 
 PCOD9394219
Probable space group: P C C M
;
_chemical_formula_sum "Si O2"
_cell_formula_units_Z 64
_cell_length_a 27.125405
_cell_length_b 5.382260
_cell_length_c 20.100969
_cell_angle_alpha 90.000000
_cell_angle_beta 90.000000
_cell_angle_gamma 90.000000
_cell_volume 2934.660715
_symmetry_space_group_name_H-M "P C C M"
_symmetry_group_IT_number 49
_symmetry_cell_setting 'orthorhombic'
loop_
_space_group_symop_operation_xyz
x,y,z
-x,-y,z
x,-y,1/2-z
-x,y,1/2-z
-x,-y,-z
x,y,-z
-x,y,1/2+z
x,-y,1/2+z
loop_
_atom_site_type_symbol
_atom_site_label
_atom_site_fract_x
_atom_site_fract_y
_atom_site_fract_z
Si Si1 0.143715 0.811841 0.072923
Si Si2 0.348247 0.139125 0.921257
Si Si3 0.830254 0.434041 0.678222
Si Si4 0.951862 0.831911 0.068936
Si Si5 0.763850 0.825880 0.077029
Si Si6 0.929662 0.247058 0.710621
Si Si7 0.555005 0.254615 0.780177
Si Si8 0.590924 0.635062 0.579903
O O1 0.139247 0.640477 0.137306
O O2 0.196625 0.949467 0.077909
O O3 0.097930 0.001800 0.070869
O O4 0.143418 0.681577 0.000000
O O5 0.382343 0.374408 0.901057
O O6 0.291640 0.127733 0.898438
O O7 0.372454 0.869555 0.912978
O O8 0.344692 0.179305 0.000000
O O9 0.809385 0.500000 0.750000
O O10 0.870913 0.226706 0.695319
O O11 0.788382 0.366054 0.626750
O O12 0.954661 0.708850 0.139906
O O13 0.949646 0.679994 0.000000
O O14 0.000000 0.000000 0.065554
O O15 0.762201 0.740878 0.000000
O O16 0.936510 0.500000 0.750000
O O17 0.944852 0.000000 0.750000
O O18 0.580267 0.500000 0.750000
O O19 0.500000 0.252008 0.750000
O O20 0.552992 0.294712 0.860275
O O21 0.577819 0.000000 0.750000
O O22 0.575734 0.624743 0.500000
#
# Coordination Sequence:
#
# PCOD9394219 Si02
#       8
#     8   8   8   8   8   8   8   8
#     4  10  21  39  63  88 116 162 207 256 325 387
#     4   9  20  36  61  93 123 163 217 272 320 373
#     4  11  23  36  61  85 122 159 201 258 317 375
#     4  10  21  41  67  96 128 159 207 269 326 391
#     4  10  21  37  61  87 118 158 211 264 314 384
#     4  11  24  44  67  90 123 165 206 250 314 390
#     4  10  21  39  63  94 133 176 216 264 323 379
#     4  10  20  39  64  91 127 171 219 270 320 371
#
# _framework density 21.808312000000001
#
# number of rings (size 3 to 8) (size 9 to 14) (size 15 to 20)
#    0.000    1.875    1.250    2.625    1.750    0.750 
#    0.000   10.000    2.750    6.750    0.000    0.000 
#    0.000    0.000    0.000    0.000    0.000    0.000 
#
# Total GULP energy -356645.919319 kJ/mol
# GULP energy per Si atom -5572.592489 kJ/mol
# Density = 2.175868 g / cm^3
# Si number density = 21.808312 Si / 1000 Ang^3
#
#
#
# Elastic Constant Matrix: (Units=GPa)
#
#
# Indices 1 2 3 4 5 6 
#
# 1 67.3731 2.4920 23.2466 0.0000 0.0000 0.0000
# 2 2.4920 83.7625 33.1908 0.0000 0.0000 0.0000
# 3 23.2466 33.1908 175.0517 0.0000 0.0000 0.0000
# 4 0.0000 0.0000 0.0000 30.3509 0.0000 0.0000
# 5 0.0000 0.0000 0.0000 0.0000 33.2759 0.0000
# 6 0.0000 0.0000 0.0000 0.0000 0.0000 13.4997
#
#
#
# Elastic Compliance Matrix: (Units=1/GPa)
#
#
# Indices 1 2 3 4 5 6 
#
# 1 0.015567 0.000385 -0.002140 0.000000 0.000000 0.000000
# 2 0.000385 0.012918 -0.002500 0.000000 0.000000 0.000000
# 3 -0.002140 -0.002500 0.006471 0.000000 0.000000 0.000000
# 4 0.000000 0.000000 0.000000 0.032948 0.000000 0.000000
# 5 0.000000 0.000000 0.000000 0.000000 0.030052 0.000000
# 6 0.000000 0.000000 0.000000 0.000000 0.000000 0.074076
#
#
# Mechanical properties :
#
#
# Convention : Reuss Voigt Hill
#
# Bulk Modulus (GPa) = 37.81540 49.33846 43.57693
# Shear Modulus (GPa) = 26.40508 33.24248 29.82378
#
# Velocity S-wave (km/s) = 3.48340 3.90847 3.70204
# Velocity P-wave (km/s) = 5.79278 6.56056 6.18859
#
# Compressibility (1/GPa) = 0.02644426
#
# Stress axis : x y z
#
# Youngs Moduli (GPa) = 64.23864 77.41225 154.53765
#
# Poissons Ratio (x) = -0.02980 0.33075
# Poissons Ratio (y) = -0.02473 0.38641
# Poissons Ratio (z) = 0.13749 0.19356
#
# Static dielectric constant tensor:
#      x y z
#    x 1.569560 0.000000 0.000000 
#    y 0.000000 1.903380 0.000000 
#    z 0.000000 0.000000 1.903520 
# 
# From -- ./inp_files/18436.got.cif
#   From: 2010.05.17/outbox.cif.g08.bks.cpg/sg49_10_cif.got.tgz:18436.got - 2010.06.03 21:02:19.
