data_PCOD9394417
_publ_section_title
;
Structure prediction by ZEFSAII (Michael W. Deem and Ramdas Pophale) SiO2 
 PCOD9394417
Probable space group: P C C M
;
_chemical_formula_sum "Si O2"
_cell_formula_units_Z 64
_cell_length_a 19.036349
_cell_length_b 12.525229
_cell_length_c 13.869842
_cell_angle_alpha 90.000000
_cell_angle_beta 90.000000
_cell_angle_gamma 90.000000
_cell_volume 3307.050653
_symmetry_space_group_name_H-M "P C C M"
_symmetry_group_IT_number 49
_symmetry_cell_setting 'orthorhombic'
loop_
_space_group_symop_operation_xyz
x,y,z
-x,-y,z
x,-y,1/2-z
-x,y,1/2-z
-x,-y,-z
x,y,-z
-x,y,1/2+z
x,-y,1/2+z
loop_
_atom_site_type_symbol
_atom_site_label
_atom_site_fract_x
_atom_site_fract_y
_atom_site_fract_z
Si Si1 0.081333 0.819922 0.734965
Si Si2 0.865840 0.991229 0.612463
Si Si3 0.586167 0.887175 0.202444
Si Si4 0.791377 0.327628 0.280608
Si Si5 0.731838 0.875712 0.111822
Si Si6 0.266849 0.532817 0.115295
Si Si7 0.555286 0.793530 0.608371
Si Si8 0.572231 0.540736 0.607876
O O1 0.091409 0.903209 0.646265
O O2 0.128834 0.715041 0.722976
O O3 0.000000 0.796549 0.750000
O O4 0.111146 0.891196 0.823620
O O5 0.875523 0.970892 0.500000
O O6 0.785102 0.026712 0.631020
O O7 0.651867 0.902413 0.133518
O O8 0.603442 0.821284 0.299675
O O9 0.521657 0.833896 0.144181
O O10 0.568999 0.000000 0.250000
O O11 0.751297 0.224437 0.321627
O O12 0.764517 0.369225 0.176951
O O13 0.775042 0.427156 0.351229
O O14 0.741897 0.845914 0.000000
O O15 0.349196 0.518951 0.143923
O O16 0.263704 0.549037 0.000000
O O17 0.570185 0.836562 0.500000
O O18 0.560966 0.666943 0.602027
O O19 0.500000 0.500000 0.653045
O O20 0.573560 0.492286 0.500000
#
# Coordination Sequence:
#
# PCOD9394417 Si02
#       8
#     8   8   8   8   8   8   8   8
#     4  10  21  37  61  90 125 161 195 247 295 352
#     4   9  19  36  59  90 125 159 196 243 296 356
#     4  11  24  36  55  80 113 156 203 250 295 360
#     4  10  22  38  60  87 120 156 201 244 296 372
#     4  10  21  37  59  87 118 157 201 245 299 365
#     4  10  21  40  61  85 119 157 195 252 312 357
#     4  10  21  39  56  77 110 150 199 255 310 361
#     4   9  19  36  58  83 108 138 187 247 307 360
#
# _framework density 19.352592000000001
#
# number of rings (size 3 to 8) (size 9 to 14) (size 15 to 20)
#    0.000    2.125    0.000    3.000    5.250    3.500 
#    2.250    1.250    0.000    0.750    0.000    0.000 
#    0.000    0.000    0.000    0.000    0.000    0.000 
#
# Total GULP energy -356749.639072 kJ/mol
# GULP energy per Si atom -5574.213110 kJ/mol
# Density = 1.930854 g / cm^3
# Si number density = 19.352592 Si / 1000 Ang^3
#
#
#
# Elastic Constant Matrix: (Units=GPa)
#
#
# Indices 1 2 3 4 5 6 
#
# 1 139.8583 46.5741 25.3047 0.0000 0.0000 0.0000
# 2 46.5741 75.7849 31.7136 0.0000 0.0000 0.0000
# 3 25.3047 31.7136 133.3361 0.0000 0.0000 0.0000
# 4 0.0000 0.0000 0.0000 16.2076 0.0000 0.0000
# 5 0.0000 0.0000 0.0000 0.0000 15.8827 0.0000
# 6 0.0000 0.0000 0.0000 0.0000 0.0000 1.3996
#
#
#
# Elastic Compliance Matrix: (Units=1/GPa)
#
#
# Indices 1 2 3 4 5 6 
#
# 1 0.009013 -0.005356 -0.000436 0.000000 0.000000 0.000000
# 2 -0.005356 0.017837 -0.003226 0.000000 0.000000 0.000000
# 3 -0.000436 -0.003226 0.008350 0.000000 0.000000 0.000000
# 4 0.000000 0.000000 0.000000 0.061700 0.000000 0.000000
# 5 0.000000 0.000000 0.000000 0.000000 0.062962 0.000000
# 6 0.000000 0.000000 0.000000 0.000000 0.000000 0.714487
#
#
# Mechanical properties :
#
#
# Convention : Reuss Voigt Hill
#
# Bulk Modulus (GPa) = 58.26715 61.79602 60.03158
# Shear Modulus (GPa) = 5.56727 23.05710 14.31218
#
# Velocity S-wave (km/s) = 1.69794 3.45544 2.72241
# Velocity P-wave (km/s) = 5.83246 6.92251 6.40073
#
# Compressibility (1/GPa) = 0.01716233
#
# Stress axis : x y z
#
# Youngs Moduli (GPa) = 110.95424 56.06361 119.76094
#
# Poissons Ratio (x) = 0.30029 0.05227
# Poissons Ratio (y) = 0.59429 0.38634
# Poissons Ratio (z) = 0.04843 0.18086
#
# Static dielectric constant tensor:
#      x y z
#    x 1.700050 0.000000 0.000000 
#    y 0.000000 1.593080 0.000000 
#    z 0.000000 0.000000 1.692180 
# 
# From -- ./inp_files/14171.got.cif
#   From: 2010.05.17/outbox.cif.g08.bks.cpg/sg49_8_cif.got.tgz:14171.got - 2010.06.03 21:02:19.
