data_PCOD9394309
_publ_section_title
;
Structure prediction by ZEFSAII (Michael W. Deem and Ramdas Pophale) SiO2 
 PCOD9394309
Probable space group: P C C M
;
_chemical_formula_sum "Si O2"
_cell_formula_units_Z 40
_cell_length_a 5.211610
_cell_length_b 13.703080
_cell_length_c 24.571844
_cell_angle_alpha 90.000000
_cell_angle_beta 90.000000
_cell_angle_gamma 90.000000
_cell_volume 1754.800912
_symmetry_space_group_name_H-M "P C C M"
_symmetry_group_IT_number 49
_symmetry_cell_setting 'orthorhombic'
loop_
_space_group_symop_operation_xyz
x,y,z
-x,-y,z
x,-y,1/2-z
-x,y,1/2-z
-x,-y,-z
x,y,-z
-x,y,1/2+z
x,-y,1/2+z
loop_
_atom_site_type_symbol
_atom_site_label
_atom_site_fract_x
_atom_site_fract_y
_atom_site_fract_z
Si Si1 0.247648 0.065385 0.436489
Si Si2 0.244809 0.787832 0.716564
Si Si3 0.009571 0.610757 0.830825
Si Si4 0.681959 0.594482 0.938577
Si Si5 0.579782 0.755203 0.376766
O O1 0.254052 0.096137 0.500000
O O2 0.242736 0.159102 0.398000
O O3 0.500000 0.000000 0.426775
O O4 0.000000 0.000000 0.428014
O O5 0.500000 0.807965 0.750000
O O6 0.175837 0.674073 0.707252
O O7 0.343308 0.807145 0.655012
O O8 0.000000 0.829640 0.750000
O O9 0.894546 0.601880 0.891958
O O10 0.000000 0.500000 0.811479
O O11 0.265257 0.677098 0.838808
O O12 0.500000 0.500000 0.929621
O O13 0.518231 0.691571 0.927258
O O14 0.781389 0.590654 0.000000
#
# Coordination Sequence:
#
# PCOD9394309 Si02
#       5
#     8   8   8   8   8
#     4  10  24  44  69 104 138 174 226 275 333 411
#     4  11  24  44  64  97 129 175 225 282 337 399
#     4  11  23  40  60  94 134 177 228 271 324 402
#     4  10  21  35  56  91 137 183 223 268 324 401
#     4  11  23  42  68  93 136 181 219 285 339 399
#
# _framework density 22.794608
#
# number of rings (size 3 to 8) (size 9 to 14) (size 15 to 20)
#    0.000    1.400    4.000    0.600    5.600    2.400 
#    3.600    0.000    0.000    0.600    5.200    0.000 
#    0.000    0.000    0.000    0.000    0.000    0.000 
#
# Total GULP energy -223171.520752 kJ/mol
# GULP energy per Si atom -5579.288019 kJ/mol
# Density = 2.274273 g / cm^3
# Si number density = 22.794608 Si / 1000 Ang^3
#
#
#
# Elastic Constant Matrix: (Units=GPa)
#
#
# Indices 1 2 3 4 5 6 
#
# 1 134.8707 21.5192 37.9771 0.0000 0.0000 0.0000
# 2 21.5192 53.5693 25.5593 0.0000 0.0000 0.0000
# 3 37.9771 25.5593 97.4884 0.0000 0.0000 0.0000
# 4 0.0000 0.0000 0.0000 -25.3193 0.0000 0.0000
# 5 0.0000 0.0000 0.0000 0.0000 28.8428 0.0000
# 6 0.0000 0.0000 0.0000 0.0000 0.0000 13.5178
#
#
#
# Elastic Compliance Matrix: (Units=1/GPa)
#
#
# Indices 1 2 3 4 5 6 
#
# 1 0.008531 -0.002105 -0.002771 0.000000 0.000000 0.000000
# 2 -0.002105 0.021856 -0.004910 0.000000 0.000000 0.000000
# 3 -0.002771 -0.004910 0.012625 0.000000 0.000000 0.000000
# 4 0.000000 0.000000 0.000000 -0.039496 0.000000 0.000000
# 5 0.000000 0.000000 0.000000 0.000000 0.034671 0.000000
# 6 0.000000 0.000000 0.000000 0.000000 0.000000 0.073976
#
#
# Mechanical properties :
#
#
# Convention : Reuss Voigt Hill
#
# Bulk Modulus (GPa) = 42.66471 50.67105 46.66788
# Shear Modulus (GPa) = 35.83009 16.79979 26.31494
#
# Velocity S-wave (km/s) = 3.96898 2.71773 3.40139
# Velocity P-wave (km/s) = 6.30566 5.66796 5.99530
#
# Compressibility (1/GPa) = 0.02343858
#
# Stress axis : x y z
#
# Youngs Moduli (GPa) = 117.22409 45.75482 79.21047
#
# Poissons Ratio (x) = 0.09629 0.21952
# Poissons Ratio (y) = 0.24670 0.38894
# Poissons Ratio (z) = 0.32488 0.22467
#
# Static dielectric constant tensor:
#      x y z
#    x 1.913910 0.000000 0.000000 
#    y 0.000000 1.825670 0.000000 
#    z 0.000000 0.000000 1.929310 
# 
# From -- ./inp_files/21725.got.cif
#   From: 2010.05.17/outbox.cif.g08.bks.cpg/sg49_11_cif.got.tgz:21725.got - 2010.06.03 21:02:19.
