data_PCOD9394921
_publ_section_title
;
Structure prediction by ZEFSAII (Michael W. Deem and Ramdas Pophale) SiO2 
 PCOD9394921
Probable space group: P C C M
;
_chemical_formula_sum "Si O2"
_cell_formula_units_Z 52
_cell_length_a 5.270482
_cell_length_b 20.220637
_cell_length_c 21.529453
_cell_angle_alpha 90.000000
_cell_angle_beta 90.000000
_cell_angle_gamma 90.000000
_cell_volume 2294.447702
_symmetry_space_group_name_H-M "P C C M"
_symmetry_group_IT_number 49
_symmetry_cell_setting 'orthorhombic'
loop_
_space_group_symop_operation_xyz
x,y,z
-x,-y,z
x,-y,1/2-z
-x,y,1/2-z
-x,-y,-z
x,y,-z
-x,y,1/2+z
x,-y,1/2+z
loop_
_atom_site_type_symbol
_atom_site_label
_atom_site_fract_x
_atom_site_fract_y
_atom_site_fract_z
Si Si1 0.359535 0.824083 0.601633
Si Si2 0.019744 0.108781 0.683532
Si Si3 0.557453 0.421991 0.426106
Si Si4 0.297467 0.059273 0.432739
Si Si5 0.967768 0.243794 0.500000
Si Si6 0.322250 0.247711 0.690486
Si Si7 0.944901 0.653242 0.387524
O O1 0.558864 0.870479 0.567812
O O2 0.139428 0.806325 0.554487
O O3 0.494315 0.759725 0.629967
O O4 0.248571 0.865063 0.658953
O O5 0.129837 0.064602 0.628454
O O6 0.188155 0.175604 0.693541
O O7 0.000000 0.075921 0.750000
O O8 0.500000 0.500000 0.421657
O O9 0.586370 0.405858 0.500000
O O10 0.308431 0.388425 0.398494
O O11 0.807205 0.393560 0.391551
O O12 0.168158 0.054094 0.500000
O O13 0.500000 0.000000 0.428041
O O14 0.037395 0.296928 0.445420
O O15 0.500000 0.260032 0.750000
O O16 0.110081 0.301973 0.673572
#
# Coordination Sequence:
#
# PCOD9394921 Si02
#       7
#     8   8   8   8   4   8   8
#     4  11  23  40  65  97 139 180 225 303 365 437
#     4  11  23  41  68  95 132 182 233 300 375 439
#     4  11  23  42  65 101 151 194 233 283 355 427
#     4  10  24  44  67  96 134 183 241 296 366 449
#     4  12  22  38  62 107 137 169 227 284 376 424
#     4  11  24  41  65  97 139 184 236 294 367 436
#     4  12  24  39  69 104 144 188 237 297 351 438
#
# _framework density 22.663406999999999
#
# number of rings (size 3 to 8) (size 9 to 14) (size 15 to 20)
#    0.000    0.923    5.385    1.385    1.077    2.462 
#    0.000    3.846    0.000    0.462    0.000    4.308 
#    0.000    0.000    0.000    0.000    0.000    0.000 
#
# Total GULP energy -289877.102683 kJ/mol
# GULP energy per Si atom -5574.559667 kJ/mol
# Density = 2.261182 g / cm^3
# Si number density = 22.663407 Si / 1000 Ang^3
#
#
#
# Elastic Constant Matrix: (Units=GPa)
#
#
# Indices 1 2 3 4 5 6 
#
# 1 126.9356 53.8937 48.7258 0.0000 0.0000 0.0000
# 2 53.8937 93.8911 45.5274 0.0000 0.0000 0.0000
# 3 48.7258 45.5274 149.3406 0.0000 0.0000 0.0000
# 4 0.0000 0.0000 0.0000 35.2081 0.0000 0.0000
# 5 0.0000 0.0000 0.0000 0.0000 -92.1929 0.0000
# 6 0.0000 0.0000 0.0000 0.0000 0.0000 40.8759
#
#
#
# Elastic Compliance Matrix: (Units=1/GPa)
#
#
# Indices 1 2 3 4 5 6 
#
# 1 0.010871 -0.005304 -0.001930 0.000000 0.000000 0.000000
# 2 -0.005304 0.015086 -0.002869 0.000000 0.000000 0.000000
# 3 -0.001930 -0.002869 0.008200 0.000000 0.000000 0.000000
# 4 0.000000 0.000000 0.000000 0.028403 0.000000 0.000000
# 5 0.000000 0.000000 0.000000 0.000000 -0.010847 0.000000
# 6 0.000000 0.000000 0.000000 0.000000 0.000000 0.024464
#
#
# Mechanical properties :
#
#
# Convention : Reuss Voigt Hill
#
# Bulk Modulus (GPa) = 71.67309 74.05125 72.86217
# Shear Modulus (GPa) = 49.48885 11.57958 30.53421
#
# Velocity S-wave (km/s) = 4.67802 2.26284 3.67453
# Velocity P-wave (km/s) = 7.80206 6.29067 7.08677
#
# Compressibility (1/GPa) = 0.01395224
#
# Stress axis : x y z
#
# Youngs Moduli (GPa) = 91.98966 66.28612 121.94753
#
# Poissons Ratio (x) = 0.35159 0.23534
# Poissons Ratio (y) = 0.48792 0.34981
# Poissons Ratio (z) = 0.17753 0.19014
#
# Static dielectric constant tensor:
#      x y z
#    x 1.941170 0.000000 0.000000 
#    y 0.000000 1.853030 0.000000 
#    z 0.000000 0.000000 1.842680 
# 
# From -- ./inp_files/19026.got.cif
#   From: 2010.05.17/outbox.cif.g08.bks.cpg/sg49_10_cif.got.tgz:19026.got - 2010.06.03 21:02:19.
