data_PCOD9394051
_publ_section_title
;
Structure prediction by ZEFSAII (Michael W. Deem and Ramdas Pophale) SiO2 
 PCOD9394051
Probable space group: P C C M
;
_chemical_formula_sum "Si O2"
_cell_formula_units_Z 48
_cell_length_a 9.879894
_cell_length_b 8.000559
_cell_length_c 28.967642
_cell_angle_alpha 90.000000
_cell_angle_beta 90.000000
_cell_angle_gamma 90.000000
_cell_volume 2289.737843
_symmetry_space_group_name_H-M "P C C M"
_symmetry_group_IT_number 49
_symmetry_cell_setting 'orthorhombic'
loop_
_space_group_symop_operation_xyz
x,y,z
-x,-y,z
x,-y,1/2-z
-x,y,1/2-z
-x,-y,-z
x,y,-z
-x,y,1/2+z
x,-y,1/2+z
loop_
_atom_site_type_symbol
_atom_site_label
_atom_site_fract_x
_atom_site_fract_y
_atom_site_fract_z
Si Si1 0.974195 0.694295 0.407441
Si Si2 0.115020 0.124380 0.318864
Si Si3 0.241434 0.883455 0.603101
Si Si4 0.381154 0.824607 0.222251
Si Si5 0.686929 0.801207 0.446929
Si Si6 0.505012 0.689319 0.867221
O O1 0.106908 0.803366 0.418665
O O2 0.000000 0.500000 0.413920
O O3 0.946320 0.738834 0.353618
O O4 0.841444 0.748145 0.435526
O O5 0.222140 0.212084 0.284850
O O6 0.196151 0.999530 0.353800
O O7 0.000000 0.000000 0.299770
O O8 0.343536 0.744170 0.621198
O O9 0.317716 0.004043 0.567467
O O10 0.500000 0.727952 0.250000
O O11 0.442025 0.813407 0.170828
O O12 0.372198 0.000000 0.250000
O O13 0.654874 0.774175 0.500000
O O14 0.587531 0.703985 0.412606
O O15 0.500000 0.500000 0.849822
#
# Coordination Sequence:
#
# PCOD9394051 Si02
#       6
#     8   8   8   8   8   8
#     4  10  20  38  65  98 133 181 217 280 347 392
#     4   9  19  38  64  99 129 172 224 266 331 404
#     4  10  20  36  65  94 126 179 227 269 330 399
#     4  11  22  38  69  99 128 172 223 272 330 408
#     4  11  24  42  66  96 133 182 237 279 327 410
#     4  12  25  43  67  98 141 175 216 288 348 399
#
# _framework density 20.963099
#
# number of rings (size 3 to 8) (size 9 to 14) (size 15 to 20)
#    0.000    1.500    3.333    5.000    0.000    4.000 
#    0.000    1.667    0.000    0.000    0.000    0.000 
#    0.000    0.000    0.000    0.000    0.000    0.000 
#
# Total GULP energy -267677.681069 kJ/mol
# GULP energy per Si atom -5576.618356 kJ/mol
# Density = 2.091539 g / cm^3
# Si number density = 20.963099 Si / 1000 Ang^3
#
#
#
# Elastic Constant Matrix: (Units=GPa)
#
#
# Indices 1 2 3 4 5 6 
#
# 1 74.5347 -9.8145 14.6918 0.0000 0.0000 0.0000
# 2 -9.8145 73.8120 4.4112 0.0000 0.0000 0.0000
# 3 14.6918 4.4112 104.1620 0.0000 0.0000 0.0000
# 4 0.0000 0.0000 0.0000 9.2674 0.0000 0.0000
# 5 0.0000 0.0000 0.0000 0.0000 13.8175 0.0000
# 6 0.0000 0.0000 0.0000 0.0000 0.0000 24.5651
#
#
#
# Elastic Compliance Matrix: (Units=1/GPa)
#
#
# Indices 1 2 3 4 5 6 
#
# 1 0.014088 0.001997 -0.002072 0.000000 0.000000 0.000000
# 2 0.001997 0.013865 -0.000869 0.000000 0.000000 0.000000
# 3 -0.002072 -0.000869 0.009929 0.000000 0.000000 0.000000
# 4 0.000000 0.000000 0.000000 0.107905 0.000000 0.000000
# 5 0.000000 0.000000 0.000000 0.000000 0.072372 0.000000
# 6 0.000000 0.000000 0.000000 0.000000 0.000000 0.040708
#
#
# Mechanical properties :
#
#
# Convention : Reuss Voigt Hill
#
# Bulk Modulus (GPa) = 27.78106 30.12063 28.95085
# Shear Modulus (GPa) = 18.33156 25.74467 22.03811
#
# Velocity S-wave (km/s) = 2.96035 3.50822 3.24586
# Velocity P-wave (km/s) = 4.99660 5.55065 5.28090
#
# Compressibility (1/GPa) = 0.03599574
#
# Stress axis : x y z
#
# Youngs Moduli (GPa) = 70.98296 72.12199 100.71071
#
# Poissons Ratio (x) = -0.14403 0.20864
# Poissons Ratio (y) = -0.14175 0.08750
# Poissons Ratio (z) = 0.14705 0.06266
#
# Static dielectric constant tensor:
#      x y z
#    x 1.807130 0.000000 0.000000 
#    y 0.000000 1.770540 0.000000 
#    z 0.000000 0.000000 1.766810 
# 
# From -- ./inp_files/26303.got.cif
#   From: 2010.05.17/outbox.cif.g08.bks.cpg/sg49_14_cif.got.tgz:26303.got - 2010.06.03 21:02:19.
