data_PCOD9394247
_publ_section_title
;
Structure prediction by ZEFSAII (Michael W. Deem and Ramdas Pophale) SiO2 
 PCOD9394247
Probable space group: P C C M
;
_chemical_formula_sum "Si O2"
_cell_formula_units_Z 32
_cell_length_a 8.717141
_cell_length_b 9.595850
_cell_length_c 14.689207
_cell_angle_alpha 90.000000
_cell_angle_beta 90.000000
_cell_angle_gamma 90.000000
_cell_volume 1228.728332
_symmetry_space_group_name_H-M "P C C M"
_symmetry_group_IT_number 49
_symmetry_cell_setting 'orthorhombic'
loop_
_space_group_symop_operation_xyz
x,y,z
-x,-y,z
x,-y,1/2-z
-x,y,1/2-z
-x,-y,-z
x,y,-z
-x,y,1/2+z
x,-y,1/2+z
loop_
_atom_site_type_symbol
_atom_site_label
_atom_site_fract_x
_atom_site_fract_y
_atom_site_fract_z
Si Si1 0.000000 0.500000 0.500000
Si Si2 0.331230 0.191034 0.500000
Si Si3 0.500000 0.500000 0.000000
Si Si4 0.752928 0.647475 0.872603
Si Si5 0.750883 0.212577 0.186239
Si Si6 0.500000 0.000000 0.250000
Si Si7 0.693259 0.880297 0.000000
Si Si8 0.000000 0.000000 0.250000
O O1 0.897489 0.422525 0.580250
O O2 0.272428 0.275635 0.413548
O O3 0.510658 0.153589 0.500000
O O4 0.259515 0.039237 0.500000
O O5 0.394620 0.422418 0.080014
O O6 0.750452 0.671322 0.764446
O O7 0.753693 0.806985 0.909679
O O8 0.607146 0.105532 0.194733
O O9 0.894028 0.108589 0.194644
#
# Coordination Sequence:
#
# PCOD9394247 Si02
#       8
#     2   4   2   8   8   2   4   2
#     4   8  20  42  72  94 126 180 250 306 354 402
#     4  11  20  35  65 111 152 182 212 264 347 455
#     4   8  20  42  74 104 126 164 246 318 360 396
#     4  10  20  42  72 103 134 179 242 311 357 404
#     4  11  22  39  68 104 152 191 225 275 351 430
#     4  10  20  40  72 116 156 184 216 276 348 440
#     4   9  18  34  68 109 144 179 222 272 346 425
#     4  10  24  44  64 108 152 192 232 272 340 440
#
# _framework density 26.043185000000001
#
# number of rings (size 3 to 8) (size 9 to 14) (size 15 to 20)
#    0.000    2.250    0.000    6.000    0.000    0.500 
#    0.000   23.750    0.000   36.000    0.000    0.000 
#    0.000    0.000    0.000    0.000    0.000    0.000 
#
# Total GULP energy -178260.181962 kJ/mol
# GULP energy per Si atom -5570.630686 kJ/mol
# Density = 2.598391 g / cm^3
# Si number density = 26.043185 Si / 1000 Ang^3
#
#
#
# Elastic Constant Matrix: (Units=GPa)
#
#
# Indices 1 2 3 4 5 6 
#
# 1 100.6164 42.3853 53.9961 0.0000 0.0000 0.0000
# 2 42.3853 139.8363 54.7784 0.0000 0.0000 0.0000
# 3 53.9961 54.7784 278.8061 0.0000 0.0000 0.0000
# 4 0.0000 0.0000 0.0000 19.9144 0.0000 0.0000
# 5 0.0000 0.0000 0.0000 0.0000 -8.7662 0.0000
# 6 0.0000 0.0000 0.0000 0.0000 0.0000 34.5248
#
#
#
# Elastic Compliance Matrix: (Units=1/GPa)
#
#
# Indices 1 2 3 4 5 6 
#
# 1 0.012145 -0.002990 -0.001765 0.000000 0.000000 0.000000
# 2 -0.002990 0.008484 -0.001088 0.000000 0.000000 0.000000
# 3 -0.001765 -0.001088 0.004142 0.000000 0.000000 0.000000
# 4 0.000000 0.000000 0.000000 0.050215 0.000000 0.000000
# 5 0.000000 0.000000 0.000000 0.000000 -0.114075 0.000000
# 6 0.000000 0.000000 0.000000 0.000000 0.000000 0.028965
#
#
# Mechanical properties :
#
#
# Convention : Reuss Voigt Hill
#
# Bulk Modulus (GPa) = 76.41640 91.28647 83.85143
# Shear Modulus (GPa) = 844.15180 33.67455 438.91317
#
# Velocity S-wave (km/s) = 18.02329 3.59977 12.99610
# Velocity P-wave (km/s) = 21.50639 7.23919 16.04572
#
# Compressibility (1/GPa) = 0.01308620
#
# Stress axis : x y z
#
# Youngs Moduli (GPa) = 82.33604 117.87417 241.41735
#
# Poissons Ratio (x) = 0.35245 0.42603
# Poissons Ratio (y) = 0.24619 0.26260
# Poissons Ratio (z) = 0.14530 0.12822
#
# Static dielectric constant tensor:
#      x y z
#    x 2.106400 0.000000 0.000000 
#    y 0.000000 2.038200 0.000000 
#    z 0.000000 0.000000 2.110350 
# 
# From -- ./inp_files/11288.got.cif
#   From: 2010.05.17/outbox.cif.g08.bks.cpg/sg49_6_cif.got.tgz:11288.got - 2010.06.03 21:02:19.
