data_PCOD9394820
_publ_section_title
;
Structure prediction by ZEFSAII (Michael W. Deem and Ramdas Pophale) SiO2 
 PCOD9394820
Probable space group: P C C M
;
_chemical_formula_sum "Si O2"
_cell_formula_units_Z 32
_cell_length_a 8.326050
_cell_length_b 5.043445
_cell_length_c 32.701886
_cell_angle_alpha 90.000000
_cell_angle_beta 90.000000
_cell_angle_gamma 90.000000
_cell_volume 1373.216787
_symmetry_space_group_name_H-M "P C C M"
_symmetry_group_IT_number 49
_symmetry_cell_setting 'orthorhombic'
loop_
_space_group_symop_operation_xyz
x,y,z
-x,-y,z
x,-y,1/2-z
-x,y,1/2-z
-x,-y,-z
x,y,-z
-x,y,1/2+z
x,-y,1/2+z
loop_
_atom_site_type_symbol
_atom_site_label
_atom_site_fract_x
_atom_site_fract_y
_atom_site_fract_z
Si Si1 0.194056 0.240547 0.778776
Si Si2 0.116664 0.246753 0.500000
Si Si3 0.500000 0.000000 0.821365
Si Si4 0.174880 0.356689 0.411337
Si Si5 0.500000 0.500000 0.622929
Si Si6 0.000000 0.000000 0.848852
O O1 0.191742 0.500000 0.750000
O O2 0.081312 0.219627 0.818940
O O3 0.149971 0.000000 0.750000
O O4 0.367750 0.147932 0.794256
O O5 0.208355 0.247314 0.456901
O O6 0.000000 0.500000 0.500000
O O7 0.000000 0.000000 0.500000
O O8 0.455047 0.755133 0.850210
O O9 0.330123 0.535893 0.400558
O O10 0.000000 0.500000 0.412711
O O11 0.134119 0.130357 0.377859
#
# Coordination Sequence:
#
# PCOD9394820 Si02
#       6
#     8   4   4   8   4   4
#     4  12  28  47  70 105 142 192 258 324 384 461
#     4  10  22  43  74 115 159 205 254 311 385 471
#     4  12  25  50  72 103 146 196 252 317 392 460
#     4  11  25  46  79 113 157 206 258 316 392 465
#     4  12  26  45  77 112 148 198 264 314 379 467
#     4  12  25  47  76 104 152 208 258 321 393 476
#
# _framework density 23.302947
#
# number of rings (size 3 to 8) (size 9 to 14) (size 15 to 20)
#    0.000    0.500    3.750    3.750    3.500    2.500 
#    0.000    0.000    0.000    4.500    0.000    0.000 
#    0.000    0.000    0.000    0.000    0.000    0.625 
#
# Total GULP energy -178639.421451 kJ/mol
# GULP energy per Si atom -5582.481920 kJ/mol
# Density = 2.324991 g / cm^3
# Si number density = 23.302947 Si / 1000 Ang^3
#
#
#
# Elastic Constant Matrix: (Units=GPa)
#
#
# Indices 1 2 3 4 5 6 
#
# 1 163.5389 36.5559 67.4570 0.0000 0.0000 0.0000
# 2 36.5559 159.1117 65.0496 0.0000 0.0000 0.0000
# 3 67.4570 65.0496 181.3904 0.0000 0.0000 0.0000
# 4 0.0000 0.0000 0.0000 15.8221 0.0000 0.0000
# 5 0.0000 0.0000 0.0000 0.0000 -4.9987 0.0000
# 6 0.0000 0.0000 0.0000 0.0000 0.0000 36.7104
#
#
#
# Elastic Compliance Matrix: (Units=1/GPa)
#
#
# Indices 1 2 3 4 5 6 
#
# 1 0.007282 -0.000663 -0.002470 0.000000 0.000000 0.000000
# 2 -0.000663 0.007425 -0.002416 0.000000 0.000000 0.000000
# 3 -0.002470 -0.002416 0.007298 0.000000 0.000000 0.000000
# 4 0.000000 0.000000 0.000000 0.063203 0.000000 0.000000
# 5 0.000000 0.000000 0.000000 0.000000 -0.200052 0.000000
# 6 0.000000 0.000000 0.000000 0.000000 0.000000 0.027240
#
#
# Mechanical properties :
#
#
# Convention : Reuss Voigt Hill
#
# Bulk Modulus (GPa) = 91.69229 93.57399 92.63314
# Shear Modulus (GPa) = -68.61598 31.83866 -18.38866
#
# Velocity S-wave (km/s) = -5.43223 3.70035 -2.81216
# Velocity P-wave (km/s) = 0.29642 7.64849 5.41236
#
# Compressibility (1/GPa) = 0.01090604
#
# Stress axis : x y z
#
# Youngs Moduli (GPa) = 137.32649 134.67951 137.02189
#
# Poissons Ratio (x) = 0.08931 0.33848
# Poissons Ratio (y) = 0.09106 0.33106
# Poissons Ratio (z) = 0.33923 0.32540
#
# Static dielectric constant tensor:
#      x y z
#    x 2.173430 0.000000 0.000000 
#    y 0.000000 1.864990 0.000000 
#    z 0.000000 0.000000 1.915590 
# 
# From -- ./inp_files/26111.got.cif
#   From: 2010.05.17/outbox.cif.g08.bks.cpg/sg49_14_cif.got.tgz:26111.got - 2010.06.03 21:02:19.
