data_PCOD9394424
_publ_section_title
;
Structure prediction by ZEFSAII (Michael W. Deem and Ramdas Pophale) SiO2 
 PCOD9394424
Probable space group: P C C M
;
_chemical_formula_sum "Si O2"
_cell_formula_units_Z 48
_cell_length_a 9.707652
_cell_length_b 30.720027
_cell_length_c 8.678453
_cell_angle_alpha 90.000000
_cell_angle_beta 90.000000
_cell_angle_gamma 90.000000
_cell_volume 2588.082453
_symmetry_space_group_name_H-M "P C C M"
_symmetry_group_IT_number 49
_symmetry_cell_setting 'orthorhombic'
loop_
_space_group_symop_operation_xyz
x,y,z
-x,-y,z
x,-y,1/2-z
-x,y,1/2-z
-x,-y,-z
x,y,-z
-x,y,1/2+z
x,-y,1/2+z
loop_
_atom_site_type_symbol
_atom_site_label
_atom_site_fract_x
_atom_site_fract_y
_atom_site_fract_z
Si Si1 0.149734 0.451757 0.315596
Si Si2 0.346647 0.621907 0.684658
Si Si3 0.149078 0.702282 0.315481
Si Si4 0.151313 0.797971 0.815850
Si Si5 0.849258 0.047570 0.684616
Si Si6 0.346371 0.127667 0.814965
O O1 0.177495 0.500000 0.250000
O O2 0.143804 0.453251 0.500000
O O3 0.263614 0.418076 0.258419
O O4 0.000000 0.438403 0.250000
O O5 0.500000 0.624104 0.750000
O O6 0.349612 0.616777 0.500000
O O7 0.262146 0.665939 0.720377
O O8 0.138637 0.707119 0.500000
O O9 0.181921 0.749088 0.242099
O O10 0.000000 0.688694 0.250000
O O11 0.262810 0.831618 0.752799
O O12 0.000000 0.809429 0.750000
O O13 0.146708 0.798880 0.000000
O O14 0.858431 0.045050 0.500000
O O15 0.738389 0.084080 0.726946
O O16 0.000000 0.059279 0.750000
O O17 0.813599 0.000000 0.750000
O O18 0.500000 0.126212 0.750000
O O19 0.349647 0.130918 0.000000
#
# Coordination Sequence:
#
# PCOD9394424 Si02
#       6
#     8   8   8   8   8   8
#     4  11  22  39  63  89 118 152 194 241 288 341
#     4  11  24  40  59  86 119 156 195 237 289 345
#     4  10  21  38  61  87 116 150 193 241 288 342
#     4  11  22  38  62  88 116 151 193 240 287 339
#     4  10  21  37  60  86 113 147 189 236 284 338
#     4  11  24  40  58  84 117 154 193 235 288 345
#
# _framework density 18.546548999999999
#
# number of rings (size 3 to 8) (size 9 to 14) (size 15 to 20)
#    0.000    1.333    0.000    8.000    0.000    9.333 
#    0.000    5.000    0.000    0.000    0.000    0.000 
#    0.000    0.000    0.000    0.000    0.000    0.000 
#
# Total GULP energy -268470.981258 kJ/mol
# GULP energy per Si atom -5593.145443 kJ/mol
# Density = 1.850434 g / cm^3
# Si number density = 18.546549 Si / 1000 Ang^3
#
#
#
# Elastic Constant Matrix: (Units=GPa)
#
#
# Indices 1 2 3 4 5 6 
#
# 1 189.6525 134.1997 90.2671 0.0000 0.0000 0.0000
# 2 134.1997 125.8676 77.3338 0.0000 0.0000 0.0000
# 3 90.2671 77.3338 125.4655 0.0000 0.0000 0.0000
# 4 0.0000 0.0000 0.0000 63.3430 0.0000 0.0000
# 5 0.0000 0.0000 0.0000 0.0000 29.1479 0.0000
# 6 0.0000 0.0000 0.0000 0.0000 0.0000 -37.4268
#
#
#
# Elastic Compliance Matrix: (Units=1/GPa)
#
#
# Indices 1 2 3 4 5 6 
#
# 1 0.021841 -0.021942 -0.002189 0.000000 0.000000 0.000000
# 2 -0.021942 0.034830 -0.005682 0.000000 0.000000 0.000000
# 3 -0.002189 -0.005682 0.013048 0.000000 0.000000 0.000000
# 4 0.000000 0.000000 0.000000 0.015787 0.000000 0.000000
# 5 0.000000 0.000000 0.000000 0.000000 0.034308 0.000000
# 6 0.000000 0.000000 0.000000 0.000000 0.000000 -0.026719
#
#
# Mechanical properties :
#
#
# Convention : Reuss Voigt Hill
#
# Bulk Modulus (GPa) = 99.08490 116.06520 107.57505
# Shear Modulus (GPa) = 32.03363 20.29183 26.16273
#
# Velocity S-wave (km/s) = 4.16047 3.31131 3.75994
# Velocity P-wave (km/s) = 8.75330 8.79409 8.77372
#
# Compressibility (1/GPa) = 0.01009236
#
# Stress axis : x y z
#
# Youngs Moduli (GPa) = 45.78569 28.71071 76.64008
#
# Poissons Ratio (x) = 0.62996 0.16779
# Poissons Ratio (y) = 1.00461 0.43550
# Poissons Ratio (z) = 0.10024 0.16315
#
# Static dielectric constant tensor:
#      x y z
#    x 1.604550 0.000000 0.000000 
#    y 0.000000 1.624610 0.000000 
#    z 0.000000 0.000000 1.620520 
# 
# From -- ./inp_files/2114.got.cif
#   From: 2010.05.17/outbox.cif.g08.bks.cpg/sg49_2_cif.got.tgz:2114.got - 2010.06.03 21:02:19.
