data_PCOD9394693
_publ_section_title
;
Structure prediction by ZEFSAII (Michael W. Deem and Ramdas Pophale) SiO2 
 PCOD9394693
Probable space group: P C C M
;
_chemical_formula_sum "Si O2"
_cell_formula_units_Z 40
_cell_length_a 26.781009
_cell_length_b 9.376204
_cell_length_c 8.600956
_cell_angle_alpha 90.000000
_cell_angle_beta 90.000000
_cell_angle_gamma 90.000000
_cell_volume 2159.736208
_symmetry_space_group_name_H-M "P C C M"
_symmetry_group_IT_number 49
_symmetry_cell_setting 'orthorhombic'
loop_
_space_group_symop_operation_xyz
x,y,z
-x,-y,z
x,-y,1/2-z
-x,y,1/2-z
-x,-y,-z
x,y,-z
-x,y,1/2+z
x,-y,1/2+z
loop_
_atom_site_type_symbol
_atom_site_label
_atom_site_fract_x
_atom_site_fract_y
_atom_site_fract_z
Si Si1 0.839246 0.661134 0.812207
Si Si2 0.256429 0.840419 0.687657
Si Si3 0.646067 0.340401 0.312953
Si Si4 0.050895 0.662145 0.685909
Si Si5 0.554647 0.841094 0.313993
O O1 0.833878 0.500000 0.750000
O O2 0.793652 0.759163 0.758797
O O3 0.894400 0.719650 0.768562
O O4 0.837859 0.653784 0.000000
O O5 0.255482 0.844881 0.500000
O O6 0.305276 0.750852 0.734045
O O7 0.258793 0.000000 0.750000
O O8 0.650521 0.500000 0.250000
O O9 0.643301 0.342159 0.500000
O O10 0.597009 0.264984 0.245472
O O11 0.051592 0.500000 0.750000
O O12 0.047603 0.658076 0.500000
O O13 0.000000 0.730779 0.750000
O O14 0.500000 0.800574 0.250000
O O15 0.553424 0.845210 0.500000
O O16 0.565435 0.000000 0.250000
#
# Coordination Sequence:
#
# PCOD9394693 Si02
#       5
#     8   8   8   8   8
#     4   9  18  32  50  75 104 135 171 216 263 312
#     4  10  22  38  56  78 106 139 178 220 266 320
#     4  11  23  39  59  85 114 145 182 226 274 324
#     4   9  15  24  41  66  98 130 165 207 255 307
#     4  11  22  39  62  88 118 152 189 227 268 318
#
# _framework density 18.520779999999998
#
# number of rings (size 3 to 8) (size 9 to 14) (size 15 to 20)
#    0.000    2.000    0.000    5.400    0.000    5.200 
#    0.000    2.000    0.000    0.600    0.000    4.200 
#    0.000    0.000    0.000    0.000    0.000    0.000 
#
# Total GULP energy -223270.492156 kJ/mol
# GULP energy per Si atom -5581.762304 kJ/mol
# Density = 1.847863 g / cm^3
# Si number density = 18.520780 Si / 1000 Ang^3
#
#
#
# Elastic Constant Matrix: (Units=GPa)
#
#
# Indices 1 2 3 4 5 6 
#
# 1 194.3351 116.4413 56.0291 0.0000 0.0000 0.0000
# 2 116.4413 116.8220 35.6645 0.0000 0.0000 0.0000
# 3 56.0291 35.6645 69.9481 0.0000 0.0000 0.0000
# 4 0.0000 0.0000 0.0000 27.8411 0.0000 0.0000
# 5 0.0000 0.0000 0.0000 0.0000 21.4156 0.0000
# 6 0.0000 0.0000 0.0000 0.0000 0.0000 -35.6274
#
#
#
# Elastic Compliance Matrix: (Units=1/GPa)
#
#
# Indices 1 2 3 4 5 6 
#
# 1 0.014051 -0.012517 -0.004872 0.000000 0.000000 0.000000
# 2 -0.012517 0.021289 -0.000828 0.000000 0.000000 0.000000
# 3 -0.004872 -0.000828 0.018622 0.000000 0.000000 0.000000
# 4 0.000000 0.000000 0.000000 0.035918 0.000000 0.000000
# 5 0.000000 0.000000 0.000000 0.000000 0.046695 0.000000
# 6 0.000000 0.000000 0.000000 0.000000 0.000000 -0.028068
#
#
# Mechanical properties :
#
#
# Convention : Reuss Voigt Hill
#
# Bulk Modulus (GPa) = 57.06032 88.59722 72.82877
# Shear Modulus (GPa) = 33.15986 14.25721 23.70854
#
# Velocity S-wave (km/s) = 4.23592 2.77753 3.58174
# Velocity P-wave (km/s) = 7.40268 7.63064 7.51753
#
# Compressibility (1/GPa) = 0.01752531
#
# Stress axis : x y z
#
# Youngs Moduli (GPa) = 71.17107 46.97157 53.70117
#
# Poissons Ratio (x) = 0.58796 0.26166
# Poissons Ratio (y) = 0.89087 0.04448
# Poissons Ratio (z) = 0.34678 0.03891
#
# Static dielectric constant tensor:
#      x y z
#    x 1.676760 0.000000 0.000000 
#    y 0.000000 1.592830 0.000000 
#    z 0.000000 0.000000 1.627100 
# 
# From -- ./inp_files/1682.got.cif
#   From: 2010.05.17/outbox.cif.g08.bks.cpg/sg49_1_cif.got.tgz:1682.got - 2010.06.03 21:02:19.
