data_PCOD9394553
_publ_section_title
;
Structure prediction by ZEFSAII (Michael W. Deem and Ramdas Pophale) SiO2 
 PCOD9394553
Probable space group: P C C M
;
_chemical_formula_sum "Si O2"
_cell_formula_units_Z 58
_cell_length_a 18.552135
_cell_length_b 17.289535
_cell_length_c 9.046074
_cell_angle_alpha 90.000000
_cell_angle_beta 90.000000
_cell_angle_gamma 90.000000
_cell_volume 2901.598681
_symmetry_space_group_name_H-M "P C C M"
_symmetry_group_IT_number 49
_symmetry_cell_setting 'orthorhombic'
loop_
_space_group_symop_operation_xyz
x,y,z
-x,-y,z
x,-y,1/2-z
-x,y,1/2-z
-x,-y,-z
x,y,-z
-x,y,1/2+z
x,-y,1/2+z
loop_
_atom_site_type_symbol
_atom_site_label
_atom_site_fract_x
_atom_site_fract_y
_atom_site_fract_z
Si Si1 0.078069 0.419917 0.676531
Si Si2 0.230175 0.149103 0.176080
Si Si3 0.627481 0.883034 0.329668
Si Si4 0.500000 0.000000 0.750000
Si Si5 0.928181 0.915040 0.821690
Si Si6 0.330561 0.418448 0.170178
Si Si7 0.190613 0.320168 0.169807
Si Si8 0.576630 0.287164 0.177382
O O1 0.106202 0.500000 0.750000
O O2 0.073480 0.428340 0.500000
O O3 0.127781 0.348448 0.723757
O O4 0.000000 0.408727 0.750000
O O5 0.297484 0.102591 0.244408
O O6 0.149367 0.121778 0.214197
O O7 0.229483 0.240378 0.215800
O O8 0.238208 0.143079 0.000000
O O9 0.647874 0.877303 0.500000
O O10 0.601298 0.798862 0.276221
O O11 0.559281 0.941341 0.320892
O O12 0.000000 0.877111 0.750000
O O13 0.925290 0.000000 0.750000
O O14 0.935885 0.918104 0.000000
O O15 0.337413 0.500000 0.250000
O O16 0.248754 0.388485 0.167798
O O17 0.372308 0.353242 0.260597
O O18 0.355963 0.422342 0.000000
O O19 0.164245 0.308649 0.000000
O O20 0.500000 0.301103 0.250000
O O21 0.573229 0.288904 0.000000
#
# Coordination Sequence:
#
# PCOD9394553 Si02
#       8
#     8   8   8   2   8   8   8   8
#     4  11  22  37  58  85 121 164 211 265 318 377
#     4  10  23  42  65  93 130 168 209 261 322 382
#     4  11  25  43  67  98 133 173 219 265 318 387
#     4  12  26  48  68 106 138 176 216 262 326 384
#     4  10  21  39  63  91 125 166 210 261 316 377
#     4  11  23  40  64  92 125 165 209 262 316 379
#     4  10  21  39  61  88 122 163 206 255 315 378
#     4  11  23  42  66  93 126 166 210 260 317 377
#
# _framework density 19.988980000000002
#
# number of rings (size 3 to 8) (size 9 to 14) (size 15 to 20)
#    0.000    1.379    2.069    3.931    0.966    6.345 
#    0.000    2.759    0.000    0.000    0.000    0.000 
#    0.000    0.000    0.000    0.000    0.000    0.000 
#
# Total GULP energy -323623.340041 kJ/mol
# GULP energy per Si atom -5579.712759 kJ/mol
# Density = 1.994348 g / cm^3
# Si number density = 19.988980 Si / 1000 Ang^3
#
#
#
# Elastic Constant Matrix: (Units=GPa)
#
#
# Indices 1 2 3 4 5 6 
#
# 1 125.9719 34.8450 47.0047 0.0000 0.0000 0.0000
# 2 34.8450 88.1023 26.3538 0.0000 0.0000 0.0000
# 3 47.0047 26.3538 87.4182 0.0000 0.0000 0.0000
# 4 0.0000 0.0000 0.0000 -134.0997 0.0000 0.0000
# 5 0.0000 0.0000 0.0000 0.0000 28.4625 0.0000
# 6 0.0000 0.0000 0.0000 0.0000 0.0000 47.0065
#
#
#
# Elastic Compliance Matrix: (Units=1/GPa)
#
#
# Indices 1 2 3 4 5 6 
#
# 1 0.010486 -0.002705 -0.004823 0.000000 0.000000 0.000000
# 2 -0.002705 0.013173 -0.002517 0.000000 0.000000 0.000000
# 3 -0.004823 -0.002517 0.014791 0.000000 0.000000 0.000000
# 4 0.000000 0.000000 0.000000 -0.007457 0.000000 0.000000
# 5 0.000000 0.000000 0.000000 0.000000 0.035134 0.000000
# 6 0.000000 0.000000 0.000000 0.000000 0.000000 0.021274
#
#
# Mechanical properties :
#
#
# Convention : Reuss Voigt Hill
#
# Bulk Modulus (GPa) = 54.46243 57.54440 56.00342
# Shear Modulus (GPa) = 44.01002 1.15978 22.58490
#
# Velocity S-wave (km/s) = 4.69733 0.76254 3.36500
# Velocity P-wave (km/s) = 7.53162 5.44296 6.57081
#
# Compressibility (1/GPa) = 0.01836128
#
# Stress axis : x y z
#
# Youngs Moduli (GPa) = 95.36498 75.91267 67.60698
#
# Poissons Ratio (x) = 0.20531 0.32607
# Poissons Ratio (y) = 0.25792 0.17017
# Poissons Ratio (z) = 0.45994 0.19107
#
# Static dielectric constant tensor:
#      x y z
#    x 1.740530 0.000000 0.000000 
#    y 0.000000 1.726440 0.000000 
#    z 0.000000 0.000000 1.682630 
# 
# From -- ./inp_files/5126.got.cif
#   From: 2010.05.17/outbox.cif.g08.bks.cpg/sg49_3_cif.got.tgz:5126.got - 2010.06.03 21:02:19.
