data_PCOD9394662
_publ_section_title
;
Structure prediction by ZEFSAII (Michael W. Deem and Ramdas Pophale) SiO2 
 PCOD9394662
Probable space group: P C C M
;
_chemical_formula_sum "Si O2"
_cell_formula_units_Z 64
_cell_length_a 8.254813
_cell_length_b 14.530589
_cell_length_c 23.120020
_cell_angle_alpha 90.000000
_cell_angle_beta 90.000000
_cell_angle_gamma 90.000000
_cell_volume 2773.183859
_symmetry_space_group_name_H-M "P C C M"
_symmetry_group_IT_number 49
_symmetry_cell_setting 'orthorhombic'
loop_
_space_group_symop_operation_xyz
x,y,z
-x,-y,z
x,-y,1/2-z
-x,y,1/2-z
-x,-y,-z
x,y,-z
-x,y,1/2+z
x,-y,1/2+z
loop_
_atom_site_type_symbol
_atom_site_label
_atom_site_fract_x
_atom_site_fract_y
_atom_site_fract_z
Si Si1 0.857522 0.628884 0.568494
Si Si2 0.190099 0.004834 0.834467
Si Si3 0.380045 0.674817 0.291804
Si Si4 0.509983 0.276480 0.910385
Si Si5 0.196455 0.847535 0.759404
Si Si6 0.375174 0.076442 0.066145
Si Si7 0.955785 0.606113 0.183886
Si Si8 0.660194 0.457433 0.432479
O O1 0.917427 0.635991 0.500000
O O2 0.687762 0.686717 0.571251
O O3 0.811342 0.521954 0.582264
O O4 0.965384 0.653702 0.626018
O O5 0.255197 0.077543 0.787828
O O6 0.222181 0.054722 0.894612
O O7 0.238669 0.899380 0.819749
O O8 0.000000 0.000000 0.824294
O O9 0.500000 0.620917 0.250000
O O10 0.488486 0.718089 0.341861
O O11 0.290626 0.755247 0.255955
O O12 0.237483 0.616370 0.319918
O O13 0.458128 0.175569 0.929788
O O14 0.372713 0.349127 0.931529
O O15 0.000000 0.836749 0.750000
O O16 0.500000 0.000000 0.088546
O O17 0.337406 0.057002 0.000000
O O18 0.000000 0.500000 0.185167
O O19 0.000000 0.638651 0.250000
O O20 0.500000 0.500000 0.402227
O O21 0.652871 0.481782 0.500000
#
# Coordination Sequence:
#
# PCOD9394662 Si02
#       8
#     8   8   8   8   8   8   8   8
#     4  10  21  42  73 104 137 189 245 294 352 423
#     4   9  19  39  65  93 123 168 219 286 350 406
#     4  12  25  40  65 106 134 180 236 289 352 423
#     4  11  21  39  64  98 141 180 236 299 359 412
#     4   9  19  38  66  95 127 163 223 291 348 404
#     4  11  24  40  58  89 137 186 226 280 355 433
#     4  11  25  47  69  98 148 193 229 290 361 426
#     4   8  15  31  61  96 128 170 227 290 342 396
#
# _framework density 23.078168000000002
#
# number of rings (size 3 to 8) (size 9 to 14) (size 15 to 20)
#    0.000    1.875    1.250    4.500    1.750    0.500 
#    2.250    6.875    0.000    0.000    0.000    0.000 
#    0.000    0.000    0.000    0.000    0.000    0.000 
#
# Total GULP energy -356535.362256 kJ/mol
# GULP energy per Si atom -5570.865035 kJ/mol
# Density = 2.302564 g / cm^3
# Si number density = 23.078168 Si / 1000 Ang^3
#
#
#
# Elastic Constant Matrix: (Units=GPa)
#
#
# Indices 1 2 3 4 5 6 
#
# 1 66.2999 21.3813 47.2254 0.0000 0.0000 0.0000
# 2 21.3813 110.0815 -2.1660 0.0000 0.0000 0.0000
# 3 47.2254 -2.1660 105.8136 0.0000 0.0000 0.0000
# 4 0.0000 0.0000 0.0000 13.1316 0.0000 0.0000
# 5 0.0000 0.0000 0.0000 0.0000 29.4324 0.0000
# 6 0.0000 0.0000 0.0000 0.0000 0.0000 13.9526
#
#
#
# Elastic Compliance Matrix: (Units=1/GPa)
#
#
# Indices 1 2 3 4 5 6 
#
# 1 0.024580 -0.004992 -0.011072 0.000000 0.000000 0.000000
# 2 -0.004992 0.010102 0.002435 0.000000 0.000000 0.000000
# 3 -0.011072 0.002435 0.014442 0.000000 0.000000 0.000000
# 4 0.000000 0.000000 0.000000 0.076152 0.000000 0.000000
# 5 0.000000 0.000000 0.000000 0.000000 0.033976 0.000000
# 6 0.000000 0.000000 0.000000 0.000000 0.000000 0.071671
#
#
# Mechanical properties :
#
#
# Convention : Reuss Voigt Hill
#
# Bulk Modulus (GPa) = 45.73656 46.11960 45.92808
# Shear Modulus (GPa) = 18.83452 25.68694 22.26073
#
# Velocity S-wave (km/s) = 2.85988 3.33985 3.10914
# Velocity P-wave (km/s) = 5.54674 5.90764 5.73003
#
# Compressibility (1/GPa) = 0.02186435
#
# Stress axis : x y z
#
# Youngs Moduli (GPa) = 40.68410 98.99331 69.24221
#
# Poissons Ratio (x) = 0.49418 0.76667
# Poissons Ratio (y) = 0.20310 -0.16859
# Poissons Ratio (z) = 0.45046 -0.24102
#
# Static dielectric constant tensor:
#      x y z
#    x 2.051650 0.000000 0.000000 
#    y 0.000000 1.860980 0.000000 
#    z 0.000000 0.000000 1.952220 
# 
# From -- ./inp_files/22576.got.cif
#   From: 2010.05.17/outbox.cif.g08.bks.cpg/sg49_12_cif.got.tgz:22576.got - 2010.06.03 21:02:19.
