data_PCOD9394071
_publ_section_title
;
Structure prediction by ZEFSAII (Michael W. Deem and Ramdas Pophale) SiO2 
 PCOD9394071
Probable space group: P C C M
;
_chemical_formula_sum "Si O2"
_cell_formula_units_Z 48
_cell_length_a 14.081129
_cell_length_b 11.767590
_cell_length_c 14.775680
_cell_angle_alpha 90.000000
_cell_angle_beta 90.000000
_cell_angle_gamma 90.000000
_cell_volume 2448.344254
_symmetry_space_group_name_H-M "P C C M"
_symmetry_group_IT_number 49
_symmetry_cell_setting 'orthorhombic'
loop_
_space_group_symop_operation_xyz
x,y,z
-x,-y,z
x,-y,1/2-z
-x,y,1/2-z
-x,-y,-z
x,y,-z
-x,y,1/2+z
x,-y,1/2+z
loop_
_atom_site_type_symbol
_atom_site_label
_atom_site_fract_x
_atom_site_fract_y
_atom_site_fract_z
Si Si1 0.664144 0.792450 0.103451
Si Si2 0.472564 0.875690 0.145008
Si Si3 0.953418 0.374830 0.394694
Si Si4 0.771080 0.371409 0.265860
Si Si5 0.140130 0.764437 0.107776
Si Si6 0.272309 0.044549 0.391982
O O1 0.549558 0.794133 0.101087
O O2 0.698400 0.700243 0.174445
O O3 0.703437 0.916208 0.138981
O O4 0.698520 0.775532 0.000000
O O5 0.500000 0.873983 0.250000
O O6 0.360086 0.872705 0.133631
O O7 0.500000 0.000000 0.107487
O O8 0.922980 0.364559 0.500000
O O9 0.867684 0.368452 0.325193
O O10 0.000000 0.500000 0.384962
O O11 0.032368 0.277581 0.377184
O O12 0.740550 0.500000 0.250000
O O13 0.795982 0.316488 0.169612
O O14 0.174384 0.892228 0.133012
O O15 0.157353 0.749703 0.000000
O O16 0.273261 0.035134 0.500000
#
# Coordination Sequence:
#
# PCOD9394071 Si02
#       6
#     8   8   8   8   8   8
#     4  10  21  36  57  88 122 155 194 242 296 351
#     4   9  16  29  54  85 116 152 193 232 277 343
#     4  10  20  37  59  83 109 144 194 246 292 344
#     4  12  23  35  57  84 113 153 197 245 286 348
#     4  10  21  35  56  84 112 146 192 244 294 346
#     4   9  18  35  57  84 118 153 192 240 297 356
#
# _framework density 19.605084999999999
#
# number of rings (size 3 to 8) (size 9 to 14) (size 15 to 20)
#    0.000    2.000    1.667    2.500    0.000    4.667 
#    0.000    0.833    0.000   10.500    0.000    7.000 
#    0.000    0.000    0.000    0.000    0.000    0.000 
#
# Total GULP energy -267622.279439 kJ/mol
# GULP energy per Si atom -5575.464155 kJ/mol
# Density = 1.956046 g / cm^3
# Si number density = 19.605085 Si / 1000 Ang^3
#
#
#
# Elastic Constant Matrix: (Units=GPa)
#
#
# Indices 1 2 3 4 5 6 
#
# 1 78.0638 49.2249 20.4323 0.0000 0.0000 0.0000
# 2 49.2249 101.1203 35.6940 0.0000 0.0000 0.0000
# 3 20.4323 35.6940 61.2275 0.0000 0.0000 0.0000
# 4 0.0000 0.0000 0.0000 11.8163 0.0000 0.0000
# 5 0.0000 0.0000 0.0000 0.0000 26.1782 0.0000
# 6 0.0000 0.0000 0.0000 0.0000 0.0000 30.3293
#
#
#
# Elastic Compliance Matrix: (Units=1/GPa)
#
#
# Indices 1 2 3 4 5 6 
#
# 1 0.018550 -0.008618 -0.001166 0.000000 0.000000 0.000000
# 2 -0.008618 0.016456 -0.006717 0.000000 0.000000 0.000000
# 3 -0.001166 -0.006717 0.020638 0.000000 0.000000 0.000000
# 4 0.000000 0.000000 0.000000 0.084629 0.000000 0.000000
# 5 0.000000 0.000000 0.000000 0.000000 0.038200 0.000000
# 6 0.000000 0.000000 0.000000 0.000000 0.000000 0.032971
#
#
# Mechanical properties :
#
#
# Convention : Reuss Voigt Hill
#
# Bulk Modulus (GPa) = 44.16973 50.12378 47.14675
# Shear Modulus (GPa) = 19.84187 22.66881 21.25534
#
# Velocity S-wave (km/s) = 3.18477 3.40409 3.29625
# Velocity P-wave (km/s) = 6.00852 6.40879 6.21188
#
# Compressibility (1/GPa) = 0.02263994
#
# Stress axis : x y z
#
# Youngs Moduli (GPa) = 53.90929 60.76947 48.45534
#
# Poissons Ratio (x) = 0.52373 0.05650
# Poissons Ratio (y) = 0.46461 0.32548
# Poissons Ratio (z) = 0.06286 0.40820
#
# Static dielectric constant tensor:
#      x y z
#    x 1.745570 0.000000 0.000000 
#    y 0.000000 1.700580 0.000000 
#    z 0.000000 0.000000 1.719200 
# 
# From -- ./inp_files/13510.got.cif
#   From: 2010.05.17/outbox.cif.g08.bks.cpg/sg49_7_cif.got.tgz:13510.got - 2010.06.03 21:02:19.
