data_PCOD9394744
_publ_section_title
;
Structure prediction by ZEFSAII (Michael W. Deem and Ramdas Pophale) SiO2 
 PCOD9394744
Probable space group: P C C M
;
_chemical_formula_sum "Si O2"
_cell_formula_units_Z 64
_cell_length_a 15.820822
_cell_length_b 24.263191
_cell_length_c 8.653745
_cell_angle_alpha 90.000000
_cell_angle_beta 90.000000
_cell_angle_gamma 90.000000
_cell_volume 3321.857934
_symmetry_space_group_name_H-M "P C C M"
_symmetry_group_IT_number 49
_symmetry_cell_setting 'orthorhombic'
loop_
_space_group_symop_operation_xyz
x,y,z
-x,-y,z
x,-y,1/2-z
-x,y,1/2-z
-x,-y,-z
x,y,-z
-x,y,1/2+z
x,-y,1/2+z
loop_
_atom_site_type_symbol
_atom_site_label
_atom_site_fract_x
_atom_site_fract_y
_atom_site_fract_z
Si Si1 0.909968 0.868058 0.815648
Si Si2 0.589947 0.637520 0.314215
Si Si3 0.411164 0.132505 0.685131
Si Si4 0.754332 0.061553 0.814522
Si Si5 0.748340 0.561443 0.313476
Si Si6 0.091052 0.633059 0.186104
Si Si7 0.155505 0.246027 0.313771
Si Si8 0.346212 0.752981 0.684924
O O1 0.833565 0.905462 0.754445
O O2 0.892604 0.806187 0.755441
O O3 0.000000 0.887097 0.750000
O O4 0.911374 0.868424 0.000000
O O5 0.500000 0.618265 0.250000
O O6 0.587660 0.640820 0.500000
O O7 0.666281 0.597018 0.268232
O O8 0.609700 0.697847 0.246909
O O9 0.500000 0.111235 0.750000
O O10 0.415143 0.136991 0.500000
O O11 0.331946 0.093775 0.726136
O O12 0.393495 0.192594 0.756152
O O13 0.752356 0.000000 0.750000
O O14 0.761550 0.060922 0.000000
O O15 0.745140 0.500000 0.250000
O O16 0.749696 0.559726 0.500000
O O17 0.832864 0.593507 0.261683
O O18 0.113325 0.695925 0.231123
O O19 0.000000 0.617004 0.250000
O O20 0.088826 0.631556 0.000000
O O21 0.156642 0.242002 0.500000
O O22 0.251354 0.245452 0.252641
O O23 0.343718 0.752550 0.500000
#
# Coordination Sequence:
#
# PCOD9394744 Si02
#       8
#     8   8   8   8   8   8   8   8
#     4  12  25  42  66  97 131 168 212 259 314 378
#     4  11  23  42  64  90 126 162 204 255 312 373
#     4  11  24  42  66  94 130 169 209 258 315 372
#     4  11  25  45  68  93 126 168 214 267 318 370
#     4  10  23  43  63  86 120 162 206 258 311 364
#     4  10  22  40  62  90 124 162 202 250 306 365
#     4  11  21  39  64  92 130 167 204 254 315 374
#     4  12  23  37  63  96 128 165 208 252 311 376
#
# _framework density 19.266325999999999
#
# number of rings (size 3 to 8) (size 9 to 14) (size 15 to 20)
#    0.000    1.000    2.500    4.500    0.000    6.000 
#    0.000    5.000    0.000    0.000    0.000    0.000 
#    0.000    0.000    0.000    0.000    0.000    0.000 
#
# Total GULP energy -358107.882565 kJ/mol
# GULP energy per Si atom -5595.435665 kJ/mol
# Density = 1.922247 g / cm^3
# Si number density = 19.266326 Si / 1000 Ang^3
#
#
#
# Elastic Constant Matrix: (Units=GPa)
#
#
# Indices 1 2 3 4 5 6 
#
# 1 196.4258 83.0281 62.2861 0.0000 0.0000 0.0000
# 2 83.0281 152.7097 53.8443 0.0000 0.0000 0.0000
# 3 62.2861 53.8443 84.6277 0.0000 0.0000 0.0000
# 4 0.0000 0.0000 0.0000 33.4026 0.0000 0.0000
# 5 0.0000 0.0000 0.0000 0.0000 45.4070 0.0000
# 6 0.0000 0.0000 0.0000 0.0000 0.0000 -4.6912
#
#
#
# Elastic Compliance Matrix: (Units=1/GPa)
#
#
# Indices 1 2 3 4 5 6 
#
# 1 0.007425 -0.002720 -0.003734 0.000000 0.000000 0.000000
# 2 -0.002720 0.009439 -0.004003 0.000000 0.000000 0.000000
# 3 -0.003734 -0.004003 0.017112 0.000000 0.000000 0.000000
# 4 0.000000 0.000000 0.000000 0.029938 0.000000 0.000000
# 5 0.000000 0.000000 0.000000 0.000000 0.022023 0.000000
# 6 0.000000 0.000000 0.000000 0.000000 0.000000 -0.213166
#
#
# Mechanical properties :
#
#
# Convention : Reuss Voigt Hill
#
# Bulk Modulus (GPa) = 76.56738 92.45334 84.51036
# Shear Modulus (GPa) = -49.03828 30.46398 -9.28715
#
# Velocity S-wave (km/s) = -5.05055 3.98075 -2.19792
# Velocity P-wave (km/s) = 2.41185 8.31984 6.12522
#
# Compressibility (1/GPa) = 0.01306039
#
# Stress axis : x y z
#
# Youngs Moduli (GPa) = 134.68259 105.94367 58.43933
#
# Poissons Ratio (x) = 0.28820 0.21821
# Poissons Ratio (y) = 0.36638 0.23395
# Poissons Ratio (z) = 0.50289 0.42413
#
# Static dielectric constant tensor:
#      x y z
#    x 1.680730 0.000000 0.000000 
#    y 0.000000 1.640620 0.000000 
#    z 0.000000 0.000000 1.646720 
# 
# From -- ./inp_files/4432.got.cif
#   From: 2010.05.17/outbox.cif.g08.bks.cpg/sg49_3_cif.got.tgz:4432.got - 2010.06.03 21:02:19.
