data_PCOD9394443
_publ_section_title
;
Structure prediction by ZEFSAII (Michael W. Deem and Ramdas Pophale) SiO2 
 PCOD9394443
Probable space group: P C C M
;
_chemical_formula_sum "Si O2"
_cell_formula_units_Z 56
_cell_length_a 17.365544
_cell_length_b 9.083960
_cell_length_c 19.174777
_cell_angle_alpha 90.000000
_cell_angle_beta 90.000000
_cell_angle_gamma 90.000000
_cell_volume 3024.780940
_symmetry_space_group_name_H-M "P C C M"
_symmetry_group_IT_number 49
_symmetry_cell_setting 'orthorhombic'
loop_
_space_group_symop_operation_xyz
x,y,z
-x,-y,z
x,-y,1/2-z
-x,y,1/2-z
-x,-y,-z
x,y,-z
-x,y,1/2+z
x,-y,1/2+z
loop_
_atom_site_type_symbol
_atom_site_label
_atom_site_fract_x
_atom_site_fract_y
_atom_site_fract_z
Si Si1 0.205706 0.714164 0.315930
Si Si2 0.665496 0.845787 0.083814
Si Si3 0.950241 0.356440 0.917915
Si Si4 0.964847 0.837249 0.178930
Si Si5 0.349595 0.194822 0.583176
Si Si6 0.211603 0.365133 0.656498
Si Si7 0.490583 0.330722 0.915331
O O1 0.267222 0.790050 0.366094
O O2 0.125539 0.803440 0.320638
O O3 0.206532 0.542611 0.339224
O O4 0.221429 0.702502 0.233472
O O5 0.587916 0.754773 0.102661
O O6 0.658192 0.020692 0.095714
O O7 0.679787 0.823333 0.000000
O O8 0.870427 0.329140 0.878184
O O9 0.000000 0.500000 0.896291
O O10 0.004788 0.226822 0.893294
O O11 0.936056 0.365821 0.000000
O O12 0.000000 0.763377 0.250000
O O13 0.000000 0.000000 0.181009
O O14 0.348132 0.215238 0.500000
O O15 0.282070 0.296560 0.613534
O O16 0.433328 0.245913 0.609037
O O17 0.500000 0.500000 0.892067
O O18 0.491198 0.332138 0.000000
#
# Coordination Sequence:
#
# PCOD9394443 Si02
#       7
#     8   8   8   8   8   8   8
#     4  11  24  40  62  86 118 161 203 251 308 359
#     4  10  22  38  60  92 127 159 201 251 303 364
#     4  11  23  40  64  90 118 156 202 255 306 357
#     4  11  24  41  63  87 119 164 205 248 306 368
#     4  10  21  37  61  91 126 163 198 248 306 363
#     4  11  23  40  61  87 120 159 205 253 301 364
#     4   9  17  34  61  90 122 162 203 245 299 362
#
# _framework density 18.513736999999999
#
# number of rings (size 3 to 8) (size 9 to 14) (size 15 to 20)
#    0.000    1.571    2.857    1.714    2.000    5.714 
#    0.000    0.714    0.000    4.286    0.000    0.000 
#    0.000    0.000    0.000    0.000    0.000    0.000 
#
# Total GULP energy -312088.534342 kJ/mol
# GULP energy per Si atom -5573.009542 kJ/mol
# Density = 1.847160 g / cm^3
# Si number density = 18.513737 Si / 1000 Ang^3
#
#
#
# Elastic Constant Matrix: (Units=GPa)
#
#
# Indices 1 2 3 4 5 6 
#
# 1 171.7611 71.8136 52.3121 0.0000 0.0000 0.0000
# 2 71.8136 100.8214 48.1678 0.0000 0.0000 0.0000
# 3 52.3121 48.1678 42.1186 0.0000 0.0000 0.0000
# 4 0.0000 0.0000 0.0000 50.2844 0.0000 0.0000
# 5 0.0000 0.0000 0.0000 0.0000 31.4617 0.0000
# 6 0.0000 0.0000 0.0000 0.0000 0.0000 25.3928
#
#
#
# Elastic Compliance Matrix: (Units=1/GPa)
#
#
# Indices 1 2 3 4 5 6 
#
# 1 0.009648 -0.002529 -0.009091 0.000000 0.000000 0.000000
# 2 -0.002529 0.022528 -0.022622 0.000000 0.000000 0.000000
# 3 -0.009091 -0.022622 0.060905 0.000000 0.000000 0.000000
# 4 0.000000 0.000000 0.000000 0.019887 0.000000 0.000000
# 5 0.000000 0.000000 0.000000 0.000000 0.031785 0.000000
# 6 0.000000 0.000000 0.000000 0.000000 0.000000 0.039381
#
#
# Mechanical properties :
#
#
# Convention : Reuss Voigt Hill
#
# Bulk Modulus (GPa) = 40.65626 73.25421 56.95524
# Shear Modulus (GPa) = 19.17058 30.92164 25.04611
#
# Velocity S-wave (km/s) = 3.22138 4.09124 3.68209
# Velocity P-wave (km/s) = 5.98699 7.87217 6.99339
#
# Compressibility (1/GPa) = 0.02459646
#
# Stress axis : x y z
#
# Youngs Moduli (GPa) = 103.64611 44.38988 16.41909
#
# Poissons Ratio (x) = 0.11226 0.14927
# Poissons Ratio (y) = 0.26212 0.37143
# Poissons Ratio (z) = 0.94225 1.00419
#
# Static dielectric constant tensor:
#      x y z
#    x 1.162440 0.000000 0.000000 
#    y 0.000000 1.663470 0.000000 
#    z 0.000000 0.000000 1.629610 
# 
# From -- ./inp_files/20831.got.cif
#   From: 2010.05.17/outbox.cif.g08.bks.cpg/sg49_11_cif.got.tgz:20831.got - 2010.06.03 21:02:19.
