data_PCOD9394694
_publ_section_title
;
Structure prediction by ZEFSAII (Michael W. Deem and Ramdas Pophale) SiO2 
 PCOD9394694
Probable space group: P C C M
;
_chemical_formula_sum "Si O2"
_cell_formula_units_Z 48
_cell_length_a 31.995337
_cell_length_b 9.292521
_cell_length_c 8.586836
_cell_angle_alpha 90.000000
_cell_angle_beta 90.000000
_cell_angle_gamma 90.000000
_cell_volume 2553.015247
_symmetry_space_group_name_H-M "P C C M"
_symmetry_group_IT_number 49
_symmetry_cell_setting 'orthorhombic'
loop_
_space_group_symop_operation_xyz
x,y,z
-x,-y,z
x,-y,1/2-z
-x,y,1/2-z
-x,-y,-z
x,y,-z
-x,y,1/2+z
x,-y,1/2+z
loop_
_atom_site_type_symbol
_atom_site_label
_atom_site_fract_x
_atom_site_fract_y
_atom_site_fract_z
Si Si1 0.545935 0.839541 0.686573
Si Si2 0.134533 0.162767 0.311842
Si Si3 0.623240 0.338957 0.686251
Si Si4 0.784649 0.661031 0.687895
Si Si5 0.957343 0.836228 0.313788
Si Si6 0.297997 0.161791 0.312504
O O1 0.500000 0.800590 0.750000
O O2 0.545358 0.842772 0.500000
O O3 0.581042 0.731900 0.747658
O O4 0.555294 0.000000 0.750000
O O5 0.135652 0.155886 0.500000
O O6 0.172923 0.260500 0.257967
O O7 0.088411 0.221921 0.267766
O O8 0.138907 0.000000 0.250000
O O9 0.627916 0.500000 0.750000
O O10 0.621954 0.340166 0.500000
O O11 0.662139 0.244135 0.744227
O O12 0.781684 0.500000 0.750000
O O13 0.785528 0.656521 0.500000
O O14 0.744181 0.753894 0.733636
O O15 0.959999 0.840149 0.500000
O O16 0.000000 0.767114 0.250000
O O17 0.956781 0.000000 0.250000
O O18 0.300803 0.160437 0.500000
O O19 0.296676 0.000000 0.250000
#
# Coordination Sequence:
#
# PCOD9394694 Si02
#       6
#     8   8   8   8   8   8
#     4  11  22  40  64  92 123 159 201 245 291 339
#     4   9  18  32  50  75 104 136 174 220 267 320
#     4  12  25  42  62  88 121 157 195 238 286 339
#     4  10  22  38  56  79 109 142 180 223 273 327
#     4   9  15  24  41  66  98 130 166 211 262 313
#     4  11  23  40  62  88 115 147 186 231 279 333
#
# _framework density 18.801297999999999
#
# number of rings (size 3 to 8) (size 9 to 14) (size 15 to 20)
#    0.000    1.667    0.000    6.500    0.000    4.333 
#    0.000    1.667    0.000    0.500    0.000    3.500 
#    0.000    0.000    0.000    0.000    0.000    0.000 
#
# Total GULP energy -268129.118110 kJ/mol
# GULP energy per Si atom -5586.023294 kJ/mol
# Density = 1.875851 g / cm^3
# Si number density = 18.801298 Si / 1000 Ang^3
#
#
#
# Elastic Constant Matrix: (Units=GPa)
#
#
# Indices 1 2 3 4 5 6 
#
# 1 172.0218 110.5994 61.0496 0.0000 0.0000 0.0000
# 2 110.5994 136.0707 44.7353 0.0000 0.0000 0.0000
# 3 61.0496 44.7353 101.2815 0.0000 0.0000 0.0000
# 4 0.0000 0.0000 0.0000 29.8898 0.0000 0.0000
# 5 0.0000 0.0000 0.0000 0.0000 17.3442 0.0000
# 6 0.0000 0.0000 0.0000 0.0000 0.0000 -19.8728
#
#
#
# Elastic Compliance Matrix: (Units=1/GPa)
#
#
# Indices 1 2 3 4 5 6 
#
# 1 0.013318 -0.009576 -0.003798 0.000000 0.000000 0.000000
# 2 -0.009576 0.015484 -0.001067 0.000000 0.000000 0.000000
# 3 -0.003798 -0.001067 0.012634 0.000000 0.000000 0.000000
# 4 0.000000 0.000000 0.000000 0.033456 0.000000 0.000000
# 5 0.000000 0.000000 0.000000 0.000000 0.057656 0.000000
# 6 0.000000 0.000000 0.000000 0.000000 0.000000 -0.050320
#
#
# Mechanical properties :
#
#
# Convention : Reuss Voigt Hill
#
# Bulk Modulus (GPa) = 79.65816 93.57141 86.61479
# Shear Modulus (GPa) = 43.36717 18.33822 30.85269
#
# Velocity S-wave (km/s) = 4.80792 3.12648 4.05530
# Velocity P-wave (km/s) = 8.56049 7.93157 8.25202
#
# Compressibility (1/GPa) = 0.01255364
#
# Stress axis : x y z
#
# Youngs Moduli (GPa) = 75.08541 64.58445 79.15232
#
# Poissons Ratio (x) = 0.61849 0.30062
# Poissons Ratio (y) = 0.71905 0.08442
# Poissons Ratio (z) = 0.28517 0.06888
#
# Static dielectric constant tensor:
#      x y z
#    x 1.677530 0.000000 0.000000 
#    y 0.000000 1.608440 0.000000 
#    z 0.000000 0.000000 1.637840 
# 
# From -- ./inp_files/2081.got.cif
#   From: 2010.05.17/outbox.cif.g08.bks.cpg/sg49_2_cif.got.tgz:2081.got - 2010.06.03 21:02:19.
