data_PCOD9394193
_publ_section_title
;
Structure prediction by ZEFSAII (Michael W. Deem and Ramdas Pophale) SiO2 
 PCOD9394193
Probable space group: P C C M
;
_chemical_formula_sum "Si O2"
_cell_formula_units_Z 64
_cell_length_a 17.714154
_cell_length_b 11.616933
_cell_length_c 14.687680
_cell_angle_alpha 90.000000
_cell_angle_beta 90.000000
_cell_angle_gamma 90.000000
_cell_volume 3022.491600
_symmetry_space_group_name_H-M "P C C M"
_symmetry_group_IT_number 49
_symmetry_cell_setting 'orthorhombic'
loop_
_space_group_symop_operation_xyz
x,y,z
-x,-y,z
x,-y,1/2-z
-x,y,1/2-z
-x,-y,-z
x,y,-z
-x,y,1/2+z
x,-y,1/2+z
loop_
_atom_site_type_symbol
_atom_site_label
_atom_site_fract_x
_atom_site_fract_y
_atom_site_fract_z
Si Si1 0.829037 0.479237 0.609806
Si Si2 0.541242 0.877966 0.105119
Si Si3 0.653187 0.544589 0.108279
Si Si4 0.075416 0.255571 0.891780
Si Si5 0.897079 0.277151 0.108516
Si Si6 0.824108 0.131767 0.736496
Si Si7 0.595673 0.295819 0.894274
Si Si8 0.664644 0.226352 0.283408
O O1 0.831496 0.475793 0.500000
O O2 0.740435 0.484101 0.633047
O O3 0.876977 0.368205 0.639256
O O4 0.868462 0.596968 0.637679
O O5 0.482470 0.772513 0.120118
O O6 0.609859 0.868471 0.174242
O O7 0.500000 0.000000 0.115443
O O8 0.567404 0.869360 0.000000
O O9 0.600286 0.433280 0.123041
O O10 0.637253 0.656307 0.167863
O O11 0.649707 0.571911 0.000000
O O12 0.109011 0.150077 0.835663
O O13 0.986707 0.270413 0.875678
O O14 0.086681 0.241405 0.000000
O O15 0.852746 0.186057 0.169229
O O16 0.883666 0.263270 0.000000
O O17 0.751144 0.198702 0.698677
O O18 0.803794 0.000000 0.750000
O O19 0.653305 0.239645 0.823925
O O20 0.616858 0.280196 0.000000
#
# Coordination Sequence:
#
# PCOD9394193 Si02
#       8
#     8   8   8   8   8   8   8   8
#     4   9  17  35  63  97 131 164 211 270 334 401
#     4  10  24  46  70  98 130 169 223 279 327 385
#     4  10  20  38  65  98 137 171 210 270 336 399
#     4  10  21  41  67  94 128 172 220 273 333 396
#     4  10  22  41  66  93 129 175 219 270 333 393
#     4  12  28  43  60  94 131 172 226 278 324 391
#     4  10  23  41  64  97 132 170 212 266 324 390
#     4  12  24  41  69  93 128 175 218 265 337 398
#
# _framework density 21.174582999999998
#
# number of rings (size 3 to 8) (size 9 to 14) (size 15 to 20)
#    0.000    1.625    1.250    2.625    1.750    6.500 
#    0.000    5.625    0.000    0.000    0.000    0.000 
#    0.000    0.000    0.000    0.000    0.000    0.000 
#
# Total GULP energy -357800.720077 kJ/mol
# GULP energy per Si atom -5590.636251 kJ/mol
# Density = 2.112639 g / cm^3
# Si number density = 21.174583 Si / 1000 Ang^3
#
#
#
# Elastic Constant Matrix: (Units=GPa)
#
#
# Indices 1 2 3 4 5 6 
#
# 1 61.6885 36.4143 30.3956 0.0000 0.0000 0.0000
# 2 36.4143 82.7614 29.0434 0.0000 0.0000 0.0000
# 3 30.3956 29.0434 60.9150 0.0000 0.0000 0.0000
# 4 0.0000 0.0000 0.0000 5.4323 0.0000 0.0000
# 5 0.0000 0.0000 0.0000 0.0000 21.0993 0.0000
# 6 0.0000 0.0000 0.0000 0.0000 0.0000 26.1956
#
#
#
# Elastic Compliance Matrix: (Units=1/GPa)
#
#
# Indices 1 2 3 4 5 6 
#
# 1 0.025286 -0.008044 -0.008782 0.000000 0.000000 0.000000
# 2 -0.008044 0.017070 -0.004125 0.000000 0.000000 0.000000
# 3 -0.008782 -0.004125 0.022765 0.000000 0.000000 0.000000
# 4 0.000000 0.000000 0.000000 0.184083 0.000000 0.000000
# 5 0.000000 0.000000 0.000000 0.000000 0.047395 0.000000
# 6 0.000000 0.000000 0.000000 0.000000 0.000000 0.038174
#
#
# Mechanical properties :
#
#
# Convention : Reuss Voigt Hill
#
# Bulk Modulus (GPa) = 43.06772 44.11905 43.59339
# Shear Modulus (GPa) = 13.00682 17.84622 15.42652
#
# Velocity S-wave (km/s) = 2.48113 2.90627 2.70208
# Velocity P-wave (km/s) = 5.34710 5.66948 5.51065
#
# Compressibility (1/GPa) = 0.02321924
#
# Stress axis : x y z
#
# Youngs Moduli (GPa) = 39.54791 58.58364 43.92680
#
# Poissons Ratio (x) = 0.47123 0.38577
# Poissons Ratio (y) = 0.31811 0.18119
# Poissons Ratio (z) = 0.34731 0.24165
#
# Static dielectric constant tensor:
#      x y z
#    x 1.743010 0.000000 0.000000 
#    y 0.000000 1.758090 0.000000 
#    z 0.000000 0.000000 1.774060 
# 
# From -- ./inp_files/14190.got.cif
#   From: 2010.05.17/outbox.cif.g08.bks.cpg/sg49_8_cif.got.tgz:14190.got - 2010.06.03 21:02:19.
