data_PCOD9394202
_publ_section_title
;
Structure prediction by ZEFSAII (Michael W. Deem and Ramdas Pophale) SiO2 
 PCOD9394202
Probable space group: P C C M
;
_chemical_formula_sum "Si O2"
_cell_formula_units_Z 48
_cell_length_a 10.309371
_cell_length_b 9.670072
_cell_length_c 24.535293
_cell_angle_alpha 90.000000
_cell_angle_beta 90.000000
_cell_angle_gamma 90.000000
_cell_volume 2445.981259
_symmetry_space_group_name_H-M "P C C M"
_symmetry_group_IT_number 49
_symmetry_cell_setting 'orthorhombic'
loop_
_space_group_symop_operation_xyz
x,y,z
-x,-y,z
x,-y,1/2-z
-x,y,1/2-z
-x,-y,-z
x,y,-z
-x,y,1/2+z
x,-y,1/2+z
loop_
_atom_site_type_symbol
_atom_site_label
_atom_site_fract_x
_atom_site_fract_y
_atom_site_fract_z
Si Si1 0.256243 0.736581 0.671519
Si Si2 0.027148 0.664114 0.840409
Si Si3 0.647199 0.029486 0.131176
Si Si4 0.639740 0.524612 0.388763
Si Si5 0.688415 0.719429 0.707164
Si Si6 0.816391 0.240602 0.936957
O O1 0.292296 0.884406 0.647896
O O2 0.291877 0.616866 0.628681
O O3 0.328905 0.709117 0.728657
O O4 0.102825 0.729759 0.682825
O O5 0.158803 0.691397 0.806628
O O6 0.058998 0.731651 0.899027
O O7 0.000000 0.500000 0.843903
O O8 0.500000 0.000000 0.113219
O O9 0.648835 0.131395 0.183653
O O10 0.733072 0.112998 0.087233
O O11 0.500000 0.500000 0.414282
O O12 0.618660 0.609833 0.332223
O O13 0.728926 0.622951 0.425369
O O14 0.845164 0.223575 0.000000
#
# Coordination Sequence:
#
# PCOD9394202 Si02
#       6
#     8   8   8   8   8   8
#     4  12  20  35  61  86 119 163 198 231 296 356
#     4  10  20  39  58  90 121 152 198 253 294 354
#     4  10  23  41  58  86 124 158 200 246 290 356
#     4  10  21  36  56  89 119 151 199 251 287 351
#     4  10  22  34  56  88 125 164 190 234 291 358
#     4  10  23  44  63  83 116 158 201 260 320 347
#
# _framework density 19.624026000000001
#
# number of rings (size 3 to 8) (size 9 to 14) (size 15 to 20)
#    0.000    2.000    3.333    3.500    0.000    8.333 
#    0.000    5.833    0.000    0.000    0.000    0.000 
#    0.000    0.000    0.000    0.000    0.000    0.000 
#
# Total GULP energy -268019.096051 kJ/mol
# GULP energy per Si atom -5583.731168 kJ/mol
# Density = 1.957936 g / cm^3
# Si number density = 19.624026 Si / 1000 Ang^3
#
#
#
# Elastic Constant Matrix: (Units=GPa)
#
#
# Indices 1 2 3 4 5 6 
#
# 1 32.7991 8.0605 -7.9458 0.0000 0.0000 0.0000
# 2 8.0605 116.0674 8.1759 0.0000 0.0000 0.0000
# 3 -7.9458 8.1759 82.9321 0.0000 0.0000 0.0000
# 4 0.0000 0.0000 0.0000 13.4617 0.0000 0.0000
# 5 0.0000 0.0000 0.0000 0.0000 8.4657 0.0000
# 6 0.0000 0.0000 0.0000 0.0000 0.0000 21.9629
#
#
#
# Elastic Compliance Matrix: (Units=1/GPa)
#
#
# Indices 1 2 3 4 5 6 
#
# 1 0.031888 -0.002447 0.003296 0.000000 0.000000 0.000000
# 2 -0.002447 0.008864 -0.001108 0.000000 0.000000 0.000000
# 3 0.003296 -0.001108 0.012483 0.000000 0.000000 0.000000
# 4 0.000000 0.000000 0.000000 0.074285 0.000000 0.000000
# 5 0.000000 0.000000 0.000000 0.000000 0.118124 0.000000
# 6 0.000000 0.000000 0.000000 0.000000 0.000000 0.045531
#
#
# Mechanical properties :
#
#
# Convention : Reuss Voigt Hill
#
# Bulk Modulus (GPa) = 18.96877 27.59776 23.28326
# Shear Modulus (GPa) = 16.16736 23.67859 19.92298
#
# Velocity S-wave (km/s) = 2.87340 3.47740 3.18973
# Velocity P-wave (km/s) = 4.54925 5.49699 5.04542
#
# Compressibility (1/GPa) = 0.05271824
#
# Stress axis : x y z
#
# Youngs Moduli (GPa) = 31.35928 112.82009 80.10795
#
# Poissons Ratio (x) = 0.27604 -0.26407
# Poissons Ratio (y) = 0.07673 0.08878
# Poissons Ratio (z) = -0.10337 0.12503
#
# Static dielectric constant tensor:
#      x y z
#    x 1.822870 0.000000 0.000000 
#    y 0.000000 1.670950 0.000000 
#    z 0.000000 0.000000 1.692040 
# 
# From -- ./inp_files/22839.got.cif
#   From: 2010.05.17/outbox.cif.g08.bks.cpg/sg49_12_cif.got.tgz:22839.got - 2010.06.03 21:02:19.
