data_PCOD9394927
_publ_section_title
;
Structure prediction by ZEFSAII (Michael W. Deem and Ramdas Pophale) SiO2 
 PCOD9394927
Probable space group: P C C M
;
_chemical_formula_sum "Si O2"
_cell_formula_units_Z 48
_cell_length_a 12.575483
_cell_length_b 7.948385
_cell_length_c 20.165588
_cell_angle_alpha 90.000000
_cell_angle_beta 90.000000
_cell_angle_gamma 90.000000
_cell_volume 2015.646921
_symmetry_space_group_name_H-M "P C C M"
_symmetry_group_IT_number 49
_symmetry_cell_setting 'orthorhombic'
loop_
_space_group_symop_operation_xyz
x,y,z
-x,-y,z
x,-y,1/2-z
-x,y,1/2-z
-x,-y,-z
x,y,-z
-x,y,1/2+z
x,-y,1/2+z
loop_
_atom_site_type_symbol
_atom_site_label
_atom_site_fract_x
_atom_site_fract_y
_atom_site_fract_z
Si Si1 0.134346 0.658491 0.000000
Si Si2 0.126120 0.256681 0.737902
Si Si3 0.523956 0.806172 0.679265
Si Si4 0.398790 0.374703 0.927419
Si Si5 0.112690 0.245917 0.000000
Si Si6 0.745229 0.348108 0.868273
Si Si7 0.124867 0.946564 0.362981
O O1 0.134980 0.451121 0.000000
O O2 0.192946 0.720330 0.933317
O O3 0.016805 0.737940 0.000000
O O4 0.178546 0.398661 0.692865
O O5 0.160220 0.196911 0.810099
O O6 0.000000 0.274592 0.750000
O O7 0.157429 0.109294 0.683203
O O8 0.500000 0.720179 0.750000
O O9 0.438922 0.756966 0.624446
O O10 0.641957 0.757605 0.655517
O O11 0.500000 0.000000 0.686836
O O12 0.500000 0.500000 0.933367
O O13 0.305663 0.482879 0.897508
O O14 0.373236 0.307160 0.000000
O O15 0.148100 0.138291 0.934733
O O16 0.000000 0.000000 0.367682
#
# Coordination Sequence:
#
# PCOD9394927 Si02
#       7
#     4   8   8   8   4   8   8
#     4  11  24  42  62  94 140 188 243 291 343 429
#     4   9  19  37  65 101 139 182 235 289 346 415
#     4  10  24  46  72 106 139 178 234 304 365 429
#     4   9  19  40  68  95 138 181 225 288 358 425
#     4  11  23  42  62  90 142 196 241 299 345 405
#     4  11  22  43  69 100 140 188 232 288 360 432
#     4   9  18  36  62  91 129 185 234 286 343 395
#
# _framework density 23.813694000000002
#
# number of rings (size 3 to 8) (size 9 to 14) (size 15 to 20)
#    0.000    2.167    0.833    3.250    1.167    6.667 
#    9.000    0.000    0.000    8.000    0.000    0.000 
#    0.000    0.000    0.000    0.000    0.000    0.000 
#
# Total GULP energy -267317.636854 kJ/mol
# GULP energy per Si atom -5569.117434 kJ/mol
# Density = 2.375949 g / cm^3
# Si number density = 23.813694 Si / 1000 Ang^3
#
#
#
# Elastic Constant Matrix: (Units=GPa)
#
#
# Indices 1 2 3 4 5 6 
#
# 1 107.5194 7.7781 69.5704 0.0000 0.0000 0.0000
# 2 7.7781 39.2308 47.8175 0.0000 0.0000 0.0000
# 3 69.5704 47.8175 275.9206 0.0000 0.0000 0.0000
# 4 0.0000 0.0000 0.0000 39.1004 0.0000 0.0000
# 5 0.0000 0.0000 0.0000 0.0000 27.6565 0.0000
# 6 0.0000 0.0000 0.0000 0.0000 0.0000 22.7315
#
#
#
# Elastic Compliance Matrix: (Units=1/GPa)
#
#
# Indices 1 2 3 4 5 6 
#
# 1 0.011187 0.001547 -0.003089 0.000000 0.000000 0.000000
# 2 0.001547 0.032530 -0.006028 0.000000 0.000000 0.000000
# 3 -0.003089 -0.006028 0.005448 0.000000 0.000000 0.000000
# 4 0.000000 0.000000 0.000000 0.025575 0.000000 0.000000
# 5 0.000000 0.000000 0.000000 0.000000 0.036158 0.000000
# 6 0.000000 0.000000 0.000000 0.000000 0.000000 0.043992
#
#
# Mechanical properties :
#
#
# Convention : Reuss Voigt Hill
#
# Bulk Modulus (GPa) = 29.38908 74.77809 52.08359
# Shear Modulus (GPa) = 27.56774 37.73134 32.64954
#
# Velocity S-wave (km/s) = 3.40611 3.98482 3.70677
# Velocity P-wave (km/s) = 5.27606 7.25542 6.34342
#
# Compressibility (1/GPa) = 0.03402624
#
# Stress axis : x y z
#
# Youngs Moduli (GPa) = 89.38640 30.74052 183.56557
#
# Poissons Ratio (x) = -0.04755 0.56701
# Poissons Ratio (y) = -0.13827 1.10646
# Poissons Ratio (z) = 0.27610 0.18529
#
# Static dielectric constant tensor:
#      x y z
#    x 1.969230 0.000000 0.000000 
#    y 0.000000 2.201790 0.000000 
#    z 0.000000 0.000000 2.240600 
# 
# From -- ./inp_files/17756.got.cif
#   From: 2010.05.17/outbox.cif.g08.bks.cpg/sg49_9_cif.got.tgz:17756.got - 2010.06.03 21:02:19.
