data_PCOD9394496
_publ_section_title
;
Structure prediction by ZEFSAII (Michael W. Deem and Ramdas Pophale) SiO2 
 PCOD9394496
Probable space group: P C C M
;
_chemical_formula_sum "Si O2"
_cell_formula_units_Z 64
_cell_length_a 17.306893
_cell_length_b 20.736831
_cell_length_c 9.230417
_cell_angle_alpha 90.000000
_cell_angle_beta 90.000000
_cell_angle_gamma 90.000000
_cell_volume 3312.705421
_symmetry_space_group_name_H-M "P C C M"
_symmetry_group_IT_number 49
_symmetry_cell_setting 'orthorhombic'
loop_
_space_group_symop_operation_xyz
x,y,z
-x,-y,z
x,-y,1/2-z
-x,y,1/2-z
-x,-y,-z
x,y,-z
-x,y,1/2+z
x,-y,1/2+z
loop_
_atom_site_type_symbol
_atom_site_label
_atom_site_fract_x
_atom_site_fract_y
_atom_site_fract_z
Si Si1 0.189657 0.433749 0.669218
Si Si2 0.423379 0.696590 0.673609
Si Si3 0.879855 0.192943 0.329673
Si Si4 0.623818 0.566031 0.669280
Si Si5 0.302395 0.936243 0.165615
Si Si6 0.303164 0.807868 0.329161
Si Si7 0.922235 0.338870 0.673424
Si Si8 0.886289 0.064340 0.834366
O O1 0.167563 0.500000 0.750000
O O2 0.166749 0.434555 0.500000
O O3 0.282648 0.429169 0.674436
O O4 0.149384 0.375620 0.754219
O O5 0.500000 0.723455 0.750000
O O6 0.432332 0.691195 0.500000
O O7 0.408246 0.627305 0.745306
O O8 0.352144 0.744423 0.704488
O O9 0.889806 0.178567 0.500000
O O10 0.787985 0.201431 0.302206
O O11 0.915945 0.262295 0.298188
O O12 0.908597 0.131756 0.239459
O O13 0.601603 0.500000 0.750000
O O14 0.600506 0.565809 0.500000
O O15 0.328614 0.870434 0.240542
O O16 0.208079 0.935855 0.168098
O O17 0.327389 0.000000 0.250000
O O18 0.326926 0.938910 0.000000
O O19 0.312030 0.821323 0.500000
O O20 0.923064 0.348439 0.500000
O O21 0.000000 0.363315 0.750000
O O22 0.910520 0.000000 0.750000
O O23 0.912049 0.061925 0.000000
#
# Coordination Sequence:
#
# PCOD9394496 Si02
#       8
#     8   8   8   8   8   8   8   8
#     4  10  21  38  61  87 113 141 176 219 266 318
#     4  11  23  38  56  79 110 146 183 223 268 318
#     4   9  18  33  53  76 103 137 176 218 265 317
#     4  10  21  38  61  87 113 141 176 219 266 318
#     4   9  16  26  44  72 104 135 169 213 263 314
#     4   9  18  33  53  76 103 137 176 218 265 317
#     4  11  23  38  56  79 110 146 183 223 268 318
#     4   9  16  26  44  72 104 135 169 213 263 314
#
# _framework density 19.319555999999999
#
# number of rings (size 3 to 8) (size 9 to 14) (size 15 to 20)
#    0.000    2.250    0.000    3.000    0.000    8.000 
#    0.000    5.000    0.000    0.750    0.000    5.250 
#    0.000    0.000    0.000    0.000    0.000    0.000 
#
# Total GULP energy -357474.236754 kJ/mol
# GULP energy per Si atom -5585.534949 kJ/mol
# Density = 1.927558 g / cm^3
# Si number density = 19.319556 Si / 1000 Ang^3
#
#
#
# Elastic Constant Matrix: (Units=GPa)
#
#
# Indices 1 2 3 4 5 6 
#
# 1 39.6722 33.0459 44.5762 0.0000 0.0000 0.0000
# 2 33.0459 107.9175 78.6095 0.0000 0.0000 0.0000
# 3 44.5762 78.6095 115.5050 0.0000 0.0000 0.0000
# 4 0.0000 0.0000 0.0000 39.8851 0.0000 0.0000
# 5 0.0000 0.0000 0.0000 0.0000 28.3349 0.0000
# 6 0.0000 0.0000 0.0000 0.0000 0.0000 -44.1450
#
#
#
# Elastic Compliance Matrix: (Units=1/GPa)
#
#
# Indices 1 2 3 4 5 6 
#
# 1 0.044774 -0.002229 -0.015763 0.000000 0.000000 0.000000
# 2 -0.002229 0.018487 -0.011722 0.000000 0.000000 0.000000
# 3 -0.015763 -0.011722 0.022718 0.000000 0.000000 0.000000
# 4 0.000000 0.000000 0.000000 0.025072 0.000000 0.000000
# 5 0.000000 0.000000 0.000000 0.000000 0.035292 0.000000
# 6 0.000000 0.000000 0.000000 0.000000 0.000000 -0.022653
#
#
# Mechanical properties :
#
#
# Convention : Reuss Voigt Hill
#
# Bulk Modulus (GPa) = 37.65982 63.95086 50.80534
# Shear Modulus (GPa) = 26.04596 11.93922 18.99259
#
# Velocity S-wave (km/s) = 3.67572 2.48863 3.13881
# Velocity P-wave (km/s) = 6.12780 6.43671 6.28415
#
# Compressibility (1/GPa) = 0.02655350
#
# Stress axis : x y z
#
# Youngs Moduli (GPa) = 22.33435 54.09162 44.01729
#
# Poissons Ratio (x) = 0.12055 0.69383
# Poissons Ratio (y) = 0.04977 0.51596
# Poissons Ratio (z) = 0.35205 0.63405
#
# Static dielectric constant tensor:
#      x y z
#    x 1.677570 0.000000 0.000000 
#    y 0.000000 1.645930 0.000000 
#    z 0.000000 0.000000 1.648390 
# 
# From -- ./inp_files/5300.got.cif
#   From: 2010.05.17/outbox.cif.g08.bks.cpg/sg49_3_cif.got.tgz:5300.got - 2010.06.03 21:02:19.
