data_PCOD9394364
_publ_section_title
;
Structure prediction by ZEFSAII (Michael W. Deem and Ramdas Pophale) SiO2 
 PCOD9394364
Probable space group: P C C M
;
_chemical_formula_sum "Si O2"
_cell_formula_units_Z 48
_cell_length_a 12.099563
_cell_length_b 20.634574
_cell_length_c 8.072362
_cell_angle_alpha 90.000000
_cell_angle_beta 90.000000
_cell_angle_gamma 90.000000
_cell_volume 2015.421197
_symmetry_space_group_name_H-M "P C C M"
_symmetry_group_IT_number 49
_symmetry_cell_setting 'orthorhombic'
loop_
_space_group_symop_operation_xyz
x,y,z
-x,-y,z
x,-y,1/2-z
-x,y,1/2-z
-x,-y,-z
x,y,-z
-x,y,1/2+z
x,-y,1/2+z
loop_
_atom_site_type_symbol
_atom_site_label
_atom_site_fract_x
_atom_site_fract_y
_atom_site_fract_z
Si Si1 0.612076 0.107645 0.302737
Si Si2 0.623426 0.610012 0.688708
Si Si3 0.124476 0.575079 0.198048
Si Si4 0.116087 0.213987 0.690830
Si Si5 0.150872 0.070207 0.801667
Si Si6 0.346293 0.250495 0.191463
O O1 0.500000 0.075576 0.250000
O O2 0.617020 0.113551 0.500000
O O3 0.720843 0.071446 0.249932
O O4 0.615510 0.181364 0.236325
O O5 0.500000 0.587089 0.750000
O O6 0.628763 0.587725 0.500000
O O7 0.749502 0.596004 0.760147
O O8 0.618442 0.687815 0.705432
O O9 0.120767 0.500000 0.250000
O O10 0.000000 0.601059 0.250000
O O11 0.127356 0.583819 0.000000
O O12 0.137918 0.229031 0.500000
O O13 0.110848 0.135933 0.714814
O O14 0.214218 0.242021 0.800074
O O15 0.000000 0.240600 0.750000
O O16 0.109132 0.000000 0.750000
O O17 0.138344 0.078281 0.000000
O O18 0.380477 0.258559 0.000000
#
# Coordination Sequence:
#
# PCOD9394364 Si02
#       6
#     8   8   8   8   8   8
#     4   9  19  33  51  74 102 136 176 220 272 334
#     4  11  24  40  61  94 131 170 214 262 314 373
#     4  10  22  41  66  94 127 168 216 264 316 373
#     4  11  22  38  59  82 109 144 186 236 293 357
#     4  10  21  37  53  75 104 136 178 229 285 347
#     4  10  21  38  58  83 116 153 192 240 294 354
#
# _framework density 23.816362000000002
#
# number of rings (size 3 to 8) (size 9 to 14) (size 15 to 20)
#    0.000    1.833    0.000    5.500    0.000    9.667 
#    0.000    6.667    0.000    0.000    0.000    0.000 
#    0.000    0.000    0.000    0.000    0.000    0.000 
#
# Total GULP energy -267640.459886 kJ/mol
# GULP energy per Si atom -5575.842914 kJ/mol
# Density = 2.376215 g / cm^3
# Si number density = 23.816362 Si / 1000 Ang^3
#
#
#
# Elastic Constant Matrix: (Units=GPa)
#
#
# Indices 1 2 3 4 5 6 
#
# 1 240.4199 28.5608 12.9849 0.0000 0.0000 0.0000
# 2 28.5608 71.6398 -6.1444 0.0000 0.0000 0.0000
# 3 12.9849 -6.1444 50.3246 0.0000 0.0000 0.0000
# 4 0.0000 0.0000 0.0000 1.4616 0.0000 0.0000
# 5 0.0000 0.0000 0.0000 0.0000 26.0872 0.0000
# 6 0.0000 0.0000 0.0000 0.0000 0.0000 -242.0023
#
#
#
# Elastic Compliance Matrix: (Units=1/GPa)
#
#
# Indices 1 2 3 4 5 6 
#
# 1 0.004459 -0.001896 -0.001382 0.000000 0.000000 0.000000
# 2 -0.001896 0.014913 0.002310 0.000000 0.000000 0.000000
# 3 -0.001382 0.002310 0.020510 0.000000 0.000000 0.000000
# 4 0.000000 0.000000 0.000000 0.684183 0.000000 0.000000
# 5 0.000000 0.000000 0.000000 0.000000 0.038333 0.000000
# 6 0.000000 0.000000 0.000000 0.000000 0.000000 -0.004132
#
#
# Mechanical properties :
#
#
# Convention : Reuss Voigt Hill
#
# Bulk Modulus (GPa) = 26.35386 48.13187 37.24286
# Shear Modulus (GPa) = 6.46955 -21.09182 -7.31113
#
# Velocity S-wave (km/s) = 1.64995 -2.97914 -1.75398
# Velocity P-wave (km/s) = 3.83657 2.90169 3.40140
#
# Compressibility (1/GPa) = 0.03794510
#
# Stress axis : x y z
#
# Youngs Moduli (GPa) = 224.24969 67.05612 48.75745
#
# Poissons Ratio (x) = 0.12716 0.06739
# Poissons Ratio (y) = 0.42526 -0.11263
# Poissons Ratio (z) = 0.30995 -0.15491
#
# Static dielectric constant tensor:
#      x y z
#    x 1.819970 0.000000 0.000000 
#    y 0.000000 1.892290 0.000000 
#    z 0.000000 0.000000 1.854920 
# 
# From -- ./inp_files/2892.got.cif
#   From: 2010.05.17/outbox.cif.g08.bks.cpg/sg49_2_cif.got.tgz:2892.got - 2010.06.03 21:02:19.
