data_PCOD9394284
_publ_section_title
;
Structure prediction by ZEFSAII (Michael W. Deem and Ramdas Pophale) SiO2 
 PCOD9394284
Probable space group: P C C M
;
_chemical_formula_sum "Si O2"
_cell_formula_units_Z 48
_cell_length_a 8.305113
_cell_length_b 17.092408
_cell_length_c 15.927660
_cell_angle_alpha 90.000000
_cell_angle_beta 90.000000
_cell_angle_gamma 90.000000
_cell_volume 2261.001098
_symmetry_space_group_name_H-M "P C C M"
_symmetry_group_IT_number 49
_symmetry_cell_setting 'orthorhombic'
loop_
_space_group_symop_operation_xyz
x,y,z
-x,-y,z
x,-y,1/2-z
-x,y,1/2-z
-x,-y,-z
x,y,-z
-x,y,1/2+z
x,-y,1/2+z
loop_
_atom_site_type_symbol
_atom_site_label
_atom_site_fract_x
_atom_site_fract_y
_atom_site_fract_z
Si Si1 0.810388 0.181736 0.774072
Si Si2 0.687457 0.683688 0.398366
Si Si3 0.905627 0.080612 0.091520
Si Si4 0.203199 0.800612 0.406334
Si Si5 0.822824 0.514152 0.650861
Si Si6 0.666399 0.641808 0.902673
O O1 0.761761 0.251639 0.836459
O O2 0.723194 0.174747 0.683712
O O3 0.000000 0.192560 0.750000
O O4 0.797461 0.103916 0.830197
O O5 0.704193 0.699822 0.500000
O O6 0.762172 0.598829 0.377267
O O7 0.500096 0.677901 0.371498
O O8 0.040386 0.149286 0.086824
O O9 0.824560 0.076932 0.000000
O O10 0.000000 0.000000 0.104742
O O11 0.282227 0.809902 0.500000
O O12 0.192688 0.706458 0.393213
O O13 0.835961 0.500000 0.750000
O O14 0.705485 0.443772 0.627523
O O15 0.000000 0.500000 0.613175
O O16 0.637632 0.632211 0.000000
#
# Coordination Sequence:
#
# PCOD9394284 Si02
#       6
#     8   8   8   8   8   8
#     4  10  21  34  57  86 119 150 192 247 298 354
#     4  11  24  40  61  86 116 157 204 252 303 361
#     4   9  18  34  58  88 121 155 193 242 301 358
#     4   9  19  34  55  80 112 152 194 235 289 353
#     4  11  25  38  57  85 119 156 204 253 301 356
#     4  10  22  41  59  81 115 158 205 248 303 365
#
# _framework density 21.229534000000001
#
# number of rings (size 3 to 8) (size 9 to 14) (size 15 to 20)
#    0.000    2.000    0.000    2.500    7.000    9.667 
#    0.000    0.000    0.000    1.000    0.000   10.500 
#    0.000    0.000    0.000    0.000    0.000    0.000 
#
# Total GULP energy -267242.848671 kJ/mol
# GULP energy per Si atom -5567.559347 kJ/mol
# Density = 2.118121 g / cm^3
# Si number density = 21.229534 Si / 1000 Ang^3
#
#
#
# Elastic Constant Matrix: (Units=GPa)
#
#
# Indices 1 2 3 4 5 6 
#
# 1 31.5917 10.4695 11.9920 0.0000 0.0000 0.0000
# 2 10.4695 65.5674 46.8895 0.0000 0.0000 0.0000
# 3 11.9920 46.8895 166.8764 0.0000 0.0000 0.0000
# 4 0.0000 0.0000 0.0000 30.7326 0.0000 0.0000
# 5 0.0000 0.0000 0.0000 0.0000 19.4706 0.0000
# 6 0.0000 0.0000 0.0000 0.0000 0.0000 7.6852
#
#
#
# Elastic Compliance Matrix: (Units=1/GPa)
#
#
# Indices 1 2 3 4 5 6 
#
# 1 0.033593 -0.004552 -0.001135 0.000000 0.000000 0.000000
# 2 -0.004552 0.019704 -0.005209 0.000000 0.000000 0.000000
# 3 -0.001135 -0.005209 0.007538 0.000000 0.000000 0.000000
# 4 0.000000 0.000000 0.000000 0.032539 0.000000 0.000000
# 5 0.000000 0.000000 0.000000 0.000000 0.051360 0.000000
# 6 0.000000 0.000000 0.000000 0.000000 0.000000 0.130121
#
#
# Mechanical properties :
#
#
# Convention : Reuss Voigt Hill
#
# Bulk Modulus (GPa) = 25.61368 44.74859 35.18114
# Shear Modulus (GPa) = 16.14670 24.55663 20.35167
#
# Velocity S-wave (km/s) = 2.76085 3.40475 3.09956
# Velocity P-wave (km/s) = 4.71745 6.04819 5.42379
#
# Compressibility (1/GPa) = 0.03904164
#
# Stress axis : x y z
#
# Youngs Moduli (GPa) = 29.76776 50.75183 132.66583
#
# Poissons Ratio (x) = 0.23104 0.15057
# Poissons Ratio (y) = 0.13551 0.69109
# Poissons Ratio (z) = 0.03378 0.26438
#
# Static dielectric constant tensor:
#      x y z
#    x 2.069580 0.000000 0.000000 
#    y 0.000000 1.736130 0.000000 
#    z 0.000000 0.000000 1.798930 
# 
# From -- ./inp_files/11772.got.cif
#   From: 2010.05.17/outbox.cif.g08.bks.cpg/sg49_6_cif.got.tgz:11772.got - 2010.06.03 21:02:19.
