data_PCOD9394862
_publ_section_title
;
Structure prediction by ZEFSAII (Michael W. Deem and Ramdas Pophale) SiO2 
 PCOD9394862
Probable space group: P C C M
;
_chemical_formula_sum "Si O2"
_cell_formula_units_Z 20
_cell_length_a 5.708980
_cell_length_b 5.083333
_cell_length_c 28.894088
_cell_angle_alpha 90.000000
_cell_angle_beta 90.000000
_cell_angle_gamma 90.000000
_cell_volume 838.525112
_symmetry_space_group_name_H-M "P C C M"
_symmetry_group_IT_number 49
_symmetry_cell_setting 'orthorhombic'
loop_
_space_group_symop_operation_xyz
x,y,z
-x,-y,z
x,-y,1/2-z
-x,y,1/2-z
-x,-y,-z
x,y,-z
-x,y,1/2+z
x,-y,1/2+z
loop_
_atom_site_type_symbol
_atom_site_label
_atom_site_fract_x
_atom_site_fract_y
_atom_site_fract_z
Si Si1 0.332197 0.256357 0.073477
Si Si2 0.000000 0.000000 0.750000
Si Si3 0.000000 0.000000 0.500000
Si Si4 0.338181 0.743465 0.321234
O O1 0.500000 0.500000 0.059710
O O2 0.250514 0.302107 0.126322
O O3 0.500000 0.000000 0.071302
O O4 0.119792 0.189182 0.040127
O O5 0.146417 0.812623 0.716265
O O6 0.500000 0.500000 0.308079
O O7 0.500000 0.000000 0.323425
#
# Coordination Sequence:
#
# PCOD9394862 Si02
#       4
#     8   2   2   8
#     4  10  23  42  62  92 133 171 214 275 337 397
#     4  12  24  42  72  98 124 178 232 278 340 414
#     4  12  22  38  68  98 124 174 230 270 324 406
#     4  10  24  44  64  94 135 173 219 280 342 406
#
# _framework density 23.851403999999999
#
# number of rings (size 3 to 8) (size 9 to 14) (size 15 to 20)
#    0.000    1.600    0.000    3.000    0.000    9.600 
#    0.000   12.000    0.000    0.000    0.000    2.800 
#    0.000    0.000    0.000    0.000    0.000    0.000 
#
# Total GULP energy -111584.258142 kJ/mol
# GULP energy per Si atom -5579.212907 kJ/mol
# Density = 2.379712 g / cm^3
# Si number density = 23.851404 Si / 1000 Ang^3
#
#
#
# Elastic Constant Matrix: (Units=GPa)
#
#
# Indices 1 2 3 4 5 6 
#
# 1 98.7785 76.4257 113.1567 0.0000 0.0000 0.0000
# 2 76.4257 199.3916 66.5700 0.0000 0.0000 0.0000
# 3 113.1567 66.5700 225.7613 0.0000 0.0000 0.0000
# 4 0.0000 0.0000 0.0000 -69.6156 0.0000 0.0000
# 5 0.0000 0.0000 0.0000 0.0000 -621.9174 0.0000
# 6 0.0000 0.0000 0.0000 0.0000 0.0000 33.7082
#
#
#
# Elastic Compliance Matrix: (Units=1/GPa)
#
#
# Indices 1 2 3 4 5 6 
#
# 1 0.031498 -0.007545 -0.013563 0.000000 0.000000 0.000000
# 2 -0.007545 0.007370 0.001608 0.000000 0.000000 0.000000
# 3 -0.013563 0.001608 0.010753 0.000000 0.000000 0.000000
# 4 0.000000 0.000000 0.000000 -0.014365 0.000000 0.000000
# 5 0.000000 0.000000 0.000000 0.000000 -0.001608 0.000000
# 6 0.000000 0.000000 0.000000 0.000000 0.000000 0.029666
#
#
# Mechanical properties :
#
#
# Convention : Reuss Voigt Hill
#
# Bulk Modulus (GPa) = 94.13586 115.13736 104.63661
# Shear Modulus (GPa) = 47.23422 -113.71301 -33.23939
#
# Velocity S-wave (km/s) = 4.45494 -6.91224 -3.73715
# Velocity P-wave (km/s) = 8.12498 3.91509 5.03426
#
# Compressibility (1/GPa) = 0.01062294
#
# Stress axis : x y z
#
# Youngs Moduli (GPa) = 31.74764 135.68179 92.99540
#
# Poissons Ratio (x) = 1.02371 1.26129
# Poissons Ratio (y) = 0.23953 -0.14958
# Poissons Ratio (z) = 0.43059 -0.21824
#
# Static dielectric constant tensor:
#      x y z
#    x 1.927980 0.000000 0.000000 
#    y 0.000000 1.867390 0.000000 
#    z 0.000000 0.000000 1.916020 
# 
# From -- ./inp_files/25340.got.cif
#   From: 2010.05.17/outbox.cif.g08.bks.cpg/sg49_13_cif.got.tgz:25340.got - 2010.06.03 21:02:19.
