data_PCOD9394655
_publ_section_title
;
Structure prediction by ZEFSAII (Michael W. Deem and Ramdas Pophale) SiO2 
 PCOD9394655
Probable space group: P C C M
;
_chemical_formula_sum "Si O2"
_cell_formula_units_Z 40
_cell_length_a 8.965643
_cell_length_b 11.030133
_cell_length_c 17.484418
_cell_angle_alpha 90.000000
_cell_angle_beta 90.000000
_cell_angle_gamma 90.000000
_cell_volume 1729.073169
_symmetry_space_group_name_H-M "P C C M"
_symmetry_group_IT_number 49
_symmetry_cell_setting 'orthorhombic'
loop_
_space_group_symop_operation_xyz
x,y,z
-x,-y,z
x,-y,1/2-z
-x,y,1/2-z
-x,-y,-z
x,y,-z
-x,y,1/2+z
x,-y,1/2+z
loop_
_atom_site_type_symbol
_atom_site_label
_atom_site_fract_x
_atom_site_fract_y
_atom_site_fract_z
Si Si1 0.023000 0.828834 0.334117
Si Si2 0.707624 0.195121 0.910501
Si Si3 0.447759 0.318421 0.837944
Si Si4 0.305794 0.918549 0.590580
Si Si5 0.849920 0.561743 0.167336
O O1 0.863941 0.799641 0.369005
O O2 0.000000 0.879743 0.250000
O O3 0.130189 0.907272 0.388449
O O4 0.101684 0.699917 0.322630
O O5 0.599829 0.302872 0.885000
O O6 0.648749 0.057685 0.895228
O O7 0.731207 0.201961 0.000000
O O8 0.500000 0.332863 0.750000
O O9 0.377702 0.184781 0.856161
O O10 0.321566 0.417067 0.861674
O O11 0.330753 0.891016 0.500000
O O12 0.834995 0.500000 0.250000
O O13 0.000000 0.500000 0.129689
#
# Coordination Sequence:
#
# PCOD9394655 Si02
#       5
#     8   8   8   8   8
#     4  11  21  37  65 102 124 173 234 282 316 384
#     4  11  23  40  62  95 143 183 212 264 338 404
#     4  11  24  38  64 104 123 167 224 279 327 391
#     4  10  22  40  62  90 140 193 214 247 330 416
#     4  10  21  42  67  90 120 167 215 277 344 411
#
# _framework density 23.133780999999999
#
# number of rings (size 3 to 8) (size 9 to 14) (size 15 to 20)
#    0.000    1.400    2.000    4.800    0.000    8.400 
#    0.000    0.000    0.000   22.800    0.000    0.000 
#    0.000    0.000    0.000    0.000    0.000    0.000 
#
# Total GULP energy -223186.132099 kJ/mol
# GULP energy per Si atom -5579.653302 kJ/mol
# Density = 2.308113 g / cm^3
# Si number density = 23.133781 Si / 1000 Ang^3
#
#
#
# Elastic Constant Matrix: (Units=GPa)
#
#
# Indices 1 2 3 4 5 6 
#
# 1 171.5824 43.4416 41.3328 0.0000 0.0000 0.0000
# 2 43.4416 120.3556 35.3960 0.0000 0.0000 0.0000
# 3 41.3328 35.3960 49.8401 0.0000 0.0000 0.0000
# 4 0.0000 0.0000 0.0000 69.9922 0.0000 0.0000
# 5 0.0000 0.0000 0.0000 0.0000 24.5808 0.0000
# 6 0.0000 0.0000 0.0000 0.0000 0.0000 63.4563
#
#
#
# Elastic Compliance Matrix: (Units=1/GPa)
#
#
# Indices 1 2 3 4 5 6 
#
# 1 0.007395 -0.001094 -0.005356 0.000000 0.000000 0.000000
# 2 -0.001094 0.010664 -0.006666 0.000000 0.000000 0.000000
# 3 -0.005356 -0.006666 0.029240 0.000000 0.000000 0.000000
# 4 0.000000 0.000000 0.000000 0.014287 0.000000 0.000000
# 5 0.000000 0.000000 0.000000 0.000000 0.040682 0.000000
# 6 0.000000 0.000000 0.000000 0.000000 0.000000 0.015759
#
#
# Mechanical properties :
#
#
# Convention : Reuss Voigt Hill
#
# Bulk Modulus (GPa) = 47.46748 64.67988 56.07368
# Shear Modulus (GPa) = 33.05065 46.37969 39.71517
#
# Velocity S-wave (km/s) = 3.78388 4.48241 4.14788
# Velocity P-wave (km/s) = 6.29711 7.40332 6.87251
#
# Compressibility (1/GPa) = 0.02106706
#
# Stress axis : x y z
#
# Youngs Moduli (GPa) = 135.22053 93.77227 34.19951
#
# Poissons Ratio (x) = 0.10260 0.18317
# Poissons Ratio (y) = 0.14795 0.22798
# Poissons Ratio (z) = 0.72424 0.62510
#
# Static dielectric constant tensor:
#      x y z
#    x 2.235320 0.000000 0.000000 
#    y 0.000000 1.889590 0.000000 
#    z 0.000000 0.000000 1.771150 
# 
# From -- ./inp_files/16030.got.cif
#   From: 2010.05.17/outbox.cif.g08.bks.cpg/sg49_9_cif.got.tgz:16030.got - 2010.06.03 21:02:19.
