data_PCOD9394002
_publ_section_title
;
Structure prediction by ZEFSAII (Michael W. Deem and Ramdas Pophale) SiO2 
 PCOD9394002
Probable space group: P C C M
;
_chemical_formula_sum "Si O2"
_cell_formula_units_Z 64
_cell_length_a 15.248665
_cell_length_b 25.388216
_cell_length_c 8.887431
_cell_angle_alpha 90.000000
_cell_angle_beta 90.000000
_cell_angle_gamma 90.000000
_cell_volume 3440.648049
_symmetry_space_group_name_H-M "P C C M"
_symmetry_group_IT_number 49
_symmetry_cell_setting 'orthorhombic'
loop_
_space_group_symop_operation_xyz
x,y,z
-x,-y,z
x,-y,1/2-z
-x,y,1/2-z
-x,-y,-z
x,y,-z
-x,y,1/2+z
x,-y,1/2+z
loop_
_atom_site_type_symbol
_atom_site_label
_atom_site_fract_x
_atom_site_fract_y
_atom_site_fract_z
Si Si1 0.592754 0.942299 0.180849
Si Si2 0.132166 0.305700 0.674258
Si Si3 0.730853 0.851714 0.180863
Si Si4 0.662244 0.333347 0.826772
Si Si5 0.090096 0.413045 0.177735
Si Si6 0.092206 0.184537 0.320317
Si Si7 0.590088 0.765910 0.178008
Si Si8 0.725404 0.553913 0.680689
O O1 0.500000 0.923504 0.250000
O O2 0.672062 0.902740 0.216266
O O3 0.608536 0.000000 0.250000
O O4 0.584102 0.945531 0.000000
O O5 0.104338 0.315735 0.500000
O O6 0.237201 0.312825 0.676945
O O7 0.095478 0.350708 0.782748
O O8 0.107080 0.246563 0.717969
O O9 0.824960 0.847384 0.257560
O O10 0.671701 0.801681 0.228761
O O11 0.742160 0.849461 0.000000
O O12 0.607079 0.294077 0.725831
O O13 0.669020 0.394251 0.779654
O O14 0.631908 0.330161 0.000000
O O15 0.176750 0.437065 0.254240
O O16 0.000000 0.433274 0.250000
O O17 0.091736 0.421743 0.000000
O O18 0.089434 0.180860 0.500000
O O19 0.000000 0.167686 0.250000
O O20 0.500000 0.784894 0.250000
O O21 0.583837 0.770644 0.000000
O O22 0.690535 0.500000 0.750000
O O23 0.730673 0.551535 0.500000
#
# Coordination Sequence:
#
# PCOD9394002 Si02
#       8
#     8   8   8   8   8   8   8   8
#     4  10  20  36  59  88 122 158 199 243 289 343
#     4   9  18  33  51  74 103 140 182 226 275 327
#     4  10  22  38  56  84 120 156 196 241 284 335
#     4   9  18  35  55  77 108 139 174 220 270 328
#     4  11  21  32  48  70  98 133 173 221 275 331
#     4  11  22  35  54  79 112 154 197 241 287 337
#     4  11  22  35  56  85 117 151 185 223 276 339
#     4  10  21  37  55  75  99 130 173 221 273 333
#
# _framework density 18.601147999999998
#
# number of rings (size 3 to 8) (size 9 to 14) (size 15 to 20)
#    0.000    1.875    1.250    4.500    0.000    6.250 
#    0.000    1.250    0.000    0.750    0.000    5.250 
#    0.000    0.000    0.000    0.000    0.000    0.000 
#
# Total GULP energy -357503.126308 kJ/mol
# GULP energy per Si atom -5585.986349 kJ/mol
# Density = 1.855881 g / cm^3
# Si number density = 18.601148 Si / 1000 Ang^3
#
#
#
# Elastic Constant Matrix: (Units=GPa)
#
#
# Indices 1 2 3 4 5 6 
#
# 1 100.6673 49.9561 39.0537 0.0000 0.0000 0.0000
# 2 49.9561 96.2916 38.2476 0.0000 0.0000 0.0000
# 3 39.0537 38.2476 61.6090 0.0000 0.0000 0.0000
# 4 0.0000 0.0000 0.0000 19.5123 0.0000 0.0000
# 5 0.0000 0.0000 0.0000 0.0000 29.9075 0.0000
# 6 0.0000 0.0000 0.0000 0.0000 0.0000 6.3143
#
#
#
# Elastic Compliance Matrix: (Units=1/GPa)
#
#
# Indices 1 2 3 4 5 6 
#
# 1 0.014970 -0.005306 -0.006196 0.000000 0.000000 0.000000
# 2 -0.005306 0.015664 -0.006362 0.000000 0.000000 0.000000
# 3 -0.006196 -0.006362 0.024108 0.000000 0.000000 0.000000
# 4 0.000000 0.000000 0.000000 0.051250 0.000000 0.000000
# 5 0.000000 0.000000 0.000000 0.000000 0.033436 0.000000
# 6 0.000000 0.000000 0.000000 0.000000 0.000000 0.158370
#
#
# Mechanical properties :
#
#
# Convention : Reuss Voigt Hill
#
# Bulk Modulus (GPa) = 52.58416 57.00918 54.79667
# Shear Modulus (GPa) = 14.71175 19.90085 17.30630
#
# Velocity S-wave (km/s) = 2.81535 3.27444 3.05354
# Velocity P-wave (km/s) = 6.23690 6.70900 6.47725
#
# Compressibility (1/GPa) = 0.01901714
#
# Stress axis : x y z
#
# Youngs Moduli (GPa) = 66.79912 63.83868 41.47960
#
# Poissons Ratio (x) = 0.33870 0.25700
# Poissons Ratio (y) = 0.35441 0.26387
# Poissons Ratio (z) = 0.41388 0.40611
#
# Static dielectric constant tensor:
#      x y z
#    x 1.637990 0.000000 0.000000 
#    y 0.000000 1.654720 0.000000 
#    z 0.000000 0.000000 1.620740 
# 
# From -- ./inp_files/4376.got.cif
#   From: 2010.05.17/outbox.cif.g08.bks.cpg/sg49_3_cif.got.tgz:4376.got - 2010.06.03 21:02:19.
