data_PCOD9394860
_publ_section_title
;
Structure prediction by ZEFSAII (Michael W. Deem and Ramdas Pophale) SiO2 
 PCOD9394860
Probable space group: P C C M
;
_chemical_formula_sum "Si O2"
_cell_formula_units_Z 58
_cell_length_a 17.644466
_cell_length_b 18.574536
_cell_length_c 9.042645
_cell_angle_alpha 90.000000
_cell_angle_beta 90.000000
_cell_angle_gamma 90.000000
_cell_volume 2963.616297
_symmetry_space_group_name_H-M "P C C M"
_symmetry_group_IT_number 49
_symmetry_cell_setting 'orthorhombic'
loop_
_space_group_symop_operation_xyz
x,y,z
-x,-y,z
x,-y,1/2-z
-x,y,1/2-z
-x,-y,-z
x,y,-z
-x,y,1/2+z
x,-y,1/2+z
loop_
_atom_site_type_symbol
_atom_site_label
_atom_site_fract_x
_atom_site_fract_y
_atom_site_fract_z
Si Si1 0.212634 0.073588 0.670179
Si Si2 0.500000 0.500000 0.250000
Si Si3 0.403589 0.783042 0.664494
Si Si4 0.777056 0.362141 0.825832
Si Si5 0.381168 0.622766 0.328442
Si Si6 0.777984 0.215867 0.666268
Si Si7 0.926220 0.578474 0.823025
Si Si8 0.397267 0.073122 0.333601
O O1 0.186880 0.077907 0.500000
O O2 0.190134 0.141871 0.769177
O O3 0.304945 0.074165 0.665345
O O4 0.189520 0.000000 0.750000
O O5 0.441172 0.557430 0.322791
O O6 0.437265 0.788294 0.500000
O O7 0.414766 0.700901 0.720298
O O8 0.312689 0.790442 0.650879
O O9 0.422630 0.851695 0.762692
O O10 0.694812 0.388955 0.767596
O O11 0.784508 0.277752 0.788484
O O12 0.845382 0.392747 0.728877
O O13 0.784949 0.377229 0.000000
O O14 0.357981 0.632732 0.500000
O O15 0.806997 0.233340 0.500000
O O16 0.926563 0.500000 0.750000
O O17 0.000000 0.616673 0.750000
O O18 0.933222 0.576501 0.000000
O O19 0.425012 0.068787 0.500000
O O20 0.417885 0.000000 0.250000
#
# Coordination Sequence:
#
# PCOD9394860 Si02
#       8
#     8   2   8   8   8   8   8   8
#     4   9  15  22  34  57  92 136 181 227 278 332
#     4  12  26  44  68  90 114 140 196 246 302 352
#     4   8  15  29  47  67  97 136 176 220 277 335
#     4  11  22  37  59  86 115 153 194 235 287 346
#     4  10  23  42  61  83 113 150 192 245 301 351
#     4   9  16  28  45  68 100 139 183 232 281 335
#     4  11  22  39  61  88 121 153 189 231 280 339
#     4   9  15  22  37  64  97 131 169 212 261 322
#
# _framework density 19.570684
#
# number of rings (size 3 to 8) (size 9 to 14) (size 15 to 20)
#    0.000    2.345    0.000    5.172    0.966    7.724 
#    0.000    0.000    0.000    0.000    0.000    0.483 
#    0.000    3.862    0.000    5.793    0.000    7.862 
#
# Total GULP energy -323176.236041 kJ/mol
# GULP energy per Si atom -5572.004070 kJ/mol
# Density = 1.952614 g / cm^3
# Si number density = 19.570684 Si / 1000 Ang^3
#
#
#
# Elastic Constant Matrix: (Units=GPa)
#
#
# Indices 1 2 3 4 5 6 
#
# 1 66.2587 22.6660 41.4004 0.0000 0.0000 0.0000
# 2 22.6660 112.7988 43.2633 0.0000 0.0000 0.0000
# 3 41.4004 43.2633 137.8228 0.0000 0.0000 0.0000
# 4 0.0000 0.0000 0.0000 19.8291 0.0000 0.0000
# 5 0.0000 0.0000 0.0000 0.0000 -8.4475 0.0000
# 6 0.0000 0.0000 0.0000 0.0000 0.0000 20.9182
#
#
#
# Elastic Compliance Matrix: (Units=1/GPa)
#
#
# Indices 1 2 3 4 5 6 
#
# 1 0.018911 -0.001843 -0.005102 0.000000 0.000000 0.000000
# 2 -0.001843 0.010258 -0.002667 0.000000 0.000000 0.000000
# 3 -0.005102 -0.002667 0.009625 0.000000 0.000000 0.000000
# 4 0.000000 0.000000 0.000000 0.050431 0.000000 0.000000
# 5 0.000000 0.000000 0.000000 0.000000 -0.118378 0.000000
# 6 0.000000 0.000000 0.000000 0.000000 0.000000 0.047805
#
#
# Mechanical properties :
#
#
# Convention : Reuss Voigt Hill
#
# Bulk Modulus (GPa) = 51.09552 59.05996 55.07774
# Shear Modulus (GPa) = 112.61272 20.42999 66.52136
#
# Velocity S-wave (km/s) = 7.59384 3.23446 5.83645
# Velocity P-wave (km/s) = 10.15153 6.64773 8.58038
#
# Compressibility (1/GPa) = 0.01957119
#
# Stress axis : x y z
#
# Youngs Moduli (GPa) = 52.88004 97.48077 103.89275
#
# Poissons Ratio (x) = 0.17967 0.53006
# Poissons Ratio (y) = 0.09746 0.27703
# Poissons Ratio (z) = 0.26979 0.25993
#
# Static dielectric constant tensor:
#      x y z
#    x 1.736990 0.000000 0.000000 
#    y 0.000000 1.778110 0.000000 
#    z 0.000000 0.000000 1.698260 
# 
# From -- ./inp_files/5120.got.cif
#   From: 2010.05.17/outbox.cif.g08.bks.cpg/sg49_3_cif.got.tgz:5120.got - 2010.06.03 21:02:19.
