data_PCOD9394626
_publ_section_title
;
Structure prediction by ZEFSAII (Michael W. Deem and Ramdas Pophale) SiO2 
 PCOD9394626
Probable space group: P C C M
;
_chemical_formula_sum "Si O2"
_cell_formula_units_Z 38
_cell_length_a 11.724882
_cell_length_b 9.261866
_cell_length_c 16.218416
_cell_angle_alpha 90.000000
_cell_angle_beta 90.000000
_cell_angle_gamma 90.000000
_cell_volume 1761.227305
_symmetry_space_group_name_H-M "P C C M"
_symmetry_group_IT_number 49
_symmetry_cell_setting 'orthorhombic'
loop_
_space_group_symop_operation_xyz
x,y,z
-x,-y,z
x,-y,1/2-z
-x,y,1/2-z
-x,-y,-z
x,y,-z
-x,y,1/2+z
x,-y,1/2+z
loop_
_atom_site_type_symbol
_atom_site_label
_atom_site_fract_x
_atom_site_fract_y
_atom_site_fract_z
Si Si1 0.133854 0.967625 0.000000
Si Si2 0.000000 0.000000 0.750000
Si Si3 0.189552 0.155695 0.149681
Si Si4 0.560217 0.842099 0.824983
Si Si5 0.764983 0.331337 0.000000
Si Si6 0.514967 0.177160 0.000000
Si Si7 0.862613 0.517987 0.150238
O O1 0.145311 0.798464 0.000000
O O2 0.195413 0.041174 0.076628
O O3 0.000000 0.000000 0.000000
O O4 0.919021 0.104417 0.699717
O O5 0.307976 0.145741 0.196886
O O6 0.169170 0.319419 0.124824
O O7 0.500000 0.761245 0.750000
O O8 0.500000 0.000000 0.830390
O O9 0.545071 0.775033 0.915230
O O10 0.641936 0.247866 0.000000
O O11 0.793121 0.418157 0.084965
O O12 0.500000 0.000000 0.000000
O O13 0.838386 0.500000 0.250000
O O14 0.000000 0.500000 0.140408
#
# Coordination Sequence:
#
# PCOD9394626 Si02
#       7
#     4   2   8   8   4   4   8
#     4  12  23  40  68 108 140 185 248 313 368 430
#     4  12  24  38  72 112 140 190 250 310 368 438
#     4  12  25  43  72 103 149 185 251 304 370 441
#     4  10  21  40  66 101 142 180 231 300 362 416
#     4  12  26  45  79 101 150 199 249 309 376 446
#     4  10  22  43  70 107 133 181 243 295 359 421
#     4  11  26  47  70 105 154 202 245 299 386 458
#
# _framework density 21.575863999999999
#
# number of rings (size 3 to 8) (size 9 to 14) (size 15 to 20)
#    0.000    0.842    1.053    7.895    5.895    0.000 
#    0.000    2.105    0.000    0.000    0.000    0.000 
#    0.000    0.000    0.000    0.000    0.000    0.000 
#
# Total GULP energy -212125.023100 kJ/mol
# GULP energy per Si atom -5582.237450 kJ/mol
# Density = 2.152676 g / cm^3
# Si number density = 21.575864 Si / 1000 Ang^3
#
#
#
# Elastic Constant Matrix: (Units=GPa)
#
#
# Indices 1 2 3 4 5 6 
#
# 1 137.5540 31.4819 32.8518 0.0000 0.0000 0.0000
# 2 31.4819 129.1807 26.8857 0.0000 0.0000 0.0000
# 3 32.8518 26.8857 155.7565 0.0000 0.0000 0.0000
# 4 0.0000 0.0000 0.0000 22.4860 0.0000 0.0000
# 5 0.0000 0.0000 0.0000 0.0000 26.1293 0.0000
# 6 0.0000 0.0000 0.0000 0.0000 0.0000 19.4051
#
#
#
# Elastic Compliance Matrix: (Units=1/GPa)
#
#
# Indices 1 2 3 4 5 6 
#
# 1 0.007982 -0.001654 -0.001398 0.000000 0.000000 0.000000
# 2 -0.001654 0.008372 -0.001096 0.000000 0.000000 0.000000
# 3 -0.001398 -0.001096 0.006904 0.000000 0.000000 0.000000
# 4 0.000000 0.000000 0.000000 0.044472 0.000000 0.000000
# 5 0.000000 0.000000 0.000000 0.000000 0.038271 0.000000
# 6 0.000000 0.000000 0.000000 0.000000 0.000000 0.051533
#
#
# Mechanical properties :
#
#
# Convention : Reuss Voigt Hill
#
# Bulk Modulus (GPa) = 66.83679 67.21447 67.02563
# Shear Modulus (GPa) = 29.27057 35.68886 32.47972
#
# Velocity S-wave (km/s) = 3.68725 4.07149 3.88412
# Velocity P-wave (km/s) = 7.01231 7.30226 7.15875
#
# Compressibility (1/GPa) = 0.01496182
#
# Stress axis : x y z
#
# Youngs Moduli (GPa) = 125.27552 119.43963 144.83549
#
# Poissons Ratio (x) = 0.19760 0.20249
# Poissons Ratio (y) = 0.20725 0.15878
# Poissons Ratio (z) = 0.17514 0.13094
#
# Static dielectric constant tensor:
#      x y z
#    x 1.741840 0.000000 0.000000 
#    y 0.000000 1.767260 0.000000 
#    z 0.000000 0.000000 1.947620 
# 
# From -- ./inp_files/16900.got.cif
#   From: 2010.05.17/outbox.cif.g08.bks.cpg/sg49_9_cif.got.tgz:16900.got - 2010.06.03 21:02:19.
