data_PCOD9394038
_publ_section_title
;
Structure prediction by ZEFSAII (Michael W. Deem and Ramdas Pophale) SiO2 
 PCOD9394038
Probable space group: P C C M
;
_chemical_formula_sum "Si O2"
_cell_formula_units_Z 58
_cell_length_a 20.781691
_cell_length_b 5.305376
_cell_length_c 26.854593
_cell_angle_alpha 90.000000
_cell_angle_beta 90.000000
_cell_angle_gamma 90.000000
_cell_volume 2960.844683
_symmetry_space_group_name_H-M "P C C M"
_symmetry_group_IT_number 49
_symmetry_cell_setting 'orthorhombic'
loop_
_space_group_symop_operation_xyz
x,y,z
-x,-y,z
x,-y,1/2-z
-x,y,1/2-z
-x,-y,-z
x,y,-z
-x,y,1/2+z
x,-y,1/2+z
loop_
_atom_site_type_symbol
_atom_site_label
_atom_site_fract_x
_atom_site_fract_y
_atom_site_fract_z
Si Si1 0.269792 0.418694 0.442375
Si Si2 0.893181 0.321485 0.296479
Si Si3 0.042359 0.751022 0.056089
Si Si4 0.237721 0.965121 0.304936
Si Si5 0.542542 0.748383 0.942747
Si Si6 0.848824 0.321390 0.126349
Si Si7 0.327404 0.089114 0.100586
Si Si8 0.000000 0.000000 0.250000
O O1 0.262196 0.360680 0.500000
O O2 0.203440 0.415973 0.412514
O O3 0.294761 0.701325 0.434427
O O4 0.314944 0.196258 0.418973
O O5 0.905584 0.500000 0.250000
O O6 0.819862 0.228323 0.293585
O O7 0.892339 0.469858 0.347402
O O8 0.949283 0.123331 0.288524
O O9 0.099500 0.825037 0.093838
O O10 0.000000 0.500000 0.068467
O O11 0.068501 0.701347 0.000000
O O12 0.000000 0.000000 0.053987
O O13 0.291260 0.893139 0.345905
O O14 0.267390 0.000000 0.250000
O O15 0.194241 0.183620 0.331346
O O16 0.500000 0.500000 0.930503
O O17 0.598961 0.820103 0.904150
O O18 0.500000 0.000000 0.944879
O O19 0.567614 0.705973 0.000000
#
# Coordination Sequence:
#
# PCOD9394038 Si02
#       8
#     8   8   8   8   8   8   8   2
#     4  11  22  37  62  94 129 166 212 266 318 383
#     4  12  23  43  60  86 119 156 208 270 341 397
#     4  10  24  44  62  83 115 155 201 252 313 394
#     4  11  23  43  63  90 124 161 215 274 328 393
#     4  10  20  36  61  95 139 179 212 257 309 372
#     4  11  24  40  62  86 117 156 206 262 328 391
#     4  11  23  39  64  97 132 178 219 264 323 382
#     4  12  26  40  64  90 118 164 208 284 342 412
#
# _framework density 19.589003000000002
#
# number of rings (size 3 to 8) (size 9 to 14) (size 15 to 20)
#    0.000    1.103    3.448    2.690    1.931    3.310 
#    1.241    2.759    0.000    0.414    0.000    0.966 
#    0.000    0.000    0.000    0.000    0.000    0.000 
#
# Total GULP energy -323183.704147 kJ/mol
# GULP energy per Si atom -5572.132830 kJ/mol
# Density = 1.954442 g / cm^3
# Si number density = 19.589003 Si / 1000 Ang^3
#
#
#
# Elastic Constant Matrix: (Units=GPa)
#
#
# Indices 1 2 3 4 5 6 
#
# 1 93.3230 20.4337 56.3310 0.0000 0.0000 0.0000
# 2 20.4337 68.8973 17.3467 0.0000 0.0000 0.0000
# 3 56.3310 17.3467 113.4095 0.0000 0.0000 0.0000
# 4 0.0000 0.0000 0.0000 12.0520 0.0000 0.0000
# 5 0.0000 0.0000 0.0000 0.0000 12.7257 0.0000
# 6 0.0000 0.0000 0.0000 0.0000 0.0000 31.2739
#
#
#
# Elastic Compliance Matrix: (Units=1/GPa)
#
#
# Indices 1 2 3 4 5 6 
#
# 1 0.015814 -0.002821 -0.007423 0.000000 0.000000 0.000000
# 2 -0.002821 0.015599 -0.000985 0.000000 0.000000 0.000000
# 3 -0.007423 -0.000985 0.012655 0.000000 0.000000 0.000000
# 4 0.000000 0.000000 0.000000 0.082974 0.000000 0.000000
# 5 0.000000 0.000000 0.000000 0.000000 0.078581 0.000000
# 6 0.000000 0.000000 0.000000 0.000000 0.000000 0.031976
#
#
# Mechanical properties :
#
#
# Convention : Reuss Voigt Hill
#
# Bulk Modulus (GPa) = 46.27482 51.53920 48.90701
# Shear Modulus (GPa) = 18.70830 23.31154 21.00992
#
# Velocity S-wave (km/s) = 3.09373 3.45343 3.27851
# Velocity P-wave (km/s) = 6.03620 6.50146 6.27314
#
# Compressibility (1/GPa) = 0.02161002
#
# Stress axis : x y z
#
# Youngs Moduli (GPa) = 63.23498 64.10680 79.01736
#
# Poissons Ratio (x) = 0.18085 0.58658
# Poissons Ratio (y) = 0.17839 0.07781
# Poissons Ratio (z) = 0.46942 0.06313
#
# Static dielectric constant tensor:
#      x y z
#    x 1.705370 0.000000 0.000000 
#    y 0.000000 1.776090 0.000000 
#    z 0.000000 0.000000 1.180170 
# 
# From -- ./inp_files/25166.got.cif
#   From: 2010.05.17/outbox.cif.g08.bks.cpg/sg49_13_cif.got.tgz:25166.got - 2010.06.03 21:02:19.
