data_PCOD9394631
_publ_section_title
;
Structure prediction by ZEFSAII (Michael W. Deem and Ramdas Pophale) SiO2 
 PCOD9394631
Probable space group: P C C M
;
_chemical_formula_sum "Si O2"
_cell_formula_units_Z 38
_cell_length_a 14.386604
_cell_length_b 10.809837
_cell_length_c 13.709908
_cell_angle_alpha 90.000000
_cell_angle_beta 90.000000
_cell_angle_gamma 90.000000
_cell_volume 2132.121627
_symmetry_space_group_name_H-M "P C C M"
_symmetry_group_IT_number 49
_symmetry_cell_setting 'orthorhombic'
loop_
_space_group_symop_operation_xyz
x,y,z
-x,-y,z
x,-y,1/2-z
-x,y,1/2-z
-x,-y,-z
x,y,-z
-x,y,1/2+z
x,-y,1/2+z
loop_
_atom_site_type_symbol
_atom_site_label
_atom_site_fract_x
_atom_site_fract_y
_atom_site_fract_z
Si Si1 0.236753 0.614471 0.693211
Si Si2 0.402478 0.250188 0.293340
Si Si3 0.000000 0.000000 0.250000
Si Si4 0.844889 0.126277 0.381157
Si Si5 0.351254 0.563200 0.500000
Si Si6 0.696738 0.000000 0.750000
Si Si7 0.460526 0.305012 0.500000
O O1 0.188579 0.500000 0.750000
O O2 0.319416 0.658493 0.765301
O O3 0.179980 0.736635 0.660616
O O4 0.287511 0.571031 0.594782
O O5 0.500000 0.295784 0.250000
O O6 0.423887 0.237417 0.405937
O O7 0.368695 0.118342 0.256562
O O8 0.936039 0.919224 0.176969
O O9 0.851105 0.126760 0.500000
O O10 0.764680 0.031856 0.341495
O O11 0.410536 0.438354 0.500000
O O12 0.428608 0.672473 0.500000
#
# Coordination Sequence:
#
# PCOD9394631 Si02
#       7
#     8   8   2   8   4   4   4
#     4  11  21  36  57  83 119 152 193 241 284 335
#     4  11  21  35  49  76 115 160 203 247 279 328
#     4  10  22  44  68  98 114 140 176 230 288 368
#     4  10  21  40  67  89 114 149 184 229 296 360
#     4  11  20  34  51  81 115 159 208 241 283 328
#     4   9  23  37  53  82 116 150 199 245 287 333
#     4  11  22  30  54  79 109 165 213 244 286 323
#
# _framework density 17.822623
#
# number of rings (size 3 to 8) (size 9 to 14) (size 15 to 20)
#    0.000    1.474    5.263    0.632    1.474    0.421 
#    0.000    1.579    2.316    1.263    0.000    0.000 
#    0.000    0.000    0.000    0.000    0.000    0.000 
#
# Total GULP energy -211746.564560 kJ/mol
# GULP energy per Si atom -5572.278015 kJ/mol
# Density = 1.778206 g / cm^3
# Si number density = 17.822623 Si / 1000 Ang^3
#
#
#
# Elastic Constant Matrix: (Units=GPa)
#
#
# Indices 1 2 3 4 5 6 
#
# 1 69.0697 21.4577 33.7629 0.0000 0.0000 0.0000
# 2 21.4577 54.2609 3.3787 0.0000 0.0000 0.0000
# 3 33.7629 3.3787 126.7916 0.0000 0.0000 0.0000
# 4 0.0000 0.0000 0.0000 24.6678 0.0000 0.0000
# 5 0.0000 0.0000 0.0000 0.0000 16.7901 0.0000
# 6 0.0000 0.0000 0.0000 0.0000 0.0000 7.3304
#
#
#
# Elastic Compliance Matrix: (Units=1/GPa)
#
#
# Indices 1 2 3 4 5 6 
#
# 1 0.019129 -0.007259 -0.004900 0.000000 0.000000 0.000000
# 2 -0.007259 0.021215 0.001368 0.000000 0.000000 0.000000
# 3 -0.004900 0.001368 0.009155 0.000000 0.000000 0.000000
# 4 0.000000 0.000000 0.000000 0.040539 0.000000 0.000000
# 5 0.000000 0.000000 0.000000 0.000000 0.059559 0.000000
# 6 0.000000 0.000000 0.000000 0.000000 0.000000 0.136419
#
#
# Mechanical properties :
#
#
# Convention : Reuss Voigt Hill
#
# Bulk Modulus (GPa) = 35.82263 40.81344 38.31804
# Shear Modulus (GPa) = 15.77761 22.52584 19.15172
#
# Velocity S-wave (km/s) = 2.97856 3.55898 3.28163
# Velocity P-wave (km/s) = 5.65440 6.31173 5.99209
#
# Compressibility (1/GPa) = 0.02791532
#
# Stress axis : x y z
#
# Youngs Moduli (GPa) = 52.27728 47.13626 109.22524
#
# Poissons Ratio (x) = 0.34218 0.53524
# Poissons Ratio (y) = 0.37950 -0.14939
# Poissons Ratio (z) = 0.25617 -0.06447
#
# Static dielectric constant tensor:
#      x y z
#    x 1.610570 0.000000 0.000000 
#    y 0.000000 1.638480 0.000000 
#    z 0.000000 0.000000 1.591480 
# 
# From -- ./inp_files/8776.got.cif
#   From: 2010.05.17/outbox.cif.g08.bks.cpg/sg49_5_cif.got.tgz:8776.got - 2010.06.03 21:02:19.
