data_PCOD9394875
_publ_section_title
;
Structure prediction by ZEFSAII (Michael W. Deem and Ramdas Pophale) SiO2 
 PCOD9394875
Probable space group: P C C M
;
_chemical_formula_sum "Si O2"
_cell_formula_units_Z 48
_cell_length_a 9.954627
_cell_length_b 12.993491
_cell_length_c 17.530051
_cell_angle_alpha 90.000000
_cell_angle_beta 90.000000
_cell_angle_gamma 90.000000
_cell_volume 2267.430693
_symmetry_space_group_name_H-M "P C C M"
_symmetry_group_IT_number 49
_symmetry_cell_setting 'orthorhombic'
loop_
_space_group_symop_operation_xyz
x,y,z
-x,-y,z
x,-y,1/2-z
-x,y,1/2-z
-x,-y,-z
x,y,-z
-x,y,1/2+z
x,-y,1/2+z
loop_
_atom_site_type_symbol
_atom_site_label
_atom_site_fract_x
_atom_site_fract_y
_atom_site_fract_z
Si Si1 0.717388 0.834675 0.408510
Si Si2 0.077037 0.686301 0.820870
Si Si3 0.254235 0.500000 0.250000
Si Si4 0.500000 0.500000 0.364736
Si Si5 0.165092 0.746156 0.408304
Si Si6 0.844162 0.026744 0.662112
Si Si7 0.535349 0.280967 0.586871
O O1 0.726753 0.817456 0.500000
O O2 0.822637 0.762209 0.364158
O O3 0.570971 0.798512 0.378916
O O4 0.753923 0.951382 0.389301
O O5 0.157833 0.590191 0.784039
O O6 0.000000 0.739092 0.750000
O O7 0.952048 0.670085 0.878533
O O8 0.365170 0.520046 0.315963
O O9 0.525566 0.604922 0.409730
O O10 0.152585 0.754412 0.500000
O O11 0.160081 0.857507 0.368549
O O12 0.313802 0.712091 0.384125
O O13 0.807774 0.000000 0.750000
O O14 0.000000 0.000000 0.653341
O O15 0.550976 0.247176 0.500000
#
# Coordination Sequence:
#
# PCOD9394875 Si02
#       7
#     8   8   4   4   8   8   8
#     4  11  23  42  70  97 133 183 233 280 340 414
#     4  12  23  41  63  97 135 175 222 284 340 407
#     4  11  25  40  66  94 132 176 232 280 346 412
#     4  11  21  44  66  96 125 183 232 284 348 419
#     4  11  24  43  70 103 141 180 230 291 351 413
#     4  11  23  41  66 102 140 184 229 281 350 418
#     4  10  23  43  67  96 132 177 231 291 345 410
#
# _framework density 21.169336000000001
#
# number of rings (size 3 to 8) (size 9 to 14) (size 15 to 20)
#    0.000    1.000    3.333    3.500    0.000    1.333 
#    0.000    3.333    0.000    6.000    0.000    0.000 
#    0.000    0.000    0.000    0.000    0.000    0.000 
#
# Total GULP energy -267598.384178 kJ/mol
# GULP energy per Si atom -5574.966337 kJ/mol
# Density = 2.112115 g / cm^3
# Si number density = 21.169336 Si / 1000 Ang^3
#
#
#
# Elastic Constant Matrix: (Units=GPa)
#
#
# Indices 1 2 3 4 5 6 
#
# 1 151.6593 48.9897 47.1233 0.0000 0.0000 0.0000
# 2 48.9897 96.7314 34.0566 0.0000 0.0000 0.0000
# 3 47.1233 34.0566 81.4478 0.0000 0.0000 0.0000
# 4 0.0000 0.0000 0.0000 24.6404 0.0000 0.0000
# 5 0.0000 0.0000 0.0000 0.0000 52.7378 0.0000
# 6 0.0000 0.0000 0.0000 0.0000 0.0000 42.6015
#
#
#
# Elastic Compliance Matrix: (Units=1/GPa)
#
#
# Indices 1 2 3 4 5 6 
#
# 1 0.008772 -0.003114 -0.003773 0.000000 0.000000 0.000000
# 2 -0.003114 0.013228 -0.003729 0.000000 0.000000 0.000000
# 3 -0.003773 -0.003729 0.016020 0.000000 0.000000 0.000000
# 4 0.000000 0.000000 0.000000 0.040584 0.000000 0.000000
# 5 0.000000 0.000000 0.000000 0.000000 0.018962 0.000000
# 6 0.000000 0.000000 0.000000 0.000000 0.000000 0.023473
#
#
# Mechanical properties :
#
#
# Convention : Reuss Voigt Hill
#
# Bulk Modulus (GPa) = 59.56996 65.57529 62.57263
# Shear Modulus (GPa) = 33.81387 37.30721 35.56054
#
# Velocity S-wave (km/s) = 4.00096 4.20256 4.10300
# Velocity P-wave (km/s) = 7.03878 7.38867 7.21585
#
# Compressibility (1/GPa) = 0.01678698
#
# Stress axis : x y z
#
# Youngs Moduli (GPa) = 113.99839 75.59648 62.42118
#
# Poissons Ratio (x) = 0.23542 0.23552
# Poissons Ratio (y) = 0.35502 0.23279
# Poissons Ratio (z) = 0.43012 0.28193
#
# Static dielectric constant tensor:
#      x y z
#    x 1.817750 0.000000 0.000000 
#    y 0.000000 1.660230 0.000000 
#    z 0.000000 0.000000 1.798970 
# 
# From -- ./inp_files/16378.got.cif
#   From: 2010.05.17/outbox.cif.g08.bks.cpg/sg49_9_cif.got.tgz:16378.got - 2010.06.03 21:02:19.
