data_PCOD9394257
_publ_section_title
;
Structure prediction by ZEFSAII (Michael W. Deem and Ramdas Pophale) SiO2 
 PCOD9394257
Probable space group: P C C M
;
_chemical_formula_sum "Si O2"
_cell_formula_units_Z 48
_cell_length_a 9.179241
_cell_length_b 8.348420
_cell_length_c 31.030650
_cell_angle_alpha 90.000000
_cell_angle_beta 90.000000
_cell_angle_gamma 90.000000
_cell_volume 2377.945709
_symmetry_space_group_name_H-M "P C C M"
_symmetry_group_IT_number 49
_symmetry_cell_setting 'orthorhombic'
loop_
_space_group_symop_operation_xyz
x,y,z
-x,-y,z
x,-y,1/2-z
-x,y,1/2-z
-x,-y,-z
x,y,-z
-x,y,1/2+z
x,-y,1/2+z
loop_
_atom_site_type_symbol
_atom_site_label
_atom_site_fract_x
_atom_site_fract_y
_atom_site_fract_z
Si Si1 0.332608 0.441132 0.296219
Si Si2 0.436787 0.180560 0.000000
Si Si3 0.826968 0.000898 0.500000
Si Si4 0.170179 0.480479 0.383409
Si Si5 0.605178 0.123948 0.161164
Si Si6 0.844019 0.900457 0.404364
Si Si7 0.571552 0.329256 0.590617
O O1 0.500000 0.500000 0.299770
O O2 0.278748 0.500000 0.250000
O O3 0.237198 0.502534 0.335865
O O4 0.334713 0.251526 0.304962
O O5 0.476024 0.267335 0.043968
O O6 0.500000 0.000000 0.000000
O O7 0.261082 0.165287 0.000000
O O8 0.789707 0.928081 0.453257
O O9 0.000000 0.000000 0.500000
O O10 0.177084 0.293014 0.397962
O O11 0.257872 0.619388 0.409123
O O12 0.000000 0.500000 0.383483
O O13 0.733308 0.042174 0.132949
O O14 0.498666 0.213922 0.126486
O O15 0.500000 0.000000 0.183920
O O16 0.000000 0.000000 0.400450
O O17 0.500000 0.500000 0.599274
#
# Coordination Sequence:
#
# PCOD9394257 Si02
#       7
#     8   4   4   8   8   8   8
#     4  10  20  42  68  93 127 159 203 266 322 389
#     4  12  27  38  62  92 125 173 218 279 324 364
#     4  10  22  38  54  80 127 166 209 256 313 358
#     4  11  24  39  65  93 123 169 215 259 326 389
#     4  11  21  38  67  94 127 165 212 260 319 389
#     4  10  22  38  59  88 127 172 213 261 317 378
#     4  12  22  43  61  93 127 170 220 264 318 387
#
# _framework density 20.185490999999999
#
# number of rings (size 3 to 8) (size 9 to 14) (size 15 to 20)
#    0.000    1.167    5.000    2.750    7.000    1.000 
#    0.000    2.500    0.000    0.000    0.000    1.167 
#    0.000    0.000    0.000    0.000    0.000    0.000 
#
# Total GULP energy -267263.593698 kJ/mol
# GULP energy per Si atom -5567.991535 kJ/mol
# Density = 2.013955 g / cm^3
# Si number density = 20.185491 Si / 1000 Ang^3
#
#
#
# Elastic Constant Matrix: (Units=GPa)
#
#
# Indices 1 2 3 4 5 6 
#
# 1 98.7558 13.7054 6.4795 0.0000 0.0000 0.0000
# 2 13.7054 40.6988 34.2196 0.0000 0.0000 0.0000
# 3 6.4795 34.2196 116.4758 0.0000 0.0000 0.0000
# 4 0.0000 0.0000 0.0000 -2.3546 0.0000 0.0000
# 5 0.0000 0.0000 0.0000 0.0000 -75.6044 0.0000
# 6 0.0000 0.0000 0.0000 0.0000 0.0000 39.5359
#
#
#
# Elastic Compliance Matrix: (Units=1/GPa)
#
#
# Indices 1 2 3 4 5 6 
#
# 1 0.010655 -0.004103 0.000613 0.000000 0.000000 0.000000
# 2 -0.004103 0.034212 -0.009823 0.000000 0.000000 0.000000
# 3 0.000613 -0.009823 0.011437 0.000000 0.000000 0.000000
# 4 0.000000 0.000000 0.000000 -0.424694 0.000000 0.000000
# 5 0.000000 0.000000 0.000000 0.000000 -0.013227 0.000000
# 6 0.000000 0.000000 0.000000 0.000000 0.000000 0.025293
#
#
# Mechanical properties :
#
#
# Convention : Reuss Voigt Hill
#
# Bulk Modulus (GPa) = 33.69585 40.52661 37.11123
# Shear Modulus (GPa) = -15.63461 5.75042 -4.94210
#
# Velocity S-wave (km/s) = -2.78609 1.68967 -1.56641
# Velocity P-wave (km/s) = 2.52579 4.89156 3.89275
#
# Compressibility (1/GPa) = 0.02967725
#
# Stress axis : x y z
#
# Youngs Moduli (GPa) = 93.85037 29.22979 87.43356
#
# Poissons Ratio (x) = 0.11994 -0.05358
# Poissons Ratio (y) = 0.38511 0.85885
# Poissons Ratio (z) = -0.05751 0.28712
#
# Static dielectric constant tensor:
#      x y z
#    x 1.844800 0.000000 0.000000 
#    y 0.000000 1.858060 0.000000 
#    z 0.000000 0.000000 1.722440 
# 
# From -- ./inp_files/26334.got.cif
#   From: 2010.05.17/outbox.cif.g08.bks.cpg/sg49_14_cif.got.tgz:26334.got - 2010.06.03 21:02:19.
