data_PCOD9394543
_publ_section_title
;
Structure prediction by ZEFSAII (Michael W. Deem and Ramdas Pophale) SiO2 
 PCOD9394543
Probable space group: P C C M
;
_chemical_formula_sum "Si O2"
_cell_formula_units_Z 56
_cell_length_a 14.645141
_cell_length_b 24.330859
_cell_length_c 8.598469
_cell_angle_alpha 90.000000
_cell_angle_beta 90.000000
_cell_angle_gamma 90.000000
_cell_volume 3063.882663
_symmetry_space_group_name_H-M "P C C M"
_symmetry_group_IT_number 49
_symmetry_cell_setting 'orthorhombic'
loop_
_space_group_symop_operation_xyz
x,y,z
-x,-y,z
x,-y,1/2-z
-x,y,1/2-z
-x,-y,-z
x,y,-z
-x,y,1/2+z
x,-y,1/2+z
loop_
_atom_site_type_symbol
_atom_site_label
_atom_site_fract_x
_atom_site_fract_y
_atom_site_fract_z
Si Si1 0.897362 0.849035 0.812740
Si Si2 0.750000 0.641834 0.813954
Si Si3 0.102486 0.558893 0.813570
Si Si4 0.397514 0.558894 0.186430
Si Si5 0.397362 0.150965 0.187260
Si Si6 0.250000 0.765060 0.186081
Si Si7 0.250000 0.938733 0.686729
O O1 0.838429 0.798190 0.747663
O O2 0.838962 0.903183 0.766139
O O3 0.000000 0.849998 0.750000
O O4 0.898166 0.846041 0.000000
O O5 0.836338 0.607996 0.750218
O O6 0.663663 0.607996 0.750218
O O7 0.750000 0.703544 0.750618
O O8 0.750000 0.641943 0.000000
O O9 0.136614 0.500000 0.750000
O O10 0.000000 0.564955 0.750000
O O11 0.103100 0.557937 0.000000
O O12 0.363386 0.500000 0.250000
O O13 0.500000 0.564955 0.250000
O O14 0.396900 0.557938 0.000000
O O15 0.500000 0.150002 0.250000
O O16 0.338429 0.201810 0.252338
O O17 0.338962 0.096817 0.233861
O O18 0.398166 0.153959 0.000000
O O19 0.250000 0.764878 0.000000
O O20 0.250000 0.940978 0.500000
O O21 0.250000 0.000000 0.750000
#
# Coordination Sequence:
#
# PCOD9394543 Si02
#       7
#     8   8   8   8   8   8   8
#     4  10  21  39  60  85 115 153 193 235 283 337
#     4  12  24  40  60  85 115 150 189 236 286 339
#     4  11  22  39  60  86 116 150 189 233 284 342
#     4  11  22  39  60  86 116 150 189 233 284 342
#     4  10  21  39  60  85 115 153 193 235 283 337
#     4  11  23  40  60  85 113 147 189 238 287 339
#     4   9  20  36  56  84 120 153 191 236 281 330
#
# _framework density 18.277462
#
# number of rings (size 3 to 8) (size 9 to 14) (size 15 to 20)
#    0.000    1.429    0.000    8.143    0.000    5.143 
#    0.000    8.571    0.000    0.000    0.000    0.000 
#    0.000    0.000    0.000    0.000    0.000    0.000 
#
# Total GULP energy -313040.471325 kJ/mol
# GULP energy per Si atom -5590.008417 kJ/mol
# Density = 1.823586 g / cm^3
# Si number density = 18.277462 Si / 1000 Ang^3
#
#
#
# Elastic Constant Matrix: (Units=GPa)
#
#
# Indices 1 2 3 4 5 6 
#
# 1 170.3089 106.0479 68.2510 0.0000 0.0000 0.0000
# 2 106.0479 208.3868 78.2444 0.0000 0.0000 0.0000
# 3 68.2510 78.2444 162.8840 0.0000 0.0000 0.0000
# 4 0.0000 0.0000 0.0000 37.6196 0.0000 0.0000
# 5 0.0000 0.0000 0.0000 0.0000 33.1261 0.0000
# 6 0.0000 0.0000 0.0000 0.0000 0.0000 12.7503
#
#
#
# Elastic Compliance Matrix: (Units=1/GPa)
#
#
# Indices 1 2 3 4 5 6 
#
# 1 0.009067 -0.003889 -0.001931 0.000000 0.000000 0.000000
# 2 -0.003889 0.007523 -0.001984 0.000000 0.000000 0.000000
# 3 -0.001931 -0.001984 0.007902 0.000000 0.000000 0.000000
# 4 0.000000 0.000000 0.000000 0.026582 0.000000 0.000000
# 5 0.000000 0.000000 0.000000 0.000000 0.030188 0.000000
# 6 0.000000 0.000000 0.000000 0.000000 0.000000 0.078429
#
#
# Mechanical properties :
#
#
# Convention : Reuss Voigt Hill
#
# Bulk Modulus (GPa) = 112.57511 116.29625 114.43568
# Shear Modulus (GPa) = 28.04879 35.96830 32.00855
#
# Velocity S-wave (km/s) = 3.92166 4.44092 4.18934
# Velocity P-wave (km/s) = 9.06818 9.49010 9.28154
#
# Compressibility (1/GPa) = 0.00888296
#
# Stress axis : x y z
#
# Youngs Moduli (GPa) = 110.28591 132.92517 126.55644
#
# Poissons Ratio (x) = 0.51698 0.24439
# Poissons Ratio (y) = 0.42893 0.25111
# Poissons Ratio (z) = 0.21297 0.26374
#
# Static dielectric constant tensor:
#      x y z
#    x 1.601480 0.000000 0.000000 
#    y 0.000000 1.601800 0.000000 
#    z 0.000000 0.000000 1.609710 
# 
# From -- ./inp_files/4065.got.cif
#   From: 2010.05.17/outbox.cif.g08.bks.cpg/sg49_3_cif.got.tgz:4065.got - 2010.06.03 21:02:19.
