data_PCOD9394622
_publ_section_title
;
Structure prediction by ZEFSAII (Michael W. Deem and Ramdas Pophale) SiO2 
 PCOD9394622
Probable space group: P C C M
;
_chemical_formula_sum "Si O2"
_cell_formula_units_Z 58
_cell_length_a 17.825688
_cell_length_b 18.212461
_cell_length_c 9.274295
_cell_angle_alpha 90.000000
_cell_angle_beta 90.000000
_cell_angle_gamma 90.000000
_cell_volume 3010.896603
_symmetry_space_group_name_H-M "P C C M"
_symmetry_group_IT_number 49
_symmetry_cell_setting 'orthorhombic'
loop_
_space_group_symop_operation_xyz
x,y,z
-x,-y,z
x,-y,1/2-z
-x,y,1/2-z
-x,-y,-z
x,y,-z
-x,y,1/2+z
x,-y,1/2+z
loop_
_atom_site_type_symbol
_atom_site_label
_atom_site_fract_x
_atom_site_fract_y
_atom_site_fract_z
Si Si1 0.624272 0.074502 0.173587
Si Si2 0.799896 0.072045 0.827701
Si Si3 0.924227 0.650623 0.668384
Si Si4 0.500000 0.500000 0.250000
Si Si5 0.928614 0.826519 0.335528
Si Si6 0.425755 0.762965 0.829851
Si Si7 0.791433 0.574360 0.827173
Si Si8 0.639452 0.394654 0.165596
O O1 0.712637 0.079892 0.208985
O O2 0.593716 0.154324 0.220116
O O3 0.595269 0.000000 0.250000
O O4 0.615072 0.067238 0.000000
O O5 0.850107 0.140775 0.783336
O O6 0.829879 0.000000 0.750000
O O7 0.802256 0.063242 0.000000
O O8 0.921139 0.626072 0.500000
O O9 0.928246 0.738883 0.667273
O O10 0.849427 0.631704 0.757536
O O11 0.000000 0.623696 0.750000
O O12 0.561871 0.442237 0.181873
O O13 0.937485 0.850038 0.500000
O O14 0.000000 0.854347 0.250000
O O15 0.500000 0.739526 0.750000
O O16 0.371678 0.692988 0.812138
O O17 0.438407 0.769186 0.000000
O O18 0.817325 0.500000 0.750000
O O19 0.705184 0.583924 0.775739
O O20 0.795929 0.572683 0.000000
O O21 0.665085 0.406547 0.000000
#
# Coordination Sequence:
#
# PCOD9394622 Si02
#       8
#     8   8   8   2   8   8   8   8
#     4   9  19  36  58  81 112 151 196 242 296 356
#     4   9  18  33  52  76 106 145 191 236 288 344
#     4  10  21  40  65  91 123 161 201 249 306 362
#     4  12  22  40  72  94 130 164 210 248 314 364
#     4   9  19  34  55  80 111 150 190 236 289 349
#     4  10  22  39  60  87 118 155 197 245 299 364
#     4  12  26  43  64  93 125 159 205 251 300 362
#     4  11  24  41  64  94 128 165 205 253 312 368
#
# _framework density 19.263365
#
# number of rings (size 3 to 8) (size 9 to 14) (size 15 to 20)
#    0.000    1.931    1.379    1.862    1.931    3.586 
#    0.000    4.138    0.000    0.000    0.000    0.000 
#    0.000    0.000    0.000    0.000    0.000    0.000 
#
# Total GULP energy -323009.666304 kJ/mol
# GULP energy per Si atom -5569.132178 kJ/mol
# Density = 1.921952 g / cm^3
# Si number density = 19.263365 Si / 1000 Ang^3
#
#
#
# Elastic Constant Matrix: (Units=GPa)
#
#
# Indices 1 2 3 4 5 6 
#
# 1 72.8254 4.4914 42.4886 0.0000 0.0000 0.0000
# 2 4.4914 56.7941 28.1396 0.0000 0.0000 0.0000
# 3 42.4886 28.1396 79.9861 0.0000 0.0000 0.0000
# 4 0.0000 0.0000 0.0000 20.5021 0.0000 0.0000
# 5 0.0000 0.0000 0.0000 0.0000 26.1113 0.0000
# 6 0.0000 0.0000 0.0000 0.0000 0.0000 31.3857
#
#
#
# Elastic Compliance Matrix: (Units=1/GPa)
#
#
# Indices 1 2 3 4 5 6 
#
# 1 0.020866 0.004653 -0.012721 0.000000 0.000000 0.000000
# 2 0.004653 0.022362 -0.010339 0.000000 0.000000 0.000000
# 3 -0.012721 -0.010339 0.022897 0.000000 0.000000 0.000000
# 4 0.000000 0.000000 0.000000 0.048775 0.000000 0.000000
# 5 0.000000 0.000000 0.000000 0.000000 0.038298 0.000000
# 6 0.000000 0.000000 0.000000 0.000000 0.000000 0.031862
#
#
# Mechanical properties :
#
#
# Convention : Reuss Voigt Hill
#
# Bulk Modulus (GPa) = 34.11665 39.98277 37.04971
# Shear Modulus (GPa) = 21.58483 24.56556 23.07519
#
# Velocity S-wave (km/s) = 3.35104 3.57493 3.46479
# Velocity P-wave (km/s) = 5.72029 6.15151 5.93982
#
# Compressibility (1/GPa) = 0.02931120
#
# Stress axis : x y z
#
# Youngs Moduli (GPa) = 47.92395 44.71884 43.67426
#
# Poissons Ratio (x) = -0.20806 0.55558
# Poissons Ratio (y) = -0.22298 0.45153
# Poissons Ratio (z) = 0.60964 0.46233
#
# Static dielectric constant tensor:
#      x y z
#    x 1.673250 0.000000 0.000000 
#    y 0.000000 1.719070 0.000000 
#    z 0.000000 0.000000 1.675890 
# 
# From -- ./inp_files/5094.got.cif
#   From: 2010.05.17/outbox.cif.g08.bks.cpg/sg49_3_cif.got.tgz:5094.got - 2010.06.03 21:02:19.
