data_PCOD9394233
_publ_section_title
;
Structure prediction by ZEFSAII (Michael W. Deem and Ramdas Pophale) SiO2 
 PCOD9394233
Probable space group: P C C M
;
_chemical_formula_sum "Si O2"
_cell_formula_units_Z 48
_cell_length_a 13.986299
_cell_length_b 9.538299
_cell_length_c 19.149101
_cell_angle_alpha 90.000000
_cell_angle_beta 90.000000
_cell_angle_gamma 90.000000
_cell_volume 2554.595427
_symmetry_space_group_name_H-M "P C C M"
_symmetry_group_IT_number 49
_symmetry_cell_setting 'orthorhombic'
loop_
_space_group_symop_operation_xyz
x,y,z
-x,-y,z
x,-y,1/2-z
-x,y,1/2-z
-x,-y,-z
x,y,-z
-x,y,1/2+z
x,-y,1/2+z
loop_
_atom_site_type_symbol
_atom_site_label
_atom_site_fract_x
_atom_site_fract_y
_atom_site_fract_z
Si Si1 0.226076 0.436982 0.079948
Si Si2 0.793440 0.994608 0.333358
Si Si3 0.853048 0.251361 0.919505
Si Si4 0.409812 0.416450 0.822900
Si Si5 0.075022 0.809302 0.581602
Si Si6 0.587438 0.084313 0.323663
O O1 0.177274 0.588218 0.085479
O O2 0.315006 0.426059 0.131310
O O3 0.144544 0.322342 0.093365
O O4 0.259265 0.417510 0.000000
O O5 0.794186 0.838830 0.364059
O O6 0.803355 0.000000 0.250000
O O7 0.882578 0.070474 0.369829
O O8 0.693190 0.066523 0.355343
O O9 0.965654 0.231617 0.905359
O O10 0.835330 0.205041 0.000000
O O11 0.500000 0.500000 0.855399
O O12 0.394151 0.500000 0.750000
O O13 0.431685 0.250006 0.814251
O O14 0.082051 0.851255 0.500000
O O15 0.500000 0.000000 0.359907
O O16 0.596223 0.000000 0.250000
#
# Coordination Sequence:
#
# PCOD9394233 Si02
#       6
#     8   8   8   8   8   8
#     4  10  22  39  61  87 119 151 195 247 291 337
#     4  11  23  36  59  89 119 152 192 244 292 342
#     4  10  22  38  61  85 114 159 200 236 285 351
#     4  11  23  38  65  91 115 154 195 237 289 355
#     4  10  20  40  61  83 116 157 199 237 288 349
#     4  10  21  38  59  86 118 153 190 235 288 344
#
# _framework density 18.789669
#
# number of rings (size 3 to 8) (size 9 to 14) (size 15 to 20)
#    0.000    1.667    1.667    3.500    7.000    5.000 
#    0.000    0.000    0.000    5.500    0.000    0.000 
#    0.000    0.000    0.000    0.000    0.000    0.000 
#
# Total GULP energy -267814.652036 kJ/mol
# GULP energy per Si atom -5579.471917 kJ/mol
# Density = 1.874690 g / cm^3
# Si number density = 18.789669 Si / 1000 Ang^3
#
#
#
# Elastic Constant Matrix: (Units=GPa)
#
#
# Indices 1 2 3 4 5 6 
#
# 1 107.3320 34.5635 36.1867 0.0000 0.0000 0.0000
# 2 34.5635 126.0184 30.4076 0.0000 0.0000 0.0000
# 3 36.1867 30.4076 41.6928 0.0000 0.0000 0.0000
# 4 0.0000 0.0000 0.0000 26.9189 0.0000 0.0000
# 5 0.0000 0.0000 0.0000 0.0000 42.5990 0.0000
# 6 0.0000 0.0000 0.0000 0.0000 0.0000 29.5843
#
#
#
# Elastic Compliance Matrix: (Units=1/GPa)
#
#
# Indices 1 2 3 4 5 6 
#
# 1 0.013284 -0.001045 -0.010767 0.000000 0.000000 0.000000
# 2 -0.001045 0.009712 -0.006176 0.000000 0.000000 0.000000
# 3 -0.010767 -0.006176 0.037834 0.000000 0.000000 0.000000
# 4 0.000000 0.000000 0.000000 0.037149 0.000000 0.000000
# 5 0.000000 0.000000 0.000000 0.000000 0.023475 0.000000
# 6 0.000000 0.000000 0.000000 0.000000 0.000000 0.033802
#
#
# Mechanical properties :
#
#
# Convention : Reuss Voigt Hill
#
# Bulk Modulus (GPa) = 40.23580 53.03988 46.63784
# Shear Modulus (GPa) = 25.06058 31.41281 28.23670
#
# Velocity S-wave (km/s) = 3.65601 4.09322 3.88077
# Velocity P-wave (km/s) = 6.26755 7.11539 6.70488
#
# Compressibility (1/GPa) = 0.02485349
#
# Stress axis : x y z
#
# Youngs Moduli (GPa) = 75.28121 102.96187 26.43098
#
# Poissons Ratio (x) = 0.10763 0.28458
# Poissons Ratio (y) = 0.07869 0.16324
# Poissons Ratio (z) = 0.81054 0.63591
#
# Static dielectric constant tensor:
#      x y z
#    x 1.677250 0.000000 0.000000 
#    y 0.000000 1.672780 0.000000 
#    z 0.000000 0.000000 1.643260 
# 
# From -- ./inp_files/17687.got.cif
#   From: 2010.05.17/outbox.cif.g08.bks.cpg/sg49_9_cif.got.tgz:17687.got - 2010.06.03 21:02:19.
