data_PCOD9394876
_publ_section_title
;
Structure prediction by ZEFSAII (Michael W. Deem and Ramdas Pophale) SiO2 
 PCOD9394876
Probable space group: P C C M
;
_chemical_formula_sum "Si O2"
_cell_formula_units_Z 64
_cell_length_a 11.700819
_cell_length_b 18.524026
_cell_length_c 14.731601
_cell_angle_alpha 90.000000
_cell_angle_beta 90.000000
_cell_angle_gamma 90.000000
_cell_volume 3193.019647
_symmetry_space_group_name_H-M "P C C M"
_symmetry_group_IT_number 49
_symmetry_cell_setting 'orthorhombic'
loop_
_space_group_symop_operation_xyz
x,y,z
-x,-y,z
x,-y,1/2-z
-x,y,1/2-z
-x,-y,-z
x,y,-z
-x,y,1/2+z
x,-y,1/2+z
loop_
_atom_site_type_symbol
_atom_site_label
_atom_site_fract_x
_atom_site_fract_y
_atom_site_fract_z
Si Si1 0.185436 0.076129 0.723127
Si Si2 0.327845 0.784284 0.202867
Si Si3 0.867975 0.502798 0.357914
Si Si4 0.430966 0.245850 0.108371
Si Si5 0.966254 0.737125 0.147940
Si Si6 0.809434 0.662468 0.601306
Si Si7 0.031190 0.102088 0.897440
Si Si8 0.248174 0.647688 0.604012
O O1 0.262703 0.140733 0.685122
O O2 0.082474 0.068243 0.649329
O O3 0.127185 0.096064 0.819494
O O4 0.243074 0.000000 0.750000
O O5 0.442255 0.771106 0.143595
O O6 0.357263 0.790636 0.310485
O O7 0.253475 0.715045 0.171752
O O8 0.878186 0.500000 0.250000
O O9 0.804765 0.577020 0.383046
O O10 0.790957 0.434020 0.382747
O O11 0.000000 0.500000 0.393466
O O12 0.379167 0.327560 0.120336
O O13 0.419082 0.227627 0.000000
O O14 0.844036 0.699579 0.150763
O O15 0.000000 0.755497 0.250000
O O16 0.056497 0.680201 0.109969
O O17 0.981157 0.811411 0.095899
O O18 0.768426 0.680061 0.500000
O O19 0.054323 0.075650 0.000000
O O20 0.227830 0.665670 0.500000
#
# Coordination Sequence:
#
# PCOD9394876 Si02
#       8
#     8   8   8   8   8   8   8   8
#     4  11  24  41  62  94 132 170 211 263 332 410
#     4  11  23  44  68  91 124 163 213 277 327 396
#     4  11  22  35  54  85 131 180 220 273 339 396
#     4  10  23  43  68  92 118 163 220 274 328 384
#     4  12  20  33  56  88 126 169 214 263 321 390
#     4  12  23  36  60  93 128 171 222 275 334 400
#     4  11  21  37  60  93 136 178 214 256 318 406
#     4  11  22  36  56  86 125 169 220 273 326 385
#
# _framework density 20.043721999999999
#
# number of rings (size 3 to 8) (size 9 to 14) (size 15 to 20)
#    0.000    0.875    3.750    5.625    0.000    3.500 
#    0.000    1.875    0.000    5.250    0.000    0.000 
#    0.000    0.000    0.000    0.000    0.000    0.000 
#
# Total GULP energy -356598.407454 kJ/mol
# GULP energy per Si atom -5571.850116 kJ/mol
# Density = 1.999810 g / cm^3
# Si number density = 20.043722 Si / 1000 Ang^3
#
#
#
# Elastic Constant Matrix: (Units=GPa)
#
#
# Indices 1 2 3 4 5 6 
#
# 1 96.7306 45.0674 28.4033 0.0000 0.0000 0.0000
# 2 45.0674 110.4590 15.6351 0.0000 0.0000 0.0000
# 3 28.4033 15.6351 142.0536 0.0000 0.0000 0.0000
# 4 0.0000 0.0000 0.0000 37.7402 0.0000 0.0000
# 5 0.0000 0.0000 0.0000 0.0000 9.1968 0.0000
# 6 0.0000 0.0000 0.0000 0.0000 0.0000 19.8620
#
#
#
# Elastic Compliance Matrix: (Units=1/GPa)
#
#
# Indices 1 2 3 4 5 6 
#
# 1 0.013356 -0.005151 -0.002103 0.000000 0.000000 0.000000
# 2 -0.005151 0.011183 -0.000201 0.000000 0.000000 0.000000
# 3 -0.002103 -0.000201 0.007482 0.000000 0.000000 0.000000
# 4 0.000000 0.000000 0.000000 0.026497 0.000000 0.000000
# 5 0.000000 0.000000 0.000000 0.000000 0.108733 0.000000
# 6 0.000000 0.000000 0.000000 0.000000 0.000000 0.050347
#
#
# Mechanical properties :
#
#
# Convention : Reuss Voigt Hill
#
# Bulk Modulus (GPa) = 58.44584 58.60608 58.52596
# Shear Modulus (GPa) = 20.98957 30.70230 25.84593
#
# Velocity S-wave (km/s) = 3.23954 3.91802 3.59483
# Velocity P-wave (km/s) = 6.57384 7.05482 6.81857
#
# Compressibility (1/GPa) = 0.01710986
#
# Stress axis : x y z
#
# Youngs Moduli (GPa) = 74.87436 89.41863 133.64900
#
# Poissons Ratio (x) = 0.46063 0.28112
# Poissons Ratio (y) = 0.38571 0.02685
# Poissons Ratio (z) = 0.15749 0.01796
#
# Static dielectric constant tensor:
#      x y z
#    x 1.757120 0.000000 0.000000 
#    y 0.000000 1.689750 0.000000 
#    z 0.000000 0.000000 1.775060 
# 
# From -- ./inp_files/13103.got.cif
#   From: 2010.05.17/outbox.cif.g08.bks.cpg/sg49_7_cif.got.tgz:13103.got - 2010.06.03 21:02:19.
