data_PCOD9394369
_publ_section_title
;
Structure prediction by ZEFSAII (Michael W. Deem and Ramdas Pophale) SiO2 
 PCOD9394369
Probable space group: P C C M
;
_chemical_formula_sum "Si O2"
_cell_formula_units_Z 58
_cell_length_a 13.164590
_cell_length_b 26.152338
_cell_length_c 8.787914
_cell_angle_alpha 90.000000
_cell_angle_beta 90.000000
_cell_angle_gamma 90.000000
_cell_volume 3025.545278
_symmetry_space_group_name_H-M "P C C M"
_symmetry_group_IT_number 49
_symmetry_cell_setting 'orthorhombic'
loop_
_space_group_symop_operation_xyz
x,y,z
-x,-y,z
x,-y,1/2-z
-x,y,1/2-z
-x,-y,-z
x,y,-z
-x,y,1/2+z
x,-y,1/2+z
loop_
_atom_site_type_symbol
_atom_site_label
_atom_site_fract_x
_atom_site_fract_y
_atom_site_fract_z
Si Si1 0.173758 0.415131 0.322427
Si Si2 0.811575 0.790166 0.321913
Si Si3 0.107321 0.692024 0.681400
Si Si4 0.000000 0.500000 0.250000
Si Si5 0.404091 0.843265 0.174779
Si Si6 0.893192 0.893027 0.182191
Si Si7 0.394007 0.557217 0.683561
Si Si8 0.305341 0.945190 0.184148
O O1 0.196292 0.408067 0.500000
O O2 0.130361 0.363502 0.249510
O O3 0.085290 0.459247 0.314414
O O4 0.281989 0.424423 0.238080
O O5 0.841957 0.786742 0.500000
O O6 0.818103 0.735836 0.240708
O O7 0.697068 0.810554 0.314713
O O8 0.874990 0.834595 0.238230
O O9 0.104646 0.689496 0.500000
O O10 0.000000 0.708916 0.750000
O O11 0.500000 0.817940 0.250000
O O12 0.379080 0.899558 0.238493
O O13 0.429022 0.850818 0.000000
O O14 0.804179 0.927479 0.253397
O O15 0.000000 0.910325 0.250000
O O16 0.891209 0.895241 0.000000
O O17 0.395536 0.500000 0.750000
O O18 0.500000 0.581344 0.750000
O O19 0.398470 0.557801 0.500000
O O20 0.333082 0.000000 0.250000
O O21 0.302665 0.945882 0.000000
#
# Coordination Sequence:
#
# PCOD9394369 Si02
#       8
#     8   8   8   2   8   8   8   8
#     4  12  25  42  65  95 131 169 213 262 314 375
#     4  10  21  40  61  85 116 151 193 244 297 354
#     4  12  25  41  62  91 125 162 203 248 303 365
#     4  12  26  40  70  94 134 172 218 254 320 372
#     4   9  20  37  60  86 115 150 193 243 297 357
#     4  11  21  35  56  82 111 149 192 238 291 352
#     4  11  22  39  63  90 121 159 206 254 303 359
#     4  10  21  37  54  80 115 153 195 243 294 349
#
# _framework density 19.170096999999998
#
# number of rings (size 3 to 8) (size 9 to 14) (size 15 to 20)
#    0.000    1.241    1.379    6.828    0.000    4.966 
#    0.000    3.448    0.000    1.655    0.000    0.000 
#    0.000    0.000    0.000    0.000    0.000    0.000 
#
# Total GULP energy -323473.108955 kJ/mol
# GULP energy per Si atom -5577.122568 kJ/mol
# Density = 1.912647 g / cm^3
# Si number density = 19.170097 Si / 1000 Ang^3
#
#
#
# Elastic Constant Matrix: (Units=GPa)
#
#
# Indices 1 2 3 4 5 6 
#
# 1 76.1860 -12.6770 38.8724 0.0000 0.0000 0.0000
# 2 -12.6770 71.4827 32.3477 0.0000 0.0000 0.0000
# 3 38.8724 32.3477 149.0513 0.0000 0.0000 0.0000
# 4 0.0000 0.0000 0.0000 25.5468 0.0000 0.0000
# 5 0.0000 0.0000 0.0000 0.0000 27.2985 0.0000
# 6 0.0000 0.0000 0.0000 0.0000 0.0000 -64.2613
#
#
#
# Elastic Compliance Matrix: (Units=1/GPa)
#
#
# Indices 1 2 3 4 5 6 
#
# 1 0.016911 0.005539 -0.005612 0.000000 0.000000 0.000000
# 2 0.005539 0.017327 -0.005205 0.000000 0.000000 0.000000
# 3 -0.005612 -0.005205 0.009302 0.000000 0.000000 0.000000
# 4 0.000000 0.000000 0.000000 0.039144 0.000000 0.000000
# 5 0.000000 0.000000 0.000000 0.000000 0.036632 0.000000
# 6 0.000000 0.000000 0.000000 0.000000 0.000000 -0.015561
#
#
# Mechanical properties :
#
#
# Convention : Reuss Voigt Hill
#
# Bulk Modulus (GPa) = 30.31825 45.97848 38.14836
# Shear Modulus (GPa) = 39.90220 13.59525 26.74873
#
# Velocity S-wave (km/s) = 4.56727 2.66595 3.73947
# Velocity P-wave (km/s) = 6.60780 5.78904 6.21192
#
# Compressibility (1/GPa) = 0.03298343
#
# Stress axis : x y z
#
# Youngs Moduli (GPa) = 59.13302 57.71331 107.49904
#
# Poissons Ratio (x) = -0.31966 0.60333
# Poissons Ratio (y) = -0.32753 0.55952
# Poissons Ratio (z) = 0.33188 0.30039
#
# Static dielectric constant tensor:
#      x y z
#    x 2.106730 0.000000 0.000000 
#    y 0.000000 1.665970 0.000000 
#    z 0.000000 0.000000 1.649300 
# 
# From -- ./inp_files/3007.got.cif
#   From: 2010.05.17/outbox.cif.g08.bks.cpg/sg49_2_cif.got.tgz:3007.got - 2010.06.03 21:02:19.
