data_PCOD9394316
_publ_section_title
;
Structure prediction by ZEFSAII (Michael W. Deem and Ramdas Pophale) SiO2 
 PCOD9394316
Probable space group: P C C M
;
_chemical_formula_sum "Si O2"
_cell_formula_units_Z 56
_cell_length_a 32.569569
_cell_length_b 5.159682
_cell_length_c 17.702221
_cell_angle_alpha 90.000000
_cell_angle_beta 90.000000
_cell_angle_gamma 90.000000
_cell_volume 2974.833791
_symmetry_space_group_name_H-M "P C C M"
_symmetry_group_IT_number 49
_symmetry_cell_setting 'orthorhombic'
loop_
_space_group_symop_operation_xyz
x,y,z
-x,-y,z
x,-y,1/2-z
-x,y,1/2-z
-x,-y,-z
x,y,-z
-x,y,1/2+z
x,-y,1/2+z
loop_
_atom_site_type_symbol
_atom_site_label
_atom_site_fract_x
_atom_site_fract_y
_atom_site_fract_z
Si Si1 0.302753 0.751721 0.802387
Si Si2 0.527022 0.752050 0.590194
Si Si3 0.086880 0.936040 0.661821
Si Si4 0.174898 0.121583 0.087733
Si Si5 0.603999 0.246305 0.802665
Si Si6 0.770317 0.392022 0.912985
Si Si7 0.048488 0.441253 0.587633
O O1 0.303665 0.500000 0.750000
O O2 0.349277 0.785741 0.832356
O O3 0.269141 0.689999 0.865268
O O4 0.292647 0.000000 0.750000
O O5 0.500000 0.500000 0.607335
O O6 0.533667 0.764291 0.500000
O O7 0.569994 0.740717 0.632982
O O8 0.500000 0.000000 0.612904
O O9 0.134082 0.922784 0.635578
O O10 0.069095 0.656669 0.640100
O O11 0.083564 0.000000 0.750000
O O12 0.062057 0.158047 0.616141
O O13 0.204204 0.356622 0.114981
O O14 0.199863 0.854915 0.088241
O O15 0.163665 0.181832 0.000000
O O16 0.602071 0.500000 0.750000
O O17 0.595498 0.000000 0.750000
O O18 0.758689 0.447700 0.000000
O O19 0.061599 0.470963 0.500000
O O20 0.000000 0.500000 0.590616
#
# Coordination Sequence:
#
# PCOD9394316 Si02
#       7
#     8   8   8   8   8   8   8
#     4  10  21  37  56  81 113 146 181 229 283 334
#     4  10  21  36  54  79 110 143 182 230 282 331
#     4  12  25  40  62  93 124 154 194 246 297 342
#     4  10  21  38  59  84 116 151 188 230 277 337
#     4  10  21  36  55  80 109 144 186 226 274 336
#     4  10  21  37  59  84 109 145 190 231 275 331
#     4  11  24  43  66  89 118 161 203 237 287 353
#
# _framework density 18.824580999999998
#
# number of rings (size 3 to 8) (size 9 to 14) (size 15 to 20)
#    0.000    1.571    0.000    4.714    0.000    8.000 
#    0.000    0.000    0.000   10.286    0.000    0.000 
#    0.000    0.000    0.000    0.000    0.000    0.000 
#
# Total GULP energy -312872.735937 kJ/mol
# GULP energy per Si atom -5587.013142 kJ/mol
# Density = 1.878174 g / cm^3
# Si number density = 18.824581 Si / 1000 Ang^3
#
#
#
# Elastic Constant Matrix: (Units=GPa)
#
#
# Indices 1 2 3 4 5 6 
#
# 1 84.5667 1.6956 34.5619 0.0000 0.0000 0.0000
# 2 1.6956 98.7139 -1.6589 0.0000 0.0000 0.0000
# 3 34.5619 -1.6589 51.9495 0.0000 0.0000 0.0000
# 4 0.0000 0.0000 0.0000 5.6344 0.0000 0.0000
# 5 0.0000 0.0000 0.0000 0.0000 22.8206 0.0000
# 6 0.0000 0.0000 0.0000 0.0000 0.0000 31.7709
#
#
#
# Elastic Compliance Matrix: (Units=1/GPa)
#
#
# Indices 1 2 3 4 5 6 
#
# 1 0.016262 -0.000461 -0.010834 0.000000 0.000000 0.000000
# 2 -0.000461 0.010149 0.000631 0.000000 0.000000 0.000000
# 3 -0.010834 0.000631 0.026477 0.000000 0.000000 0.000000
# 4 0.000000 0.000000 0.000000 0.177482 0.000000 0.000000
# 5 0.000000 0.000000 0.000000 0.000000 0.043820 0.000000
# 6 0.000000 0.000000 0.000000 0.000000 0.000000 0.031475
#
#
# Mechanical properties :
#
#
# Convention : Reuss Voigt Hill
#
# Bulk Modulus (GPa) = 31.68585 33.82524 32.75555
# Shear Modulus (GPa) = 14.81422 25.42061 20.11742
#
# Velocity S-wave (km/s) = 2.80833 3.67876 3.27261
# Velocity P-wave (km/s) = 5.23300 6.00433 5.63189
#
# Compressibility (1/GPa) = 0.03155983
#
# Stress axis : x y z
#
# Youngs Moduli (GPa) = 61.49329 98.53364 37.76822
#
# Poissons Ratio (x) = 0.04546 0.40917
# Poissons Ratio (y) = 0.02837 -0.02383
# Poissons Ratio (z) = 0.66620 -0.06218
#
# Static dielectric constant tensor:
#      x y z
#    x 1.646230 0.000000 0.000000 
#    y 0.000000 1.645510 0.000000 
#    z 0.000000 0.000000 1.632520 
# 
# From -- ./inp_files/14624.got.cif
#   From: 2010.05.17/outbox.cif.g08.bks.cpg/sg49_8_cif.got.tgz:14624.got - 2010.06.03 21:02:19.
