data_PCOD9394628
_publ_section_title
;
Structure prediction by ZEFSAII (Michael W. Deem and Ramdas Pophale) SiO2 
 PCOD9394628
Probable space group: P C C M
;
_chemical_formula_sum "Si O2"
_cell_formula_units_Z 26
_cell_length_a 15.448789
_cell_length_b 8.966291
_cell_length_c 10.284360
_cell_angle_alpha 90.000000
_cell_angle_beta 90.000000
_cell_angle_gamma 90.000000
_cell_volume 1424.572452
_symmetry_space_group_name_H-M "P C C M"
_symmetry_group_IT_number 49
_symmetry_cell_setting 'orthorhombic'
loop_
_space_group_symop_operation_xyz
x,y,z
-x,-y,z
x,-y,1/2-z
-x,y,1/2-z
-x,-y,-z
x,y,-z
-x,y,1/2+z
x,-y,1/2+z
loop_
_atom_site_type_symbol
_atom_site_label
_atom_site_fract_x
_atom_site_fract_y
_atom_site_fract_z
Si Si1 0.810092 0.823237 0.241935
Si Si2 0.884656 0.671299 0.500000
Si Si3 0.500000 0.500000 0.250000
Si Si4 0.089889 0.315973 0.000000
Si Si5 0.330909 0.374798 0.849217
O O1 0.839226 0.742853 0.374330
O O2 0.712694 0.775903 0.200780
O O3 0.818839 0.000000 0.250000
O O4 0.869732 0.758776 0.127246
O O5 0.885348 0.491208 0.500000
O O6 0.986984 0.707126 0.500000
O O7 0.566031 0.602966 0.168721
O O8 0.294188 0.500000 0.750000
O O9 0.309669 0.399727 0.000000
#
# Coordination Sequence:
#
# PCOD9394628 Si02
#       5
#     8   4   2   4   8
#     4  12  25  39  62  95 132 169 203 259 328 375
#     4  11  25  41  67  91 122 171 220 260 299 371
#     4   8  22  36  72 100 116 164 220 260 318 376
#     4  11  23  45  63  91 124 167 224 262 299 367
#     4  10  21  40  66  95 126 159 216 259 311 386
#
# _framework density 18.251089
#
# number of rings (size 3 to 8) (size 9 to 14) (size 15 to 20)
#    0.923    0.308    1.538    5.077    2.154    6.154 
#    0.000    0.769    0.000    1.846    0.000    0.000 
#    0.000    0.000    0.000    0.000    0.000    0.000 
#
# Total GULP energy -144993.755221 kJ/mol
# GULP energy per Si atom -5576.682893 kJ/mol
# Density = 1.820955 g / cm^3
# Si number density = 18.251089 Si / 1000 Ang^3
#
#
#
# Elastic Constant Matrix: (Units=GPa)
#
#
# Indices 1 2 3 4 5 6 
#
# 1 131.2469 46.9941 53.4455 0.0000 0.0000 0.0000
# 2 46.9941 134.3501 71.7480 0.0000 0.0000 0.0000
# 3 53.4455 71.7480 187.1639 0.0000 0.0000 0.0000
# 4 0.0000 0.0000 0.0000 14.2912 0.0000 0.0000
# 5 0.0000 0.0000 0.0000 0.0000 35.9807 0.0000
# 6 0.0000 0.0000 0.0000 0.0000 0.0000 12.3354
#
#
#
# Elastic Compliance Matrix: (Units=1/GPa)
#
#
# Indices 1 2 3 4 5 6 
#
# 1 0.009140 -0.002267 -0.001741 0.000000 0.000000 0.000000
# 2 -0.002267 0.009922 -0.003156 0.000000 0.000000 0.000000
# 3 -0.001741 -0.003156 0.007050 0.000000 0.000000 0.000000
# 4 0.000000 0.000000 0.000000 0.069973 0.000000 0.000000
# 5 0.000000 0.000000 0.000000 0.000000 0.027793 0.000000
# 6 0.000000 0.000000 0.000000 0.000000 0.000000 0.081067
#
#
# Mechanical properties :
#
#
# Convention : Reuss Voigt Hill
#
# Bulk Modulus (GPa) = 84.86630 88.57068 86.71849
# Shear Modulus (GPa) = 22.40135 31.22635 26.81385
#
# Velocity S-wave (km/s) = 3.50722 4.14083 3.83713
# Velocity P-wave (km/s) = 7.93732 8.45555 8.20053
#
# Compressibility (1/GPa) = 0.01178324
#
# Stress axis : x y z
#
# Youngs Moduli (GPa) = 109.40972 100.78855 141.84785
#
# Poissons Ratio (x) = 0.22853 0.24692
# Poissons Ratio (y) = 0.24808 0.44767
# Poissons Ratio (z) = 0.19046 0.31809
#
# Static dielectric constant tensor:
#      x y z
#    x 1.660780 0.000000 0.000000 
#    y 0.000000 1.603930 0.000000 
#    z 0.000000 0.000000 1.615380 
# 
# From -- ./inp_files/1218.got.cif
#   From: 2010.05.17/outbox.cif.g08.bks.cpg/sg49_1_cif.got.tgz:1218.got - 2010.06.03 21:02:19.
