data_PCOD9394389
_publ_section_title
;
Structure prediction by ZEFSAII (Michael W. Deem and Ramdas Pophale) SiO2 
 PCOD9394389
Probable space group: P C C M
;
_chemical_formula_sum "Si O2"
_cell_formula_units_Z 48
_cell_length_a 8.879808
_cell_length_b 19.487360
_cell_length_c 14.331005
_cell_angle_alpha 90.000000
_cell_angle_beta 90.000000
_cell_angle_gamma 90.000000
_cell_volume 2479.894647
_symmetry_space_group_name_H-M "P C C M"
_symmetry_group_IT_number 49
_symmetry_cell_setting 'orthorhombic'
loop_
_space_group_symop_operation_xyz
x,y,z
-x,-y,z
x,-y,1/2-z
-x,y,1/2-z
-x,-y,-z
x,y,-z
-x,y,1/2+z
x,-y,1/2+z
loop_
_atom_site_type_symbol
_atom_site_label
_atom_site_fract_x
_atom_site_fract_y
_atom_site_fract_z
Si Si1 0.328884 0.513463 0.613300
Si Si2 0.321777 0.259700 0.264317
Si Si3 0.678764 0.898328 0.731631
Si Si4 0.178238 0.014096 0.109249
Si Si5 0.822899 0.344769 0.610987
Si Si6 0.827676 0.625873 0.388506
O O1 0.500000 0.500000 0.641888
O O2 0.324900 0.514177 0.500000
O O3 0.270581 0.587974 0.641336
O O4 0.225424 0.449682 0.642827
O O5 0.500000 0.266194 0.250000
O O6 0.288443 0.180999 0.289068
O O7 0.236623 0.281102 0.169660
O O8 0.267009 0.314480 0.340158
O O9 0.500000 0.906132 0.750000
O O10 0.766855 0.924521 0.823750
O O11 0.732506 0.948049 0.648764
O O12 0.207867 0.026178 0.000000
O O13 0.000000 0.000000 0.121236
O O14 0.804991 0.334838 0.500000
O O15 0.997051 0.360962 0.630446
O O16 0.805875 0.628768 0.500000
#
# Coordination Sequence:
#
# PCOD9394389 Si02
#       6
#     8   8   8   8   8   8
#     4   9  17  32  55  80 108 143 185 236 287 334
#     4  11  24  39  56  82 115 150 188 229 276 331
#     4  10  22  39  59  85 117 150 185 228 272 321
#     4  10  21  38  63  91 116 146 183 223 270 325
#     4  10  21  37  57  81 110 146 189 236 285 336
#     4  10  21  37  57  81 110 146 189 236 285 336
#
# _framework density 19.355661000000001
#
# number of rings (size 3 to 8) (size 9 to 14) (size 15 to 20)
#    0.000    2.000    0.000    4.000    0.000   10.000 
#    0.000   10.000    0.000    0.000    0.000    0.000 
#    0.000    0.000    0.000    0.000    0.000    0.000 
#
# Total GULP energy -268235.075707 kJ/mol
# GULP energy per Si atom -5588.230744 kJ/mol
# Density = 1.931161 g / cm^3
# Si number density = 19.355661 Si / 1000 Ang^3
#
#
#
# Elastic Constant Matrix: (Units=GPa)
#
#
# Indices 1 2 3 4 5 6 
#
# 1 52.5109 -2.5965 -9.7896 0.0000 0.0000 0.0000
# 2 -2.5965 57.8986 -26.3745 0.0000 0.0000 0.0000
# 3 -9.7896 -26.3745 53.5876 0.0000 0.0000 0.0000
# 4 0.0000 0.0000 0.0000 11.6648 0.0000 0.0000
# 5 0.0000 0.0000 0.0000 0.0000 21.1844 0.0000
# 6 0.0000 0.0000 0.0000 0.0000 0.0000 -27.5136
#
#
#
# Elastic Compliance Matrix: (Units=1/GPa)
#
#
# Indices 1 2 3 4 5 6 
#
# 1 0.020203 0.003335 0.005332 0.000000 0.000000 0.000000
# 2 0.003335 0.022813 0.011837 0.000000 0.000000 0.000000
# 3 0.005332 0.011837 0.025461 0.000000 0.000000 0.000000
# 4 0.000000 0.000000 0.000000 0.085728 0.000000 0.000000
# 5 0.000000 0.000000 0.000000 0.000000 0.047205 0.000000
# 6 0.000000 0.000000 0.000000 0.000000 0.000000 -0.036346
#
#
# Mechanical properties :
#
#
# Convention : Reuss Voigt Hill
#
# Bulk Modulus (GPa) = 9.13358 9.60843 9.37100
# Shear Modulus (GPa) = 31.14279 14.58430 22.86354
#
# Velocity S-wave (km/s) = 4.01556 2.74796 3.44064
# Velocity P-wave (km/s) = 5.12139 3.87856 4.54268
#
# Compressibility (1/GPa) = 0.10948614
#
# Stress axis : x y z
#
# Youngs Moduli (GPa) = 49.49851 43.83386 39.27540
#
# Poissons Ratio (x) = -0.14618 -0.20942
# Poissons Ratio (y) = -0.16507 -0.46492
# Poissons Ratio (z) = -0.26393 -0.51888
#
# Static dielectric constant tensor:
#      x y z
#    x 1.650250 0.000000 0.000000 
#    y 0.000000 1.636860 0.000000 
#    z 0.000000 0.000000 1.698840 
# 
# From -- ./inp_files/11788.got.cif
#   From: 2010.05.17/outbox.cif.g08.bks.cpg/sg49_6_cif.got.tgz:11788.got - 2010.06.03 21:02:19.
