data_PCOD9394216
_publ_section_title
;
Structure prediction by ZEFSAII (Michael W. Deem and Ramdas Pophale) SiO2 
 PCOD9394216
Probable space group: P C C M
;
_chemical_formula_sum "Si O2"
_cell_formula_units_Z 58
_cell_length_a 17.735778
_cell_length_b 8.556483
_cell_length_c 18.841225
_cell_angle_alpha 90.000000
_cell_angle_beta 90.000000
_cell_angle_gamma 90.000000
_cell_volume 2859.266736
_symmetry_space_group_name_H-M "P C C M"
_symmetry_group_IT_number 49
_symmetry_cell_setting 'orthorhombic'
loop_
_space_group_symop_operation_xyz
x,y,z
-x,-y,z
x,-y,1/2-z
-x,y,1/2-z
-x,-y,-z
x,y,-z
-x,y,1/2+z
x,-y,1/2+z
loop_
_atom_site_type_symbol
_atom_site_label
_atom_site_fract_x
_atom_site_fract_y
_atom_site_fract_z
Si Si1 0.758121 0.564193 0.322895
Si Si2 0.000000 0.000000 0.750000
Si Si3 0.414951 0.032797 0.916148
Si Si4 0.685283 0.322221 0.579876
Si Si5 0.285655 0.098467 0.320413
Si Si6 0.041335 0.236279 0.872003
Si Si7 0.818246 0.936316 0.923553
Si Si8 0.098652 0.423622 0.414940
O O1 0.793801 0.500000 0.250000
O O2 0.700372 0.445371 0.359102
O O3 0.718356 0.722483 0.301484
O O4 0.819267 0.601564 0.383324
O O5 0.959503 0.126700 0.697996
O O6 0.386494 0.211203 0.907757
O O7 0.500000 0.000000 0.892837
O O8 0.353654 0.933449 0.874039
O O9 0.409682 0.997702 0.000000
O O10 0.680675 0.389707 0.500000
O O11 0.758482 0.207417 0.579954
O O12 0.296220 0.000000 0.250000
O O13 0.208468 0.043671 0.359126
O O14 0.098842 0.136513 0.919487
O O15 0.073447 0.414540 0.875239
O O16 0.956365 0.277274 0.897202
O O17 0.807917 0.015997 0.000000
O O18 0.096370 0.450527 0.500000
#
# Coordination Sequence:
#
# PCOD9394216 Si02
#       8
#     8   2   8   8   8   8   8   8
#     4  12  25  39  63  91 127 169 216 269 330 390
#     4  12  32  42  58 100 128 162 208 280 344 394
#     4   9  19  40  69  98 129 168 208 249 309 382
#     4   9  18  36  63  93 124 162 205 255 314 381
#     4  11  25  40  61  92 129 167 214 264 319 389
#     4  11  25  43  65  86 128 161 214 270 334 399
#     4  10  20  39  64  86 118 161 205 262 322 381
#     4  11  25  45  68  91 120 170 222 272 336 402
#
# _framework density 20.284921000000001
#
# number of rings (size 3 to 8) (size 9 to 14) (size 15 to 20)
#    0.000    1.517    1.379    4.966    4.828    3.034 
#    0.000    3.103    0.000    3.310    0.000    0.000 
#    0.000    0.000    0.000    0.000    0.000    0.000 
#
# Total GULP energy -323501.130565 kJ/mol
# GULP energy per Si atom -5577.605699 kJ/mol
# Density = 2.023875 g / cm^3
# Si number density = 20.284921 Si / 1000 Ang^3
#
#
#
# Elastic Constant Matrix: (Units=GPa)
#
#
# Indices 1 2 3 4 5 6 
#
# 1 93.4755 28.6179 39.9553 0.0000 0.0000 0.0000
# 2 28.6179 78.6503 49.7030 0.0000 0.0000 0.0000
# 3 39.9553 49.7030 87.2737 0.0000 0.0000 0.0000
# 4 0.0000 0.0000 0.0000 12.5794 0.0000 0.0000
# 5 0.0000 0.0000 0.0000 0.0000 3.2722 0.0000
# 6 0.0000 0.0000 0.0000 0.0000 0.0000 14.9338
#
#
#
# Elastic Compliance Matrix: (Units=1/GPa)
#
#
# Indices 1 2 3 4 5 6 
#
# 1 0.013423 -0.001563 -0.005255 0.000000 0.000000 0.000000
# 2 -0.001563 0.020045 -0.010700 0.000000 0.000000 0.000000
# 3 -0.005255 -0.010700 0.019958 0.000000 0.000000 0.000000
# 4 0.000000 0.000000 0.000000 0.079495 0.000000 0.000000
# 5 0.000000 0.000000 0.000000 0.000000 0.305606 0.000000
# 6 0.000000 0.000000 0.000000 0.000000 0.000000 0.066962
#
#
# Mechanical properties :
#
#
# Convention : Reuss Voigt Hill
#
# Bulk Modulus (GPa) = 54.37988 55.10577 54.74283
# Shear Modulus (GPa) = 9.14652 15.56531 12.35592
#
# Velocity S-wave (km/s) = 2.12575 2.77308 2.47071
# Velocity P-wave (km/s) = 5.73510 6.12194 5.93167
#
# Compressibility (1/GPa) = 0.01838915
#
# Stress axis : x y z
#
# Youngs Moduli (GPa) = 74.50053 49.88694 50.10557
#
# Poissons Ratio (x) = 0.07798 0.26330
# Poissons Ratio (y) = 0.11646 0.53614
# Poissons Ratio (z) = 0.39149 0.53380
#
# Static dielectric constant tensor:
#      x y z
#    x 1.721540 0.000000 0.000000 
#    y 0.000000 1.734060 0.000000 
#    z 0.000000 0.000000 1.743110 
# 
# From -- ./inp_files/18174.got.cif
#   From: 2010.05.17/outbox.cif.g08.bks.cpg/sg49_10_cif.got.tgz:18174.got - 2010.06.03 21:02:19.
