data_PCOD9394458
_publ_section_title
;
Structure prediction by ZEFSAII (Michael W. Deem and Ramdas Pophale) SiO2 
 PCOD9394458
Probable space group: P C C M
;
_chemical_formula_sum "Si O2"
_cell_formula_units_Z 34
_cell_length_a 11.889748
_cell_length_b 9.243916
_cell_length_c 15.544046
_cell_angle_alpha 90.000000
_cell_angle_beta 90.000000
_cell_angle_gamma 90.000000
_cell_volume 1708.412393
_symmetry_space_group_name_H-M "P C C M"
_symmetry_group_IT_number 49
_symmetry_cell_setting 'orthorhombic'
loop_
_space_group_symop_operation_xyz
x,y,z
-x,-y,z
x,-y,1/2-z
-x,y,1/2-z
-x,-y,-z
x,y,-z
-x,y,1/2+z
x,-y,1/2+z
loop_
_atom_site_type_symbol
_atom_site_label
_atom_site_fract_x
_atom_site_fract_y
_atom_site_fract_z
Si Si1 0.778472 0.411461 0.339532
Si Si2 0.632681 0.827276 0.248614
Si Si3 0.000000 0.000000 0.250000
Si Si4 0.029405 0.213728 0.100916
Si Si5 0.233152 0.709703 0.906581
O O1 0.796630 0.500000 0.250000
O O2 0.694711 0.276800 0.321288
O O3 0.892329 0.348935 0.378866
O O4 0.740940 0.539265 0.402061
O O5 0.500000 0.796787 0.250000
O O6 0.690444 0.780553 0.336266
O O7 0.648529 0.000000 0.250000
O O8 0.060408 0.897336 0.320982
O O9 0.898609 0.256809 0.111469
O O10 0.045414 0.167077 0.000000
O O11 0.257189 0.769986 0.000000
#
# Coordination Sequence:
#
# PCOD9394458 Si02
#       5
#     8   8   2   8   8
#     4  10  21  37  64  92 122 167 207 252 306 369
#     4  10  23  43  63  86 119 164 209 255 310 367
#     4  12  22  36  54  86 130 168 208 240 300 364
#     4  11  24  38  60  94 133 166 202 251 310 379
#     4  10  22  40  62  91 125 159 200 254 306 363
#
# _framework density 19.901519
#
# number of rings (size 3 to 8) (size 9 to 14) (size 15 to 20)
#    0.000    1.647    0.000    4.588    6.588    8.941 
#    0.000    7.059    0.000    0.000    0.000    0.000 
#    0.000    0.000    0.000    0.000    0.000    0.000 
#
# Total GULP energy -189474.402786 kJ/mol
# GULP energy per Si atom -5572.776553 kJ/mol
# Density = 1.985622 g / cm^3
# Si number density = 19.901519 Si / 1000 Ang^3
#
#
#
# Elastic Constant Matrix: (Units=GPa)
#
#
# Indices 1 2 3 4 5 6 
#
# 1 116.8899 53.8636 52.1015 0.0000 0.0000 0.0000
# 2 53.8636 89.0514 25.6309 0.0000 0.0000 0.0000
# 3 52.1015 25.6309 108.6280 0.0000 0.0000 0.0000
# 4 0.0000 0.0000 0.0000 -7.9421 0.0000 0.0000
# 5 0.0000 0.0000 0.0000 0.0000 69.3795 0.0000
# 6 0.0000 0.0000 0.0000 0.0000 0.0000 29.2283
#
#
#
# Elastic Compliance Matrix: (Units=1/GPa)
#
#
# Indices 1 2 3 4 5 6 
#
# 1 0.014068 -0.007046 -0.005085 0.000000 0.000000 0.000000
# 2 -0.007046 0.015576 -0.000296 0.000000 0.000000 0.000000
# 3 -0.005085 -0.000296 0.011715 0.000000 0.000000 0.000000
# 4 0.000000 0.000000 0.000000 -0.125912 0.000000 0.000000
# 5 0.000000 0.000000 0.000000 0.000000 0.014413 0.000000
# 6 0.000000 0.000000 0.000000 0.000000 0.000000 0.034213
#
#
# Mechanical properties :
#
#
# Convention : Reuss Voigt Hill
#
# Bulk Modulus (GPa) = 60.58548 64.19570 62.39059
# Shear Modulus (GPa) = -897.68921 30.33136 -433.67892
#
# Velocity S-wave (km/s) = -21.26135 3.90817 -14.77787
# Velocity P-wave (km/s) = 23.92107 7.25891 16.11716
#
# Compressibility (1/GPa) = 0.01650560
#
# Stress axis : x y z
#
# Youngs Moduli (GPa) = 71.08105 64.19994 85.36373
#
# Poissons Ratio (x) = 0.45234 0.43409
# Poissons Ratio (y) = 0.50082 0.02526
# Poissons Ratio (z) = 0.36146 0.01899
#
# Static dielectric constant tensor:
#      x y z
#    x 1.676770 0.000000 0.000000 
#    y 0.000000 1.799060 0.000000 
#    z 0.000000 0.000000 1.715190 
# 
# From -- ./inp_files/16783.got.cif
#   From: 2010.05.17/outbox.cif.g08.bks.cpg/sg49_9_cif.got.tgz:16783.got - 2010.06.03 21:02:19.
