data_PCOD9394197
_publ_section_title
;
Structure prediction by ZEFSAII (Michael W. Deem and Ramdas Pophale) SiO2 
 PCOD9394197
Probable space group: P C C M
;
_chemical_formula_sum "Si O2"
_cell_formula_units_Z 32
_cell_length_a 5.908496
_cell_length_b 7.606993
_cell_length_c 34.582872
_cell_angle_alpha 90.000000
_cell_angle_beta 90.000000
_cell_angle_gamma 90.000000
_cell_volume 1554.357882
_symmetry_space_group_name_H-M "P C C M"
_symmetry_group_IT_number 49
_symmetry_cell_setting 'orthorhombic'
loop_
_space_group_symop_operation_xyz
x,y,z
-x,-y,z
x,-y,1/2-z
-x,y,1/2-z
-x,-y,-z
x,y,-z
-x,y,1/2+z
x,-y,1/2+z
loop_
_atom_site_type_symbol
_atom_site_label
_atom_site_fract_x
_atom_site_fract_y
_atom_site_fract_z
Si Si1 0.815505 0.654336 0.542505
Si Si2 0.321042 0.156078 0.852395
Si Si3 0.244228 0.201855 0.235921
Si Si4 0.000000 0.000000 0.081378
Si Si5 0.500000 0.500000 0.392024
O O1 0.702618 0.665293 0.500000
O O2 0.668559 0.594922 0.578580
O O3 0.000000 0.500000 0.539815
O O4 0.910692 0.844246 0.554196
O O5 0.218366 0.191909 0.810388
O O6 0.410689 0.344081 0.865735
O O7 0.500000 0.000000 0.845987
O O8 0.174936 0.087490 0.888587
O O9 0.500000 0.269999 0.250000
O O10 0.000000 0.280434 0.250000
O O11 0.246429 0.000000 0.250000
#
# Coordination Sequence:
#
# PCOD9394197 Si02
#       5
#     8   8   8   4   4
#     4  11  24  43  65  96 138 179 226 292 351 413
#     4  12  24  41  70  97 139 178 227 287 347 417
#     4  10  20  38  66  98 132 182 226 278 354 410
#     4  12  23  42  69  98 128 180 236 282 343 428
#     4  12  25  44  65 104 134 178 230 284 353 418
#
# _framework density 20.58728
#
# number of rings (size 3 to 8) (size 9 to 14) (size 15 to 20)
#    0.000    0.750    7.500    2.250    0.000    0.000 
#    0.000    1.875    0.000    3.000    0.000    0.000 
#    0.000    0.000    0.000    0.000    0.000    0.000 
#
# Total GULP energy -178303.543322 kJ/mol
# GULP energy per Si atom -5571.985729 kJ/mol
# Density = 2.054042 g / cm^3
# Si number density = 20.587280 Si / 1000 Ang^3
#
#
#
# Elastic Constant Matrix: (Units=GPa)
#
#
# Indices 1 2 3 4 5 6 
#
# 1 73.8306 34.5086 22.4855 0.0000 0.0000 0.0000
# 2 34.5086 159.6199 54.8609 0.0000 0.0000 0.0000
# 3 22.4855 54.8609 162.5247 0.0000 0.0000 0.0000
# 4 0.0000 0.0000 0.0000 34.2531 0.0000 0.0000
# 5 0.0000 0.0000 0.0000 0.0000 60.5675 0.0000
# 6 0.0000 0.0000 0.0000 0.0000 0.0000 21.0049
#
#
#
# Elastic Compliance Matrix: (Units=1/GPa)
#
#
# Indices 1 2 3 4 5 6 
#
# 1 0.015248 -0.002909 -0.001128 0.000000 0.000000 0.000000
# 2 -0.002909 0.007642 -0.002177 0.000000 0.000000 0.000000
# 3 -0.001128 -0.002177 0.007044 0.000000 0.000000 0.000000
# 4 0.000000 0.000000 0.000000 0.029194 0.000000 0.000000
# 5 0.000000 0.000000 0.000000 0.000000 0.016511 0.000000
# 6 0.000000 0.000000 0.000000 0.000000 0.000000 0.047608
#
#
# Mechanical properties :
#
#
# Convention : Reuss Voigt Hill
#
# Bulk Modulus (GPa) = 57.12279 68.85392 62.98836
# Shear Modulus (GPa) = 35.33346 42.10645 38.71996
#
# Velocity S-wave (km/s) = 4.14729 4.52737 4.34149
# Velocity P-wave (km/s) = 7.12322 7.80044 7.46951
#
# Compressibility (1/GPa) = 0.01750615
#
# Stress axis : x y z
#
# Youngs Moduli (GPa) = 65.58438 130.85522 141.96828
#
# Poissons Ratio (x) = 0.38064 0.16009
# Poissons Ratio (y) = 0.19077 0.30909
# Poissons Ratio (z) = 0.07395 0.28489
#
# Static dielectric constant tensor:
#      x y z
#    x 1.819320 0.000000 0.000000 
#    y 0.000000 1.640930 0.000000 
#    z 0.000000 0.000000 1.708630 
# 
# From -- ./inp_files/25580.got.cif
#   From: 2010.05.17/outbox.cif.g08.bks.cpg/sg49_13_cif.got.tgz:25580.got - 2010.06.03 21:02:19.
