data_PCOD9394192
_publ_section_title
;
Structure prediction by ZEFSAII (Michael W. Deem and Ramdas Pophale) SiO2 
 PCOD9394192
Probable space group: P C C M
;
_chemical_formula_sum "Si O2"
_cell_formula_units_Z 38
_cell_length_a 11.576495
_cell_length_b 15.595498
_cell_length_c 10.004250
_cell_angle_alpha 90.000000
_cell_angle_beta 90.000000
_cell_angle_gamma 90.000000
_cell_volume 1806.179346
_symmetry_space_group_name_H-M "P C C M"
_symmetry_group_IT_number 49
_symmetry_cell_setting 'orthorhombic'
loop_
_space_group_symop_operation_xyz
x,y,z
-x,-y,z
x,-y,1/2-z
-x,y,1/2-z
-x,-y,-z
x,y,-z
-x,y,1/2+z
x,-y,1/2+z
loop_
_atom_site_type_symbol
_atom_site_label
_atom_site_fract_x
_atom_site_fract_y
_atom_site_fract_z
Si Si1 0.098695 0.353272 0.151182
Si Si2 0.650494 0.573997 0.851474
Si Si3 0.891395 0.145519 0.342440
Si Si4 0.674826 0.863686 0.650797
Si Si5 0.500000 0.279952 0.750000
Si Si6 0.500000 0.000000 0.250000
O O1 0.223103 0.390701 0.185246
O O2 0.105243 0.249595 0.155674
O O3 0.000000 0.382818 0.250000
O O4 0.070160 0.378004 0.000000
O O5 0.619722 0.500000 0.750000
O O6 0.566010 0.655225 0.847436
O O7 0.653458 0.537673 0.000000
O O8 0.894065 0.117746 0.500000
O O9 0.774222 0.123360 0.261935
O O10 0.000000 0.116752 0.250000
O O11 0.722996 0.857891 0.500000
O O12 0.597520 0.779885 0.683683
O O13 0.583363 0.940517 0.662675
#
# Coordination Sequence:
#
# PCOD9394192 Si02
#       6
#     8   8   8   8   4   2
#     4   9  19  37  59  85 119 157 202 255 310 369
#     4  11  24  41  58  85 123 163 210 264 317 370
#     4  10  20  38  65  96 129 164 207 260 314 375
#     4  11  23  41  69  98 127 167 213 257 312 377
#     4  11  23  41  63  88 122 166 213 261 315 377
#     4  10  26  44  64  98 140 172 206 256 306 370
#
# _framework density 21.038883999999999
#
# number of rings (size 3 to 8) (size 9 to 14) (size 15 to 20)
#    0.000    1.684    2.105    1.895    0.000    8.842 
#    0.000    2.632    0.000    2.526    0.000    0.000 
#    0.000    0.000    0.000    0.000    0.000    0.000 
#
# Total GULP energy -212274.640834 kJ/mol
# GULP energy per Si atom -5586.174759 kJ/mol
# Density = 2.099100 g / cm^3
# Si number density = 21.038884 Si / 1000 Ang^3
#
#
#
# Elastic Constant Matrix: (Units=GPa)
#
#
# Indices 1 2 3 4 5 6 
#
# 1 156.0255 25.7722 87.0730 0.0000 0.0000 0.0000
# 2 25.7722 62.5623 34.6221 0.0000 0.0000 0.0000
# 3 87.0730 34.6221 131.1606 0.0000 0.0000 0.0000
# 4 0.0000 0.0000 0.0000 -39.6081 0.0000 0.0000
# 5 0.0000 0.0000 0.0000 0.0000 14.8481 0.0000
# 6 0.0000 0.0000 0.0000 0.0000 0.0000 26.9831
#
#
#
# Elastic Compliance Matrix: (Units=1/GPa)
#
#
# Indices 1 2 3 4 5 6 
#
# 1 0.010196 -0.000532 -0.006628 0.000000 0.000000 0.000000
# 2 -0.000532 0.018746 -0.004595 0.000000 0.000000 0.000000
# 3 -0.006628 -0.004595 0.013238 0.000000 0.000000 0.000000
# 4 0.000000 0.000000 0.000000 -0.025247 0.000000 0.000000
# 5 0.000000 0.000000 0.000000 0.000000 0.067349 0.000000
# 6 0.000000 0.000000 0.000000 0.000000 0.000000 0.037060
#
#
# Mechanical properties :
#
#
# Convention : Reuss Voigt Hill
#
# Bulk Modulus (GPa) = 53.56573 71.63148 62.59860
# Shear Modulus (GPa) = 33.09592 13.93003 23.51297
#
# Velocity S-wave (km/s) = 3.97051 2.57594 3.34667
# Velocity P-wave (km/s) = 6.82170 6.55503 6.68969
#
# Compressibility (1/GPa) = 0.01866865
#
# Stress axis : x y z
#
# Youngs Moduli (GPa) = 98.07524 53.34407 75.54212
#
# Poissons Ratio (x) = 0.02838 0.50073
# Poissons Ratio (y) = 0.05218 0.34713
# Poissons Ratio (z) = 0.65009 0.24513
#
# Static dielectric constant tensor:
#      x y z
#    x 1.754330 0.000000 0.000000 
#    y 0.000000 1.738730 0.000000 
#    z 0.000000 0.000000 1.559420 
# 
# From -- ./inp_files/2704.got.cif
#   From: 2010.05.17/outbox.cif.g08.bks.cpg/sg49_2_cif.got.tgz:2704.got - 2010.06.03 21:02:19.
