data_PCOD9394205
_publ_section_title
;
Structure prediction by ZEFSAII (Michael W. Deem and Ramdas Pophale) SiO2 
 PCOD9394205
Probable space group: P C C M
;
_chemical_formula_sum "Si O2"
_cell_formula_units_Z 52
_cell_length_a 17.360397
_cell_length_b 4.931811
_cell_length_c 31.371588
_cell_angle_alpha 90.000000
_cell_angle_beta 90.000000
_cell_angle_gamma 90.000000
_cell_volume 2685.978798
_symmetry_space_group_name_H-M "P C C M"
_symmetry_group_IT_number 49
_symmetry_cell_setting 'orthorhombic'
loop_
_space_group_symop_operation_xyz
x,y,z
-x,-y,z
x,-y,1/2-z
-x,y,1/2-z
-x,-y,-z
x,y,-z
-x,y,1/2+z
x,-y,1/2+z
loop_
_atom_site_type_symbol
_atom_site_label
_atom_site_fract_x
_atom_site_fract_y
_atom_site_fract_z
Si Si1 0.657701 0.101913 0.163840
Si Si2 0.585120 0.383262 0.622465
Si Si3 0.705660 0.555740 0.050046
Si Si4 0.220234 0.034812 0.592104
Si Si5 0.873453 0.643833 0.790758
Si Si6 0.082055 0.870783 0.849063
Si Si7 0.739318 0.000000 0.750000
O O1 0.633846 0.399426 0.149430
O O2 0.730273 0.004682 0.135550
O O3 0.591295 0.895420 0.148674
O O4 0.685172 0.100979 0.211988
O O5 0.500000 0.500000 0.616925
O O6 0.629711 0.364228 0.577309
O O7 0.736601 0.266099 0.065394
O O8 0.771214 0.765286 0.064799
O O9 0.691456 0.563572 0.000000
O O10 0.136775 0.099889 0.609926
O O11 0.910966 0.500000 0.750000
O O12 0.892451 0.423152 0.828540
O O13 0.792060 0.759144 0.770658
O O14 0.902152 0.924590 0.809938
O O15 0.000000 0.000000 0.862883
#
# Coordination Sequence:
#
# PCOD9394205 Si02
#       7
#     8   8   8   8   8   8   4
#     4  10  22  36  61  84 116 167 210 252 298 357
#     4  10  22  40  59  87 126 160 196 248 316 374
#     4  10  21  37  66  95 115 152 198 252 309 373
#     4  10  20  39  60  85 124 153 203 250 299 371
#     4  12  23  38  57  83 121 154 210 262 308 343
#     4  12  25  39  59  86 121 165 202 247 314 377
#     4  12  24  38  64  88 120 162 222 264 298 350
#
# _framework density 19.359795999999999
#
# number of rings (size 3 to 8) (size 9 to 14) (size 15 to 20)
#    0.000    1.231    3.077    2.308    6.462    2.154 
#    0.000    2.308    0.000    8.308    0.000    0.000 
#    0.000    0.000    0.000    0.000    0.000    0.000 
#
# Total GULP energy -289550.802083 kJ/mol
# GULP energy per Si atom -5568.284655 kJ/mol
# Density = 1.931573 g / cm^3
# Si number density = 19.359796 Si / 1000 Ang^3
#
#
#
# Elastic Constant Matrix: (Units=GPa)
#
#
# Indices 1 2 3 4 5 6 
#
# 1 82.3097 -9.1539 41.2040 0.0000 0.0000 0.0000
# 2 -9.1539 71.9587 6.8384 0.0000 0.0000 0.0000
# 3 41.2040 6.8384 113.5088 0.0000 0.0000 0.0000
# 4 0.0000 0.0000 0.0000 11.9921 0.0000 0.0000
# 5 0.0000 0.0000 0.0000 0.0000 8.1837 0.0000
# 6 0.0000 0.0000 0.0000 0.0000 0.0000 11.0955
#
#
#
# Elastic Compliance Matrix: (Units=1/GPa)
#
#
# Indices 1 2 3 4 5 6 
#
# 1 0.015277 0.002485 -0.005695 0.000000 0.000000 0.000000
# 2 0.002485 0.014381 -0.001768 0.000000 0.000000 0.000000
# 3 -0.005695 -0.001768 0.010984 0.000000 0.000000 0.000000
# 4 0.000000 0.000000 0.000000 0.083388 0.000000 0.000000
# 5 0.000000 0.000000 0.000000 0.000000 0.122194 0.000000
# 6 0.000000 0.000000 0.000000 0.000000 0.000000 0.090126
#
#
# Mechanical properties :
#
#
# Convention : Reuss Voigt Hill
#
# Bulk Modulus (GPa) = 32.59075 38.39493 35.49284
# Shear Modulus (GPa) = 14.02387 21.51352 17.76870
#
# Velocity S-wave (km/s) = 2.69435 3.33715 3.03283
# Velocity P-wave (km/s) = 5.15269 5.89272 5.53508
#
# Compressibility (1/GPa) = 0.03068355
#
# Stress axis : x y z
#
# Youngs Moduli (GPa) = 65.46001 69.53635 91.04353
#
# Poissons Ratio (x) = -0.17277 0.51850
# Poissons Ratio (y) = -0.16264 0.16099
# Poissons Ratio (z) = 0.37280 0.12296
#
# Static dielectric constant tensor:
#      x y z
#    x 1.774110 0.000000 0.000000 
#    y 0.000000 1.713960 0.000000 
#    z 0.000000 0.000000 1.671320 
# 
# From -- ./inp_files/25144.got.cif
#   From: 2010.05.17/outbox.cif.g08.bks.cpg/sg49_13_cif.got.tgz:25144.got - 2010.06.03 21:02:19.
