data_PCOD9394954
_publ_section_title
;
Structure prediction by ZEFSAII (Michael W. Deem and Ramdas Pophale) SiO2 
 PCOD9394954
Probable space group: P C C M
;
_chemical_formula_sum "Si O2"
_cell_formula_units_Z 64
_cell_length_a 20.401499
_cell_length_b 11.452114
_cell_length_c 15.141271
_cell_angle_alpha 90.000000
_cell_angle_beta 90.000000
_cell_angle_gamma 90.000000
_cell_volume 3537.610983
_symmetry_space_group_name_H-M "P C C M"
_symmetry_group_IT_number 49
_symmetry_cell_setting 'orthorhombic'
loop_
_space_group_symop_operation_xyz
x,y,z
-x,-y,z
x,-y,1/2-z
-x,y,1/2-z
-x,-y,-z
x,y,-z
-x,y,1/2+z
x,-y,1/2+z
loop_
_atom_site_type_symbol
_atom_site_label
_atom_site_fract_x
_atom_site_fract_y
_atom_site_fract_z
Si Si1 0.790103 0.244646 0.598943
Si Si2 0.927479 0.863449 0.643210
Si Si3 0.250966 0.500000 0.645079
Si Si4 0.927479 0.136551 0.356790
Si Si5 0.400903 0.500000 0.102479
Si Si6 0.426993 0.305755 0.250000
Si Si7 0.790103 0.244647 0.901057
Si Si8 0.699182 0.861602 0.750000
O O1 0.766693 0.223456 0.500000
O O2 0.785442 0.381808 0.619757
O O3 0.864870 0.203618 0.608000
O O4 0.743663 0.176475 0.666790
O O5 0.925195 0.857482 0.750000
O O6 0.864870 0.796382 0.608000
O O7 1.000000 0.822225 0.615330
O O8 0.921979 0.000000 0.618992
O O9 0.262365 0.500000 0.750000
O O10 0.322147 0.500000 0.601269
O O11 0.214558 0.381808 0.619757
O O12 0.420871 0.388913 0.163093
O O13 0.420871 0.611087 0.163093
O O14 0.423591 0.500000 0.000000
O O15 0.500000 0.253475 0.250000
O O16 0.367573 0.213890 0.250000
O O17 0.743663 0.176475 0.833210
O O18 0.766693 0.223455 0.000000
O O19 0.687485 0.000000 0.750000
#
# Coordination Sequence:
#
# PCOD9394954 Si02
#       8
#     8   8   8   8   8   8   8   8
#     4  12  23  38  62  91 121 156 201 250 300 356
#     4   9  18  35  58  84 119 161 203 249 297 344
#     4  12  20  39  65  90 122 156 192 248 306 356
#     4   9  18  35  58  84 119 161 203 249 297 344
#     4  11  19  37  65  93 122 151 189 245 302 353
#     4  11  24  41  61  92 123 153 199 244 293 358
#     4  12  23  38  62  91 121 156 201 250 300 356
#     4  12  25  42  61  86 121 161 203 247 296 350
#
# _framework density 18.091304999999998
#
# number of rings (size 3 to 8) (size 9 to 14) (size 15 to 20)
#    0.000    1.000    6.250    3.375    0.000    3.750 
#    0.000    1.875    0.000    3.750    0.000    3.500 
#    0.000    0.000    0.000    0.000    0.000    0.000 
#
# Total GULP energy -357503.993708 kJ/mol
# GULP energy per Si atom -5585.999902 kJ/mol
# Density = 1.805013 g / cm^3
# Si number density = 18.091305 Si / 1000 Ang^3
#
#
#
# Elastic Constant Matrix: (Units=GPa)
#
#
# Indices 1 2 3 4 5 6 
#
# 1 152.1823 71.5352 43.9371 0.0000 0.0000 0.0000
# 2 71.5352 113.2296 44.7505 0.0000 0.0000 0.0000
# 3 43.9371 44.7505 153.9885 0.0000 0.0000 0.0000
# 4 0.0000 0.0000 0.0000 -59.3836 0.0000 0.0000
# 5 0.0000 0.0000 0.0000 0.0000 -1.7453 0.0000
# 6 0.0000 0.0000 0.0000 0.0000 0.0000 15.0974
#
#
#
# Elastic Compliance Matrix: (Units=1/GPa)
#
#
# Indices 1 2 3 4 5 6 
#
# 1 0.009507 -0.005574 -0.001093 0.000000 0.000000 0.000000
# 2 -0.005574 0.013246 -0.002259 0.000000 0.000000 0.000000
# 3 -0.001093 -0.002259 0.007462 0.000000 0.000000 0.000000
# 4 0.000000 0.000000 0.000000 -0.016840 0.000000 0.000000
# 5 0.000000 0.000000 0.000000 0.000000 -0.572978 0.000000
# 6 0.000000 0.000000 0.000000 0.000000 0.000000 0.066237
#
#
# Mechanical properties :
#
#
# Convention : Reuss Voigt Hill
#
# Bulk Modulus (GPa) = 80.88391 82.20511 81.54451
# Shear Modulus (GPa) = -10.60687 8.07222 -1.26732
#
# Velocity S-wave (km/s) = -2.42398 2.11462 -0.83788
# Velocity P-wave (km/s) = 6.08042 7.17634 6.65099
#
# Compressibility (1/GPa) = 0.01236340
#
# Stress axis : x y z
#
# Youngs Moduli (GPa) = 105.18801 75.49412 134.00863
#
# Poissons Ratio (x) = 0.42083 0.14642
# Poissons Ratio (y) = 0.58635 0.30272
# Poissons Ratio (z) = 0.11493 0.17054
#
# Static dielectric constant tensor:
#      x y z
#    x 1.614330 0.000000 0.000000 
#    y 0.000000 1.597770 0.000000 
#    z 0.000000 0.000000 1.644160 
# 
# From -- ./inp_files/14209.got.cif
#   From: 2010.05.17/outbox.cif.g08.bks.cpg/sg49_8_cif.got.tgz:14209.got - 2010.06.03 21:02:19.
