data_PCOD9394087
_publ_section_title
;
Structure prediction by ZEFSAII (Michael W. Deem and Ramdas Pophale) SiO2 
 PCOD9394087
Probable space group: P C C M
;
_chemical_formula_sum "Si O2"
_cell_formula_units_Z 64
_cell_length_a 12.329707
_cell_length_b 15.328523
_cell_length_c 15.434947
_cell_angle_alpha 90.000000
_cell_angle_beta 90.000000
_cell_angle_gamma 90.000000
_cell_volume 2917.146289
_symmetry_space_group_name_H-M "P C C M"
_symmetry_group_IT_number 49
_symmetry_cell_setting 'orthorhombic'
loop_
_space_group_symop_operation_xyz
x,y,z
-x,-y,z
x,-y,1/2-z
-x,y,1/2-z
-x,-y,-z
x,y,-z
-x,y,1/2+z
x,-y,1/2+z
loop_
_atom_site_type_symbol
_atom_site_label
_atom_site_fract_x
_atom_site_fract_y
_atom_site_fract_z
Si Si1 0.980970 0.396873 0.604623
Si Si2 0.585196 0.737762 0.097622
Si Si3 0.828468 0.755428 0.163687
Si Si4 0.770238 0.175785 0.855300
Si Si5 0.997589 0.898967 0.356061
Si Si6 0.217093 0.639288 0.096741
Si Si7 0.460959 0.906260 0.849820
Si Si8 0.435995 0.413575 0.606463
O O1 0.962881 0.388186 0.500000
O O2 0.890507 0.337015 0.650831
O O3 0.000000 0.500000 0.623105
O O4 0.096709 0.356986 0.632774
O O5 0.707669 0.746515 0.127873
O O6 0.523864 0.829231 0.102960
O O7 0.506265 0.667123 0.141148
O O8 0.594067 0.706410 0.000000
O O9 0.803090 0.788394 0.260574
O O10 0.905640 0.831067 0.121443
O O11 0.882074 0.136003 0.888861
O O12 0.738289 0.262566 0.906483
O O13 0.668195 0.110816 0.853293
O O14 0.000000 0.899877 0.250000
O O15 0.000000 0.000000 0.383435
O O16 0.312969 0.586318 0.141081
O O17 0.200050 0.602966 0.000000
O O18 0.500000 0.900594 0.750000
O O19 0.500000 0.000000 0.882704
O O20 0.500000 0.500000 0.626950
O O21 0.424624 0.408452 0.500000
#
# Coordination Sequence:
#
# PCOD9394087 Si02
#       8
#     8   8   8   8   8   8   8   8
#     4  10  22  39  62  90 124 167 211 253 308 378
#     4  11  23  39  61  90 123 159 201 257 313 368
#     4  11  22  38  61  89 125 159 199 255 309 367
#     4  11  21  39  64  87 120 157 203 253 308 367
#     4   9  20  35  60  87 114 156 204 246 296 363
#     4  10  20  37  60  85 118 158 205 255 303 364
#     4  11  24  40  63  90 119 160 207 252 310 378
#     4   9  19  35  59  86 113 151 200 248 300 361
#
# _framework density 21.939249
#
# number of rings (size 3 to 8) (size 9 to 14) (size 15 to 20)
#    0.000    1.750    3.750    0.375    3.500    1.250 
#    0.000    1.250    0.000    4.500    0.000    0.000 
#    0.000    0.000    0.000    0.000    0.000    0.000 
#
# Total GULP energy -356970.961166 kJ/mol
# GULP energy per Si atom -5577.671268 kJ/mol
# Density = 2.188931 g / cm^3
# Si number density = 21.939249 Si / 1000 Ang^3
#
#
#
# Elastic Constant Matrix: (Units=GPa)
#
#
# Indices 1 2 3 4 5 6 
#
# 1 170.7415 45.0264 17.3134 0.0000 0.0000 0.0000
# 2 45.0264 107.5786 0.6794 0.0000 0.0000 0.0000
# 3 17.3134 0.6794 34.3359 0.0000 0.0000 0.0000
# 4 0.0000 0.0000 0.0000 18.1330 0.0000 0.0000
# 5 0.0000 0.0000 0.0000 0.0000 0.8989 0.0000
# 6 0.0000 0.0000 0.0000 0.0000 0.0000 41.4965
#
#
#
# Elastic Compliance Matrix: (Units=1/GPa)
#
#
# Indices 1 2 3 4 5 6 
#
# 1 0.006971 -0.002896 -0.003458 0.000000 0.000000 0.000000
# 2 -0.002896 0.010500 0.001252 0.000000 0.000000 0.000000
# 3 -0.003458 0.001252 0.030843 0.000000 0.000000 0.000000
# 4 0.000000 0.000000 0.000000 0.055148 0.000000 0.000000
# 5 0.000000 0.000000 0.000000 0.000000 1.112471 0.000000
# 6 0.000000 0.000000 0.000000 0.000000 0.000000 0.024098
#
#
# Mechanical properties :
#
#
# Convention : Reuss Voigt Hill
#
# Bulk Modulus (GPa) = 26.23905 48.74383 37.49144
# Shear Modulus (GPa) = 3.95903 28.74813 16.35358
#
# Velocity S-wave (km/s) = 1.34479 3.62380 2.73317
# Velocity P-wave (km/s) = 3.79435 6.30675 5.20443
#
# Compressibility (1/GPa) = 0.03811114
#
# Stress axis : x y z
#
# Youngs Moduli (GPa) = 143.44931 95.24107 32.42250
#
# Poissons Ratio (x) = 0.27581 0.11211
# Poissons Ratio (y) = 0.41541 -0.04061
# Poissons Ratio (z) = 0.49602 -0.11929
#
# Static dielectric constant tensor:
#      x y z
#    x 1.817930 0.000000 0.000000 
#    y 0.000000 1.821750 0.000000 
#    z 0.000000 0.000000 1.901890 
# 
# From -- ./inp_files/17353.got.cif
#   From: 2010.05.17/outbox.cif.g08.bks.cpg/sg49_9_cif.got.tgz:17353.got - 2010.06.03 21:02:19.
