data_PCOD9394076
_publ_section_title
;
Structure prediction by ZEFSAII (Michael W. Deem and Ramdas Pophale) SiO2 
 PCOD9394076
Probable space group: P C C M
;
_chemical_formula_sum "Si O2"
_cell_formula_units_Z 58
_cell_length_a 11.895865
_cell_length_b 16.172606
_cell_length_c 14.182045
_cell_angle_alpha 90.000000
_cell_angle_beta 90.000000
_cell_angle_gamma 90.000000
_cell_volume 2728.443044
_symmetry_space_group_name_H-M "P C C M"
_symmetry_group_IT_number 49
_symmetry_cell_setting 'orthorhombic'
loop_
_space_group_symop_operation_xyz
x,y,z
-x,-y,z
x,-y,1/2-z
-x,y,1/2-z
-x,-y,-z
x,y,-z
-x,y,1/2+z
x,-y,1/2+z
loop_
_atom_site_type_symbol
_atom_site_label
_atom_site_fract_x
_atom_site_fract_y
_atom_site_fract_z
Si Si1 0.552772 0.258001 0.607840
Si Si2 0.755751 0.278359 0.256483
Si Si3 0.807856 0.163658 0.902593
Si Si4 0.418371 0.927822 0.613388
Si Si5 0.047964 0.185540 0.851759
Si Si6 0.500000 0.500000 0.250000
Si Si7 0.170815 0.023854 0.147486
Si Si8 0.350326 0.385286 0.387612
O O1 0.595923 0.260970 0.500000
O O2 0.647405 0.291106 0.678487
O O3 0.534162 0.162517 0.632855
O O4 0.440304 0.310456 0.611575
O O5 0.749194 0.196280 0.191122
O O6 0.860640 0.256664 0.326632
O O7 0.753504 0.350813 0.176767
O O8 0.931508 0.205801 0.902509
O O9 0.824250 0.065071 0.901650
O O10 0.746931 0.186239 0.000000
O O11 0.404023 0.934678 0.500000
O O12 0.296501 0.941695 0.655556
O O13 0.500000 0.000000 0.643655
O O14 0.102721 0.101960 0.892472
O O15 0.000000 0.161355 0.750000
O O16 0.416433 0.452415 0.323350
O O17 0.127690 0.000000 0.250000
O O18 0.328673 0.405983 0.500000
#
# Coordination Sequence:
#
# PCOD9394076 Si02
#       8
#     8   8   8   8   8   2   8   8
#     4  10  20  37  59  85 120 165 211 257 308 366
#     4  11  20  40  59  83 120 158 197 254 305 372
#     4  11  24  35  54  82 113 161 218 278 335 378
#     4  10  22  35  48  74 112 156 211 263 305 362
#     4  10  21  35  54  74 109 151 209 270 320 363
#     4  12  22  44  72 102 140 168 194 236 288 366
#     4  12  20  34  52  71 105 157 210 276 328 371
#     4  11  24  41  68 100 134 169 201 241 300 373
#
# _framework density 21.257543999999999
#
# number of rings (size 3 to 8) (size 9 to 14) (size 15 to 20)
#    0.000    1.241    5.517    1.448    1.931    2.483 
#    2.483    0.000    0.000    0.000    0.000    4.345 
#    0.000   11.034    0.000    0.000    0.000    0.000 
#
# Total GULP energy -323406.010872 kJ/mol
# GULP energy per Si atom -5575.965705 kJ/mol
# Density = 2.120916 g / cm^3
# Si number density = 21.257544 Si / 1000 Ang^3
#
#
#
# Elastic Constant Matrix: (Units=GPa)
#
#
# Indices 1 2 3 4 5 6 
#
# 1 53.0164 14.8478 4.3283 0.0000 0.0000 0.0000
# 2 14.8478 60.0769 22.2311 0.0000 0.0000 0.0000
# 3 4.3283 22.2311 127.6206 0.0000 0.0000 0.0000
# 4 0.0000 0.0000 0.0000 -73.6915 0.0000 0.0000
# 5 0.0000 0.0000 0.0000 0.0000 355.5532 0.0000
# 6 0.0000 0.0000 0.0000 0.0000 0.0000 26.4274
#
#
#
# Elastic Compliance Matrix: (Units=1/GPa)
#
#
# Indices 1 2 3 4 5 6 
#
# 1 0.020269 -0.005083 0.000198 0.000000 0.000000 0.000000
# 2 -0.005083 0.019067 -0.003149 0.000000 0.000000 0.000000
# 3 0.000198 -0.003149 0.008378 0.000000 0.000000 0.000000
# 4 0.000000 0.000000 0.000000 -0.013570 0.000000 0.000000
# 5 0.000000 0.000000 0.000000 0.000000 0.002813 0.000000
# 6 0.000000 0.000000 0.000000 0.000000 0.000000 0.037840
#
#
# Mechanical properties :
#
#
# Convention : Reuss Voigt Hill
#
# Bulk Modulus (GPa) = 31.59941 35.94758 33.77349
# Shear Modulus (GPa) = 49.30382 74.94495 62.12438
#
# Velocity S-wave (km/s) = 4.82119 5.94409 5.41185
# Velocity P-wave (km/s) = 6.77416 8.00355 7.41438
#
# Compressibility (1/GPa) = 0.03164616
#
# Stress axis : x y z
#
# Youngs Moduli (GPa) = 49.33542 52.44722 119.36664
#
# Poissons Ratio (x) = 0.26658 -0.02363
# Poissons Ratio (y) = 0.25076 0.37588
# Poissons Ratio (z) = -0.00977 0.16516
#
# Static dielectric constant tensor:
#      x y z
#    x 1.802060 0.000000 0.000000 
#    y 0.000000 1.776840 0.000000 
#    z 0.000000 0.000000 1.884880 
# 
# From -- ./inp_files/13045.got.cif
#   From: 2010.05.17/outbox.cif.g08.bks.cpg/sg49_7_cif.got.tgz:13045.got - 2010.06.03 21:02:19.
