data_PCOD9394342
_publ_section_title
;
Structure prediction by ZEFSAII (Michael W. Deem and Ramdas Pophale) SiO2 
 PCOD9394342
Probable space group: P C C M
;
_chemical_formula_sum "Si O2"
_cell_formula_units_Z 48
_cell_length_a 5.165446
_cell_length_b 20.949685
_cell_length_c 20.677420
_cell_angle_alpha 90.000000
_cell_angle_beta 90.000000
_cell_angle_gamma 90.000000
_cell_volume 2237.595976
_symmetry_space_group_name_H-M "P C C M"
_symmetry_group_IT_number 49
_symmetry_cell_setting 'orthorhombic'
loop_
_space_group_symop_operation_xyz
x,y,z
-x,-y,z
x,-y,1/2-z
-x,y,1/2-z
-x,-y,-z
x,y,-z
-x,y,1/2+z
x,-y,1/2+z
loop_
_atom_site_type_symbol
_atom_site_label
_atom_site_fract_x
_atom_site_fract_y
_atom_site_fract_z
Si Si1 0.876690 0.764706 0.071780
Si Si2 0.738102 0.800699 0.789952
Si Si3 0.611313 0.933263 0.845544
Si Si4 0.896035 0.906218 0.572852
Si Si5 0.157476 0.367896 0.423199
Si Si6 0.649627 0.435285 0.421280
O O1 0.029016 0.831462 0.069505
O O2 0.058138 0.703813 0.082574
O O3 0.719426 0.773166 0.137658
O O4 0.749606 0.756658 0.000000
O O5 0.500000 0.774951 0.750000
O O6 0.704187 0.877666 0.797578
O O7 0.000000 0.788405 0.750000
O O8 0.367377 0.909534 0.887276
O O9 0.859407 0.940011 0.892678
O O10 0.500000 0.000000 0.819529
O O11 0.857101 0.929759 0.500000
O O12 0.171279 0.381027 0.500000
O O13 0.447270 0.380590 0.400259
O O14 0.935738 0.416386 0.397548
O O15 0.500000 0.500000 0.402456
O O16 0.671780 0.437558 0.500000
#
# Coordination Sequence:
#
# PCOD9394342 Si02
#       6
#     8   8   8   8   8   8
#     4   9  20  39  61  86 115 150 194 239 288 346
#     4  11  24  43  62  84 116 152 188 238 298 349
#     4  11  23  39  58  83 112 148 193 236 285 351
#     4  10  21  36  57  85 118 152 186 235 293 344
#     4   9  17  28  47  73 103 144 188 227 270 327
#     4   9  16  26  41  68 109 150 183 220 272 327
#
# _framework density 21.451592000000002
#
# number of rings (size 3 to 8) (size 9 to 14) (size 15 to 20)
#    0.000    2.167    0.000    3.500    0.000    9.000 
#    0.000   13.333    0.000    0.000    0.000    0.000 
#    0.000   10.000    0.000    0.000    0.000    0.000 
#
# Total GULP energy -267768.646801 kJ/mol
# GULP energy per Si atom -5578.513475 kJ/mol
# Density = 2.140277 g / cm^3
# Si number density = 21.451592 Si / 1000 Ang^3
#
#
#
# Elastic Constant Matrix: (Units=GPa)
#
#
# Indices 1 2 3 4 5 6 
#
# 1 112.9368 -6.5532 38.2525 0.0000 0.0000 0.0000
# 2 -6.5532 49.3061 6.8855 0.0000 0.0000 0.0000
# 3 38.2525 6.8855 101.9339 0.0000 0.0000 0.0000
# 4 0.0000 0.0000 0.0000 4.4532 0.0000 0.0000
# 5 0.0000 0.0000 0.0000 0.0000 19.5609 0.0000
# 6 0.0000 0.0000 0.0000 0.0000 0.0000 10.9116
#
#
#
# Elastic Compliance Matrix: (Units=1/GPa)
#
#
# Indices 1 2 3 4 5 6 
#
# 1 0.010323 0.001931 -0.004004 0.000000 0.000000 0.000000
# 2 0.001931 0.020836 -0.002132 0.000000 0.000000 0.000000
# 3 -0.004004 -0.002132 0.011457 0.000000 0.000000 0.000000
# 4 0.000000 0.000000 0.000000 0.224555 0.000000 0.000000
# 5 0.000000 0.000000 0.000000 0.000000 0.051122 0.000000
# 6 0.000000 0.000000 0.000000 0.000000 0.000000 0.091645
#
#
# Mechanical properties :
#
#
# Convention : Reuss Voigt Hill
#
# Bulk Modulus (GPa) = 29.23531 37.92739 33.58135
# Shear Modulus (GPa) = 11.63464 22.02462 16.82963
#
# Velocity S-wave (km/s) = 2.33140 3.20771 2.80400
# Velocity P-wave (km/s) = 4.57224 5.60697 5.11583
#
# Compressibility (1/GPa) = 0.03420521
#
# Stress axis : x y z
#
# Youngs Moduli (GPa) = 96.87256 47.99412 87.28308
#
# Poissons Ratio (x) = -0.09269 0.34951
# Poissons Ratio (y) = -0.18708 0.18610
# Poissons Ratio (z) = 0.38790 0.10233
#
# Static dielectric constant tensor:
#      x y z
#    x 1.777960 0.000000 0.000000 
#    y 0.000000 1.851200 0.000000 
#    z 0.000000 0.000000 1.811520 
# 
# From -- ./inp_files/18979.got.cif
#   From: 2010.05.17/outbox.cif.g08.bks.cpg/sg49_10_cif.got.tgz:18979.got - 2010.06.03 21:02:19.
