data_PCOD9394763
_publ_section_title
;
Structure prediction by ZEFSAII (Michael W. Deem and Ramdas Pophale) SiO2 
 PCOD9394763
Probable space group: P C C M
;
_chemical_formula_sum "Si O2"
_cell_formula_units_Z 32
_cell_length_a 5.198037
_cell_length_b 7.518733
_cell_length_c 37.201600
_cell_angle_alpha 90.000000
_cell_angle_beta 90.000000
_cell_angle_gamma 90.000000
_cell_volume 1453.937199
_symmetry_space_group_name_H-M "P C C M"
_symmetry_group_IT_number 49
_symmetry_cell_setting 'orthorhombic'
loop_
_space_group_symop_operation_xyz
x,y,z
-x,-y,z
x,-y,1/2-z
-x,y,1/2-z
-x,-y,-z
x,y,-z
-x,y,1/2+z
x,-y,1/2+z
loop_
_atom_site_type_symbol
_atom_site_label
_atom_site_fract_x
_atom_site_fract_y
_atom_site_fract_z
Si Si1 0.373399 0.194587 0.040774
Si Si2 0.247098 0.627488 0.159175
Si Si3 0.874012 0.693800 0.579905
Si Si4 0.251629 0.798062 0.766344
O O1 0.609372 0.303996 0.057763
O O2 0.109145 0.193095 0.063325
O O3 0.500000 0.000000 0.039802
O O4 0.313310 0.252088 0.000000
O O5 0.500000 0.500000 0.157694
O O6 0.203165 0.726398 0.121231
O O7 0.261508 0.770951 0.191200
O O8 0.000000 0.500000 0.165164
O O9 0.000000 0.500000 0.579196
O O10 0.500000 0.708697 0.750000
O O11 0.000000 0.712733 0.750000
O O12 0.251477 0.000000 0.750000
#
# Coordination Sequence:
#
# PCOD9394763 Si02
#       4
#     8   8   8   8
#     4  11  24  43  65  97 136 176 223 274 329 388
#     4  11  23  41  66  93 130 171 212 267 327 388
#     4  11  23  42  66  97 134 173 224 272 327 394
#     4  10  22  41  61  91 128 162 208 270 312 389
#
# _framework density 22.0092
#
# number of rings (size 3 to 8) (size 9 to 14) (size 15 to 20)
#    0.000    1.250    0.000    6.750    0.000    8.000 
#   13.500    0.000    0.000    0.000    0.000    0.000 
#    0.000    0.000    0.000    0.000    0.000    0.000 
#
# Total GULP energy -178649.081095 kJ/mol
# GULP energy per Si atom -5582.783784 kJ/mol
# Density = 2.195911 g / cm^3
# Si number density = 22.009200 Si / 1000 Ang^3
#
#
#
# Elastic Constant Matrix: (Units=GPa)
#
#
# Indices 1 2 3 4 5 6 
#
# 1 212.5989 27.1977 88.9010 0.0000 0.0000 0.0000
# 2 27.1977 53.9998 56.4059 0.0000 0.0000 0.0000
# 3 88.9010 56.4059 225.0225 0.0000 0.0000 0.0000
# 4 0.0000 0.0000 0.0000 22.2659 0.0000 0.0000
# 5 0.0000 0.0000 0.0000 0.0000 36.0890 0.0000
# 6 0.0000 0.0000 0.0000 0.0000 0.0000 2.6950
#
#
#
# Elastic Compliance Matrix: (Units=1/GPa)
#
#
# Indices 1 2 3 4 5 6 
#
# 1 0.005654 -0.000697 -0.002059 0.000000 0.000000 0.000000
# 2 -0.000697 0.025173 -0.006035 0.000000 0.000000 0.000000
# 3 -0.002059 -0.006035 0.006770 0.000000 0.000000 0.000000
# 4 0.000000 0.000000 0.000000 0.044912 0.000000 0.000000
# 5 0.000000 0.000000 0.000000 0.000000 0.027709 0.000000
# 6 0.000000 0.000000 0.000000 0.000000 0.000000 0.371056
#
#
# Mechanical properties :
#
#
# Convention : Reuss Voigt Hill
#
# Bulk Modulus (GPa) = 49.96023 92.95893 71.45958
# Shear Modulus (GPa) = 9.89066 33.48442 21.68754
#
# Velocity S-wave (km/s) = 2.12218 3.90472 3.14249
# Velocity P-wave (km/s) = 5.36226 7.91563 6.76059
#
# Compressibility (1/GPa) = 0.02001592
#
# Stress axis : x y z
#
# Youngs Moduli (GPa) = 176.87068 39.72469 147.70616
#
# Poissons Ratio (x) = 0.02768 0.30413
# Poissons Ratio (y) = 0.12326 0.89138
# Poissons Ratio (z) = 0.36418 0.23973
#
# Static dielectric constant tensor:
#      x y z
#    x 1.831640 0.000000 0.000000 
#    y 0.000000 1.834290 0.000000 
#    z 0.000000 0.000000 1.824960 
# 
# From -- ./inp_files/25536.got.cif
#   From: 2010.05.17/outbox.cif.g08.bks.cpg/sg49_13_cif.got.tgz:25536.got - 2010.06.03 21:02:19.
