data_PCOD9394249
_publ_section_title
;
Structure prediction by ZEFSAII (Michael W. Deem and Ramdas Pophale) SiO2 
 PCOD9394249
Probable space group: P C C M
;
_chemical_formula_sum "Si O2"
_cell_formula_units_Z 40
_cell_length_a 8.969462
_cell_length_b 10.019402
_cell_length_c 23.212794
_cell_angle_alpha 90.000000
_cell_angle_beta 90.000000
_cell_angle_gamma 90.000000
_cell_volume 2086.102355
_symmetry_space_group_name_H-M "P C C M"
_symmetry_group_IT_number 49
_symmetry_cell_setting 'orthorhombic'
loop_
_space_group_symop_operation_xyz
x,y,z
-x,-y,z
x,-y,1/2-z
-x,y,1/2-z
-x,-y,-z
x,y,-z
-x,y,1/2+z
x,-y,1/2+z
loop_
_atom_site_type_symbol
_atom_site_label
_atom_site_fract_x
_atom_site_fract_y
_atom_site_fract_z
Si Si1 0.146086 0.590096 0.000000
Si Si2 0.311360 0.730478 0.193329
Si Si3 0.339310 0.224479 0.173515
Si Si4 0.853221 0.907168 0.500000
Si Si5 0.676079 0.509014 0.888791
Si Si6 0.824577 0.033706 0.126286
O O1 0.113780 0.748657 0.000000
O O2 0.236973 0.549363 0.942966
O O3 0.000000 0.500000 0.000000
O O4 0.480364 0.776417 0.177089
O O5 0.292166 0.737204 0.261656
O O6 0.294290 0.584099 0.166637
O O7 0.201917 0.832398 0.162111
O O8 0.290106 0.339212 0.128825
O O9 0.269418 0.084984 0.154752
O O10 0.774301 0.941596 0.439766
O O11 0.000000 0.000000 0.500000
O O12 0.500000 0.500000 0.901145
O O13 0.000000 0.000000 0.126525
#
# Coordination Sequence:
#
# PCOD9394249 Si02
#       6
#     4   8   8   4   8   8
#     4  12  25  41  67  88 120 162 202 250 305 359
#     4  10  20  41  61  89 124 158 197 245 298 359
#     4  10  22  37  64  91 120 159 198 242 304 360
#     4  10  24  43  60  83 121 161 200 245 303 354
#     4  10  22  40  64  91 122 155 200 250 297 355
#     4  11  23  39  61  85 122 160 203 249 297 357
#
# _framework density 19.174513999999999
#
# number of rings (size 3 to 8) (size 9 to 14) (size 15 to 20)
#    0.000    1.600    2.000    2.100    5.600    5.600 
#    0.000    3.000    0.000    3.600    0.000    0.000 
#    0.000    0.000    0.000    0.000    0.000    0.000 
#
# Total GULP energy -223404.859615 kJ/mol
# GULP energy per Si atom -5585.121490 kJ/mol
# Density = 1.913087 g / cm^3
# Si number density = 19.174514 Si / 1000 Ang^3
#
#
#
# Elastic Constant Matrix: (Units=GPa)
#
#
# Indices 1 2 3 4 5 6 
#
# 1 22.7968 24.0287 25.4658 0.0000 0.0000 0.0000
# 2 24.0287 87.1751 14.7622 0.0000 0.0000 0.0000
# 3 25.4658 14.7622 103.6386 0.0000 0.0000 0.0000
# 4 0.0000 0.0000 0.0000 15.0715 0.0000 0.0000
# 5 0.0000 0.0000 0.0000 0.0000 20.1362 0.0000
# 6 0.0000 0.0000 0.0000 0.0000 0.0000 23.2372
#
#
#
# Elastic Compliance Matrix: (Units=1/GPa)
#
#
# Indices 1 2 3 4 5 6 
#
# 1 0.085860 -0.020590 -0.018164 0.000000 0.000000 0.000000
# 2 -0.020590 0.016692 0.002682 0.000000 0.000000 0.000000
# 3 -0.018164 0.002682 0.013730 0.000000 0.000000 0.000000
# 4 0.000000 0.000000 0.000000 0.066351 0.000000 0.000000
# 5 0.000000 0.000000 0.000000 0.000000 0.049662 0.000000
# 6 0.000000 0.000000 0.000000 0.000000 0.000000 0.043034
#
#
# Mechanical properties :
#
#
# Convention : Reuss Voigt Hill
#
# Bulk Modulus (GPa) = 22.65686 38.01377 30.33532
# Shear Modulus (GPa) = 13.80501 21.64590 17.72545
#
# Velocity S-wave (km/s) = 2.68613 3.36354 3.04374
# Velocity P-wave (km/s) = 4.63273 5.91208 5.31107
#
# Compressibility (1/GPa) = 0.04413675
#
# Stress axis : x y z
#
# Youngs Moduli (GPa) = 11.64688 59.90724 72.83182
#
# Poissons Ratio (x) = 1.23350 1.32295
# Poissons Ratio (y) = 0.23981 -0.19531
# Poissons Ratio (z) = 0.21156 -0.16065
#
# Static dielectric constant tensor:
#      x y z
#    x 1.680260 0.000000 0.000000 
#    y 0.000000 1.634660 0.000000 
#    z 0.000000 0.000000 1.666070 
# 
# From -- ./inp_files/22226.got.cif
#   From: 2010.05.17/outbox.cif.g08.bks.cpg/sg49_12_cif.got.tgz:22226.got - 2010.06.03 21:02:19.
