data_PCOD9394322
_publ_section_title
;
Structure prediction by ZEFSAII (Michael W. Deem and Ramdas Pophale) SiO2 
 PCOD9394322
Probable space group: P C C M
;
_chemical_formula_sum "Si O2"
_cell_formula_units_Z 58
_cell_length_a 23.374651
_cell_length_b 15.342256
_cell_length_c 9.020633
_cell_angle_alpha 90.000000
_cell_angle_beta 90.000000
_cell_angle_gamma 90.000000
_cell_volume 3234.978320
_symmetry_space_group_name_H-M "P C C M"
_symmetry_group_IT_number 49
_symmetry_cell_setting 'orthorhombic'
loop_
_space_group_symop_operation_xyz
x,y,z
-x,-y,z
x,-y,1/2-z
-x,y,1/2-z
-x,-y,-z
x,y,-z
-x,y,1/2+z
x,-y,1/2+z
loop_
_atom_site_type_symbol
_atom_site_label
_atom_site_fract_x
_atom_site_fract_y
_atom_site_fract_z
Si Si1 0.559419 0.721812 0.321703
Si Si2 0.603504 0.910128 0.322479
Si Si3 0.736776 0.090527 0.177995
Si Si4 0.214920 0.592977 0.676010
Si Si5 0.170296 0.765805 0.178009
Si Si6 0.649345 0.593333 0.823542
Si Si7 0.944141 0.171902 0.667861
Si Si8 0.000000 0.000000 0.750000
O O1 0.500000 0.691991 0.250000
O O2 0.558332 0.714310 0.500000
O O3 0.569688 0.823198 0.281613
O O4 0.611173 0.665861 0.255383
O O5 0.601486 0.919398 0.500000
O O6 0.670322 0.896522 0.279268
O O7 0.583283 0.000000 0.250000
O O8 0.777163 0.170499 0.220733
O O9 0.756486 0.000000 0.250000
O O10 0.738823 0.082435 0.000000
O O11 0.201532 0.500000 0.750000
O O12 0.204677 0.589760 0.500000
O O13 0.181072 0.671648 0.751255
O O14 0.282961 0.609223 0.699327
O O15 0.112152 0.807396 0.239865
O O16 0.168503 0.759911 0.000000
O O17 0.636039 0.500000 0.750000
O O18 0.638535 0.591234 0.000000
O O19 0.938410 0.202988 0.500000
O O20 0.000000 0.210542 0.750000
O O21 0.959173 0.068305 0.665923
#
# Coordination Sequence:
#
# PCOD9394322 Si02
#       8
#     8   8   8   8   8   8   8   2
#     4  11  23  38  56  79 108 141 182 229 277 330
#     4   9  19  36  55  74 102 140 181 226 275 326
#     4   9  19  33  50  76 108 143 180 222 274 330
#     4  10  21  38  61  88 116 147 184 229 281 335
#     4  11  22  35  55  84 117 152 192 235 281 332
#     4  10  21  38  61  87 114 145 180 221 276 337
#     4  10  21  36  55  79 112 151 195 238 282 329
#     4   8  22  36  58  76 112 156 202 244 284 332
#
# _framework density 17.929023000000001
#
# number of rings (size 3 to 8) (size 9 to 14) (size 15 to 20)
#    0.414    1.655    0.000    3.103    0.966    5.517 
#    0.000    5.517    0.000    0.414    0.000    2.897 
#    0.000    0.000    0.000    0.000    0.000    0.000 
#
# Total GULP energy -323591.979077 kJ/mol
# GULP energy per Si atom -5579.172053 kJ/mol
# Density = 1.788822 g / cm^3
# Si number density = 17.929023 Si / 1000 Ang^3
#
#
#
# Elastic Constant Matrix: (Units=GPa)
#
#
# Indices 1 2 3 4 5 6 
#
# 1 48.6847 39.1670 31.4826 0.0000 0.0000 0.0000
# 2 39.1670 101.7210 39.9652 0.0000 0.0000 0.0000
# 3 31.4826 39.9652 69.7967 0.0000 0.0000 0.0000
# 4 0.0000 0.0000 0.0000 32.3667 0.0000 0.0000
# 5 0.0000 0.0000 0.0000 0.0000 45.4282 0.0000
# 6 0.0000 0.0000 0.0000 0.0000 0.0000 -13.8585
#
#
#
# Elastic Compliance Matrix: (Units=1/GPa)
#
#
# Indices 1 2 3 4 5 6 
#
# 1 0.034704 -0.009306 -0.010325 0.000000 0.000000 0.000000
# 2 -0.009306 0.015180 -0.004494 0.000000 0.000000 0.000000
# 3 -0.010325 -0.004494 0.021558 0.000000 0.000000 0.000000
# 4 0.000000 0.000000 0.000000 0.030896 0.000000 0.000000
# 5 0.000000 0.000000 0.000000 0.000000 0.022013 0.000000
# 6 0.000000 0.000000 0.000000 0.000000 0.000000 -0.072158
#
#
# Mechanical properties :
#
#
# Convention : Reuss Voigt Hill
#
# Bulk Modulus (GPa) = 43.12014 49.04801 46.08407
# Shear Modulus (GPa) = 46.22216 20.09310 33.15763
#
# Velocity S-wave (km/s) = 5.08297 3.35132 4.30511
# Velocity P-wave (km/s) = 7.65189 6.51086 7.10432
#
# Compressibility (1/GPa) = 0.02319102
#
# Stress axis : x y z
#
# Youngs Moduli (GPa) = 28.81536 65.87725 46.38650
#
# Poissons Ratio (x) = 0.61304 0.47894
# Poissons Ratio (y) = 0.26815 0.20848
# Poissons Ratio (z) = 0.29752 0.29607
#
# Static dielectric constant tensor:
#      x y z
#    x 1.603040 0.000000 0.000000 
#    y 0.000000 1.594620 0.000000 
#    z 0.000000 0.000000 1.600030 
# 
# From -- ./inp_files/6467.got.cif
#   From: 2010.05.17/outbox.cif.g08.bks.cpg/sg49_4_cif.got.tgz:6467.got - 2010.06.03 21:02:19.
