data_PCOD9394908
_publ_section_title
;
Structure prediction by ZEFSAII (Michael W. Deem and Ramdas Pophale) SiO2 
 PCOD9394908
Probable space group: P C C M
;
_chemical_formula_sum "Si O2"
_cell_formula_units_Z 38
_cell_length_a 22.853542
_cell_length_b 7.736128
_cell_length_c 10.061818
_cell_angle_alpha 90.000000
_cell_angle_beta 90.000000
_cell_angle_gamma 90.000000
_cell_volume 1778.908556
_symmetry_space_group_name_H-M "P C C M"
_symmetry_group_IT_number 49
_symmetry_cell_setting 'orthorhombic'
loop_
_space_group_symop_operation_xyz
x,y,z
-x,-y,z
x,-y,1/2-z
-x,y,1/2-z
-x,-y,-z
x,y,-z
-x,y,1/2+z
x,-y,1/2+z
loop_
_atom_site_type_symbol
_atom_site_label
_atom_site_fract_x
_atom_site_fract_y
_atom_site_fract_z
Si Si1 0.177530 0.319850 0.000000
Si Si2 0.923856 0.046339 0.500000
Si Si3 0.637457 0.797989 0.268568
Si Si4 0.000000 0.000000 0.250000
Si Si5 0.580450 0.676730 0.000000
Si Si6 0.144440 0.297724 0.500000
Si Si7 0.549659 0.724767 0.500000
Si Si8 0.233411 0.791224 0.232291
O O1 0.135349 0.153922 0.000000
O O2 0.217589 0.302074 0.870017
O O3 0.138463 0.494354 0.000000
O O4 0.957745 0.089406 0.361293
O O5 0.909048 0.839674 0.500000
O O6 0.617639 0.715082 0.130500
O O7 0.584931 0.782675 0.371393
O O8 0.701527 0.734222 0.312981
O O9 0.645946 0.000000 0.250000
O O10 0.559760 0.480442 0.000000
O O11 0.518236 0.777103 0.000000
O O12 0.183921 0.254937 0.372649
O O13 0.231768 0.000000 0.250000
#
# Coordination Sequence:
#
# PCOD9394908 Si02
#       8
#     4   4   8   2   4   4   4   8
#     4  12  24  40  69  99 131 175 215 258 320 375
#     4  11  22  46  66  98 138 168 219 266 298 372
#     4  11  24  39  62  89 120 156 202 261 318 374
#     4  10  24  42  74  94 128 192 208 250 336 342
#     4  11  24  41  59  81 115 160 206 260 320 379
#     4  12  24  40  69  99 131 175 215 258 320 375
#     4  11  24  41  59  81 115 160 206 260 320 379
#     4  11  22  41  61  92 132 167 202 263 325 384
#
# _framework density 21.361414
#
# number of rings (size 3 to 8) (size 9 to 14) (size 15 to 20)
#    0.000    0.842    2.105    5.053    0.000   12.632 
#    0.000    3.158    0.000    0.000    0.000    0.000 
#    0.000    0.000    0.000    0.000    0.000    0.000 
#
# Total GULP energy -212220.191336 kJ/mol
# GULP energy per Si atom -5584.741877 kJ/mol
# Density = 2.131279 g / cm^3
# Si number density = 21.361414 Si / 1000 Ang^3
#
#
#
# Elastic Constant Matrix: (Units=GPa)
#
#
# Indices 1 2 3 4 5 6 
#
# 1 72.9305 -6.1537 7.4128 0.0000 0.0000 0.0000
# 2 -6.1537 72.1815 -11.8310 0.0000 0.0000 0.0000
# 3 7.4128 -11.8310 113.5330 0.0000 0.0000 0.0000
# 4 0.0000 0.0000 0.0000 -77.7533 0.0000 0.0000
# 5 0.0000 0.0000 0.0000 0.0000 31.3829 0.0000
# 6 0.0000 0.0000 0.0000 0.0000 0.0000 21.3444
#
#
#
# Elastic Compliance Matrix: (Units=1/GPa)
#
#
# Indices 1 2 3 4 5 6 
#
# 1 0.013881 0.001053 -0.000797 0.000000 0.000000 0.000000
# 2 0.001053 0.014175 0.001408 0.000000 0.000000 0.000000
# 3 -0.000797 0.001408 0.009007 0.000000 0.000000 0.000000
# 4 0.000000 0.000000 0.000000 -0.012861 0.000000 0.000000
# 5 0.000000 0.000000 0.000000 0.000000 0.031865 0.000000
# 6 0.000000 0.000000 0.000000 0.000000 0.000000 0.046851
#
#
# Mechanical properties :
#
#
# Convention : Reuss Voigt Hill
#
# Bulk Modulus (GPa) = 24.75737 26.38902 25.57319
# Shear Modulus (GPa) = 44.22754 12.94258 28.58506
#
# Velocity S-wave (km/s) = 4.55515 2.46415 3.66206
# Velocity P-wave (km/s) = 6.26743 4.52509 5.46613
#
# Compressibility (1/GPa) = 0.04039202
#
# Stress axis : x y z
#
# Youngs Moduli (GPa) = 72.03836 70.54892 111.02735
#
# Poissons Ratio (x) = -0.07428 0.08845
# Poissons Ratio (y) = -0.07585 -0.15637
# Poissons Ratio (z) = 0.05739 -0.09936
#
# Static dielectric constant tensor:
#      x y z
#    x 1.817880 0.000000 0.000000 
#    y 0.000000 1.801780 0.000000 
#    z 0.000000 0.000000 1.769090 
# 
# From -- ./inp_files/1858.got.cif
#   From: 2010.05.17/outbox.cif.g08.bks.cpg/sg49_1_cif.got.tgz:1858.got - 2010.06.03 21:02:19.
