data_PCOD9394361
_publ_section_title
;
Structure prediction by ZEFSAII (Michael W. Deem and Ramdas Pophale) SiO2 
 PCOD9394361
Probable space group: P C C M
;
_chemical_formula_sum "Si O2"
_cell_formula_units_Z 48
_cell_length_a 21.024719
_cell_length_b 12.086998
_cell_length_c 8.116115
_cell_angle_alpha 90.000000
_cell_angle_beta 90.000000
_cell_angle_gamma 90.000000
_cell_volume 2062.513702
_symmetry_space_group_name_H-M "P C C M"
_symmetry_group_IT_number 49
_symmetry_cell_setting 'orthorhombic'
loop_
_space_group_symop_operation_xyz
x,y,z
-x,-y,z
x,-y,1/2-z
-x,y,1/2-z
-x,-y,-z
x,y,-z
-x,y,1/2+z
x,-y,1/2+z
loop_
_atom_site_type_symbol
_atom_site_label
_atom_site_fract_x
_atom_site_fract_y
_atom_site_fract_z
Si Si1 0.706036 0.610170 0.195869
Si Si2 0.568583 0.651614 0.813348
Si Si3 0.257306 0.848425 0.300943
Si Si4 0.884632 0.879105 0.800956
Si Si5 0.926364 0.374952 0.302997
Si Si6 0.398692 0.116762 0.309869
O O1 0.739133 0.500000 0.250000
O O2 0.634540 0.614848 0.271739
O O3 0.743408 0.718596 0.238107
O O4 0.699283 0.611649 0.000000
O O5 0.500000 0.619641 0.750000
O O6 0.574981 0.784044 0.799964
O O7 0.570457 0.613979 0.000000
O O8 0.264804 0.864345 0.500000
O O9 0.189082 0.888747 0.245987
O O10 0.322061 0.886686 0.214562
O O11 0.905044 0.752318 0.747613
O O12 0.914661 0.000000 0.750000
O O13 0.887169 0.876932 0.000000
O O14 0.901133 0.500000 0.250000
O O15 0.918656 0.373507 0.500000
O O16 0.000000 0.377673 0.250000
O O17 0.413570 0.138662 0.500000
O O18 0.423911 0.000000 0.250000
#
# Coordination Sequence:
#
# PCOD9394361 Si02
#       6
#     8   8   8   8   8   8
#     4   9  19  34  53  75 103 136 174 220 272 329
#     4  10  21  37  53  73 100 131 169 219 272 328
#     4   9  19  37  55  77 110 145 181 227 277 331
#     4  10  22  38  59  88 123 159 200 247 299 354
#     4  10  21  39  62  89 121 162 207 253 300 353
#     4  11  21  34  53  76 101 134 172 213 264 327
#
# _framework density 23.272573000000001
#
# number of rings (size 3 to 8) (size 9 to 14) (size 15 to 20)
#    0.000    2.167    0.000    4.500    0.000    8.333 
#    0.000    5.000    0.000    0.000    0.000    0.000 
#    0.000    0.000    0.000    0.000    0.000    0.000 
#
# Total GULP energy -267371.723847 kJ/mol
# GULP energy per Si atom -5570.244247 kJ/mol
# Density = 2.321960 g / cm^3
# Si number density = 23.272573 Si / 1000 Ang^3
#
#
#
# Elastic Constant Matrix: (Units=GPa)
#
#
# Indices 1 2 3 4 5 6 
#
# 1 74.9627 36.4371 5.1060 0.0000 0.0000 0.0000
# 2 36.4371 222.2440 7.4159 0.0000 0.0000 0.0000
# 3 5.1060 7.4159 21.3523 0.0000 0.0000 0.0000
# 4 0.0000 0.0000 0.0000 30.8076 0.0000 0.0000
# 5 0.0000 0.0000 0.0000 0.0000 12.9462 0.0000
# 6 0.0000 0.0000 0.0000 0.0000 0.0000 -140.6472
#
#
#
# Elastic Compliance Matrix: (Units=1/GPa)
#
#
# Indices 1 2 3 4 5 6 
#
# 1 0.014647 -0.002311 -0.002700 0.000000 0.000000 0.000000
# 2 -0.002311 0.004917 -0.001155 0.000000 0.000000 0.000000
# 3 -0.002700 -0.001155 0.047880 0.000000 0.000000 0.000000
# 4 0.000000 0.000000 0.000000 0.032460 0.000000 0.000000
# 5 0.000000 0.000000 0.000000 0.000000 0.077243 0.000000
# 6 0.000000 0.000000 0.000000 0.000000 0.000000 -0.007110
#
#
# Mechanical properties :
#
#
# Convention : Reuss Voigt Hill
#
# Bulk Modulus (GPa) = 18.14487 46.27521 32.21004
# Shear Modulus (GPa) = 24.90780 -1.40536 11.75122
#
# Velocity S-wave (km/s) = 3.27504 -0.77793 2.24952
# Velocity P-wave (km/s) = 4.70263 4.37267 4.54065
#
# Compressibility (1/GPa) = 0.05511200
#
# Stress axis : x y z
#
# Youngs Moduli (GPa) = 68.27175 203.37405 20.88547
#
# Poissons Ratio (x) = 0.47007 0.05639
# Poissons Ratio (y) = 0.15780 0.02412
# Poissons Ratio (z) = 0.18433 0.23490
#
# Static dielectric constant tensor:
#      x y z
#    x 1.895370 0.000000 0.000000 
#    y 0.000000 1.954890 0.000000 
#    z 0.000000 0.000000 1.826400 
# 
# From -- ./inp_files/6317.got.cif
#   From: 2010.05.17/outbox.cif.g08.bks.cpg/sg49_4_cif.got.tgz:6317.got - 2010.06.03 21:02:19.
