data_PCOD9394052
_publ_section_title
;
Structure prediction by ZEFSAII (Michael W. Deem and Ramdas Pophale) SiO2 
 PCOD9394052
Probable space group: P C C M
;
_chemical_formula_sum "Si O2"
_cell_formula_units_Z 48
_cell_length_a 9.392858
_cell_length_b 11.238510
_cell_length_c 18.963546
_cell_angle_alpha 90.000000
_cell_angle_beta 90.000000
_cell_angle_gamma 90.000000
_cell_volume 2001.824695
_symmetry_space_group_name_H-M "P C C M"
_symmetry_group_IT_number 49
_symmetry_cell_setting 'orthorhombic'
loop_
_space_group_symop_operation_xyz
x,y,z
-x,-y,z
x,-y,1/2-z
-x,y,1/2-z
-x,-y,-z
x,y,-z
-x,y,1/2+z
x,-y,1/2+z
loop_
_atom_site_type_symbol
_atom_site_label
_atom_site_fract_x
_atom_site_fract_y
_atom_site_fract_z
Si Si1 0.035905 0.364892 0.500000
Si Si2 0.617612 0.607804 0.500000
Si Si3 0.706109 0.675897 0.198642
Si Si4 0.343282 0.051670 0.176331
Si Si5 0.018152 0.697655 0.851118
Si Si6 0.687588 0.583562 0.649800
Si Si7 0.862355 0.081987 0.919444
O O1 0.207723 0.380892 0.500000
O O2 0.964223 0.307347 0.568179
O O3 0.000000 0.500000 0.500000
O O4 0.500000 0.500000 0.500000
O O5 0.610674 0.644600 0.583175
O O6 0.656918 0.805828 0.176357
O O7 0.650960 0.645327 0.276747
O O8 0.665273 0.558771 0.153537
O O9 0.880900 0.686597 0.197786
O O10 0.500000 0.000000 0.174093
O O11 0.278552 0.000000 0.250000
O O12 0.261994 0.000109 0.109282
O O13 0.139446 0.597300 0.849387
O O14 0.107264 0.819839 0.858568
O O15 0.835963 0.128453 0.000000
O O16 0.000000 0.000000 0.923062
#
# Coordination Sequence:
#
# PCOD9394052 Si02
#       7
#     4   4   8   8   8   8   8
#     4  10  20  36  65  98 141 191 227 292 368 437
#     4  10  22  46  64 100 145 184 237 288 362 462
#     4  11  22  43  69 105 142 188 237 309 366 446
#     4  11  26  49  69  97 143 200 257 306 376 449
#     4  11  19  37  67 103 145 183 238 304 368 441
#     4  10  23  41  68 108 141 185 240 298 376 449
#     4  11  23  43  70 106 144 190 254 310 374 445
#
# _framework density 23.978123
#
# number of rings (size 3 to 8) (size 9 to 14) (size 15 to 20)
#    0.000    1.333    2.500    4.000    0.000    2.000 
#   13.500    0.833    0.000    0.000    0.000    0.000 
#    0.000    0.000    0.000    0.000    0.000    0.000 
#
# Total GULP energy -267580.984708 kJ/mol
# GULP energy per Si atom -5574.603848 kJ/mol
# Density = 2.392355 g / cm^3
# Si number density = 23.978123 Si / 1000 Ang^3
#
#
#
# Elastic Constant Matrix: (Units=GPa)
#
#
# Indices 1 2 3 4 5 6 
#
# 1 94.8609 31.9023 47.6100 0.0000 0.0000 0.0000
# 2 31.9023 137.5649 14.8153 0.0000 0.0000 0.0000
# 3 47.6100 14.8153 104.5281 0.0000 0.0000 0.0000
# 4 0.0000 0.0000 0.0000 34.6330 0.0000 0.0000
# 5 0.0000 0.0000 0.0000 0.0000 46.0140 0.0000
# 6 0.0000 0.0000 0.0000 0.0000 0.0000 33.5033
#
#
#
# Elastic Compliance Matrix: (Units=1/GPa)
#
#
# Indices 1 2 3 4 5 6 
#
# 1 0.014597 -0.002711 -0.006265 0.000000 0.000000 0.000000
# 2 -0.002711 0.007885 0.000117 0.000000 0.000000 0.000000
# 3 -0.006265 0.000117 0.012404 0.000000 0.000000 0.000000
# 4 0.000000 0.000000 0.000000 0.028874 0.000000 0.000000
# 5 0.000000 0.000000 0.000000 0.000000 0.021733 0.000000
# 6 0.000000 0.000000 0.000000 0.000000 0.000000 0.029848
#
#
# Mechanical properties :
#
#
# Convention : Reuss Voigt Hill
#
# Bulk Modulus (GPa) = 58.24124 58.40100 58.32112
# Shear Modulus (GPa) = 36.02808 39.00516 37.51662
#
# Velocity S-wave (km/s) = 3.88047 4.03761 3.95982
# Velocity P-wave (km/s) = 6.66479 6.79303 6.72921
#
# Compressibility (1/GPa) = 0.01716997
#
# Stress axis : x y z
#
# Youngs Moduli (GPa) = 68.50489 126.81819 80.62176
#
# Poissons Ratio (x) = 0.34375 0.50506
# Poissons Ratio (y) = 0.18569 -0.00943
# Poissons Ratio (z) = 0.42916 -0.01484
#
# Static dielectric constant tensor:
#      x y z
#    x 1.923260 0.000000 0.000000 
#    y 0.000000 1.956410 0.000000 
#    z 0.000000 0.000000 2.034540 
# 
# From -- ./inp_files/16355.got.cif
#   From: 2010.05.17/outbox.cif.g08.bks.cpg/sg49_9_cif.got.tgz:16355.got - 2010.06.03 21:02:19.
