data_PCOD9394238
_publ_section_title
;
Structure prediction by ZEFSAII (Michael W. Deem and Ramdas Pophale) SiO2 
 PCOD9394238
Probable space group: P C C M
;
_chemical_formula_sum "Si O2"
_cell_formula_units_Z 58
_cell_length_a 9.828779
_cell_length_b 17.522272
_cell_length_c 18.375498
_cell_angle_alpha 90.000000
_cell_angle_beta 90.000000
_cell_angle_gamma 90.000000
_cell_volume 3164.674922
_symmetry_space_group_name_H-M "P C C M"
_symmetry_group_IT_number 49
_symmetry_cell_setting 'orthorhombic'
loop_
_space_group_symop_operation_xyz
x,y,z
-x,-y,z
x,-y,1/2-z
-x,y,1/2-z
-x,-y,-z
x,y,-z
-x,y,1/2+z
x,-y,1/2+z
loop_
_atom_site_type_symbol
_atom_site_label
_atom_site_fract_x
_atom_site_fract_y
_atom_site_fract_z
Si Si1 0.243868 0.259346 0.806060
Si Si2 0.161338 0.415683 0.271349
Si Si3 0.188475 0.871753 0.816043
Si Si4 0.000000 0.000000 0.750000
Si Si5 0.759906 0.652205 0.419511
Si Si6 0.484279 0.248981 0.917788
Si Si7 0.419360 0.921220 0.919588
Si Si8 0.999719 0.772386 0.582233
O O1 0.220403 0.340697 0.767945
O O2 0.227224 0.191461 0.745726
O O3 0.383510 0.264379 0.851265
O O4 0.126567 0.244350 0.865903
O O5 0.209128 0.500000 0.250000
O O6 0.208978 0.405273 0.354665
O O7 0.000000 0.412856 0.250000
O O8 0.319262 0.907207 0.853636
O O9 0.095889 0.832789 0.877608
O O10 0.099656 0.941810 0.789422
O O11 0.736791 0.618397 0.500000
O O12 0.631578 0.709864 0.406028
O O13 0.898764 0.700605 0.422118
O O14 0.495458 0.157117 0.920407
O O15 0.439087 0.273079 0.000000
O O16 0.500000 0.000000 0.911428
O O17 0.351068 0.924306 0.000000
O O18 0.039793 0.793987 0.500000
#
# Coordination Sequence:
#
# PCOD9394238 Si02
#       8
#     8   8   8   2   8   8   8   8
#     4  12  22  40  62  92 126 159 202 257 312 362
#     4  11  22  40  65  97 127 157 203 260 309 360
#     4  12  23  41  61  84 123 162 207 253 311 366
#     4  12  28  40  52  92 126 156 202 266 308 356
#     4  10  20  40  65  89 121 165 206 239 299 376
#     4  10  22  40  62  90 122 162 208 251 303 373
#     4  10  22  40  60  85 118 158 207 256 307 366
#     4  11  20  38  66  87 114 164 211 245 298 369
#
# _framework density 18.327316
#
# number of rings (size 3 to 8) (size 9 to 14) (size 15 to 20)
#    0.000    1.103    5.517    0.828    1.931    2.207 
#    0.000    5.517    0.000    1.655    0.000    0.000 
#    0.000    0.000    0.000    0.000    0.000    0.000 
#
# Total GULP energy -323184.761352 kJ/mol
# GULP energy per Si atom -5572.151058 kJ/mol
# Density = 1.828560 g / cm^3
# Si number density = 18.327316 Si / 1000 Ang^3
#
#
#
# Elastic Constant Matrix: (Units=GPa)
#
#
# Indices 1 2 3 4 5 6 
#
# 1 69.7007 26.1218 61.6541 0.0000 0.0000 0.0000
# 2 26.1218 115.6831 83.9227 0.0000 0.0000 0.0000
# 3 61.6541 83.9227 164.8732 0.0000 0.0000 0.0000
# 4 0.0000 0.0000 0.0000 34.7352 0.0000 0.0000
# 5 0.0000 0.0000 0.0000 0.0000 39.6938 0.0000
# 6 0.0000 0.0000 0.0000 0.0000 0.0000 11.1095
#
#
#
# Elastic Compliance Matrix: (Units=1/GPa)
#
#
# Indices 1 2 3 4 5 6 
#
# 1 0.021614 0.001558 -0.008876 0.000000 0.000000 0.000000
# 2 0.001558 0.013818 -0.007616 0.000000 0.000000 0.000000
# 3 -0.008876 -0.007616 0.013261 0.000000 0.000000 0.000000
# 4 0.000000 0.000000 0.000000 0.028789 0.000000 0.000000
# 5 0.000000 0.000000 0.000000 0.000000 0.025193 0.000000
# 6 0.000000 0.000000 0.000000 0.000000 0.000000 0.090013
#
#
# Mechanical properties :
#
#
# Convention : Reuss Voigt Hill
#
# Bulk Modulus (GPa) = 53.11870 77.07270 65.09570
# Shear Modulus (GPa) = 21.85023 29.01159 25.43091
#
# Velocity S-wave (km/s) = 3.45660 3.98297 3.72909
# Velocity P-wave (km/s) = 6.70649 7.95593 7.35778
#
# Compressibility (1/GPa) = 0.01882576
#
# Stress axis : x y z
#
# Youngs Moduli (GPa) = 46.26593 72.37190 75.40864
#
# Poissons Ratio (x) = -0.11279 0.66932
# Poissons Ratio (y) = -0.07210 0.57432
# Poissons Ratio (z) = 0.41065 0.55119
#
# Static dielectric constant tensor:
#      x y z
#    x 1.628750 0.000000 0.000000 
#    y 0.000000 1.617930 0.000000 
#    z 0.000000 0.000000 1.688410 
# 
# From -- ./inp_files/16500.got.cif
#   From: 2010.05.17/outbox.cif.g08.bks.cpg/sg49_9_cif.got.tgz:16500.got - 2010.06.03 21:02:19.
