data_PCOD9394114
_publ_section_title
;
Structure prediction by ZEFSAII (Michael W. Deem and Ramdas Pophale) SiO2 
 PCOD9394114
Probable space group: P C C M
;
_chemical_formula_sum "Si O2"
_cell_formula_units_Z 60
_cell_length_a 11.763181
_cell_length_b 11.828650
_cell_length_c 25.014791
_cell_angle_alpha 90.000000
_cell_angle_beta 90.000000
_cell_angle_gamma 90.000000
_cell_volume 3480.621831
_symmetry_space_group_name_H-M "P C C M"
_symmetry_group_IT_number 49
_symmetry_cell_setting 'orthorhombic'
loop_
_space_group_symop_operation_xyz
x,y,z
-x,-y,z
x,-y,1/2-z
-x,y,1/2-z
-x,-y,-z
x,y,-z
-x,y,1/2+z
x,-y,1/2+z
loop_
_atom_site_type_symbol
_atom_site_label
_atom_site_fract_x
_atom_site_fract_y
_atom_site_fract_z
Si Si1 0.866776 0.230404 0.936204
Si Si2 0.270171 1.000000 0.936262
Si Si3 0.500000 0.244326 0.685432
Si Si4 0.727132 0.635081 0.647047
Si Si5 0.866776 0.230404 0.436204
Si Si6 0.272868 0.364919 0.147047
Si Si7 0.873081 0.636863 0.750000
Si Si8 0.500000 0.000000 0.134207
O O1 0.806142 0.110440 0.924802
O O2 0.793135 0.323267 0.905250
O O3 0.000000 0.231004 0.920339
O O4 0.862625 0.247898 0.000000
O O5 0.193858 0.110440 0.924802
O O6 0.386485 1.000000 0.902599
O O7 0.296115 0.000000 0.000000
O O8 0.500000 0.261081 0.750000
O O9 0.390996 0.303051 0.658466
O O10 0.609004 0.303052 0.658466
O O11 0.500000 0.112499 0.670176
O O12 0.711396 0.500000 0.646778
O O13 0.806345 0.668631 0.697020
O O14 0.862625 0.247898 0.500000
O O15 0.793135 0.323267 0.405251
O O16 0.193655 0.331369 0.197020
O O17 0.878345 0.500000 0.750000
O O18 0.000000 0.682273 0.750000
#
# Coordination Sequence:
#
# PCOD9394114 Si02
#       8
#     8   8   8   8   8   8   8   4
#     4  10  21  38  61  88 120 157 195 240 293 350
#     4  10  20  37  62  88 113 148 200 247 290 346
#     4  12  24  41  62  85 116 154 197 245 297 350
#     4  11  22  37  59  86 118 157 198 238 289 349
#     4  10  21  38  61  88 120 157 195 240 293 350
#     4  11  22  37  59  86 118 157 198 238 289 349
#     4   9  18  33  55  81 110 149 196 239 277 334
#     4  12  22  40  64  86 112 150 194 246 302 344
#
# _framework density 17.238299000000001
#
# number of rings (size 3 to 8) (size 9 to 14) (size 15 to 20)
#    0.000    1.467    4.000    2.000    0.000    4.267 
#    0.000    2.000    0.000    1.600    0.000    5.600 
#    0.000    0.000    0.000    0.000    0.000    0.000 
#
# Total GULP energy -334864.370188 kJ/mol
# GULP energy per Si atom -5581.072836 kJ/mol
# Density = 1.719906 g / cm^3
# Si number density = 17.238299 Si / 1000 Ang^3
#
#
#
# Elastic Constant Matrix: (Units=GPa)
#
#
# Indices 1 2 3 4 5 6 
#
# 1 175.7191 59.6398 55.8443 0.0000 0.0000 0.0000
# 2 59.6398 104.4000 36.5382 0.0000 0.0000 0.0000
# 3 55.8443 36.5382 55.0915 0.0000 0.0000 0.0000
# 4 0.0000 0.0000 0.0000 26.9287 0.0000 0.0000
# 5 0.0000 0.0000 0.0000 0.0000 30.6249 0.0000
# 6 0.0000 0.0000 0.0000 0.0000 0.0000 16.8398
#
#
#
# Elastic Compliance Matrix: (Units=1/GPa)
#
#
# Indices 1 2 3 4 5 6 
#
# 1 0.008870 -0.002501 -0.007333 0.000000 0.000000 0.000000
# 2 -0.002501 0.013179 -0.006206 0.000000 0.000000 0.000000
# 3 -0.007333 -0.006206 0.029700 0.000000 0.000000 0.000000
# 4 0.000000 0.000000 0.000000 0.037135 0.000000 0.000000
# 5 0.000000 0.000000 0.000000 0.000000 0.032653 0.000000
# 6 0.000000 0.000000 0.000000 0.000000 0.000000 0.059383
#
#
# Mechanical properties :
#
#
# Convention : Reuss Voigt Hill
#
# Bulk Modulus (GPa) = 50.83625 71.02837 60.93231
# Shear Modulus (GPa) = 22.77321 27.09122 24.93221
#
# Velocity S-wave (km/s) = 3.63861 3.96861 3.80719
# Velocity P-wave (km/s) = 6.87073 7.89259 7.39933
#
# Compressibility (1/GPa) = 0.01967100
#
# Stress axis : x y z
#
# Youngs Moduli (GPa) = 112.73921 75.87789 33.66975
#
# Poissons Ratio (x) = 0.18976 0.24689
# Poissons Ratio (y) = 0.28194 0.20895
# Poissons Ratio (z) = 0.82667 0.47088
#
# Static dielectric constant tensor:
#      x y z
#    x 1.586710 0.000000 0.000000 
#    y 0.000000 1.564060 0.000000 
#    z 0.000000 0.000000 1.573930 
# 
# From -- ./inp_files/20577.got.cif
#   From: 2010.05.17/outbox.cif.g08.bks.cpg/sg49_11_cif.got.tgz:20577.got - 2010.06.03 21:02:19.
