data_PCOD9394174
_publ_section_title
;
Structure prediction by ZEFSAII (Michael W. Deem and Ramdas Pophale) SiO2 
 PCOD9394174
Probable space group: P C C M
;
_chemical_formula_sum "Si O2"
_cell_formula_units_Z 48
_cell_length_a 5.985568
_cell_length_b 14.177572
_cell_length_c 27.058777
_cell_angle_alpha 90.000000
_cell_angle_beta 90.000000
_cell_angle_gamma 90.000000
_cell_volume 2296.230039
_symmetry_space_group_name_H-M "P C C M"
_symmetry_group_IT_number 49
_symmetry_cell_setting 'orthorhombic'
loop_
_space_group_symop_operation_xyz
x,y,z
-x,-y,z
x,-y,1/2-z
-x,y,1/2-z
-x,-y,-z
x,y,-z
-x,y,1/2+z
x,-y,1/2+z
loop_
_atom_site_type_symbol
_atom_site_label
_atom_site_fract_x
_atom_site_fract_y
_atom_site_fract_z
Si Si1 0.933885 0.105224 0.118364
Si Si2 0.423049 0.103978 0.693324
Si Si3 0.300903 0.742602 0.941549
Si Si4 0.679584 0.252535 0.370080
Si Si5 0.250261 0.609984 0.766426
Si Si6 0.048486 0.391950 0.630143
O O1 0.832042 0.108301 0.174161
O O2 0.759916 0.154538 0.081195
O O3 0.145497 0.171751 0.115829
O O4 0.000000 0.000000 0.105616
O O5 0.500000 0.104737 0.750000
O O6 0.529710 0.196575 0.669041
O O7 0.500000 0.000000 0.673814
O O8 0.539374 0.718799 0.917890
O O9 0.134279 0.667157 0.916553
O O10 0.293684 0.741954 0.000000
O O11 0.820955 0.341338 0.351713
O O12 0.244889 0.500000 0.750000
O O13 0.500000 0.644841 0.750000
O O14 0.229094 0.615273 0.825908
O O15 0.000000 0.649112 0.750000
O O16 0.000000 0.500000 0.619376
#
# Coordination Sequence:
#
# PCOD9394174 Si02
#       6
#     8   8   8   8   8   8
#     4  10  20  41  68  93 133 172 221 281 350 422
#     4  10  20  38  62  96 137 180 222 267 338 426
#     4  10  25  45  67  97 131 174 235 303 366 434
#     4  10  23  42  62  94 135 173 228 286 347 421
#     4  10  21  40  67 100 137 180 234 287 348 424
#     4  11  24  45  67  98 136 186 233 296 354 425
#
# _framework density 20.903828000000001
#
# number of rings (size 3 to 8) (size 9 to 14) (size 15 to 20)
#    0.000    1.833    3.333    0.000    2.333    4.667 
#    9.000    2.500    0.000    0.000    0.000    0.000 
#    0.000    0.000    0.000    0.000    0.000    0.000 
#
# Total GULP energy -267657.191940 kJ/mol
# GULP energy per Si atom -5576.191499 kJ/mol
# Density = 2.085625 g / cm^3
# Si number density = 20.903828 Si / 1000 Ang^3
#
#
#
# Elastic Constant Matrix: (Units=GPa)
#
#
# Indices 1 2 3 4 5 6 
#
# 1 107.8501 37.1275 35.4357 0.0000 0.0000 0.0000
# 2 37.1275 145.3226 38.0734 0.0000 0.0000 0.0000
# 3 35.4357 38.0734 143.4567 0.0000 0.0000 0.0000
# 4 0.0000 0.0000 0.0000 16.1074 0.0000 0.0000
# 5 0.0000 0.0000 0.0000 0.0000 21.0036 0.0000
# 6 0.0000 0.0000 0.0000 0.0000 0.0000 17.8128
#
#
#
# Elastic Compliance Matrix: (Units=1/GPa)
#
#
# Indices 1 2 3 4 5 6 
#
# 1 0.010705 -0.002195 -0.002062 0.000000 0.000000 0.000000
# 2 -0.002195 0.007845 -0.001540 0.000000 0.000000 0.000000
# 3 -0.002062 -0.001540 0.007889 0.000000 0.000000 0.000000
# 4 0.000000 0.000000 0.000000 0.062083 0.000000 0.000000
# 5 0.000000 0.000000 0.000000 0.000000 0.047611 0.000000
# 6 0.000000 0.000000 0.000000 0.000000 0.000000 0.056139
#
#
# Mechanical properties :
#
#
# Convention : Reuss Voigt Hill
#
# Bulk Modulus (GPa) = 67.35799 68.65585 68.00692
# Shear Modulus (GPa) = 23.94464 30.05094 26.99779
#
# Velocity S-wave (km/s) = 3.38815 3.79566 3.59768
# Velocity P-wave (km/s) = 6.89919 7.21972 7.06127
#
# Compressibility (1/GPa) = 0.01484605
#
# Stress axis : x y z
#
# Youngs Moduli (GPa) = 93.41318 127.46236 126.76255
#
# Poissons Ratio (x) = 0.27975 0.26136
# Poissons Ratio (y) = 0.20502 0.19522
# Poissons Ratio (z) = 0.19260 0.19630
#
# Static dielectric constant tensor:
#      x y z
#    x 1.862830 0.000000 0.000000 
#    y 0.000000 1.739320 0.000000 
#    z 0.000000 0.000000 1.748380 
# 
# From -- ./inp_files/23931.got.cif
#   From: 2010.05.17/outbox.cif.g08.bks.cpg/sg49_12_cif.got.tgz:23931.got - 2010.06.03 21:02:19.
