data_PCOD9394476
_publ_section_title
;
Structure prediction by ZEFSAII (Michael W. Deem and Ramdas Pophale) SiO2 
 PCOD9394476
Probable space group: P C C M
;
_chemical_formula_sum "Si O2"
_cell_formula_units_Z 60
_cell_length_a 19.927987
_cell_length_b 5.708474
_cell_length_c 25.823640
_cell_angle_alpha 90.000000
_cell_angle_beta 90.000000
_cell_angle_gamma 90.000000
_cell_volume 2937.655857
_symmetry_space_group_name_H-M "P C C M"
_symmetry_group_IT_number 49
_symmetry_cell_setting 'orthorhombic'
loop_
_space_group_symop_operation_xyz
x,y,z
-x,-y,z
x,-y,1/2-z
-x,y,1/2-z
-x,-y,-z
x,y,-z
-x,y,1/2+z
x,-y,1/2+z
loop_
_atom_site_type_symbol
_atom_site_label
_atom_site_fract_x
_atom_site_fract_y
_atom_site_fract_z
Si Si1 0.500000 0.000000 0.909846
Si Si2 0.685220 0.143435 0.302107
Si Si3 0.613153 0.331656 0.943382
Si Si4 0.189726 0.536849 0.689602
Si Si5 0.265195 0.165183 0.385381
Si Si6 0.868056 0.972289 0.438555
Si Si7 0.921348 0.465742 0.604576
Si Si8 0.566088 0.392739 0.658323
O O1 0.558080 0.124529 0.942905
O O2 0.461702 0.167082 0.870408
O O3 0.759564 0.246231 0.307223
O O4 0.628450 0.339350 0.305365
O O5 0.677935 0.000000 0.250000
O O6 0.681171 0.983186 0.352798
O O7 0.690984 0.272499 0.931926
O O8 0.591933 0.464083 0.891284
O O9 0.607729 0.449856 0.000000
O O10 0.174096 0.500000 0.750000
O O11 0.232226 0.342216 0.656867
O O12 0.122416 0.562140 0.656643
O O13 0.203981 0.020368 0.409939
O O14 0.860295 0.967604 0.500000
O O15 0.907297 0.215613 0.424576
O O16 0.897997 0.714696 0.421898
O O17 0.000000 0.500000 0.613656
O O18 0.500000 0.500000 0.684154
#
# Coordination Sequence:
#
# PCOD9394476 Si02
#       8
#     4   8   8   8   8   8   8   8
#     4  10  21  38  59  82 124 166 213 258 327 400
#     4  12  22  41  72  92 118 173 224 274 344 403
#     4  11  22  37  61  89 125 168 215 267 331 397
#     4  11  23  42  68  96 128 168 222 279 337 407
#     4  11  22  40  63  96 132 165 218 282 335 397
#     4  11  24  43  69 102 142 186 232 279 336 405
#     4  11  25  44  69 103 144 184 228 283 339 405
#     4  10  23  41  63  89 131 163 215 278 334 406
#
# _framework density 20.424448999999999
#
# number of rings (size 3 to 8) (size 9 to 14) (size 15 to 20)
#    0.000    1.067    5.333    1.400    0.000    4.800 
#    0.000    1.667    2.933    1.600    0.000    0.000 
#    0.000    0.000    0.000    0.000    0.000    0.000 
#
# Total GULP energy -334361.339542 kJ/mol
# GULP energy per Si atom -5572.688992 kJ/mol
# Density = 2.037796 g / cm^3
# Si number density = 20.424449 Si / 1000 Ang^3
#
#
#
# Elastic Constant Matrix: (Units=GPa)
#
#
# Indices 1 2 3 4 5 6 
#
# 1 137.4712 40.0192 57.7334 0.0000 0.0000 0.0000
# 2 40.0192 84.4026 45.5112 0.0000 0.0000 0.0000
# 3 57.7334 45.5112 141.6705 0.0000 0.0000 0.0000
# 4 0.0000 0.0000 0.0000 22.8729 0.0000 0.0000
# 5 0.0000 0.0000 0.0000 0.0000 -4.5737 0.0000
# 6 0.0000 0.0000 0.0000 0.0000 0.0000 35.9030
#
#
#
# Elastic Compliance Matrix: (Units=1/GPa)
#
#
# Indices 1 2 3 4 5 6 
#
# 1 0.009316 -0.002867 -0.002876 0.000000 0.000000 0.000000
# 2 -0.002867 0.015212 -0.003719 0.000000 0.000000 0.000000
# 3 -0.002876 -0.003719 0.009425 0.000000 0.000000 0.000000
# 4 0.000000 0.000000 0.000000 0.043720 0.000000 0.000000
# 5 0.000000 0.000000 0.000000 0.000000 -0.218641 0.000000
# 6 0.000000 0.000000 0.000000 0.000000 0.000000 0.027853
#
#
# Mechanical properties :
#
#
# Convention : Reuss Voigt Hill
#
# Bulk Modulus (GPa) = 66.52578 72.23020 69.37799
# Shear Modulus (GPa) = -56.06562 25.52581 -15.26990
#
# Velocity S-wave (km/s) = -5.24498 3.53904 -2.73725
# Velocity P-wave (km/s) = 2.00934 7.22088 4.90427
#
# Compressibility (1/GPa) = 0.01503177
#
# Stress axis : x y z
#
# Youngs Moduli (GPa) = 107.33652 65.73582 106.09903
#
# Poissons Ratio (x) = 0.18845 0.30511
# Poissons Ratio (y) = 0.30771 0.39455
# Poissons Ratio (z) = 0.30867 0.24445
#
# Static dielectric constant tensor:
#      x y z
#    x 1.590120 0.000000 0.000000 
#    y 0.000000 1.716190 0.000000 
#    z 0.000000 0.000000 1.700440 
# 
# From -- ./inp_files/23398.got.cif
#   From: 2010.05.17/outbox.cif.g08.bks.cpg/sg49_12_cif.got.tgz:23398.got - 2010.06.03 21:02:19.
