data_PCOD9394988
_publ_section_title
;
Structure prediction by ZEFSAII (Michael W. Deem and Ramdas Pophale) SiO2 
 PCOD9394988
Probable space group: P C C M
;
_chemical_formula_sum "Si O2"
_cell_formula_units_Z 32
_cell_length_a 10.466752
_cell_length_b 8.761050
_cell_length_c 18.506434
_cell_angle_alpha 90.000000
_cell_angle_beta 90.000000
_cell_angle_gamma 90.000000
_cell_volume 1697.035142
_symmetry_space_group_name_H-M "P C C M"
_symmetry_group_IT_number 49
_symmetry_cell_setting 'orthorhombic'
loop_
_space_group_symop_operation_xyz
x,y,z
-x,-y,z
x,-y,1/2-z
-x,y,1/2-z
-x,-y,-z
x,y,-z
-x,y,1/2+z
x,-y,1/2+z
loop_
_atom_site_type_symbol
_atom_site_label
_atom_site_fract_x
_atom_site_fract_y
_atom_site_fract_z
Si Si1 0.550720 0.670557 0.077549
Si Si2 0.620089 0.890483 0.655825
Si Si3 0.270003 0.669087 0.717491
Si Si4 0.870816 0.065319 0.668769
O O1 0.500000 0.500000 0.072991
O O2 0.433632 0.784309 0.092682
O O3 0.636142 0.669387 0.149149
O O4 0.612756 0.709710 0.000000
O O5 0.666550 0.778186 0.720764
O O6 0.500000 0.000000 0.673966
O O7 0.741230 0.995534 0.635552
O O8 0.251612 0.500000 0.750000
O O9 0.145610 0.754792 0.684389
O O10 0.870377 0.000000 0.750000
O O11 0.000000 0.000000 0.634042
#
# Coordination Sequence:
#
# PCOD9394988 Si02
#       4
#     8   8   8   8
#     4  11  23  35  53  88 124 148 189 246 293 341
#     4  11  21  34  59  87 115 152 194 245 288 335
#     4  11  21  35  62  84 115 155 198 234 293 348
#     4   9  20  36  55  85 122 144 187 248 285 333
#
# _framework density 18.856415999999999
#
# number of rings (size 3 to 8) (size 9 to 14) (size 15 to 20)
#    0.000    1.500    5.000    0.750    7.000    0.500 
#    0.000   10.000    0.000    3.000    0.000    3.500 
#    0.000    1.000    0.000    0.000    0.000    0.000 
#
# Total GULP energy -178138.212209 kJ/mol
# GULP energy per Si atom -5566.819132 kJ/mol
# Density = 1.881350 g / cm^3
# Si number density = 18.856416 Si / 1000 Ang^3
#
#
#
# Elastic Constant Matrix: (Units=GPa)
#
#
# Indices 1 2 3 4 5 6 
#
# 1 114.4390 61.8641 8.3451 0.0000 0.0000 0.0000
# 2 61.8641 153.1539 30.7254 0.0000 0.0000 0.0000
# 3 8.3451 30.7254 69.1231 0.0000 0.0000 0.0000
# 4 0.0000 0.0000 0.0000 -525.6479 0.0000 0.0000
# 5 0.0000 0.0000 0.0000 0.0000 5.4613 0.0000
# 6 0.0000 0.0000 0.0000 0.0000 0.0000 16.5642
#
#
#
# Elastic Compliance Matrix: (Units=1/GPa)
#
#
# Indices 1 2 3 4 5 6 
#
# 1 0.011212 -0.004674 0.000724 0.000000 0.000000 0.000000
# 2 -0.004674 0.009117 -0.003488 0.000000 0.000000 0.000000
# 3 0.000724 -0.003488 0.015930 0.000000 0.000000 0.000000
# 4 0.000000 0.000000 0.000000 -0.001902 0.000000 0.000000
# 5 0.000000 0.000000 0.000000 0.000000 0.183106 0.000000
# 6 0.000000 0.000000 0.000000 0.000000 0.000000 0.060371
#
#
# Mechanical properties :
#
#
# Convention : Reuss Voigt Hill
#
# Bulk Modulus (GPa) = 46.76693 59.84281 53.30487
# Shear Modulus (GPa) = 16.67560 -85.00571 -34.16505
#
# Velocity S-wave (km/s) = 2.97702 -6.72149 -4.26120
# Velocity P-wave (km/s) = 6.05577 5.33225 2.02971
#
# Compressibility (1/GPa) = 0.02138263
#
# Stress axis : x y z
#
# Youngs Moduli (GPa) = 89.18738 109.68139 62.77427
#
# Poissons Ratio (x) = 0.51269 -0.04545
# Poissons Ratio (y) = 0.41689 0.21898
# Poissons Ratio (z) = -0.06458 0.38261
#
# Static dielectric constant tensor:
#      x y z
#    x 1.755690 0.000000 0.000000 
#    y 0.000000 1.700950 0.000000 
#    z 0.000000 0.000000 1.665780 
# 
# From -- ./inp_files/16761.got.cif
#   From: 2010.05.17/outbox.cif.g08.bks.cpg/sg49_9_cif.got.tgz:16761.got - 2010.06.03 21:02:19.
