data_PCOD9394331
_publ_section_title
;
Structure prediction by ZEFSAII (Michael W. Deem and Ramdas Pophale) SiO2 
 PCOD9394331
Probable space group: P C C M
;
_chemical_formula_sum "Si O2"
_cell_formula_units_Z 48
_cell_length_a 11.019557
_cell_length_b 12.102754
_cell_length_c 15.056210
_cell_angle_alpha 90.000000
_cell_angle_beta 90.000000
_cell_angle_gamma 90.000000
_cell_volume 2008.001372
_symmetry_space_group_name_H-M "P C C M"
_symmetry_group_IT_number 49
_symmetry_cell_setting 'orthorhombic'
loop_
_space_group_symop_operation_xyz
x,y,z
-x,-y,z
x,-y,1/2-z
-x,y,1/2-z
-x,-y,-z
x,y,-z
-x,y,1/2+z
x,-y,1/2+z
loop_
_atom_site_type_symbol
_atom_site_label
_atom_site_fract_x
_atom_site_fract_y
_atom_site_fract_z
Si Si1 0.783509 0.131906 0.104645
Si Si2 0.335488 0.344178 0.604555
Si Si3 0.029486 0.745255 0.647190
Si Si4 0.733859 0.887105 0.107090
Si Si5 0.399395 0.676823 0.607957
Si Si6 0.831486 0.539487 0.152567
O O1 0.704906 0.229186 0.147291
O O2 0.919721 0.181084 0.109676
O O3 0.751156 0.011622 0.141573
O O4 0.755604 0.125066 0.000000
O O5 0.355352 0.326698 0.500000
O O6 0.470639 0.370343 0.636459
O O7 0.224825 0.429827 0.609348
O O8 0.148689 0.819033 0.636955
O O9 0.066764 0.622096 0.612379
O O10 0.000000 0.728932 0.750000
O O11 0.618481 0.807986 0.125512
O O12 0.739537 0.892588 0.000000
O O13 0.381832 0.658907 0.500000
O O14 0.290011 0.614605 0.656140
O O15 0.866956 0.500000 0.250000
#
# Coordination Sequence:
#
# PCOD9394331 Si02
#       6
#     8   8   8   8   8   8
#     4  10  21  36  56  84 115 145 179 223 278 339
#     4  10  21  36  56  84 115 145 179 223 278 339
#     4  11  23  38  56  78 108 147 190 234 278 327
#     4   9  19  37  60  84 110 143 184 229 277 330
#     4   9  19  37  60  84 110 143 184 229 277 330
#     4  11  23  38  56  78 108 147 190 234 278 327
#
# _framework density 23.904366
#
# number of rings (size 3 to 8) (size 9 to 14) (size 15 to 20)
#    0.000    2.000    0.000    3.000    0.000   10.333 
#    0.000    5.000    0.000    0.000    0.000    4.667 
#    0.000    0.000    0.000    0.000    0.000    0.000 
#
# Total GULP energy -267800.250312 kJ/mol
# GULP energy per Si atom -5579.171881 kJ/mol
# Density = 2.384996 g / cm^3
# Si number density = 23.904366 Si / 1000 Ang^3
#
#
#
# Elastic Constant Matrix: (Units=GPa)
#
#
# Indices 1 2 3 4 5 6 
#
# 1 94.8192 35.3692 3.8409 0.0000 0.0000 0.0000
# 2 35.3692 180.6700 12.1109 0.0000 0.0000 0.0000
# 3 3.8409 12.1109 44.0982 0.0000 0.0000 0.0000
# 4 0.0000 0.0000 0.0000 14.0909 0.0000 0.0000
# 5 0.0000 0.0000 0.0000 0.0000 27.0397 0.0000
# 6 0.0000 0.0000 0.0000 0.0000 0.0000 28.4689
#
#
#
# Elastic Compliance Matrix: (Units=1/GPa)
#
#
# Indices 1 2 3 4 5 6 
#
# 1 0.011384 -0.002203 -0.000387 0.000000 0.000000 0.000000
# 2 -0.002203 0.006065 -0.001474 0.000000 0.000000 0.000000
# 3 -0.000387 -0.001474 0.023115 0.000000 0.000000 0.000000
# 4 0.000000 0.000000 0.000000 0.070968 0.000000 0.000000
# 5 0.000000 0.000000 0.000000 0.000000 0.036983 0.000000
# 6 0.000000 0.000000 0.000000 0.000000 0.000000 0.035126
#
#
# Mechanical properties :
#
#
# Convention : Reuss Voigt Hill
#
# Bulk Modulus (GPa) = 30.82835 46.91438 38.87137
# Shear Modulus (GPa) = 24.68173 31.80432 28.24303
#
# Velocity S-wave (km/s) = 3.21677 3.65153 3.44103
# Velocity P-wave (km/s) = 5.16927 6.11937 5.66428
#
# Compressibility (1/GPa) = 0.03243768
#
# Stress axis : x y z
#
# Youngs Moduli (GPa) = 87.84513 164.88186 43.26178
#
# Poissons Ratio (x) = 0.36317 0.01672
# Poissons Ratio (y) = 0.19349 0.06376
# Poissons Ratio (z) = 0.03396 0.24300
#
# Static dielectric constant tensor:
#      x y z
#    x 1.924190 0.000000 0.000000 
#    y 0.000000 1.975800 0.000000 
#    z 0.000000 0.000000 1.913330 
# 
# From -- ./inp_files/17121.got.cif
#   From: 2010.05.17/outbox.cif.g08.bks.cpg/sg49_9_cif.got.tgz:17121.got - 2010.06.03 21:02:19.
