data_PCOD9394816
_publ_section_title
;
Structure prediction by ZEFSAII (Michael W. Deem and Ramdas Pophale) SiO2 
 PCOD9394816
Probable space group: P C C M
;
_chemical_formula_sum "Si O2"
_cell_formula_units_Z 64
_cell_length_a 14.533031
_cell_length_b 9.177350
_cell_length_c 24.643657
_cell_angle_alpha 90.000000
_cell_angle_beta 90.000000
_cell_angle_gamma 90.000000
_cell_volume 3286.840656
_symmetry_space_group_name_H-M "P C C M"
_symmetry_group_IT_number 49
_symmetry_cell_setting 'orthorhombic'
loop_
_space_group_symop_operation_xyz
x,y,z
-x,-y,z
x,-y,1/2-z
-x,y,1/2-z
-x,-y,-z
x,y,-z
-x,y,1/2+z
x,-y,1/2+z
loop_
_atom_site_type_symbol
_atom_site_label
_atom_site_fract_x
_atom_site_fract_y
_atom_site_fract_z
Si Si1 0.807971 0.365762 0.659923
Si Si2 0.257510 0.170816 0.937161
Si Si3 0.576301 0.851058 0.864617
Si Si4 0.373274 0.654365 0.272591
Si Si5 0.108064 0.836882 0.743077
Si Si6 0.098615 0.926849 0.935967
Si Si7 0.819237 0.294150 0.146492
Si Si8 0.627086 0.853006 0.667432
O O1 0.772964 0.294555 0.604582
O O2 0.730747 0.366758 0.706994
O O3 0.877581 0.250938 0.687258
O O4 0.830264 0.532098 0.645989
O O5 0.362799 0.141447 0.918623
O O6 0.184766 0.038512 0.929012
O O7 0.253106 0.211512 0.000000
O O8 0.581929 0.705505 0.828505
O O9 0.465949 0.859603 0.869227
O O10 0.632009 0.971163 0.827194
O O11 0.403647 0.500000 0.250000
O O12 0.387242 0.772443 0.224880
O O13 0.148075 0.751900 0.794075
O O14 0.000000 0.848744 0.750000
O O15 0.148658 0.000000 0.750000
O O16 0.120598 0.789340 0.898293
O O17 0.094219 0.889309 0.000000
O O18 0.000000 0.000000 0.921656
O O19 0.714207 0.230987 0.141974
#
# Coordination Sequence:
#
# PCOD9394816 Si02
#       8
#     8   8   8   8   8   8   8   8
#     4  11  23  40  61  95 130 173 209 260 327 392
#     4  10  22  43  66  88 123 166 213 267 320 379
#     4  10  23  37  60  89 121 159 215 259 310 376
#     4  11  20  36  55  88 126 165 203 248 309 375
#     4  11  25  40  62  94 132 174 215 259 319 393
#     4  10  23  44  70  96 121 165 226 274 324 392
#     4  12  23  40  65  91 135 165 208 265 329 384
#     4  11  21  38  57  90 122 163 205 254 316 377
#
# _framework density 19.471585999999999
#
# number of rings (size 3 to 8) (size 9 to 14) (size 15 to 20)
#    0.000    1.250    3.750    1.875    5.250    3.500 
#    0.000    1.875    0.000    3.000    0.000    0.000 
#    0.000    0.000    0.000    0.000    0.000    0.000 
#
# Total GULP energy -356498.012609 kJ/mol
# GULP energy per Si atom -5570.281447 kJ/mol
# Density = 1.942727 g / cm^3
# Si number density = 19.471586 Si / 1000 Ang^3
#
#
#
# Elastic Constant Matrix: (Units=GPa)
#
#
# Indices 1 2 3 4 5 6 
#
# 1 92.6731 26.4136 46.0267 0.0000 0.0000 0.0000
# 2 26.4136 117.0710 64.7748 0.0000 0.0000 0.0000
# 3 46.0267 64.7748 113.8107 0.0000 0.0000 0.0000
# 4 0.0000 0.0000 0.0000 20.1437 0.0000 0.0000
# 5 0.0000 0.0000 0.0000 0.0000 20.4469 0.0000
# 6 0.0000 0.0000 0.0000 0.0000 0.0000 -8.9828
#
#
#
# Elastic Compliance Matrix: (Units=1/GPa)
#
#
# Indices 1 2 3 4 5 6 
#
# 1 0.013503 -0.000037 -0.005440 0.000000 0.000000 0.000000
# 2 -0.000037 0.012468 -0.007081 0.000000 0.000000 0.000000
# 3 -0.005440 -0.007081 0.015017 0.000000 0.000000 0.000000
# 4 0.000000 0.000000 0.000000 0.049643 0.000000 0.000000
# 5 0.000000 0.000000 0.000000 0.000000 0.048907 0.000000
# 6 0.000000 0.000000 0.000000 0.000000 0.000000 -0.111324
#
#
# Mechanical properties :
#
#
# Convention : Reuss Voigt Hill
#
# Bulk Modulus (GPa) = 63.00402 66.44277 64.72340
# Shear Modulus (GPa) = 85.29309 18.74419 52.01864
#
# Velocity S-wave (km/s) = 6.62563 3.10602 5.17428
# Velocity P-wave (km/s) = 9.53725 6.86004 8.30720
#
# Compressibility (1/GPa) = 0.01587200
#
# Stress axis : x y z
#
# Youngs Moduli (GPa) = 74.05861 80.20416 66.59203
#
# Poissons Ratio (x) = 0.00294 0.36225
# Poissons Ratio (y) = 0.00271 0.47156
# Poissons Ratio (z) = 0.40287 0.56796
#
# Static dielectric constant tensor:
#      x y z
#    x 2.162820 0.000000 0.000000 
#    y 0.000000 1.782080 0.000000 
#    z 0.000000 0.000000 1.644360 
# 
# From -- ./inp_files/23227.got.cif
#   From: 2010.05.17/outbox.cif.g08.bks.cpg/sg49_12_cif.got.tgz:23227.got - 2010.06.03 21:02:19.
