data_PCOD9394614
_publ_section_title
;
Structure prediction by ZEFSAII (Michael W. Deem and Ramdas Pophale) SiO2 
 PCOD9394614
Probable space group: P C C M
;
_chemical_formula_sum "Si O2"
_cell_formula_units_Z 52
_cell_length_a 22.671269
_cell_length_b 5.237330
_cell_length_c 20.653901
_cell_angle_alpha 90.000000
_cell_angle_beta 90.000000
_cell_angle_gamma 90.000000
_cell_volume 2452.380534
_symmetry_space_group_name_H-M "P C C M"
_symmetry_group_IT_number 49
_symmetry_cell_setting 'orthorhombic'
loop_
_space_group_symop_operation_xyz
x,y,z
-x,-y,z
x,-y,1/2-z
-x,y,1/2-z
-x,-y,-z
x,y,-z
-x,y,1/2+z
x,-y,1/2+z
loop_
_atom_site_type_symbol
_atom_site_label
_atom_site_fract_x
_atom_site_fract_y
_atom_site_fract_z
Si Si1 0.249698 0.500000 0.750000
Si Si2 0.026080 0.744941 0.822632
Si Si3 0.663846 0.245617 0.157967
Si Si4 0.848598 0.441101 0.146589
Si Si5 0.829544 0.918902 0.072821
Si Si6 0.526192 0.251365 0.177121
Si Si7 0.693862 0.749233 0.925301
O O1 0.292923 0.713872 0.780256
O O2 0.203200 0.454122 0.807322
O O3 0.095665 0.692231 0.818391
O O4 0.000000 0.500000 0.857795
O O5 0.000000 0.747868 0.750000
O O6 0.000000 0.000000 0.853347
O O7 0.596251 0.259656 0.180175
O O8 0.678380 0.483548 0.110105
O O9 0.671598 0.982536 0.119203
O O10 0.866700 0.697719 0.108535
O O11 0.825757 0.199506 0.104767
O O12 0.764082 0.797296 0.071001
O O13 0.851111 0.953952 0.000000
O O14 0.500000 0.500000 0.143686
O O15 0.500000 0.250811 0.250000
O O16 0.500000 0.000000 0.144801
O O17 0.672140 0.754341 0.000000
#
# Coordination Sequence:
#
# PCOD9394614 Si02
#       7
#     4   8   8   8   8   8   8
#     4  12  24  38  60 110 140 162 204 278 360 390
#     4  10  21  40  61  90 125 179 216 252 322 402
#     4  12  24  40  67 100 136 167 219 277 328 407
#     4  12  24  40  67 100 136 167 219 277 328 407
#     4  11  23  44  66  94 133 178 222 264 330 399
#     4  10  21  40  61  90 125 179 216 252 322 402
#     4  11  23  44  66  94 133 178 222 264 330 399
#
# _framework density 21.203889
#
# number of rings (size 3 to 8) (size 9 to 14) (size 15 to 20)
#    0.000    0.923    3.077    4.615    0.000    7.385 
#    0.000    0.000    0.000   18.462    0.000    0.000 
#    0.000    0.000    0.000    0.000    0.000    0.000 
#
# Total GULP energy -290047.632186 kJ/mol
# GULP energy per Si atom -5577.839081 kJ/mol
# Density = 2.115563 g / cm^3
# Si number density = 21.203889 Si / 1000 Ang^3
#
#
#
# Elastic Constant Matrix: (Units=GPa)
#
#
# Indices 1 2 3 4 5 6 
#
# 1 116.1142 5.6292 26.5503 0.0000 0.0000 0.0000
# 2 5.6292 161.4533 40.5059 0.0000 0.0000 0.0000
# 3 26.5503 40.5059 100.7120 0.0000 0.0000 0.0000
# 4 0.0000 0.0000 0.0000 55.5272 0.0000 0.0000
# 5 0.0000 0.0000 0.0000 0.0000 9.9203 0.0000
# 6 0.0000 0.0000 0.0000 0.0000 0.0000 30.8740
#
#
#
# Elastic Compliance Matrix: (Units=1/GPa)
#
#
# Indices 1 2 3 4 5 6 
#
# 1 0.009179 0.000319 -0.002548 0.000000 0.000000 0.000000
# 2 0.000319 0.006900 -0.002859 0.000000 0.000000 0.000000
# 3 -0.002548 -0.002859 0.011751 0.000000 0.000000 0.000000
# 4 0.000000 0.000000 0.000000 0.018009 0.000000 0.000000
# 5 0.000000 0.000000 0.000000 0.000000 0.100803 0.000000
# 6 0.000000 0.000000 0.000000 0.000000 0.000000 0.032390
#
#
# Mechanical properties :
#
#
# Convention : Reuss Voigt Hill
#
# Bulk Modulus (GPa) = 56.64511 58.18335 57.41423
# Shear Modulus (GPa) = 25.62871 39.63725 32.63298
#
# Velocity S-wave (km/s) = 3.48038 4.32828 3.92728
# Velocity P-wave (km/s) = 6.55158 7.24418 6.90657
#
# Compressibility (1/GPa) = 0.01765377
#
# Stress axis : x y z
#
# Youngs Moduli (GPa) = 108.93922 144.92836 85.09830
#
# Poissons Ratio (x) = -0.04627 0.21686
# Poissons Ratio (y) = -0.03478 0.24332
# Poissons Ratio (z) = 0.27762 0.41439
#
# Static dielectric constant tensor:
#      x y z
#    x 1.788770 0.000000 0.000000 
#    y 0.000000 1.831650 0.000000 
#    z 0.000000 0.000000 1.791280 
# 
# From -- ./inp_files/21186.got.cif
#   From: 2010.05.17/outbox.cif.g08.bks.cpg/sg49_11_cif.got.tgz:21186.got - 2010.06.03 21:02:19.
