data_PCOD9394007
_publ_section_title
;
Structure prediction by ZEFSAII (Michael W. Deem and Ramdas Pophale) SiO2 
 PCOD9394007
Probable space group: P C C M
;
_chemical_formula_sum "Si O2"
_cell_formula_units_Z 64
_cell_length_a 22.536860
_cell_length_b 8.919322
_cell_length_c 17.325848
_cell_angle_alpha 90.000000
_cell_angle_beta 90.000000
_cell_angle_gamma 90.000000
_cell_volume 3482.729541
_symmetry_space_group_name_H-M "P C C M"
_symmetry_group_IT_number 49
_symmetry_cell_setting 'orthorhombic'
loop_
_space_group_symop_operation_xyz
x,y,z
-x,-y,z
x,-y,1/2-z
-x,y,1/2-z
-x,-y,-z
x,y,-z
-x,y,1/2+z
x,-y,1/2+z
loop_
_atom_site_type_symbol
_atom_site_label
_atom_site_fract_x
_atom_site_fract_y
_atom_site_fract_z
Si Si1 0.250588 0.352490 0.593193
Si Si2 0.380045 0.316059 0.590630
Si Si3 0.157495 0.897366 0.322478
Si Si4 0.128067 0.812723 0.091357
Si Si5 0.069341 0.674421 0.234097
Si Si6 0.610480 0.324344 0.410022
Si Si7 0.496222 0.831644 0.841604
Si Si8 0.743858 0.700925 0.093993
O O1 0.256167 0.356612 0.500000
O O2 0.313422 0.286677 0.621358
O O3 0.193335 0.254485 0.610953
O O4 0.243755 0.526746 0.616161
O O5 0.383117 0.274516 0.500000
O O6 0.387471 0.495616 0.595808
O O7 0.434066 0.239321 0.633454
O O8 0.109965 0.780298 0.287856
O O9 0.210480 0.809187 0.363764
O O10 0.177468 0.000000 0.250000
O O11 0.128422 0.014318 0.382551
O O12 0.083836 0.721127 0.146177
O O13 0.117954 0.795711 0.000000
O O14 0.083017 0.500000 0.250000
O O15 0.000000 0.699150 0.250000
O O16 0.605192 0.286072 0.500000
O O17 0.552940 0.261349 0.369205
O O18 0.675291 0.267366 0.384199
O O19 0.500000 0.837070 0.750000
O O20 0.500000 0.000000 0.873462
O O21 0.748780 0.712525 0.000000
#
# Coordination Sequence:
#
# PCOD9394007 Si02
#       8
#     8   8   8   8   8   8   8   8
#     4   8  16  32  57  85 109 136 178 234 279 321
#     4   9  18  35  59  81 100 131 180 227 274 326
#     4  10  21  35  54  85 119 155 184 228 283 340
#     4  10  20  36  59  89 122 155 192 233 285 345
#     4  10  22  42  63  84 117 157 199 240 284 332
#     4   9  19  36  58  79 100 133 180 231 275 325
#     4  11  24  38  47  70 107 144 177 222 274 332
#     4   9  17  34  57  82 110 142 187 234 274 326
#
# _framework density 18.376391000000002
#
# number of rings (size 3 to 8) (size 9 to 14) (size 15 to 20)
#    0.000    2.500    0.000    3.375    0.000    6.250 
#    6.750    6.250    0.000    0.000    0.000    0.000 
#    0.000    0.000    0.000    0.000    0.000    0.000 
#
# Total GULP energy -357008.641246 kJ/mol
# GULP energy per Si atom -5578.260019 kJ/mol
# Density = 1.833457 g / cm^3
# Si number density = 18.376391 Si / 1000 Ang^3
#
#
#
# Elastic Constant Matrix: (Units=GPa)
#
#
# Indices 1 2 3 4 5 6 
#
# 1 125.7218 64.7078 64.6728 0.0000 0.0000 0.0000
# 2 64.7078 74.9978 47.5058 0.0000 0.0000 0.0000
# 3 64.6728 47.5058 74.3863 0.0000 0.0000 0.0000
# 4 0.0000 0.0000 0.0000 36.1671 0.0000 0.0000
# 5 0.0000 0.0000 0.0000 0.0000 24.6912 0.0000
# 6 0.0000 0.0000 0.0000 0.0000 0.0000 -16.2333
#
#
#
# Elastic Compliance Matrix: (Units=1/GPa)
#
#
# Indices 1 2 3 4 5 6 
#
# 1 0.017474 -0.009158 -0.009344 0.000000 0.000000 0.000000
# 2 -0.009158 0.027192 -0.009403 0.000000 0.000000 0.000000
# 3 -0.009344 -0.009403 0.027572 0.000000 0.000000 0.000000
# 4 0.000000 0.000000 0.000000 0.027649 0.000000 0.000000
# 5 0.000000 0.000000 0.000000 0.000000 0.040500 0.000000
# 6 0.000000 0.000000 0.000000 0.000000 0.000000 -0.061602
#
#
# Mechanical properties :
#
#
# Convention : Reuss Voigt Hill
#
# Bulk Modulus (GPa) = 60.87245 69.87542 65.37393
# Shear Modulus (GPa) = 35.69598 15.47298 25.58448
#
# Velocity S-wave (km/s) = 4.41215 2.90488 3.73533
# Velocity P-wave (km/s) = 7.69112 7.02554 7.36585
#
# Compressibility (1/GPa) = 0.01642779
#
# Stress axis : x y z
#
# Youngs Moduli (GPa) = 57.22744 36.77604 36.26839
#
# Poissons Ratio (x) = 0.33680 0.33888
# Poissons Ratio (y) = 0.52409 0.34104
# Poissons Ratio (z) = 0.53471 0.34582
#
# Static dielectric constant tensor:
#      x y z
#    x 1.624720 0.000000 0.000000 
#    y 0.000000 1.631190 0.000000 
#    z 0.000000 0.000000 1.628490 
# 
# From -- ./inp_files/18333.got.cif
#   From: 2010.05.17/outbox.cif.g08.bks.cpg/sg49_10_cif.got.tgz:18333.got - 2010.06.03 21:02:19.
