data_PCOD9394474
_publ_section_title
;
Structure prediction by ZEFSAII (Michael W. Deem and Ramdas Pophale) SiO2 
 PCOD9394474
Probable space group: P C C M
;
_chemical_formula_sum "Si O2"
_cell_formula_units_Z 64
_cell_length_a 25.102742
_cell_length_b 9.011030
_cell_length_c 15.047952
_cell_angle_alpha 90.000000
_cell_angle_beta 90.000000
_cell_angle_gamma 90.000000
_cell_volume 3403.870236
_symmetry_space_group_name_H-M "P C C M"
_symmetry_group_IT_number 49
_symmetry_cell_setting 'orthorhombic'
loop_
_space_group_symop_operation_xyz
x,y,z
-x,-y,z
x,-y,1/2-z
-x,y,1/2-z
-x,-y,-z
x,y,-z
-x,y,1/2+z
x,-y,1/2+z
loop_
_atom_site_type_symbol
_atom_site_label
_atom_site_fract_x
_atom_site_fract_y
_atom_site_fract_z
Si Si1 0.000000 0.319058 0.397595
Si Si2 0.793009 0.321272 0.750000
Si Si3 0.916049 0.319706 0.250000
Si Si4 0.390366 0.667110 0.105804
Si Si5 0.500000 0.833441 0.644599
Si Si6 0.718202 0.176174 0.106229
Si Si7 0.281798 0.823826 0.606229
Si Si8 0.609634 0.667110 0.105804
O O1 0.000000 0.268053 0.500000
O O2 0.051007 0.273706 0.337961
O O3 0.000000 0.500000 0.399983
O O4 0.948993 0.273706 0.337961
O O5 0.790271 0.500000 0.750000
O O6 0.854799 0.273884 0.750000
O O7 0.762737 0.257783 0.836048
O O8 0.762737 0.257783 0.663952
O O9 0.916753 0.500000 0.250000
O O10 0.446477 0.746513 0.120685
O O11 0.339411 0.761003 0.136057
O O12 0.390275 0.500000 0.142644
O O13 0.384288 0.656216 0.000000
O O14 0.500000 0.845316 0.750000
O O15 0.446477 0.746513 0.620685
O O16 0.500000 0.000000 0.606405
O O17 0.720061 0.000000 0.121213
O O18 0.724557 0.202135 0.000000
O O19 0.275443 0.797865 0.500000
O O20 0.339411 0.761003 0.636057
O O21 0.615712 0.656216 0.000000
#
# Coordination Sequence:
#
# PCOD9394474 Si02
#       8
#     8   8   8   8   8   8   8   8
#     4   8  13  25  46  71 107 152 188 224 272 326
#     4  11  22  35  56  85 119 154 187 236 289 336
#     4   8  16  28  43  74 113 147 187 226 273 333
#     4  10  21  38  59  81 105 135 176 229 285 338
#     4  11  24  37  52  78 110 143 178 219 271 339
#     4  10  22  40  60  81 109 149 194 237 284 343
#     4  10  22  40  60  81 109 149 194 237 284 343
#     4  10  21  38  59  81 105 135 176 229 285 338
#
# _framework density 18.802126000000001
#
# number of rings (size 3 to 8) (size 9 to 14) (size 15 to 20)
#    0.000    2.250    0.000    3.375    1.750    6.500 
#    0.000    2.500    0.000    0.000    0.000    7.000 
#    0.000   12.000    0.000    0.000    0.000    0.000 
#
# Total GULP energy -357135.557909 kJ/mol
# GULP energy per Si atom -5580.243092 kJ/mol
# Density = 1.875933 g / cm^3
# Si number density = 18.802126 Si / 1000 Ang^3
#
#
#
# Elastic Constant Matrix: (Units=GPa)
#
#
# Indices 1 2 3 4 5 6 
#
# 1 204.4196 70.6465 71.5886 0.0000 0.0000 0.0000
# 2 70.6465 103.3085 45.7837 0.0000 0.0000 0.0000
# 3 71.5886 45.7837 110.6483 0.0000 0.0000 0.0000
# 4 0.0000 0.0000 0.0000 23.0496 0.0000 0.0000
# 5 0.0000 0.0000 0.0000 0.0000 18.9823 0.0000
# 6 0.0000 0.0000 0.0000 0.0000 0.0000 -8.9067
#
#
#
# Elastic Compliance Matrix: (Units=1/GPa)
#
#
# Indices 1 2 3 4 5 6 
#
# 1 0.007238 -0.003520 -0.003227 0.000000 0.000000 0.000000
# 2 -0.003520 0.013565 -0.003336 0.000000 0.000000 0.000000
# 3 -0.003227 -0.003336 0.012505 0.000000 0.000000 0.000000
# 4 0.000000 0.000000 0.000000 0.043385 0.000000 0.000000
# 5 0.000000 0.000000 0.000000 0.000000 0.052681 0.000000
# 6 0.000000 0.000000 0.000000 0.000000 0.000000 -0.112275
#
#
# Mechanical properties :
#
#
# Convention : Reuss Voigt Hill
#
# Bulk Modulus (GPa) = 76.07712 88.26819 82.17266
# Shear Modulus (GPa) = 120.06307 21.98222 71.02265
#
# Velocity S-wave (km/s) = 7.99967 3.42297 6.15270
# Velocity P-wave (km/s) = 11.21945 7.91644 9.70943
#
# Compressibility (1/GPa) = 0.01314456
#
# Stress axis : x y z
#
# Youngs Moduli (GPa) = 138.15273 73.71901 79.96491
#
# Poissons Ratio (x) = 0.25948 0.25802
# Poissons Ratio (y) = 0.48628 0.26673
# Poissons Ratio (z) = 0.44578 0.24589
#
# Static dielectric constant tensor:
#      x y z
#    x 1.653300 0.000000 0.000000 
#    y 0.000000 1.657000 0.000000 
#    z 0.000000 0.000000 1.668320 
# 
# From -- ./inp_files/14542.got.cif
#   From: 2010.05.17/outbox.cif.g08.bks.cpg/sg49_8_cif.got.tgz:14542.got - 2010.06.03 21:02:19.
