data_PCOD9394028
_publ_section_title
;
Structure prediction by ZEFSAII (Michael W. Deem and Ramdas Pophale) SiO2 
 PCOD9394028
Probable space group: P C C M
;
_chemical_formula_sum "Si O2"
_cell_formula_units_Z 64
_cell_length_a 11.949751
_cell_length_b 16.638498
_cell_length_c 15.075331
_cell_angle_alpha 90.000000
_cell_angle_beta 90.000000
_cell_angle_gamma 90.000000
_cell_volume 2997.366376
_symmetry_space_group_name_H-M "P C C M"
_symmetry_group_IT_number 49
_symmetry_cell_setting 'orthorhombic'
loop_
_space_group_symop_operation_xyz
x,y,z
-x,-y,z
x,-y,1/2-z
-x,y,1/2-z
-x,-y,-z
x,y,-z
-x,y,1/2+z
x,-y,1/2+z
loop_
_atom_site_type_symbol
_atom_site_label
_atom_site_fract_x
_atom_site_fract_y
_atom_site_fract_z
Si Si1 0.802735 0.830454 0.598046
Si Si2 0.446598 0.588205 0.906739
Si Si3 0.598506 0.287155 0.325117
Si Si4 0.751049 0.406240 0.229375
Si Si5 0.237758 0.839037 0.298058
Si Si6 0.950118 0.751749 0.900025
Si Si7 0.870578 0.014927 0.397376
Si Si8 0.952827 0.412077 0.103526
O O1 0.754850 0.806848 0.500000
O O2 0.742955 0.820063 0.693194
O O3 0.924031 0.787398 0.603390
O O4 0.820769 0.926110 0.597096
O O5 0.500000 0.500000 0.900213
O O6 0.536334 0.658756 0.897719
O O7 0.358353 0.594513 0.830828
O O8 0.386178 0.594155 0.000000
O O9 0.500000 0.278037 0.250000
O O10 0.707444 0.342950 0.301355
O O11 0.654371 0.201174 0.344862
O O12 0.769032 0.500000 0.250000
O O13 0.856800 0.384272 0.170110
O O14 0.125982 0.792722 0.327781
O O15 0.202822 0.927979 0.332960
O O16 0.954017 0.656149 0.888783
O O17 0.908115 0.768210 0.000000
O O18 0.874920 0.046834 0.500000
O O19 0.000000 0.000000 0.368108
O O20 0.000000 0.500000 0.125132
O O21 0.915805 0.413271 0.000000
#
# Coordination Sequence:
#
# PCOD9394028 Si02
#       8
#     8   8   8   8   8   8   8   8
#     4  10  21  37  58  88 126 166 208 246 295 384
#     4  10  20  37  62  86 112 152 210 276 336 375
#     4  10  24  41  59  89 120 154 213 274 321 369
#     4  11  21  37  58  81 111 159 207 263 308 374
#     4  12  22  36  63  92 122 167 209 256 326 382
#     4  10  21  36  55  83 124 163 204 256 308 381
#     4  10  20  36  60  95 133 164 200 251 307 380
#     4  10  23  40  55  81 122 163 205 253 312 384
#
# _framework density 21.352077999999999
#
# number of rings (size 3 to 8) (size 9 to 14) (size 15 to 20)
#    0.000    1.625    2.500    2.250    1.750    1.750 
#    0.000    2.500    0.000    1.500    0.000    1.750 
#    0.000    0.000    0.000    0.000    0.000    0.000 
#
# Total GULP energy -356843.286786 kJ/mol
# GULP energy per Si atom -5575.676356 kJ/mol
# Density = 2.130348 g / cm^3
# Si number density = 21.352078 Si / 1000 Ang^3
#
#
#
# Elastic Constant Matrix: (Units=GPa)
#
#
# Indices 1 2 3 4 5 6 
#
# 1 43.3771 14.1964 9.6154 0.0000 0.0000 0.0000
# 2 14.1964 106.7852 10.5841 0.0000 0.0000 0.0000
# 3 9.6154 10.5841 67.0013 0.0000 0.0000 0.0000
# 4 0.0000 0.0000 0.0000 -92.8425 0.0000 0.0000
# 5 0.0000 0.0000 0.0000 0.0000 17.0105 0.0000
# 6 0.0000 0.0000 0.0000 0.0000 0.0000 33.2878
#
#
#
# Elastic Compliance Matrix: (Units=1/GPa)
#
#
# Indices 1 2 3 4 5 6 
#
# 1 0.024711 -0.002980 -0.003075 0.000000 0.000000 0.000000
# 2 -0.002980 0.009873 -0.001132 0.000000 0.000000 0.000000
# 3 -0.003075 -0.001132 0.015545 0.000000 0.000000 0.000000
# 4 0.000000 0.000000 0.000000 -0.010771 0.000000 0.000000
# 5 0.000000 0.000000 0.000000 0.000000 0.058787 0.000000
# 6 0.000000 0.000000 0.000000 0.000000 0.000000 0.030041
#
#
# Mechanical properties :
#
#
# Convention : Reuss Voigt Hill
#
# Bulk Modulus (GPa) = 27.96918 31.77282 29.87100
# Shear Modulus (GPa) = 32.36669 3.67566 18.02117
#
# Velocity S-wave (km/s) = 3.89762 1.31346 2.90832
# Velocity P-wave (km/s) = 5.77778 4.14885 5.02970
#
# Compressibility (1/GPa) = 0.03575364
#
# Stress axis : x y z
#
# Youngs Moduli (GPa) = 40.46818 101.28636 64.32826
#
# Poissons Ratio (x) = 0.30186 0.19784
# Poissons Ratio (y) = 0.12061 0.07281
# Poissons Ratio (z) = 0.12446 0.11465
#
# Static dielectric constant tensor:
#      x y z
#    x 1.738070 0.000000 0.000000 
#    y 0.000000 1.567230 0.000000 
#    z 0.000000 0.000000 1.847270 
# 
# From -- ./inp_files/13061.got.cif
#   From: 2010.05.17/outbox.cif.g08.bks.cpg/sg49_7_cif.got.tgz:13061.got - 2010.06.03 21:02:19.
