data_PCOD9394547
_publ_section_title
;
Structure prediction by ZEFSAII (Michael W. Deem and Ramdas Pophale) SiO2 
 PCOD9394547
Probable space group: P C C M
;
_chemical_formula_sum "Si O2"
_cell_formula_units_Z 48
_cell_length_a 9.091403
_cell_length_b 16.193423
_cell_length_c 15.060061
_cell_angle_alpha 90.000000
_cell_angle_beta 90.000000
_cell_angle_gamma 90.000000
_cell_volume 2217.156253
_symmetry_space_group_name_H-M "P C C M"
_symmetry_group_IT_number 49
_symmetry_cell_setting 'orthorhombic'
loop_
_space_group_symop_operation_xyz
x,y,z
-x,-y,z
x,-y,1/2-z
-x,y,1/2-z
-x,-y,-z
x,y,-z
-x,y,1/2+z
x,-y,1/2+z
loop_
_atom_site_type_symbol
_atom_site_label
_atom_site_fract_x
_atom_site_fract_y
_atom_site_fract_z
Si Si1 0.331078 0.843216 0.277937
Si Si2 0.663407 0.513198 0.855182
Si Si3 0.097885 0.625489 0.900178
Si Si4 0.211964 0.310287 0.105964
Si Si5 0.066136 0.083290 0.150441
Si Si6 0.821643 0.807884 0.404179
O O1 0.500000 0.852556 0.250000
O O2 0.287923 0.759622 0.332299
O O3 0.241237 0.910833 0.336685
O O4 0.255845 0.842621 0.181513
O O5 0.500000 0.500000 0.892755
O O6 0.653219 0.500000 0.750000
O O7 0.797953 0.450918 0.877599
O O8 0.698736 0.605545 0.883741
O O9 0.192242 0.709351 0.899725
O O10 0.947003 0.657741 0.855468
O O11 0.046149 0.607815 0.000000
O O12 0.206527 0.287183 0.000000
O O13 0.000000 0.085976 0.250000
O O14 0.991797 0.161811 0.102807
O O15 0.000000 0.000000 0.109465
O O16 0.764805 0.835835 0.500000
#
# Coordination Sequence:
#
# PCOD9394547 Si02
#       6
#     8   8   8   8   8   8
#     4  11  24  40  66 100 138 174 215 276 345 408
#     4  11  25  39  57  88 129 177 229 286 343 394
#     4  10  21  39  61  86 121 166 224 277 326 385
#     4  11  24  41  64  93 131 178 231 282 337 403
#     4   9  19  40  67  96 129 169 217 264 324 403
#     4  10  21  39  64  95 127 172 224 270 328 407
#
# _framework density 21.649353000000001
#
# number of rings (size 3 to 8) (size 9 to 14) (size 15 to 20)
#    0.000    1.667    1.667    2.000    4.667    6.333 
#    0.000    6.667    0.000    1.000    0.000    0.000 
#    0.000    0.000    0.000    0.000    0.000    0.000 
#
# Total GULP energy -267217.291860 kJ/mol
# GULP energy per Si atom -5567.026914 kJ/mol
# Density = 2.160008 g / cm^3
# Si number density = 21.649353 Si / 1000 Ang^3
#
#
#
# Elastic Constant Matrix: (Units=GPa)
#
#
# Indices 1 2 3 4 5 6 
#
# 1 152.7740 40.6177 25.9765 0.0000 0.0000 0.0000
# 2 40.6177 96.7782 14.3250 0.0000 0.0000 0.0000
# 3 25.9765 14.3250 97.9046 0.0000 0.0000 0.0000
# 4 0.0000 0.0000 0.0000 -2.3427 0.0000 0.0000
# 5 0.0000 0.0000 0.0000 0.0000 24.6953 0.0000
# 6 0.0000 0.0000 0.0000 0.0000 0.0000 -18.7368
#
#
#
# Elastic Compliance Matrix: (Units=1/GPa)
#
#
# Indices 1 2 3 4 5 6 
#
# 1 0.007601 -0.002956 -0.001584 0.000000 0.000000 0.000000
# 2 -0.002956 0.011711 -0.000929 0.000000 0.000000 0.000000
# 3 -0.001584 -0.000929 0.010770 0.000000 0.000000 0.000000
# 4 0.000000 0.000000 0.000000 -0.426858 0.000000 0.000000
# 5 0.000000 0.000000 0.000000 0.000000 0.040494 0.000000
# 6 0.000000 0.000000 0.000000 0.000000 0.000000 -0.053371
#
#
# Mechanical properties :
#
#
# Convention : Reuss Voigt Hill
#
# Bulk Modulus (GPa) = 52.23613 56.58835 54.41224
# Shear Modulus (GPa) = -12.74425 18.49232 2.87404
#
# Velocity S-wave (km/s) = -2.42888 2.92580 1.15344
# Velocity P-wave (km/s) = 4.03915 6.13262 5.19248
#
# Compressibility (1/GPa) = 0.01914384
#
# Stress axis : x y z
#
# Youngs Moduli (GPa) = 131.56562 85.39054 92.84765
#
# Poissons Ratio (x) = 0.25237 0.14709
# Poissons Ratio (y) = 0.38885 0.08628
# Poissons Ratio (z) = 0.20843 0.07935
#
# Static dielectric constant tensor:
#      x y z
#    x 1.885820 0.000000 0.000000 
#    y 0.000000 1.849050 0.000000 
#    z 0.000000 0.000000 1.807590 
# 
# From -- ./inp_files/11857.got.cif
#   From: 2010.05.17/outbox.cif.g08.bks.cpg/sg49_6_cif.got.tgz:11857.got - 2010.06.03 21:02:19.
