data_PCOD9394243
_publ_section_title
;
Structure prediction by ZEFSAII (Michael W. Deem and Ramdas Pophale) SiO2 
 PCOD9394243
Probable space group: P C C M
;
_chemical_formula_sum "Si O2"
_cell_formula_units_Z 38
_cell_length_a 7.934241
_cell_length_b 24.933326
_cell_length_c 9.137328
_cell_angle_alpha 90.000000
_cell_angle_beta 90.000000
_cell_angle_gamma 90.000000
_cell_volume 1807.610345
_symmetry_space_group_name_H-M "P C C M"
_symmetry_group_IT_number 49
_symmetry_cell_setting 'orthorhombic'
loop_
_space_group_symop_operation_xyz
x,y,z
-x,-y,z
x,-y,1/2-z
-x,y,1/2-z
-x,-y,-z
x,y,-z
-x,y,1/2+z
x,-y,1/2+z
loop_
_atom_site_type_symbol
_atom_site_label
_atom_site_fract_x
_atom_site_fract_y
_atom_site_fract_z
Si Si1 0.825658 0.338639 0.677161
Si Si2 0.335474 0.771658 0.669338
Si Si3 0.500000 0.000000 0.750000
Si Si4 0.686583 0.445628 0.178535
Si Si5 0.269798 0.025668 0.000000
Si Si6 0.000000 0.164256 0.250000
Si Si7 0.085570 0.914271 0.000000
O O1 0.837821 0.345593 0.500000
O O2 0.694698 0.290881 0.707988
O O3 0.778952 0.393398 0.759637
O O4 0.000000 0.320652 0.750000
O O5 0.500000 0.793722 0.750000
O O6 0.375564 0.774618 0.500000
O O7 0.155069 0.800440 0.691146
O O8 0.381301 0.034345 0.856508
O O9 0.761218 0.500000 0.250000
O O10 0.500000 0.442192 0.250000
O O11 0.681778 0.447754 0.000000
O O12 0.217235 0.962716 0.000000
O O13 0.099244 0.058500 0.000000
O O14 0.089664 0.124673 0.363436
#
# Coordination Sequence:
#
# PCOD9394243 Si02
#       7
#     8   8   2   8   4   4   4
#     4  11  23  41  66  93 128 175 221 281 344 410
#     4  11  26  46  69  99 135 180 232 284 349 414
#     4  10  20  40  68 102 140 168 240 278 320 396
#     4  11  22  39  62  94 130 170 220 279 339 412
#     4  10  22  44  66 100 134 186 220 282 334 408
#     4  12  24  47  66 104 135 184 224 294 338 416
#     4  11  24  44  70  92 140 182 225 270 354 404
#
# _framework density 21.022228999999999
#
# number of rings (size 3 to 8) (size 9 to 14) (size 15 to 20)
#    0.000    1.053    2.105    5.053    1.474    5.474 
#   11.368    2.105    0.000    0.000    0.000    0.000 
#    0.000    0.000    0.000    0.000    0.000    0.000 
#
# Total GULP energy -212237.196840 kJ/mol
# GULP energy per Si atom -5585.189391 kJ/mol
# Density = 2.097438 g / cm^3
# Si number density = 21.022229 Si / 1000 Ang^3
#
#
#
# Elastic Constant Matrix: (Units=GPa)
#
#
# Indices 1 2 3 4 5 6 
#
# 1 96.0273 13.5884 19.7349 0.0000 0.0000 0.0000
# 2 13.5884 87.1933 30.9597 0.0000 0.0000 0.0000
# 3 19.7349 30.9597 103.8350 0.0000 0.0000 0.0000
# 4 0.0000 0.0000 0.0000 22.7514 0.0000 0.0000
# 5 0.0000 0.0000 0.0000 0.0000 23.9001 0.0000
# 6 0.0000 0.0000 0.0000 0.0000 0.0000 6.5231
#
#
#
# Elastic Compliance Matrix: (Units=1/GPa)
#
#
# Indices 1 2 3 4 5 6 
#
# 1 0.010927 -0.001080 -0.001755 0.000000 0.000000 0.000000
# 2 -0.001080 0.012933 -0.003651 0.000000 0.000000 0.000000
# 3 -0.001755 -0.003651 0.011053 0.000000 0.000000 0.000000
# 4 0.000000 0.000000 0.000000 0.043953 0.000000 0.000000
# 5 0.000000 0.000000 0.000000 0.000000 0.041841 0.000000
# 6 0.000000 0.000000 0.000000 0.000000 0.000000 0.153301
#
#
# Mechanical properties :
#
#
# Convention : Reuss Voigt Hill
#
# Bulk Modulus (GPa) = 45.57478 46.18018 45.87748
# Shear Modulus (GPa) = 16.98978 25.48641 21.23810
#
# Velocity S-wave (km/s) = 2.84594 3.48567 3.18192
# Velocity P-wave (km/s) = 5.70312 6.18181 5.94728
#
# Compressibility (1/GPa) = 0.02194196
#
# Stress axis : x y z
#
# Youngs Moduli (GPa) = 91.51519 77.31902 90.47485
#
# Poissons Ratio (x) = 0.08349 0.15877
# Poissons Ratio (y) = 0.09882 0.33033
# Poissons Ratio (z) = 0.16060 0.28229
#
# Static dielectric constant tensor:
#      x y z
#    x 0.779870 0.000000 0.000000 
#    y 0.000000 1.768840 0.000000 
#    z 0.000000 0.000000 1.733970 
# 
# From -- ./inp_files/1835.got.cif
#   From: 2010.05.17/outbox.cif.g08.bks.cpg/sg49_1_cif.got.tgz:1835.got - 2010.06.03 21:02:19.
