data_PCOD9394544
_publ_section_title
;
Structure prediction by ZEFSAII (Michael W. Deem and Ramdas Pophale) SiO2 
 PCOD9394544
Probable space group: P C C M
;
_chemical_formula_sum "Si O2"
_cell_formula_units_Z 40
_cell_length_a 9.417605
_cell_length_b 13.372093
_cell_length_c 13.898801
_cell_angle_alpha 90.000000
_cell_angle_beta 90.000000
_cell_angle_gamma 90.000000
_cell_volume 1750.318956
_symmetry_space_group_name_H-M "P C C M"
_symmetry_group_IT_number 49
_symmetry_cell_setting 'orthorhombic'
loop_
_space_group_symop_operation_xyz
x,y,z
-x,-y,z
x,-y,1/2-z
-x,y,1/2-z
-x,-y,-z
x,y,-z
-x,y,1/2+z
x,-y,1/2+z
loop_
_atom_site_type_symbol
_atom_site_label
_atom_site_fract_x
_atom_site_fract_y
_atom_site_fract_z
Si Si1 0.212699 0.062692 0.383819
Si Si2 0.397567 0.593629 0.612376
Si Si3 0.104471 0.853993 0.384092
Si Si4 0.635611 0.745385 0.615629
Si Si5 0.842323 0.346688 0.263980
O O1 0.220608 0.054892 0.500000
O O2 0.336282 0.139530 0.355391
O O3 0.059105 0.113952 0.364640
O O4 0.200658 0.948115 0.350931
O O5 0.500000 0.500000 0.627342
O O6 0.362881 0.599371 0.500000
O O7 0.485594 0.693887 0.639209
O O8 0.258275 0.583294 0.674220
O O9 0.118289 0.840605 0.500000
O O10 0.142019 0.754649 0.327660
O O11 0.650621 0.738067 0.500000
O O12 0.759243 0.682475 0.667193
O O13 0.000000 0.384334 0.250000
#
# Coordination Sequence:
#
# PCOD9394544 Si02
#       5
#     8   8   8   8   8
#     4   8  15  31  56  86 128 179 220 263 324 388
#     4  10  24  48  73  92 124 174 219 271 342 411
#     4   9  17  32  56  91 133 173 216 269 328 387
#     4  10  21  39  60  88 129 177 223 264 322 394
#     4  12  23  36  64 102 130 166 213 280 332 392
#
# _framework density 22.852978
#
# number of rings (size 3 to 8) (size 9 to 14) (size 15 to 20)
#    0.000    2.200    2.000    2.400    0.000    3.200 
#    0.000    3.000    0.000   10.800    0.000    0.000 
#    0.000    0.000    0.000    0.000    0.000    0.000 
#
# Total GULP energy -223810.029497 kJ/mol
# GULP energy per Si atom -5595.250737 kJ/mol
# Density = 2.280096 g / cm^3
# Si number density = 22.852978 Si / 1000 Ang^3
#
#
#
# Elastic Constant Matrix: (Units=GPa)
#
#
# Indices 1 2 3 4 5 6 
#
# 1 124.7086 33.3586 45.5590 0.0000 0.0000 0.0000
# 2 33.3586 91.7024 29.0305 0.0000 0.0000 0.0000
# 3 45.5590 29.0305 95.4203 0.0000 0.0000 0.0000
# 4 0.0000 0.0000 0.0000 23.9174 0.0000 0.0000
# 5 0.0000 0.0000 0.0000 0.0000 29.1699 0.0000
# 6 0.0000 0.0000 0.0000 0.0000 0.0000 205.9429
#
#
#
# Elastic Compliance Matrix: (Units=1/GPa)
#
#
# Indices 1 2 3 4 5 6 
#
# 1 0.010166 -0.002392 -0.004126 0.000000 0.000000 0.000000
# 2 -0.002392 0.012630 -0.002700 0.000000 0.000000 0.000000
# 3 -0.004126 -0.002700 0.013272 0.000000 0.000000 0.000000
# 4 0.000000 0.000000 0.000000 0.041811 0.000000 0.000000
# 5 0.000000 0.000000 0.000000 0.000000 0.034282 0.000000
# 6 0.000000 0.000000 0.000000 0.000000 0.000000 0.004856
#
#
# Mechanical properties :
#
#
# Convention : Reuss Voigt Hill
#
# Bulk Modulus (GPa) = 56.71999 58.63640 57.67819
# Shear Modulus (GPa) = 35.37845 65.39826 50.38835
#
# Velocity S-wave (km/s) = 3.93885 5.35528 4.70072
# Velocity P-wave (km/s) = 6.74977 7.99704 7.39973
#
# Compressibility (1/GPa) = 0.01763047
#
# Stress axis : x y z
#
# Youngs Moduli (GPa) = 98.36868 79.17773 75.34917
#
# Poissons Ratio (x) = 0.18938 0.31089
# Poissons Ratio (y) = 0.23528 0.20348
# Poissons Ratio (z) = 0.40587 0.21382
#
# Static dielectric constant tensor:
#      x y z
#    x 1.810110 0.000000 0.000000 
#    y 0.000000 1.895540 0.000000 
#    z 0.000000 0.000000 1.867440 
# 
# From -- ./inp_files/11554.got.cif
#   From: 2010.05.17/outbox.cif.g08.bks.cpg/sg49_6_cif.got.tgz:11554.got - 2010.06.03 21:02:19.
