data_PCOD9394801
_publ_section_title
;
Structure prediction by ZEFSAII (Michael W. Deem and Ramdas Pophale) SiO2 
 PCOD9394801
Probable space group: P C C M
;
_chemical_formula_sum "Si O2"
_cell_formula_units_Z 64
_cell_length_a 18.888248
_cell_length_b 11.996065
_cell_length_c 14.795729
_cell_angle_alpha 90.000000
_cell_angle_beta 90.000000
_cell_angle_gamma 90.000000
_cell_volume 3352.485088
_symmetry_space_group_name_H-M "P C C M"
_symmetry_group_IT_number 49
_symmetry_cell_setting 'orthorhombic'
loop_
_space_group_symop_operation_xyz
x,y,z
-x,-y,z
x,-y,1/2-z
-x,y,1/2-z
-x,-y,-z
x,y,-z
-x,y,1/2+z
x,-y,1/2+z
loop_
_atom_site_type_symbol
_atom_site_label
_atom_site_fract_x
_atom_site_fract_y
_atom_site_fract_z
Si Si1 0.083704 0.634460 0.752778
Si Si2 0.421593 0.788282 0.232996
Si Si3 0.567078 0.578582 0.602338
Si Si4 0.321268 0.825641 0.393675
Si Si5 0.308804 0.091063 0.393748
Si Si6 0.812457 0.311964 0.398975
Si Si7 0.191988 0.737004 0.105628
Si Si8 0.280083 0.519917 0.142953
O O1 0.095821 0.500000 0.750000
O O2 0.120312 0.682137 0.663743
O O3 0.126224 0.693834 0.834462
O O4 0.000000 0.653175 0.750000
O O5 0.500000 0.835245 0.250000
O O6 0.429866 0.672276 0.179338
O O7 0.382763 0.780385 0.329394
O O8 0.370136 0.860822 0.169763
O O9 0.500000 0.500000 0.616040
O O10 0.562840 0.626222 0.500000
O O11 0.640057 0.509891 0.609133
O O12 0.332484 0.798687 0.500000
O O13 0.248247 0.769368 0.362934
O O14 0.311853 0.958120 0.385221
O O15 0.321250 0.119183 0.500000
O O16 0.233276 0.148510 0.370023
O O17 0.830912 0.278428 0.500000
O O18 0.773778 0.431655 0.398832
O O19 0.252163 0.642611 0.119966
O O20 0.172402 0.741348 0.000000
O O21 0.278709 0.500000 0.250000
#
# Coordination Sequence:
#
# PCOD9394801 Si02
#       8
#     8   8   8   8   8   8   8   8
#     4  11  23  38  56  88 130 163 192 236 295 365
#     4  12  25  39  60  85 119 162 206 253 317 366
#     4  11  26  41  58  88 125 162 204 255 313 374
#     4  10  24  43  63  91 120 157 209 260 311 364
#     4  10  22  42  67  91 117 153 208 266 309 363
#     4  11  21  37  61  87 118 156 195 245 300 360
#     4  11  20  37  65  91 116 155 203 253 303 360
#     4  12  21  36  62  87 119 156 201 252 310 361
#
# _framework density 19.090316999999999
#
# number of rings (size 3 to 8) (size 9 to 14) (size 15 to 20)
#    0.000    1.000    3.750    3.375    3.500    2.500 
#    0.000    2.500    0.000    1.875    0.000    3.500 
#    0.000    0.000    0.000    0.000    0.000    0.000 
#
# Total GULP energy -357773.210514 kJ/mol
# GULP energy per Si atom -5590.206414 kJ/mol
# Density = 1.904687 g / cm^3
# Si number density = 19.090317 Si / 1000 Ang^3
#
#
#
# Elastic Constant Matrix: (Units=GPa)
#
#
# Indices 1 2 3 4 5 6 
#
# 1 153.9794 23.2316 63.9139 0.0000 0.0000 0.0000
# 2 23.2316 52.0666 25.3012 0.0000 0.0000 0.0000
# 3 63.9139 25.3012 98.2146 0.0000 0.0000 0.0000
# 4 0.0000 0.0000 0.0000 -6.3691 0.0000 0.0000
# 5 0.0000 0.0000 0.0000 0.0000 6.3733 0.0000
# 6 0.0000 0.0000 0.0000 0.0000 0.0000 1.1217
#
#
#
# Elastic Compliance Matrix: (Units=1/GPa)
#
#
# Indices 1 2 3 4 5 6 
#
# 1 0.008978 -0.001334 -0.005499 0.000000 0.000000 0.000000
# 2 -0.001334 0.022153 -0.004839 0.000000 0.000000 0.000000
# 3 -0.005499 -0.004839 0.015007 0.000000 0.000000 0.000000
# 4 0.000000 0.000000 0.000000 -0.157008 0.000000 0.000000
# 5 0.000000 0.000000 0.000000 0.000000 0.156905 0.000000
# 6 0.000000 0.000000 0.000000 0.000000 0.000000 0.891534
#
#
# Mechanical properties :
#
#
# Convention : Reuss Voigt Hill
#
# Bulk Modulus (GPa) = 43.87029 58.79487 51.33258
# Shear Modulus (GPa) = 5.16257 13.01276 9.08767
#
# Velocity S-wave (km/s) = 1.64626 2.61366 2.18419
# Velocity P-wave (km/s) = 5.16177 6.32245 5.77136
#
# Compressibility (1/GPa) = 0.02279447
#
# Stress axis : x y z
#
# Youngs Moduli (GPa) = 111.38167 45.14130 66.63633
#
# Poissons Ratio (x) = 0.06021 0.36643
# Poissons Ratio (y) = 0.14856 0.32244
# Poissons Ratio (z) = 0.61249 0.21843
#
# Static dielectric constant tensor:
#      x y z
#    x 1.638240 0.000000 0.000000 
#    y 0.000000 1.681340 0.000000 
#    z 0.000000 0.000000 1.701670 
# 
# From -- ./inp_files/14183.got.cif
#   From: 2010.05.17/outbox.cif.g08.bks.cpg/sg49_8_cif.got.tgz:14183.got - 2010.06.03 21:02:19.
