data_PCOD9394416
_publ_section_title
;
Structure prediction by ZEFSAII (Michael W. Deem and Ramdas Pophale) SiO2 
 PCOD9394416
Probable space group: P C C M
;
_chemical_formula_sum "Si O2"
_cell_formula_units_Z 48
_cell_length_a 15.684043
_cell_length_b 9.049330
_cell_length_c 14.547817
_cell_angle_alpha 90.000000
_cell_angle_beta 90.000000
_cell_angle_gamma 90.000000
_cell_volume 2064.772843
_symmetry_space_group_name_H-M "P C C M"
_symmetry_group_IT_number 49
_symmetry_cell_setting 'orthorhombic'
loop_
_space_group_symop_operation_xyz
x,y,z
-x,-y,z
x,-y,1/2-z
-x,y,1/2-z
-x,-y,-z
x,y,-z
-x,y,1/2+z
x,-y,1/2+z
loop_
_atom_site_type_symbol
_atom_site_label
_atom_site_fract_x
_atom_site_fract_y
_atom_site_fract_z
Si Si1 0.189450 0.789174 0.602923
Si Si2 0.306882 0.811630 0.888622
Si Si3 0.627723 0.863778 0.887983
Si Si4 0.017680 0.331655 0.111424
Si Si5 0.128091 0.096852 0.659928
Si Si6 0.472487 0.662523 0.112264
O O1 0.198492 0.727531 0.500000
O O2 0.283990 0.787853 0.643347
O O3 0.111322 0.706534 0.649559
O O4 0.156366 0.959105 0.595117
O O5 0.215274 0.809491 0.841159
O O6 0.375426 0.690789 0.860278
O O7 0.356201 0.965006 0.866023
O O8 0.293785 0.805894 0.000000
O O9 0.542234 0.783404 0.856227
O O10 0.626713 0.858368 0.000000
O O11 0.949805 0.204723 0.137740
O O12 0.000000 0.500000 0.138057
O O13 0.020019 0.326253 0.000000
O O14 0.111394 0.000000 0.750000
O O15 0.500000 0.500000 0.139225
O O16 0.472931 0.670951 0.000000
#
# Coordination Sequence:
#
# PCOD9394416 Si02
#       6
#     8   8   8   8   8   8
#     4   9  18  34  56  79 106 144 188 236 289 351
#     4   9  17  31  52  76 106 145 187 235 285 337
#     4   8  14  26  45  70  99 133 176 224 275 328
#     4  10  21  37  59  87 116 147 188 243 305 362
#     4  11  22  36  55  81 111 151 197 239 288 351
#     4   9  16  25  44  78 112 139 174 226 284 336
#
# _framework density 23.247107
#
# number of rings (size 3 to 8) (size 9 to 14) (size 15 to 20)
#    0.000    2.667    0.000    3.500    0.000    6.000 
#    0.000    6.667    0.000    8.000    0.000    4.667 
#    0.000    0.000    0.000    0.000    0.000    0.167 
#
# Total GULP energy -267905.659818 kJ/mol
# GULP energy per Si atom -5581.367913 kJ/mol
# Density = 2.319420 g / cm^3
# Si number density = 23.247107 Si / 1000 Ang^3
#
#
#
# Elastic Constant Matrix: (Units=GPa)
#
#
# Indices 1 2 3 4 5 6 
#
# 1 140.7036 47.1422 -4.8269 0.0000 0.0000 0.0000
# 2 47.1422 56.2442 -7.5496 0.0000 0.0000 0.0000
# 3 -4.8269 -7.5496 63.4697 0.0000 0.0000 0.0000
# 4 0.0000 0.0000 0.0000 -2.5440 0.0000 0.0000
# 5 0.0000 0.0000 0.0000 0.0000 13.9189 0.0000
# 6 0.0000 0.0000 0.0000 0.0000 0.0000 43.4502
#
#
#
# Elastic Compliance Matrix: (Units=1/GPa)
#
#
# Indices 1 2 3 4 5 6 
#
# 1 0.009886 -0.008318 -0.000238 0.000000 0.000000 0.000000
# 2 -0.008318 0.025067 0.002349 0.000000 0.000000 0.000000
# 3 -0.000238 0.002349 0.016017 0.000000 0.000000 0.000000
# 4 0.000000 0.000000 0.000000 -0.393075 0.000000 0.000000
# 5 0.000000 0.000000 0.000000 0.000000 0.071845 0.000000
# 6 0.000000 0.000000 0.000000 0.000000 0.000000 0.023015
#
#
# Mechanical properties :
#
#
# Convention : Reuss Voigt Hill
#
# Bulk Modulus (GPa) = 25.93585 36.66098 31.29842
# Shear Modulus (GPa) = -22.52445 26.00845 1.74200
#
# Velocity S-wave (km/s) = -3.11612 3.34845 0.86658
# Velocity P-wave (km/s) = 1.32894 5.54561 3.80708
#
# Compressibility (1/GPa) = 0.03855667
#
# Stress axis : x y z
#
# Youngs Moduli (GPa) = 101.15436 39.89343 62.43402
#
# Poissons Ratio (x) = 0.33183 0.01483
# Poissons Ratio (y) = 0.84140 -0.14666
# Poissons Ratio (z) = 0.02403 -0.09371
#
# Static dielectric constant tensor:
#      x y z
#    x 1.869260 0.000000 0.000000 
#    y 0.000000 1.844160 0.000000 
#    z 0.000000 0.000000 1.976430 
# 
# From -- ./inp_files/16312.got.cif
#   From: 2010.05.17/outbox.cif.g08.bks.cpg/sg49_9_cif.got.tgz:16312.got - 2010.06.03 21:02:19.
