data_PCOD9394718
_publ_section_title
;
Structure prediction by ZEFSAII (Michael W. Deem and Ramdas Pophale) SiO2 
 PCOD9394718
Probable space group: P C C M
;
_chemical_formula_sum "Si O2"
_cell_formula_units_Z 48
_cell_length_a 9.115640
_cell_length_b 8.354661
_cell_length_c 33.521428
_cell_angle_alpha 90.000000
_cell_angle_beta 90.000000
_cell_angle_gamma 90.000000
_cell_volume 2552.927662
_symmetry_space_group_name_H-M "P C C M"
_symmetry_group_IT_number 49
_symmetry_cell_setting 'orthorhombic'
loop_
_space_group_symop_operation_xyz
x,y,z
-x,-y,z
x,-y,1/2-z
-x,y,1/2-z
-x,-y,-z
x,y,-z
-x,y,1/2+z
x,-y,1/2+z
loop_
_atom_site_type_symbol
_atom_site_label
_atom_site_fract_x
_atom_site_fract_y
_atom_site_fract_z
Si Si1 0.419909 0.154781 0.599515
Si Si2 0.633363 0.391783 0.829002
Si Si3 0.382619 0.359817 0.955726
Si Si4 0.169222 0.960380 0.627435
Si Si5 0.839587 0.580817 0.113547
Si Si6 0.668619 0.938821 0.292340
O O1 0.423063 0.294420 0.631975
O O2 0.521366 0.214902 0.563361
O O3 0.500000 0.000000 0.616707
O O4 0.255385 0.082064 0.597019
O O5 0.500000 0.500000 0.814210
O O6 0.763382 0.496745 0.848103
O O7 0.673579 0.253566 0.797745
O O8 0.500000 0.500000 0.959157
O O9 0.259028 0.432331 0.926451
O O10 0.326725 0.317972 0.000000
O O11 0.172208 0.771879 0.619139
O O12 0.240248 0.993882 0.670514
O O13 0.000000 0.000000 0.627601
O O14 0.000000 0.500000 0.108842
O O15 0.500000 0.000000 0.294410
O O16 0.726753 0.000000 0.250000
#
# Coordination Sequence:
#
# PCOD9394718 Si02
#       6
#     8   8   8   8   8   8
#     4  11  18  36  61  87 116 154 203 254 291 355
#     4  11  18  35  63  90 115 157 206 245 292 354
#     4  11  23  39  61  89 122 160 200 254 314 360
#     4  11  23  38  62  89 117 159 204 256 306 360
#     4  12  22  38  61  87 120 159 211 251 299 368
#     4  10  22  39  60  89 125 158 194 246 309 356
#
# _framework density 18.801943000000001
#
# number of rings (size 3 to 8) (size 9 to 14) (size 15 to 20)
#    0.000    1.000    5.000    5.000    0.000    1.000 
#    0.000    5.833    0.000    2.000    0.000    0.000 
#    0.000    0.000    0.000    0.000    0.000    0.000 
#
# Total GULP energy -267414.605647 kJ/mol
# GULP energy per Si atom -5571.137618 kJ/mol
# Density = 1.875915 g / cm^3
# Si number density = 18.801943 Si / 1000 Ang^3
#
#
#
# Elastic Constant Matrix: (Units=GPa)
#
#
# Indices 1 2 3 4 5 6 
#
# 1 117.3961 23.6548 35.8419 0.0000 0.0000 0.0000
# 2 23.6548 94.1830 35.0723 0.0000 0.0000 0.0000
# 3 35.8419 35.0723 81.9502 0.0000 0.0000 0.0000
# 4 0.0000 0.0000 0.0000 21.8820 0.0000 0.0000
# 5 0.0000 0.0000 0.0000 0.0000 41.7008 0.0000
# 6 0.0000 0.0000 0.0000 0.0000 0.0000 39.4814
#
#
#
# Elastic Compliance Matrix: (Units=1/GPa)
#
#
# Indices 1 2 3 4 5 6 
#
# 1 0.009916 -0.001041 -0.003891 0.000000 0.000000 0.000000
# 2 -0.001041 0.012740 -0.004997 0.000000 0.000000 0.000000
# 3 -0.003891 -0.004997 0.016043 0.000000 0.000000 0.000000
# 4 0.000000 0.000000 0.000000 0.045700 0.000000 0.000000
# 5 0.000000 0.000000 0.000000 0.000000 0.023980 0.000000
# 6 0.000000 0.000000 0.000000 0.000000 0.000000 0.025328
#
#
# Mechanical properties :
#
#
# Convention : Reuss Voigt Hill
#
# Bulk Modulus (GPa) = 53.07880 53.62968 53.35424
# Shear Modulus (GPa) = 31.28007 33.87686 32.57846
#
# Velocity S-wave (km/s) = 4.08323 4.24934 4.16711
# Velocity P-wave (km/s) = 7.10789 7.25680 7.18273
#
# Compressibility (1/GPa) = 0.01883992
#
# Stress axis : x y z
#
# Youngs Moduli (GPa) = 100.84690 78.49330 62.33295
#
# Poissons Ratio (x) = 0.08175 0.24255
# Poissons Ratio (y) = 0.10503 0.31147
# Poissons Ratio (z) = 0.39241 0.39222
#
# Static dielectric constant tensor:
#      x y z
#    x 1.726460 0.000000 0.000000 
#    y 0.000000 1.851310 0.000000 
#    z 0.000000 0.000000 1.686780 
# 
# From -- ./inp_files/26261.got.cif
#   From: 2010.05.17/outbox.cif.g08.bks.cpg/sg49_14_cif.got.tgz:26261.got - 2010.06.03 21:02:19.
