data_PCOD9394475
_publ_section_title
;
Structure prediction by ZEFSAII (Michael W. Deem and Ramdas Pophale) SiO2 
 PCOD9394475
Probable space group: P C C M
;
_chemical_formula_sum "Si O2"
_cell_formula_units_Z 56
_cell_length_a 7.865721
_cell_length_b 23.997258
_cell_length_c 14.408398
_cell_angle_alpha 90.000000
_cell_angle_beta 90.000000
_cell_angle_gamma 90.000000
_cell_volume 2719.667772
_symmetry_space_group_name_H-M "P C C M"
_symmetry_group_IT_number 49
_symmetry_cell_setting 'orthorhombic'
loop_
_space_group_symop_operation_xyz
x,y,z
-x,-y,z
x,-y,1/2-z
-x,y,1/2-z
-x,-y,-z
x,y,-z
-x,y,1/2+z
x,-y,1/2+z
loop_
_atom_site_type_symbol
_atom_site_label
_atom_site_fract_x
_atom_site_fract_y
_atom_site_fract_z
Si Si1 0.522787 0.362760 0.613452
Si Si2 0.818339 0.155695 0.889327
Si Si3 0.154934 0.571683 0.612885
Si Si4 0.796669 0.842114 0.889356
Si Si5 0.704853 0.064066 0.250750
Si Si6 0.773962 0.554253 0.386922
Si Si7 0.513104 0.763721 0.387431
O O1 0.520181 0.363454 0.500000
O O2 0.710553 0.382203 0.642270
O O3 0.382079 0.407730 0.644077
O O4 0.483571 0.300080 0.643244
O O5 0.776620 0.098878 0.835884
O O6 0.678404 0.201020 0.860765
O O7 0.009906 0.174833 0.868453
O O8 0.804774 0.147407 0.000000
O O9 0.151287 0.571723 0.500000
O O10 0.225559 0.510702 0.640459
O O11 0.959061 0.577246 0.641966
O O12 0.763223 0.900693 0.839666
O O13 0.655204 0.797555 0.858577
O O14 0.780619 0.848296 0.000000
O O15 0.500000 0.065305 0.250000
O O16 0.760424 0.000000 0.250000
O O17 0.769312 0.554365 0.500000
O O18 0.510494 0.762437 0.500000
#
# Coordination Sequence:
#
# PCOD9394475 Si02
#       7
#     8   8   8   8   8   8   8
#     4   9  15  22  36  55  80 119 168 218 262 314
#     4  10  21  38  59  82 113 150 185 227 277 327
#     4   8  13  20  30  48  77 114 159 211 265 318
#     4  10  21  38  59  82 113 150 185 227 277 327
#     4  11  23  39  63  90 115 147 184 225 274 328
#     4   8  13  20  30  48  77 114 159 211 265 318
#     4   9  18  32  47  69 100 136 183 229 272 325
#
# _framework density 20.590751999999998
#
# number of rings (size 3 to 8) (size 9 to 14) (size 15 to 20)
#    0.000    2.714    1.429    1.714    0.000    4.571 
#    0.000    8.571    0.000    0.000    0.000    0.000 
#    0.000    0.000    0.000   10.286    0.000   64.000 
#
# Total GULP energy -312760.340828 kJ/mol
# GULP energy per Si atom -5585.006086 kJ/mol
# Density = 2.054389 g / cm^3
# Si number density = 20.590752 Si / 1000 Ang^3
#
#
#
# Elastic Constant Matrix: (Units=GPa)
#
#
# Indices 1 2 3 4 5 6 
#
# 1 133.3402 56.5638 -4.9683 0.0000 0.0000 0.0000
# 2 56.5638 92.3874 -19.5586 0.0000 0.0000 0.0000
# 3 -4.9683 -19.5586 61.0255 0.0000 0.0000 0.0000
# 4 0.0000 0.0000 0.0000 106.7696 0.0000 0.0000
# 5 0.0000 0.0000 0.0000 0.0000 5.9670 0.0000
# 6 0.0000 0.0000 0.0000 0.0000 0.0000 -2.6360
#
#
#
# Elastic Compliance Matrix: (Units=1/GPa)
#
#
# Indices 1 2 3 4 5 6 
#
# 1 0.010220 -0.006524 -0.001259 0.000000 0.000000 0.000000
# 2 -0.006524 0.015776 0.004525 0.000000 0.000000 0.000000
# 3 -0.001259 0.004525 0.017734 0.000000 0.000000 0.000000
# 4 0.000000 0.000000 0.000000 0.009366 0.000000 0.000000
# 5 0.000000 0.000000 0.000000 0.000000 0.167589 0.000000
# 6 0.000000 0.000000 0.000000 0.000000 0.000000 -0.379357
#
#
# Mechanical properties :
#
#
# Convention : Reuss Voigt Hill
#
# Bulk Modulus (GPa) = 26.87034 38.98078 32.92556
# Shear Modulus (GPa) = -35.77792 39.00119 1.61164
#
# Velocity S-wave (km/s) = -4.17294 4.35686 0.88566
# Velocity P-wave (km/s) = 3.18432 6.65447 4.13171
#
# Compressibility (1/GPa) = 0.03721576
#
# Stress axis : x y z
#
# Youngs Moduli (GPa) = 97.84639 63.38718 56.38762
#
# Poissons Ratio (x) = 0.41352 0.07098
# Poissons Ratio (y) = 0.63832 -0.25516
# Poissons Ratio (z) = 0.12317 -0.28683
#
# Static dielectric constant tensor:
#      x y z
#    x 1.722810 0.000000 0.000000 
#    y 0.000000 1.672420 0.000000 
#    z 0.000000 0.000000 -5.610190 
# 
# From -- ./inp_files/12033.got.cif
#   From: 2010.05.17/outbox.cif.g08.bks.cpg/sg49_7_cif.got.tgz:12033.got - 2010.06.03 21:02:19.
