data_PCOD9394014
_publ_section_title
;
Structure prediction by ZEFSAII (Michael W. Deem and Ramdas Pophale) SiO2 
 PCOD9394014
Probable space group: P C C M
;
_chemical_formula_sum "Si O2"
_cell_formula_units_Z 64
_cell_length_a 9.158649
_cell_length_b 19.875559
_cell_length_c 16.890421
_cell_angle_alpha 90.000000
_cell_angle_beta 90.000000
_cell_angle_gamma 90.000000
_cell_volume 3074.618542
_symmetry_space_group_name_H-M "P C C M"
_symmetry_group_IT_number 49
_symmetry_cell_setting 'orthorhombic'
loop_
_space_group_symop_operation_xyz
x,y,z
-x,-y,z
x,-y,1/2-z
-x,y,1/2-z
-x,-y,-z
x,y,-z
-x,y,1/2+z
x,-y,1/2+z
loop_
_atom_site_type_symbol
_atom_site_label
_atom_site_fract_x
_atom_site_fract_y
_atom_site_fract_z
Si Si1 0.327350 0.050501 0.595712
Si Si2 0.484338 0.817636 0.157410
Si Si3 0.036490 0.877802 0.095803
Si Si4 0.552308 0.571834 0.841444
Si Si5 0.321574 0.317216 0.365034
Si Si6 0.019959 0.274987 0.410940
Si Si7 0.845864 0.365255 0.708968
Si Si8 0.717951 0.097844 0.595087
O O1 0.353042 0.056403 0.500000
O O2 0.405865 0.112220 0.637893
O O3 0.159797 0.068584 0.613633
O O4 0.353217 0.973393 0.619327
O O5 0.500000 0.806653 0.250000
O O6 0.396584 0.755028 0.124131
O O7 0.641148 0.833509 0.120622
O O8 0.060929 0.800071 0.119243
O O9 0.880935 0.900358 0.126657
O O10 0.031376 0.876489 0.000000
O O11 0.500000 0.500000 0.874766
O O12 0.500000 0.571612 0.750000
O O13 0.450629 0.629392 0.880074
O O14 0.727391 0.586030 0.835336
O O15 0.254662 0.330455 0.276680
O O16 0.170968 0.316923 0.413112
O O17 0.960838 0.269473 0.500000
O O18 0.907396 0.311067 0.352887
O O19 0.000000 0.392205 0.750000
O O20 0.718937 0.095561 0.500000
#
# Coordination Sequence:
#
# PCOD9394014 Si02
#       8
#     8   8   8   8   8   8   8   8
#     4  10  20  39  59  77 106 145 189 239 290 340
#     4  12  24  35  54  78 114 150 183 230 288 354
#     4   9  18  34  57  81 105 135 185 240 287 333
#     4   9  18  36  62  90 121 156 200 239 276 338
#     4  10  21  38  58  84 118 154 188 237 295 347
#     4  10  20  36  60  88 113 147 196 245 289 349
#     4   9  19  36  61  90 124 151 190 243 296 333
#     4  10  22  37  57  81 106 142 191 242 288 339
#
# _framework density 20.81559
#
# number of rings (size 3 to 8) (size 9 to 14) (size 15 to 20)
#    0.000    2.125    1.250    2.250    3.500    4.000 
#    0.000   11.875    0.000    3.750    0.000    0.000 
#    0.000    0.000    0.000    0.000    0.000    0.000 
#
# Total GULP energy -356557.526080 kJ/mol
# GULP energy per Si atom -5571.211345 kJ/mol
# Density = 2.076821 g / cm^3
# Si number density = 20.815590 Si / 1000 Ang^3
#
#
#
# Elastic Constant Matrix: (Units=GPa)
#
#
# Indices 1 2 3 4 5 6 
#
# 1 113.9290 53.9915 -4.9882 0.0000 0.0000 0.0000
# 2 53.9915 104.2205 6.2466 0.0000 0.0000 0.0000
# 3 -4.9882 6.2466 15.6160 0.0000 0.0000 0.0000
# 4 0.0000 0.0000 0.0000 11.3068 0.0000 0.0000
# 5 0.0000 0.0000 0.0000 0.0000 15.7065 0.0000
# 6 0.0000 0.0000 0.0000 0.0000 0.0000 20.4702
#
#
#
# Elastic Compliance Matrix: (Units=1/GPa)
#
#
# Indices 1 2 3 4 5 6 
#
# 1 0.012267 -0.006752 0.006619 0.000000 0.000000 0.000000
# 2 -0.006752 0.013547 -0.007576 0.000000 0.000000 0.000000
# 3 0.006619 -0.007576 0.069182 0.000000 0.000000 0.000000
# 4 0.000000 0.000000 0.000000 0.088443 0.000000 0.000000
# 5 0.000000 0.000000 0.000000 0.000000 0.063668 0.000000
# 6 0.000000 0.000000 0.000000 0.000000 0.000000 0.048851
#
#
# Mechanical properties :
#
#
# Convention : Reuss Voigt Hill
#
# Bulk Modulus (GPa) = 12.56610 38.25172 25.40891
# Shear Modulus (GPa) = 14.79730 21.39773 18.09751
#
# Velocity S-wave (km/s) = 2.66912 3.20967 2.95179
# Velocity P-wave (km/s) = 3.94321 5.67030 4.88371
#
# Compressibility (1/GPa) = 0.07957921
#
# Stress axis : x y z
#
# Youngs Moduli (GPa) = 81.52091 73.81855 14.45470
#
# Poissons Ratio (x) = 0.49839 -0.09568
# Poissons Ratio (y) = 0.55039 0.10950
# Poissons Ratio (z) = -0.53959 0.55921
#
# Static dielectric constant tensor:
#      x y z
#    x 1.853860 0.000000 0.000000 
#    y 0.000000 1.746860 0.000000 
#    z 0.000000 0.000000 1.755960 
# 
# From -- ./inp_files/16538.got.cif
#   From: 2010.05.17/outbox.cif.g08.bks.cpg/sg49_9_cif.got.tgz:16538.got - 2010.06.03 21:02:19.
