data_PCOD9394901
_publ_section_title
;
Structure prediction by ZEFSAII (Michael W. Deem and Ramdas Pophale) SiO2 
 PCOD9394901
Probable space group: P C C M
;
_chemical_formula_sum "Si O2"
_cell_formula_units_Z 24
_cell_length_a 5.780212
_cell_length_b 20.261710
_cell_length_c 8.973303
_cell_angle_alpha 90.000000
_cell_angle_beta 90.000000
_cell_angle_gamma 90.000000
_cell_volume 1050.926142
_symmetry_space_group_name_H-M "P C C M"
_symmetry_group_IT_number 49
_symmetry_cell_setting 'orthorhombic'
loop_
_space_group_symop_operation_xyz
x,y,z
-x,-y,z
x,-y,1/2-z
-x,y,1/2-z
-x,-y,-z
x,y,-z
-x,y,1/2+z
x,-y,1/2+z
loop_
_atom_site_type_symbol
_atom_site_label
_atom_site_fract_x
_atom_site_fract_y
_atom_site_fract_z
Si Si1 0.000000 0.721988 0.750000
Si Si2 0.000000 0.000000 0.750000
Si Si3 0.310792 0.790004 0.000000
Si Si4 0.684135 0.558438 0.500000
Si Si5 0.671677 0.678196 0.000000
Si Si6 0.689703 0.942155 0.500000
Si Si7 0.000000 0.500000 0.750000
O O1 0.841591 0.767155 0.642334
O O2 0.835202 0.678133 0.855541
O O3 0.843815 0.044850 0.855037
O O4 0.543663 0.748059 0.000000
O O5 0.380235 0.866327 0.000000
O O6 0.500000 0.500000 0.500000
O O7 0.532927 0.624653 0.500000
O O8 0.842673 0.545369 0.356366
O O9 0.500000 0.000000 0.500000
#
# Coordination Sequence:
#
# PCOD9394901 Si02
#       7
#     4   2   4   4   4   4   2
#     4  10  25  45  70 100 137 179 228 284 341 407
#     4  10  24  42  62  92 134 174 226 280 334 408
#     4  11  24  43  69  99 134 176 227 284 345 408
#     4  11  26  47  74 105 143 186 231 281 341 406
#     4  11  26  46  71 102 137 180 229 281 342 408
#     4  11  24  42  66  97 133 178 226 280 343 409
#     4  10  26  48  74 108 144 180 230 288 340 402
#
# _framework density 22.837
#
# number of rings (size 3 to 8) (size 9 to 14) (size 15 to 20)
#    0.000    1.333    0.000    3.000    0.000   24.000 
#    0.000    5.000    0.000    0.000    0.000    0.000 
#    0.000    0.000    0.000    0.000    0.000    0.000 
#
# Total GULP energy -134543.250610 kJ/mol
# GULP energy per Si atom -5605.968775 kJ/mol
# Density = 2.278502 g / cm^3
# Si number density = 22.837000 Si / 1000 Ang^3
#
#
#
# Elastic Constant Matrix: (Units=GPa)
#
#
# Indices 1 2 3 4 5 6 
#
# 1 161.1214 93.5795 96.0523 0.0000 0.0000 0.0000
# 2 93.5795 200.0498 77.6506 0.0000 0.0000 0.0000
# 3 96.0523 77.6506 187.4015 0.0000 0.0000 0.0000
# 4 0.0000 0.0000 0.0000 32.9354 0.0000 0.0000
# 5 0.0000 0.0000 0.0000 0.0000 -0.8122 0.0000
# 6 0.0000 0.0000 0.0000 0.0000 0.0000 38.4534
#
#
#
# Elastic Compliance Matrix: (Units=1/GPa)
#
#
# Indices 1 2 3 4 5 6 
#
# 1 0.010564 -0.003384 -0.004012 0.000000 0.000000 0.000000
# 2 -0.003384 0.007041 -0.001183 0.000000 0.000000 0.000000
# 3 -0.004012 -0.001183 0.007883 0.000000 0.000000 0.000000
# 4 0.000000 0.000000 0.000000 0.030363 0.000000 0.000000
# 5 0.000000 0.000000 0.000000 0.000000 -1.231178 0.000000
# 6 0.000000 0.000000 0.000000 0.000000 0.000000 0.026005
#
#
# Mechanical properties :
#
#
# Convention : Reuss Voigt Hill
#
# Bulk Modulus (GPa) = 120.06340 120.34861 120.20600
# Shear Modulus (GPa) = -4.42718 32.86800 14.22041
#
# Velocity S-wave (km/s) = -1.39385 3.79785 2.49809
# Velocity P-wave (km/s) = 7.07798 8.48793 7.81482
#
# Compressibility (1/GPa) = 0.00832893
#
# Stress axis : x y z
#
# Youngs Moduli (GPa) = 94.66122 142.02574 126.85926
#
# Poissons Ratio (x) = 0.48065 0.50899
# Poissons Ratio (y) = 0.32036 0.15006
# Poissons Ratio (z) = 0.37981 0.16800
#
# Static dielectric constant tensor:
#      x y z
#    x 1.822810 0.000000 0.000000 
#    y 0.000000 1.961910 0.000000 
#    z 0.000000 0.000000 1.841530 
# 
# From -- ./inp_files/823.got.cif
#   From: 2010.05.17/outbox.cif.g08.bks.cpg/sg49_1_cif.got.tgz:823.got - 2010.06.03 21:02:19.
