data_PCOD9394788
_publ_section_title
;
Structure prediction by ZEFSAII (Michael W. Deem and Ramdas Pophale) SiO2 
 PCOD9394788
Probable space group: P C C M
;
_chemical_formula_sum "Si O2"
_cell_formula_units_Z 38
_cell_length_a 21.851699
_cell_length_b 5.883124
_cell_length_c 14.956503
_cell_angle_alpha 90.000000
_cell_angle_beta 90.000000
_cell_angle_gamma 90.000000
_cell_volume 1922.752011
_symmetry_space_group_name_H-M "P C C M"
_symmetry_group_IT_number 49
_symmetry_cell_setting 'orthorhombic'
loop_
_space_group_symop_operation_xyz
x,y,z
-x,-y,z
x,-y,1/2-z
-x,y,1/2-z
-x,-y,-z
x,y,-z
-x,y,1/2+z
x,-y,1/2+z
loop_
_atom_site_type_symbol
_atom_site_label
_atom_site_fract_x
_atom_site_fract_y
_atom_site_fract_z
Si Si1 0.337883 0.125078 0.500000
Si Si2 0.500000 0.500000 0.750000
Si Si3 0.269976 0.370995 0.000000
Si Si4 0.943779 0.326159 0.100269
Si Si5 0.096064 0.000000 0.250000
Si Si6 0.827287 0.615514 0.156973
Si Si7 0.435992 0.885148 0.844742
O O1 0.303643 0.376066 0.500000
O O2 0.382064 0.115992 0.585816
O O3 0.303734 0.877519 0.500000
O O4 0.456428 0.637531 0.815311
O O5 0.227316 0.363989 0.912191
O O6 0.942621 0.152469 0.182007
O O7 0.880594 0.463496 0.112466
O O8 0.000000 0.500000 0.108939
O O9 0.946122 0.225153 0.000000
O O10 0.139516 0.846828 0.312868
O O11 0.807316 0.500000 0.250000
O O12 0.500000 0.000000 0.876787
O O13 0.419304 0.000000 0.750000
#
# Coordination Sequence:
#
# PCOD9394788 Si02
#       7
#     4   2   4   8   4   8   8
#     4  12  29  43  70 104 138 185 234 290 333 413
#     4   8  18  38  72  94 144 178 218 278 348 416
#     4  12  30  46  67  99 143 184 244 288 337 409
#     4  10  22  41  70 104 133 168 225 292 362 432
#     4  10  24  41  72  92 134 176 229 284 366 428
#     4  10  24  44  68  95 131 182 226 287 348 419
#     4   9  21  42  70 104 140 180 223 281 351 412
#
# _framework density 19.763339999999999
#
# number of rings (size 3 to 8) (size 9 to 14) (size 15 to 20)
#    0.000    2.105    1.053    0.316   13.263    7.579 
#    0.000    2.105    0.000    0.632    0.000    0.000 
#    0.000    0.000    0.000    0.000    0.000    0.000 
#
# Total GULP energy -211965.319624 kJ/mol
# GULP energy per Si atom -5578.034727 kJ/mol
# Density = 1.971836 g / cm^3
# Si number density = 19.763340 Si / 1000 Ang^3
#
#
#
# Elastic Constant Matrix: (Units=GPa)
#
#
# Indices 1 2 3 4 5 6 
#
# 1 126.6311 75.9244 98.5347 0.0000 0.0000 0.0000
# 2 75.9244 123.6347 71.6361 0.0000 0.0000 0.0000
# 3 98.5347 71.6361 170.3642 0.0000 0.0000 0.0000
# 4 0.0000 0.0000 0.0000 -0.9726 0.0000 0.0000
# 5 0.0000 0.0000 0.0000 0.0000 77.7806 0.0000
# 6 0.0000 0.0000 0.0000 0.0000 0.0000 47.5687
#
#
#
# Elastic Compliance Matrix: (Units=1/GPa)
#
#
# Indices 1 2 3 4 5 6 
#
# 1 0.017569 -0.006480 -0.007437 0.000000 0.000000 0.000000
# 2 -0.006480 0.013084 -0.001754 0.000000 0.000000 0.000000
# 3 -0.007437 -0.001754 0.010908 0.000000 0.000000 0.000000
# 4 0.000000 0.000000 0.000000 -1.028139 0.000000 0.000000
# 5 0.000000 0.000000 0.000000 0.000000 0.012857 0.000000
# 6 0.000000 0.000000 0.000000 0.000000 0.000000 0.021022
#
#
# Mechanical properties :
#
#
# Convention : Reuss Voigt Hill
#
# Bulk Modulus (GPa) = 97.84475 101.42450 99.63463
# Shear Modulus (GPa) = -5.44691 36.51099 15.53204
#
# Velocity S-wave (km/s) = -1.66194 4.30281 2.80643
# Velocity P-wave (km/s) = 6.77739 8.72448 7.81183
#
# Compressibility (1/GPa) = 0.01022027
#
# Stress axis : x y z
#
# Youngs Moduli (GPa) = 56.91871 76.42956 91.67315
#
# Poissons Ratio (x) = 0.49528 0.68174
# Poissons Ratio (y) = 0.36885 0.16076
# Poissons Ratio (z) = 0.42328 0.13403
#
# Static dielectric constant tensor:
#      x y z
#    x 1.669670 0.000000 0.000000 
#    y 0.000000 1.760620 0.000000 
#    z 0.000000 0.000000 1.673080 
# 
# From -- ./inp_files/14465.got.cif
#   From: 2010.05.17/outbox.cif.g08.bks.cpg/sg49_8_cif.got.tgz:14465.got - 2010.06.03 21:02:19.
