data_PCOD9394766
_publ_section_title
;
Structure prediction by ZEFSAII (Michael W. Deem and Ramdas Pophale) SiO2 
 PCOD9394766
Probable space group: P C C M
;
_chemical_formula_sum "Si O2"
_cell_formula_units_Z 48
_cell_length_a 29.165775
_cell_length_b 9.253611
_cell_length_c 9.330757
_cell_angle_alpha 90.000000
_cell_angle_beta 90.000000
_cell_angle_gamma 90.000000
_cell_volume 2518.266216
_symmetry_space_group_name_H-M "P C C M"
_symmetry_group_IT_number 49
_symmetry_cell_setting 'orthorhombic'
loop_
_space_group_symop_operation_xyz
x,y,z
-x,-y,z
x,-y,1/2-z
-x,y,1/2-z
-x,-y,-z
x,y,-z
-x,y,1/2+z
x,-y,1/2+z
loop_
_atom_site_type_symbol
_atom_site_label
_atom_site_fract_x
_atom_site_fract_y
_atom_site_fract_z
Si Si1 0.285959 0.647808 0.332077
Si Si2 0.067471 0.354767 0.500000
Si Si3 0.100528 0.826575 0.265535
Si Si4 0.041635 0.686699 0.500000
Si Si5 0.795391 0.150074 0.333524
Si Si6 0.375301 0.151369 0.828749
Si Si7 0.549417 0.653306 0.676706
O O1 0.293654 0.500000 0.250000
O O2 0.279437 0.615416 0.500000
O O3 0.240755 0.732199 0.279231
O O4 0.329655 0.751942 0.318700
O O5 0.092020 0.275366 0.369412
O O6 0.066338 0.529154 0.500000
O O7 0.012899 0.323635 0.500000
O O8 0.060193 0.775973 0.367712
O O9 0.151974 0.799751 0.321551
O O10 0.097369 0.000000 0.250000
O O11 0.784712 0.123149 0.500000
O O12 0.790880 0.000000 0.250000
O O13 0.415119 0.230409 0.738256
O O14 0.366975 0.000000 0.750000
O O15 0.386380 0.136313 0.000000
O O16 0.563093 0.500000 0.750000
O O17 0.500000 0.684484 0.750000
O O18 0.547609 0.646474 0.500000
#
# Coordination Sequence:
#
# PCOD9394766 Si02
#       7
#     8   4   8   4   8   8   8
#     4  10  23  41  62  92 124 159 204 252 303 366
#     4  11  25  39  63  87 121 163 201 241 318 353
#     4  11  23  40  63  90 121 156 204 251 303 364
#     4  11  23  43  59  89 123 159 199 255 294 377
#     4  10  22  41  63  89 121 156 196 245 301 359
#     4  11  23  40  62  90 125 165 211 260 316 372
#     4  11  22  39  63  92 127 167 213 262 317 374
#
# _framework density 19.060732000000002
#
# number of rings (size 3 to 8) (size 9 to 14) (size 15 to 20)
#    0.000    1.333    0.833    5.000    3.500    8.333 
#    0.000    1.667    0.000    0.000    0.000    0.000 
#    0.000    0.000    0.000    0.000    0.000    0.000 
#
# Total GULP energy -267860.341769 kJ/mol
# GULP energy per Si atom -5580.423787 kJ/mol
# Density = 1.901735 g / cm^3
# Si number density = 19.060732 Si / 1000 Ang^3
#
#
#
# Elastic Constant Matrix: (Units=GPa)
#
#
# Indices 1 2 3 4 5 6 
#
# 1 54.7975 56.1931 29.2221 0.0000 0.0000 0.0000
# 2 56.1931 110.2091 40.0075 0.0000 0.0000 0.0000
# 3 29.2221 40.0075 111.4769 0.0000 0.0000 0.0000
# 4 0.0000 0.0000 0.0000 11.1561 0.0000 0.0000
# 5 0.0000 0.0000 0.0000 0.0000 22.3086 0.0000
# 6 0.0000 0.0000 0.0000 0.0000 0.0000 43.4514
#
#
#
# Elastic Compliance Matrix: (Units=1/GPa)
#
#
# Indices 1 2 3 4 5 6 
#
# 1 0.039459 -0.018816 -0.003591 0.000000 0.000000 0.000000
# 2 -0.018816 0.019405 -0.002032 0.000000 0.000000 0.000000
# 3 -0.003591 -0.002032 0.010641 0.000000 0.000000 0.000000
# 4 0.000000 0.000000 0.000000 0.089637 0.000000 0.000000
# 5 0.000000 0.000000 0.000000 0.000000 0.044826 0.000000
# 6 0.000000 0.000000 0.000000 0.000000 0.000000 0.023014
#
#
# Mechanical properties :
#
#
# Convention : Reuss Voigt Hill
#
# Bulk Modulus (GPa) = 48.47810 58.59209 53.53509
# Shear Modulus (GPa) = 17.68443 25.45395 21.56919
#
# Velocity S-wave (km/s) = 3.04928 3.65829 3.36758
# Velocity P-wave (km/s) = 6.15517 6.97500 6.57787
#
# Compressibility (1/GPa) = 0.02062787
#
# Stress axis : x y z
#
# Youngs Moduli (GPa) = 25.34290 51.53334 93.97611
#
# Poissons Ratio (x) = 0.96963 0.33746
# Poissons Ratio (y) = 0.47684 0.19095
# Poissons Ratio (z) = 0.09100 0.10471
#
# Static dielectric constant tensor:
#      x y z
#    x 1.643060 0.000000 0.000000 
#    y 0.000000 1.642450 0.000000 
#    z 0.000000 0.000000 1.631220 
# 
# From -- ./inp_files/6900.got.cif
#   From: 2010.05.17/outbox.cif.g08.bks.cpg/sg49_4_cif.got.tgz:6900.got - 2010.06.03 21:02:19.
