data_PCOD9394401
_publ_section_title
;
Structure prediction by ZEFSAII (Michael W. Deem and Ramdas Pophale) SiO2 
 PCOD9394401
Probable space group: P C C M
;
_chemical_formula_sum "Si O2"
_cell_formula_units_Z 56
_cell_length_a 22.382777
_cell_length_b 8.562391
_cell_length_c 14.328085
_cell_angle_alpha 90.000000
_cell_angle_beta 90.000000
_cell_angle_gamma 90.000000
_cell_volume 2745.978756
_symmetry_space_group_name_H-M "P C C M"
_symmetry_group_IT_number 49
_symmetry_cell_setting 'orthorhombic'
loop_
_space_group_symop_operation_xyz
x,y,z
-x,-y,z
x,-y,1/2-z
-x,y,1/2-z
-x,-y,-z
x,y,-z
-x,y,1/2+z
x,-y,1/2+z
loop_
_atom_site_type_symbol
_atom_site_label
_atom_site_fract_x
_atom_site_fract_y
_atom_site_fract_z
Si Si1 0.091763 0.113318 0.110517
Si Si2 0.129110 0.786331 0.205035
Si Si3 0.745385 0.808553 0.610784
Si Si4 0.362911 0.675131 0.219344
Si Si5 0.561758 0.067749 0.145955
Si Si6 0.974854 0.673995 0.604097
Si Si7 0.676935 0.116398 0.396218
O O1 0.133956 0.204219 0.183361
O O2 0.027058 0.197462 0.122124
O O3 0.099451 0.940697 0.154490
O O4 0.105614 0.114864 0.000000
O O5 0.193154 0.766019 0.160069
O O6 0.078422 0.665975 0.177211
O O7 0.750764 0.794889 0.500000
O O8 0.692126 0.701014 0.648986
O O9 0.728086 0.990825 0.630450
O O10 0.374504 0.500000 0.250000
O O11 0.420573 0.752954 0.167547
O O12 0.340240 0.767132 0.312778
O O13 0.500000 0.000000 0.105974
O O14 0.562939 0.000000 0.250000
O O15 0.618361 0.992964 0.096406
O O16 0.951064 0.712094 0.500000
O O17 0.000000 0.500000 0.600408
O O18 0.689050 0.183058 0.500000
#
# Coordination Sequence:
#
# PCOD9394401 Si02
#       7
#     8   8   8   8   8   8   8
#     4  10  22  37  57  84 111 145 194 248 306 370
#     4  11  22  37  61  84 112 149 199 258 305 356
#     4  10  21  39  61  85 114 157 207 253 299 359
#     4  10  21  37  58  87 126 160 195 247 309 357
#     4   8  15  32  57  83 115 158 206 243 282 341
#     4  10  21  39  59  83 117 153 191 243 318 389
#     4   9  19  35  58  84 117 158 202 245 287 347
#
# _framework density 20.393456
#
# number of rings (size 3 to 8) (size 9 to 14) (size 15 to 20)
#    0.000    2.286    0.000    3.429    4.000    4.286 
#    2.571    5.714    0.000    0.857    0.000    0.000 
#    0.000    0.000    0.000    0.000    0.000    0.000 
#
# Total GULP energy -311881.024942 kJ/mol
# GULP energy per Si atom -5569.304017 kJ/mol
# Density = 2.034704 g / cm^3
# Si number density = 20.393456 Si / 1000 Ang^3
#
#
#
# Elastic Constant Matrix: (Units=GPa)
#
#
# Indices 1 2 3 4 5 6 
#
# 1 85.0682 32.9461 36.3298 0.0000 0.0000 0.0000
# 2 32.9461 59.7395 13.5725 0.0000 0.0000 0.0000
# 3 36.3298 13.5725 133.3757 0.0000 0.0000 0.0000
# 4 0.0000 0.0000 0.0000 20.9233 0.0000 0.0000
# 5 0.0000 0.0000 0.0000 0.0000 -78.9274 0.0000
# 6 0.0000 0.0000 0.0000 0.0000 0.0000 10.3421
#
#
#
# Elastic Compliance Matrix: (Units=1/GPa)
#
#
# Indices 1 2 3 4 5 6 
#
# 1 0.016525 -0.008283 -0.003658 0.000000 0.000000 0.000000
# 2 -0.008283 0.021287 0.000090 0.000000 0.000000 0.000000
# 3 -0.003658 0.000090 0.008485 0.000000 0.000000 0.000000
# 4 0.000000 0.000000 0.000000 0.047794 0.000000 0.000000
# 5 0.000000 0.000000 0.000000 0.000000 -0.012670 0.000000
# 6 0.000000 0.000000 0.000000 0.000000 0.000000 0.096692
#
#
# Mechanical properties :
#
#
# Convention : Reuss Voigt Hill
#
# Bulk Modulus (GPa) = 44.25775 49.32003 46.78889
# Shear Modulus (GPa) = 23.88378 3.48992 13.68685
#
# Velocity S-wave (km/s) = 3.42592 1.30958 2.59345
# Velocity P-wave (km/s) = 6.11541 5.15009 5.65339
#
# Compressibility (1/GPa) = 0.02259491
#
# Stress axis : x y z
#
# Youngs Moduli (GPa) = 60.51282 46.97767 117.85510
#
# Poissons Ratio (x) = 0.38909 0.43117
# Poissons Ratio (y) = 0.50120 -0.01059
# Poissons Ratio (z) = 0.22138 -0.00422
#
# Static dielectric constant tensor:
#      x y z
#    x 1.768020 0.000000 0.000000 
#    y 0.000000 1.797880 0.000000 
#    z 0.000000 0.000000 1.785790 
# 
# From -- ./inp_files/14424.got.cif
#   From: 2010.05.17/outbox.cif.g08.bks.cpg/sg49_8_cif.got.tgz:14424.got - 2010.06.03 21:02:19.
