data_PCOD9394916
_publ_section_title
;
Structure prediction by ZEFSAII (Michael W. Deem and Ramdas Pophale) SiO2 
 PCOD9394916
Probable space group: P C C M
;
_chemical_formula_sum "Si O2"
_cell_formula_units_Z 24
_cell_length_a 13.088059
_cell_length_b 7.458231
_cell_length_c 10.559170
_cell_angle_alpha 90.000000
_cell_angle_beta 90.000000
_cell_angle_gamma 90.000000
_cell_volume 1030.720364
_symmetry_space_group_name_H-M "P C C M"
_symmetry_group_IT_number 49
_symmetry_cell_setting 'orthorhombic'
loop_
_space_group_symop_operation_xyz
x,y,z
-x,-y,z
x,-y,1/2-z
-x,y,1/2-z
-x,-y,-z
x,y,-z
-x,y,1/2+z
x,-y,1/2+z
loop_
_atom_site_type_symbol
_atom_site_label
_atom_site_fract_x
_atom_site_fract_y
_atom_site_fract_z
Si Si1 0.265662 0.798923 0.766273
Si Si2 0.360644 0.680097 0.500000
Si Si3 0.057185 0.306953 0.363512
Si Si4 0.591941 0.743915 0.500000
O O1 0.302469 0.728647 0.629852
O O2 0.175521 0.680264 0.826370
O O3 0.355430 0.811398 0.870894
O O4 0.224831 0.000000 0.750000
O O5 0.471112 0.776155 0.500000
O O6 0.385601 0.469347 0.500000
O O7 0.049226 0.219273 0.500000
O O8 0.000000 0.500000 0.373081
O O9 0.000000 0.210910 0.250000
#
# Coordination Sequence:
#
# PCOD9394916 Si02
#       4
#     8   4   8   4
#     4  12  26  45  73 109 148 185 235 300 363 425
#     4  11  27  43  77 106 141 196 238 287 353 429
#     4  10  24  43  70 101 132 185 233 291 352 428
#     4  11  25  49  69 106 147 190 246 287 341 441
#
# _framework density 23.284686000000001
#
# number of rings (size 3 to 8) (size 9 to 14) (size 15 to 20)
#    0.000    1.000    1.667    3.000   11.667    7.333 
#    0.000    1.667    0.000    0.000    0.000    0.000 
#    0.000    0.000    0.000    0.000    0.000    0.000 
#
# Total GULP energy -134213.854084 kJ/mol
# GULP energy per Si atom -5592.243920 kJ/mol
# Density = 2.323169 g / cm^3
# Si number density = 23.284686 Si / 1000 Ang^3
#
#
#
# Elastic Constant Matrix: (Units=GPa)
#
#
# Indices 1 2 3 4 5 6 
#
# 1 135.5588 10.5517 71.5796 0.0000 0.0000 0.0000
# 2 10.5517 81.5961 2.7185 0.0000 0.0000 0.0000
# 3 71.5796 2.7185 257.3600 0.0000 0.0000 0.0000
# 4 0.0000 0.0000 0.0000 11.9508 0.0000 0.0000
# 5 0.0000 0.0000 0.0000 0.0000 153.8640 0.0000
# 6 0.0000 0.0000 0.0000 0.0000 0.0000 17.5764
#
#
#
# Elastic Compliance Matrix: (Units=1/GPa)
#
#
# Indices 1 2 3 4 5 6 
#
# 1 0.008736 -0.001049 -0.002419 0.000000 0.000000 0.000000
# 2 -0.001049 0.012386 0.000161 0.000000 0.000000 0.000000
# 3 -0.002419 0.000161 0.004557 0.000000 0.000000 0.000000
# 4 0.000000 0.000000 0.000000 0.083676 0.000000 0.000000
# 5 0.000000 0.000000 0.000000 0.000000 0.006499 0.000000
# 6 0.000000 0.000000 0.000000 0.000000 0.000000 0.056895
#
#
# Mechanical properties :
#
#
# Convention : Reuss Voigt Hill
#
# Bulk Modulus (GPa) = 52.45318 71.57936 62.01627
# Shear Modulus (GPa) = 26.92276 62.65592 44.78934
#
# Velocity S-wave (km/s) = 3.40405 5.19298 4.39059
# Velocity P-wave (km/s) = 6.16651 8.17091 7.23843
#
# Compressibility (1/GPa) = 0.01906462
#
# Stress axis : x y z
#
# Youngs Moduli (GPa) = 114.47403 80.73765 219.46284
#
# Poissons Ratio (x) = 0.08470 0.53078
# Poissons Ratio (y) = 0.12009 -0.03532
# Poissons Ratio (z) = 0.27686 -0.01299
#
# Static dielectric constant tensor:
#      x y z
#    x 1.884760 0.000000 0.000000 
#    y 0.000000 1.903200 0.000000 
#    z 0.000000 0.000000 1.880840 
# 
# From -- ./inp_files/7828.got.cif
#   From: 2010.05.17/outbox.cif.g08.bks.cpg/sg49_4_cif.got.tgz:7828.got - 2010.06.03 21:02:19.
