data_PCOD9394715
_publ_section_title
;
Structure prediction by ZEFSAII (Michael W. Deem and Ramdas Pophale) SiO2 
 PCOD9394715
Probable space group: P C C M
;
_chemical_formula_sum "Si O2"
_cell_formula_units_Z 26
_cell_length_a 15.621335
_cell_length_b 5.257865
_cell_length_c 13.478576
_cell_angle_alpha 90.000000
_cell_angle_beta 90.000000
_cell_angle_gamma 90.000000
_cell_volume 1107.061095
_symmetry_space_group_name_H-M "P C C M"
_symmetry_group_IT_number 49
_symmetry_cell_setting 'orthorhombic'
loop_
_space_group_symop_operation_xyz
x,y,z
-x,-y,z
x,-y,1/2-z
-x,y,1/2-z
-x,-y,-z
x,y,-z
-x,y,1/2+z
x,-y,1/2+z
loop_
_atom_site_type_symbol
_atom_site_label
_atom_site_fract_x
_atom_site_fract_y
_atom_site_fract_z
Si Si1 0.647175 0.820661 0.118509
Si Si2 0.754999 0.327602 0.880116
Si Si3 0.500000 0.000000 0.750000
Si Si4 0.946632 0.248649 0.880008
O O1 0.710298 0.592043 0.148038
O O2 0.694156 0.088156 0.138421
O O3 0.559962 0.829130 0.179787
O O4 0.630798 0.801121 0.000000
O O5 0.850130 0.273504 0.840324
O O6 0.763288 0.344850 0.000000
O O7 0.000000 0.500000 0.857035
O O8 0.939800 0.236043 0.000000
O O9 0.000000 0.000000 0.851888
#
# Coordination Sequence:
#
# PCOD9394715 Si02
#       4
#     8   8   2   8
#     4  10  22  39  59  84 117 153 194 245 302 360
#     4   9  18  34  54  81 120 158 189 235 294 348
#     4  12  26  42  64  88 110 150 206 258 308 360
#     4   9  15  24  45  79 115 150 190 229 268 330
#
# _framework density 23.485603999999999
#
# number of rings (size 3 to 8) (size 9 to 14) (size 15 to 20)
#    0.000    2.462    0.000    2.308    0.000   11.077 
#    0.000    4.615    0.000    0.000    0.000   16.154 
#    0.000    0.000    0.000    0.000    0.000   10.769 
#
# Total GULP energy -145615.874567 kJ/mol
# GULP energy per Si atom -5600.610560 kJ/mol
# Density = 2.343215 g / cm^3
# Si number density = 23.485604 Si / 1000 Ang^3
#
#
#
# Elastic Constant Matrix: (Units=GPa)
#
#
# Indices 1 2 3 4 5 6 
#
# 1 213.9448 102.4293 42.9478 0.0000 0.0000 0.0000
# 2 102.4293 205.9494 18.1976 0.0000 0.0000 0.0000
# 3 42.9478 18.1976 102.0271 0.0000 0.0000 0.0000
# 4 0.0000 0.0000 0.0000 96.8041 0.0000 0.0000
# 5 0.0000 0.0000 0.0000 0.0000 10.5576 0.0000
# 6 0.0000 0.0000 0.0000 0.0000 0.0000 11.5805
#
#
#
# Elastic Compliance Matrix: (Units=1/GPa)
#
#
# Indices 1 2 3 4 5 6 
#
# 1 0.006598 -0.003085 -0.002227 0.000000 0.000000 0.000000
# 2 -0.003085 0.006376 0.000161 0.000000 0.000000 0.000000
# 3 -0.002227 0.000161 0.010710 0.000000 0.000000 0.000000
# 4 0.000000 0.000000 0.000000 0.010330 0.000000 0.000000
# 5 0.000000 0.000000 0.000000 0.000000 0.094718 0.000000
# 6 0.000000 0.000000 0.000000 0.000000 0.000000 0.086352
#
#
# Mechanical properties :
#
#
# Convention : Reuss Voigt Hill
#
# Bulk Modulus (GPa) = 74.72483 94.34118 84.53301
# Shear Modulus (GPa) = 21.75365 47.67821 34.71593
#
# Velocity S-wave (km/s) = 3.04674 4.51056 3.84888
# Velocity P-wave (km/s) = 6.65306 8.20876 7.47151
#
# Compressibility (1/GPa) = 0.01338243
#
# Stress axis : x y z
#
# Youngs Moduli (GPa) = 151.55916 156.84998 93.37003
#
# Poissons Ratio (x) = 0.48385 0.20796
# Poissons Ratio (y) = 0.46753 -0.01507
# Poissons Ratio (z) = 0.33756 -0.02531
#
# Static dielectric constant tensor:
#      x y z
#    x 1.840590 0.000000 0.000000 
#    y 0.000000 1.808710 0.000000 
#    z 0.000000 0.000000 1.947420 
# 
# From -- ./inp_files/10448.got.cif
#   From: 2010.05.17/outbox.cif.g08.bks.cpg/sg49_6_cif.got.tgz:10448.got - 2010.06.03 21:02:19.
