data_PCOD9394455
_publ_section_title
;
Structure prediction by ZEFSAII (Michael W. Deem and Ramdas Pophale) SiO2 
 PCOD9394455
Probable space group: P C C M
;
_chemical_formula_sum "Si O2"
_cell_formula_units_Z 56
_cell_length_a 16.377443
_cell_length_b 10.007415
_cell_length_c 15.619736
_cell_angle_alpha 90.000000
_cell_angle_beta 90.000000
_cell_angle_gamma 90.000000
_cell_volume 2560.010201
_symmetry_space_group_name_H-M "P C C M"
_symmetry_group_IT_number 49
_symmetry_cell_setting 'orthorhombic'
loop_
_space_group_symop_operation_xyz
x,y,z
-x,-y,z
x,-y,1/2-z
-x,y,1/2-z
-x,-y,-z
x,y,-z
-x,y,1/2+z
x,-y,1/2+z
loop_
_atom_site_type_symbol
_atom_site_label
_atom_site_fract_x
_atom_site_fract_y
_atom_site_fract_z
Si Si1 0.308177 0.676822 0.156823
Si Si2 0.072329 0.601613 0.603864
Si Si3 0.925812 0.909866 0.895896
Si Si4 0.744749 0.605750 0.850706
Si Si5 0.358969 0.835868 0.405328
Si Si6 0.508215 0.348839 0.148769
Si Si7 0.241828 0.951653 0.895924
O O1 0.293669 0.531604 0.116068
O O2 0.290650 0.645494 0.257176
O O3 0.401681 0.709628 0.134658
O O4 0.250338 0.797704 0.129859
O O5 0.082740 0.590553 0.500000
O O6 0.056142 0.756309 0.625375
O O7 0.159352 0.577063 0.647974
O O8 0.000000 0.500000 0.628089
O O9 0.840112 0.972944 0.866094
O O10 0.923536 0.915446 0.000000
O O11 0.000000 0.000000 0.865357
O O12 0.716798 0.731351 0.906332
O O13 0.381427 0.879683 0.500000
O O14 0.436061 0.751728 0.374644
O O15 0.320069 0.965467 0.360986
O O16 0.500000 0.500000 0.111621
O O17 0.500000 0.364945 0.250000
O O18 0.242003 0.957176 0.000000
#
# Coordination Sequence:
#
# PCOD9394455 Si02
#       7
#     8   8   8   8   8   8   8
#     4  11  24  40  64  90 122 170 215 262 323 391
#     4  10  21  37  63  96 127 163 209 262 315 374
#     4   9  18  35  59  87 122 161 201 253 316 377
#     4  11  21  42  63  91 125 168 217 263 312 387
#     4  11  22  39  64  93 127 165 210 274 330 380
#     4  11  20  41  63  88 125 166 218 267 318 389
#     4  10  23  41  61  92 132 166 208 272 336 396
#
# _framework density 21.874911999999998
#
# number of rings (size 3 to 8) (size 9 to 14) (size 15 to 20)
#    0.000    1.571    4.286    1.286    2.000    3.143 
#    0.000    3.571    0.000    0.857    0.000    0.000 
#    0.000    0.000    0.000    0.000    0.000    0.000 
#
# Total GULP energy -312460.997600 kJ/mol
# GULP energy per Si atom -5579.660671 kJ/mol
# Density = 2.182512 g / cm^3
# Si number density = 21.874912 Si / 1000 Ang^3
#
#
#
# Elastic Constant Matrix: (Units=GPa)
#
#
# Indices 1 2 3 4 5 6 
#
# 1 156.9345 51.7102 9.8236 0.0000 0.0000 0.0000
# 2 51.7102 127.4478 8.4765 0.0000 0.0000 0.0000
# 3 9.8236 8.4765 25.4967 0.0000 0.0000 0.0000
# 4 0.0000 0.0000 0.0000 20.6024 0.0000 0.0000
# 5 0.0000 0.0000 0.0000 0.0000 15.9920 0.0000
# 6 0.0000 0.0000 0.0000 0.0000 0.0000 16.9245
#
#
#
# Elastic Compliance Matrix: (Units=1/GPa)
#
#
# Indices 1 2 3 4 5 6 
#
# 1 0.007445 -0.002894 -0.001906 0.000000 0.000000 0.000000
# 2 -0.002894 0.009149 -0.001927 0.000000 0.000000 0.000000
# 3 -0.001906 -0.001927 0.040596 0.000000 0.000000 0.000000
# 4 0.000000 0.000000 0.000000 0.048538 0.000000 0.000000
# 5 0.000000 0.000000 0.000000 0.000000 0.062531 0.000000
# 6 0.000000 0.000000 0.000000 0.000000 0.000000 0.059086
#
#
# Mechanical properties :
#
#
# Convention : Reuss Voigt Hill
#
# Bulk Modulus (GPa) = 22.86457 49.98884 36.42671
# Shear Modulus (GPa) = 19.57891 26.69503 23.13697
#
# Velocity S-wave (km/s) = 2.99497 3.49714 3.25575
# Velocity P-wave (km/s) = 4.73655 6.26166 5.55172
#
# Compressibility (1/GPa) = 0.04373579
#
# Stress axis : x y z
#
# Youngs Moduli (GPa) = 134.31895 109.30581 24.63310
#
# Poissons Ratio (x) = 0.31632 0.04696
# Poissons Ratio (y) = 0.38871 0.04746
# Poissons Ratio (z) = 0.25606 0.21058
#
# Static dielectric constant tensor:
#      x y z
#    x 1.835340 0.000000 0.000000 
#    y 0.000000 1.808000 0.000000 
#    z 0.000000 0.000000 1.854890 
# 
# From -- ./inp_files/20894.got.cif
#   From: 2010.05.17/outbox.cif.g08.bks.cpg/sg49_11_cif.got.tgz:20894.got - 2010.06.03 21:02:19.
