data_PCOD9394403
_publ_section_title
;
Structure prediction by ZEFSAII (Michael W. Deem and Ramdas Pophale) SiO2 
 PCOD9394403
Probable space group: P C C M
;
_chemical_formula_sum "Si O2"
_cell_formula_units_Z 58
_cell_length_a 18.485533
_cell_length_b 11.444599
_cell_length_c 14.352907
_cell_angle_alpha 90.000000
_cell_angle_beta 90.000000
_cell_angle_gamma 90.000000
_cell_volume 3036.494008
_symmetry_space_group_name_H-M "P C C M"
_symmetry_group_IT_number 49
_symmetry_cell_setting 'orthorhombic'
loop_
_space_group_symop_operation_xyz
x,y,z
-x,-y,z
x,-y,1/2-z
-x,y,1/2-z
-x,-y,-z
x,y,-z
-x,y,1/2+z
x,-y,1/2+z
loop_
_atom_site_type_symbol
_atom_site_label
_atom_site_fract_x
_atom_site_fract_y
_atom_site_fract_z
Si Si1 0.252038 0.205430 0.391096
Si Si2 0.519433 0.636993 0.605608
Si Si3 0.383147 0.024763 0.357989
Si Si4 0.339589 0.633369 0.218076
Si Si5 0.500000 0.000000 0.000000
Si Si6 0.985709 0.141211 0.394039
Si Si7 0.882116 0.140268 0.762863
Si Si8 0.636607 0.242818 0.398773
O O1 0.230192 0.197554 0.500000
O O2 0.285415 0.330875 0.363815
O O3 0.189637 0.179496 0.315919
O O4 0.316535 0.112062 0.372820
O O5 0.500000 0.500000 0.618560
O O6 0.548279 0.649128 0.500000
O O7 0.580704 0.665780 0.679990
O O8 0.445426 0.709319 0.610816
O O9 0.451508 0.064531 0.418149
O O10 0.365077 0.896629 0.398580
O O11 0.398422 0.000000 0.250000
O O12 0.338680 0.500000 0.250000
O O13 0.322438 0.709608 0.309343
O O14 0.986053 0.181720 0.500000
O O15 0.912034 0.174571 0.339595
O O16 0.053499 0.179750 0.332059
O O17 0.000000 0.000000 0.395298
O O18 0.877581 0.000000 0.750000
O O19 0.663273 0.284031 0.500000
#
# Coordination Sequence:
#
# PCOD9394403 Si02
#       8
#     8   8   8   8   2   8   8   8
#     4  12  25  41  62  85 122 162 200 246 308 377
#     4  10  21  37  59  83 103 133 190 261 323 365
#     4  12  25  42  59  84 111 152 201 248 309 374
#     4  12  25  39  60  82 109 146 199 253 308 367
#     4  12  26  40  56  82 114 156 204 248 290 366
#     4   8  14  29  55  89 125 165 203 237 279 343
#     4   9  18  32  55  89 130 165 202 236 284 351
#     4  11  23  39  59  79 107 138 186 251 316 368
#
# _framework density 19.100977
#
# number of rings (size 3 to 8) (size 9 to 14) (size 15 to 20)
#    0.000    1.379    4.138    2.690    1.931    2.207 
#    0.000    0.690    0.000    0.000    0.000    1.931 
#    0.000    5.517    0.000    0.000    0.000    0.000 
#
# Total GULP energy -323051.269282 kJ/mol
# GULP energy per Si atom -5569.849470 kJ/mol
# Density = 1.905750 g / cm^3
# Si number density = 19.100977 Si / 1000 Ang^3
#
#
#
# Elastic Constant Matrix: (Units=GPa)
#
#
# Indices 1 2 3 4 5 6 
#
# 1 77.4734 6.5613 35.8055 0.0000 0.0000 0.0000
# 2 6.5613 48.6722 7.3245 0.0000 0.0000 0.0000
# 3 35.8055 7.3245 164.8386 0.0000 0.0000 0.0000
# 4 0.0000 0.0000 0.0000 21.3214 0.0000 0.0000
# 5 0.0000 0.0000 0.0000 0.0000 34.0609 0.0000
# 6 0.0000 0.0000 0.0000 0.0000 0.0000 10.1602
#
#
#
# Elastic Compliance Matrix: (Units=1/GPa)
#
#
# Indices 1 2 3 4 5 6 
#
# 1 0.014454 -0.001486 -0.003074 0.000000 0.000000 0.000000
# 2 -0.001486 0.020837 -0.000603 0.000000 0.000000 0.000000
# 3 -0.003074 -0.000603 0.006761 0.000000 0.000000 0.000000
# 4 0.000000 0.000000 0.000000 0.046901 0.000000 0.000000
# 5 0.000000 0.000000 0.000000 0.000000 0.029359 0.000000
# 6 0.000000 0.000000 0.000000 0.000000 0.000000 0.098423
#
#
# Mechanical properties :
#
#
# Convention : Reuss Voigt Hill
#
# Bulk Modulus (GPa) = 31.51955 43.37410 37.44682
# Shear Modulus (GPa) = 21.04057 29.19471 25.11764
#
# Velocity S-wave (km/s) = 3.32255 3.91377 3.63022
# Velocity P-wave (km/s) = 5.59075 6.57119 6.10070
#
# Compressibility (1/GPa) = 0.03172634
#
# Stress axis : x y z
#
# Youngs Moduli (GPa) = 69.18492 47.99232 147.90766
#
# Poissons Ratio (x) = 0.07131 0.45461
# Poissons Ratio (y) = 0.10281 0.08920
# Poissons Ratio (z) = 0.21265 0.02894
#
# Static dielectric constant tensor:
#      x y z
#    x 1.690610 0.000000 0.000000 
#    y 0.000000 1.703990 0.000000 
#    z 0.000000 0.000000 1.740340 
# 
# From -- ./inp_files/14131.got.cif
#   From: 2010.05.17/outbox.cif.g08.bks.cpg/sg49_8_cif.got.tgz:14131.got - 2010.06.03 21:02:19.
