data_PCOD9394695
_publ_section_title
;
Structure prediction by ZEFSAII (Michael W. Deem and Ramdas Pophale) SiO2 
 PCOD9394695
Probable space group: P C C M
;
_chemical_formula_sum "Si O2"
_cell_formula_units_Z 48
_cell_length_a 9.222616
_cell_length_b 16.500436
_cell_length_c 15.300465
_cell_angle_alpha 90.000000
_cell_angle_beta 90.000000
_cell_angle_gamma 90.000000
_cell_volume 2328.381694
_symmetry_space_group_name_H-M "P C C M"
_symmetry_group_IT_number 49
_symmetry_cell_setting 'orthorhombic'
loop_
_space_group_symop_operation_xyz
x,y,z
-x,-y,z
x,-y,1/2-z
-x,y,1/2-z
-x,-y,-z
x,y,-z
-x,y,1/2+z
x,-y,1/2+z
loop_
_atom_site_type_symbol
_atom_site_label
_atom_site_fract_x
_atom_site_fract_y
_atom_site_fract_z
Si Si1 0.434150 0.080374 0.152239
Si Si2 0.075943 0.756103 0.656209
Si Si3 0.065850 0.419626 0.847761
Si Si4 0.889248 0.068775 0.601688
Si Si5 0.610752 0.431225 0.398312
Si Si6 0.424058 0.256103 0.156209
O O1 0.500000 0.084015 0.250000
O O2 0.261317 0.068505 0.153734
O O3 0.465602 0.169618 0.113328
O O4 0.500000 0.000000 0.109257
O O5 0.034398 0.669618 0.613328
O O6 0.046122 0.840606 0.608489
O O7 0.250000 0.750000 0.666938
O O8 0.000000 0.761344 0.750000
O O9 0.238683 0.431495 0.846266
O O10 0.000000 0.500000 0.890743
O O11 0.000000 0.415985 0.750000
O O12 0.854514 0.052738 0.500000
O O13 0.000000 0.000000 0.632153
O O14 0.500000 0.500000 0.367847
O O15 0.645487 0.447261 0.500000
O O16 0.546122 0.340606 0.391511
O O17 0.500000 0.261344 0.250000
#
# Coordination Sequence:
#
# PCOD9394695 Si02
#       6
#     8   8   8   8   8   8
#     4   9  19  36  56  82 111 142 183 225 272 326
#     4   9  19  34  55  80 108 142 182 224 270 324
#     4   9  19  36  56  82 111 142 183 225 272 326
#     4  10  22  38  56  81 113 148 184 225 275 327
#     4  10  22  38  56  81 113 148 184 225 275 327
#     4   9  19  34  55  80 108 142 182 224 270 324
#
# _framework density 20.615178
#
# number of rings (size 3 to 8) (size 9 to 14) (size 15 to 20)
#    0.000    2.667    0.000    0.000    0.000   20.667 
#    0.000    0.000    0.000    5.000    0.000    0.000 
#    0.000    0.000    0.000    0.000    0.000    0.000 
#
# Total GULP energy -267433.947443 kJ/mol
# GULP energy per Si atom -5571.540572 kJ/mol
# Density = 2.056826 g / cm^3
# Si number density = 20.615178 Si / 1000 Ang^3
#
#
#
# Elastic Constant Matrix: (Units=GPa)
#
#
# Indices 1 2 3 4 5 6 
#
# 1 56.1160 77.3166 26.5426 0.0000 0.0000 0.0000
# 2 77.3166 224.0120 13.2556 0.0000 0.0000 0.0000
# 3 26.5426 13.2556 52.8074 0.0000 0.0000 0.0000
# 4 0.0000 0.0000 0.0000 51.6444 0.0000 0.0000
# 5 0.0000 0.0000 0.0000 0.0000 -5.5101 0.0000
# 6 0.0000 0.0000 0.0000 0.0000 0.0000 37.2203
#
#
#
# Elastic Compliance Matrix: (Units=1/GPa)
#
#
# Indices 1 2 3 4 5 6 
#
# 1 0.049617 -0.015885 -0.020952 0.000000 0.000000 0.000000
# 2 -0.015885 0.009617 0.005570 0.000000 0.000000 0.000000
# 3 -0.020952 0.005570 0.028069 0.000000 0.000000 0.000000
# 4 0.000000 0.000000 0.000000 0.019363 0.000000 0.000000
# 5 0.000000 0.000000 0.000000 0.000000 -0.181484 0.000000
# 6 0.000000 0.000000 0.000000 0.000000 0.000000 0.026867
#
#
# Mechanical properties :
#
#
# Convention : Reuss Voigt Hill
#
# Bulk Modulus (GPa) = 40.37044 63.01833 51.69439
# Shear Modulus (GPa) = 218.91620 31.05896 124.98758
#
# Velocity S-wave (km/s) = 10.31612 3.88571 7.79490
# Velocity P-wave (km/s) = 12.70912 7.12509 10.30264
#
# Compressibility (1/GPa) = 0.02477060
#
# Stress axis : x y z
#
# Youngs Moduli (GPa) = 20.15441 103.98101 35.62603
#
# Poissons Ratio (x) = 1.65176 0.74642
# Poissons Ratio (y) = 0.32016 -0.19845
# Poissons Ratio (z) = 0.42227 -0.57921
#
# Static dielectric constant tensor:
#      x y z
#    x 1.703640 0.000000 0.000000 
#    y 0.000000 1.832960 0.000000 
#    z 0.000000 0.000000 1.716650 
# 
# From -- ./inp_files/11853.got.cif
#   From: 2010.05.17/outbox.cif.g08.bks.cpg/sg49_6_cif.got.tgz:11853.got - 2010.06.03 21:02:19.
