data_PCOD9394420
_publ_section_title
;
Structure prediction by ZEFSAII (Michael W. Deem and Ramdas Pophale) SiO2 
 PCOD9394420
Probable space group: P C C M
;
_chemical_formula_sum "Si O2"
_cell_formula_units_Z 40
_cell_length_a 10.109005
_cell_length_b 10.108998
_cell_length_c 20.161736
_cell_angle_alpha 90.000000
_cell_angle_beta 90.000000
_cell_angle_gamma 90.000000
_cell_volume 2060.366338
_symmetry_space_group_name_H-M "P C C M"
_symmetry_group_IT_number 49
_symmetry_cell_setting 'orthorhombic'
loop_
_space_group_symop_operation_xyz
x,y,z
-x,-y,z
x,-y,1/2-z
-x,y,1/2-z
-x,-y,-z
x,y,-z
-x,y,1/2+z
x,-y,1/2+z
loop_
_atom_site_type_symbol
_atom_site_label
_atom_site_fract_x
_atom_site_fract_y
_atom_site_fract_z
Si Si1 0.607284 0.392716 0.107784
Si Si2 0.500000 0.000000 0.750000
Si Si3 0.000000 0.500000 0.250000
Si Si4 0.603723 0.818550 0.139607
Si Si5 0.770156 0.770155 0.500000
Si Si6 0.920077 0.693260 0.000000
Si Si7 0.181451 0.603723 0.360393
Si Si8 0.306739 0.079923 0.000000
O O1 0.500000 0.500000 0.078240
O O2 0.515462 0.287287 0.144852
O O3 0.696579 0.303422 0.060194
O O4 0.712713 0.484537 0.144853
O O5 0.411025 0.082732 0.800275
O O6 0.917268 0.411025 0.300275
O O7 0.737822 0.737822 0.145368
O O8 0.609882 0.884648 0.066394
O O9 0.739737 0.927300 0.500000
O O10 0.927301 0.739736 0.500000
O O11 0.884647 0.609881 0.933606
O O12 0.819906 0.819906 0.000000
#
# Coordination Sequence:
#
# PCOD9394420 Si02
#       8
#     8   2   2   8   4   4   8   4
#     4  10  21  37  59  92 121 160 194 254 317 369
#     4  12  24  38  62  94 124 162 208 250 314 374
#     4  12  24  38  62  94 124 162 208 250 314 374
#     4  10  23  42  64  90 127 160 207 256 311 371
#     4  12  20  32  64  92 128 156 206 254 308 354
#     4  10  22  42  62  90 124 168 212 258 296 362
#     4  10  23  42  64  90 127 160 207 256 311 371
#     4  10  22  42  62  90 124 168 212 258 296 362
#
# _framework density 19.414023
#
# number of rings (size 3 to 8) (size 9 to 14) (size 15 to 20)
#    0.000    1.600    0.000    4.200    2.800    5.600 
#    3.600    0.000    0.000    0.000    0.000    0.000 
#    0.000    0.000    0.000    0.000    0.000    0.000 
#
# Total GULP energy -223194.592374 kJ/mol
# GULP energy per Si atom -5579.864809 kJ/mol
# Density = 1.936984 g / cm^3
# Si number density = 19.414023 Si / 1000 Ang^3
#
#
#
# Elastic Constant Matrix: (Units=GPa)
#
#
# Indices 1 2 3 4 5 6 
#
# 1 111.2396 54.0021 64.0807 0.0000 0.0000 0.0000
# 2 54.0021 111.2394 64.0804 0.0000 0.0000 0.0000
# 3 64.0807 64.0804 158.6417 0.0000 0.0000 0.0000
# 4 0.0000 0.0000 0.0000 48.1409 0.0000 0.0000
# 5 0.0000 0.0000 0.0000 0.0000 48.1459 0.0000
# 6 0.0000 0.0000 0.0000 0.0000 0.0000 31.4403
#
#
#
# Elastic Compliance Matrix: (Units=1/GPa)
#
#
# Indices 1 2 3 4 5 6 
#
# 1 0.013142 -0.004329 -0.003560 0.000000 0.000000 0.000000
# 2 -0.004329 0.013142 -0.003560 0.000000 0.000000 0.000000
# 3 -0.003560 -0.003560 0.009179 0.000000 0.000000 0.000000
# 4 0.000000 0.000000 0.000000 0.020772 0.000000 0.000000
# 5 0.000000 0.000000 0.000000 0.000000 0.020770 0.000000
# 6 0.000000 0.000000 0.000000 0.000000 0.000000 0.031806
#
#
# Mechanical properties :
#
#
# Convention : Reuss Voigt Hill
#
# Bulk Modulus (GPa) = 79.58156 82.82745 81.20450
# Shear Modulus (GPa) = 36.79234 38.80924 37.80079
#
# Velocity S-wave (km/s) = 4.35805 4.47590 4.41737
# Velocity P-wave (km/s) = 8.14888 8.33474 8.24233
#
# Compressibility (1/GPa) = 0.01256573
#
# Stress axis : x y z
#
# Youngs Moduli (GPa) = 76.09257 76.09266 108.94097
#
# Poissons Ratio (x) = 0.32942 0.38780
# Poissons Ratio (y) = 0.32942 0.38780
# Poissons Ratio (z) = 0.27087 0.27087
#
# Static dielectric constant tensor:
#      x y z
#    x 1.691830 0.000000 0.000000 
#    y 0.000000 1.691830 0.000000 
#    z 0.000000 0.000000 1.670530 
# 
# From -- ./inp_files/19712.got.cif
#   From: 2010.05.17/outbox.cif.g08.bks.cpg/sg49_10_cif.got.tgz:19712.got - 2010.06.03 21:02:19.
