data_PCOD9394199
_publ_section_title
;
Structure prediction by ZEFSAII (Michael W. Deem and Ramdas Pophale) SiO2 
 PCOD9394199
Probable space group: P C C M
;
_chemical_formula_sum "Si O2"
_cell_formula_units_Z 64
_cell_length_a 11.832652
_cell_length_b 9.135274
_cell_length_c 27.512111
_cell_angle_alpha 90.000000
_cell_angle_beta 90.000000
_cell_angle_gamma 90.000000
_cell_volume 2973.908382
_symmetry_space_group_name_H-M "P C C M"
_symmetry_group_IT_number 49
_symmetry_cell_setting 'orthorhombic'
loop_
_space_group_symop_operation_xyz
x,y,z
-x,-y,z
x,-y,1/2-z
-x,y,1/2-z
-x,-y,-z
x,y,-z
-x,y,1/2+z
x,-y,1/2+z
loop_
_atom_site_type_symbol
_atom_site_label
_atom_site_fract_x
_atom_site_fract_y
_atom_site_fract_z
Si Si1 0.120819 0.922194 0.444654
Si Si2 0.447676 0.835725 0.340045
Si Si3 0.635587 0.631125 0.288418
Si Si4 0.508264 0.823684 0.947221
Si Si5 0.170701 0.408681 0.361504
Si Si6 0.939642 0.274489 0.352156
Si Si7 0.755839 0.213410 0.945106
Si Si8 0.225114 0.151438 0.777055
O O1 0.151954 0.870827 0.500000
O O2 0.098350 0.808177 0.401479
O O3 0.208752 0.049573 0.428368
O O4 0.000000 0.000000 0.449165
O O5 0.528920 0.725835 0.308753
O O6 0.436654 0.782849 0.395896
O O7 0.326168 0.852413 0.316295
O O8 0.500000 0.000000 0.339566
O O9 0.614067 0.500000 0.250000
O O10 0.709503 0.579989 0.334296
O O11 0.724793 0.735137 0.261443
O O12 0.378724 0.772872 0.944223
O O13 0.500000 0.000000 0.948408
O O14 0.556532 0.777053 0.000000
O O15 0.114333 0.565578 0.357531
O O16 0.193511 0.344086 0.414447
O O17 0.073704 0.294705 0.343808
O O18 0.885440 0.199086 0.305482
O O19 0.798029 0.220255 0.000000
O O20 0.210935 0.000000 0.750000
#
# Coordination Sequence:
#
# PCOD9394199 Si02
#       8
#     8   8   8   8   8   8   8   8
#     4  10  21  38  62  98 130 164 218 278 331 391
#     4  11  23  41  71 101 135 170 220 285 333 402
#     4  12  25  47  69  96 132 175 225 281 340 394
#     4   9  19  35  61 100 135 172 211 260 339 408
#     4  11  24  46  65  96 132 178 229 275 335 412
#     4  11  26  44  67  92 136 182 222 277 342 402
#     4  10  20  38  67  98 134 172 218 274 332 407
#     4  12  27  44  66  98 132 173 231 281 340 400
#
# _framework density 21.520500999999999
#
# number of rings (size 3 to 8) (size 9 to 14) (size 15 to 20)
#    0.000    1.250    5.000    0.375    5.250    2.000 
#    0.000    1.875    0.000    0.000    0.000    2.625 
#    0.000    0.000    0.000    0.000    0.000    0.125 
#
# Total GULP energy -357372.815468 kJ/mol
# GULP energy per Si atom -5583.950242 kJ/mol
# Density = 2.147152 g / cm^3
# Si number density = 21.520501 Si / 1000 Ang^3
#
#
#
# Elastic Constant Matrix: (Units=GPa)
#
#
# Indices 1 2 3 4 5 6 
#
# 1 64.6826 20.5208 30.2041 0.0000 0.0000 0.0000
# 2 20.5208 83.4832 52.4150 0.0000 0.0000 0.0000
# 3 30.2041 52.4150 121.5582 0.0000 0.0000 0.0000
# 4 0.0000 0.0000 0.0000 69.6504 0.0000 0.0000
# 5 0.0000 0.0000 0.0000 0.0000 -48.6139 0.0000
# 6 0.0000 0.0000 0.0000 0.0000 0.0000 45.9505
#
#
#
# Elastic Compliance Matrix: (Units=1/GPa)
#
#
# Indices 1 2 3 4 5 6 
#
# 1 0.017776 -0.002189 -0.003473 0.000000 0.000000 0.000000
# 2 -0.002189 0.016695 -0.006655 0.000000 0.000000 0.000000
# 3 -0.003473 -0.006655 0.011959 0.000000 0.000000 0.000000
# 4 0.000000 0.000000 0.000000 0.014357 0.000000 0.000000
# 5 0.000000 0.000000 0.000000 0.000000 -0.020570 0.000000
# 6 0.000000 0.000000 0.000000 0.000000 0.000000 0.021763
#
#
# Mechanical properties :
#
#
# Convention : Reuss Voigt Hill
#
# Bulk Modulus (GPa) = 45.87909 52.88931 49.38420
# Shear Modulus (GPa) = 53.26014 24.50301 38.88157
#
# Velocity S-wave (km/s) = 4.98019 3.37796 4.25517
# Velocity P-wave (km/s) = 7.37799 6.31219 6.86580
#
# Compressibility (1/GPa) = 0.02179642
#
# Stress axis : x y z
#
# Youngs Moduli (GPa) = 56.25443 59.89924 83.61932
#
# Poissons Ratio (x) = 0.13112 0.29042
# Poissons Ratio (y) = 0.12314 0.55646
# Poissons Ratio (z) = 0.19538 0.39861
#
# Static dielectric constant tensor:
#      x y z
#    x 2.064330 0.000000 0.000000 
#    y 0.000000 1.956300 0.000000 
#    z 0.000000 0.000000 1.825460 
# 
# From -- ./inp_files/26689.got.cif
#   From: 2010.05.17/outbox.cif.g08.bks.cpg/sg49_14_cif.got.tgz:26689.got - 2010.06.03 21:02:19.
