data_PCOD9394206
_publ_section_title
;
Structure prediction by ZEFSAII (Michael W. Deem and Ramdas Pophale) SiO2 
 PCOD9394206
Probable space group: P C C M
;
_chemical_formula_sum "Si O2"
_cell_formula_units_Z 58
_cell_length_a 9.194646
_cell_length_b 15.112669
_cell_length_c 22.838539
_cell_angle_alpha 90.000000
_cell_angle_beta 90.000000
_cell_angle_gamma 90.000000
_cell_volume 3173.543839
_symmetry_space_group_name_H-M "P C C M"
_symmetry_group_IT_number 49
_symmetry_cell_setting 'orthorhombic'
loop_
_space_group_symop_operation_xyz
x,y,z
-x,-y,z
x,-y,1/2-z
-x,y,1/2-z
-x,-y,-z
x,y,-z
-x,y,1/2+z
x,-y,1/2+z
loop_
_atom_site_type_symbol
_atom_site_label
_atom_site_fract_x
_atom_site_fract_y
_atom_site_fract_z
Si Si1 0.000000 0.500000 0.250000
Si Si2 0.050448 0.602239 0.566359
Si Si3 0.336669 0.705131 0.433117
Si Si4 0.833309 0.372958 0.840078
Si Si5 0.646242 0.843997 0.831940
Si Si6 0.835078 0.987653 0.679276
Si Si7 0.308016 0.189923 0.697162
Si Si8 0.606254 0.582941 0.434694
O O1 0.899537 0.436903 0.209453
O O2 0.012963 0.629101 0.500000
O O3 0.220387 0.625061 0.573199
O O4 0.000000 0.500000 0.572589
O O5 0.965120 0.653430 0.616855
O O6 0.320672 0.738341 0.500000
O O7 0.310096 0.777889 0.383802
O O8 0.499262 0.666626 0.427301
O O9 0.749295 0.286826 0.817984
O O10 0.720372 0.421699 0.882937
O O11 0.716596 0.940743 0.842967
O O12 0.702761 0.816666 0.767630
O O13 0.471954 0.834336 0.823206
O O14 0.835273 0.000000 0.750000
O O15 0.788499 0.887101 0.668966
O O16 0.000000 0.000000 0.658120
O O17 0.500000 0.500000 0.433665
O O18 0.673988 0.586215 0.500000
#
# Coordination Sequence:
#
# PCOD9394206 Si02
#       8
#     2   8   8   8   8   8   8   8
#     4  12  32  40  52  88 130 184 194 262 296 388
#     4  10  21  38  61  83 113 158 205 252 298 347
#     4  10  21  37  60  89 115 154 204 252 304 352
#     4  12  24  42  57  85 127 159 210 237 310 358
#     4  10  20  39  60  86 124 150 194 245 306 355
#     4   9  19  35  60  92 116 149 193 240 291 356
#     4  10  22  36  61  90 115 160 192 242 297 369
#     4  10  21  39  64  88 112 150 208 265 299 349
#
# _framework density 18.276097
#
# number of rings (size 3 to 8) (size 9 to 14) (size 15 to 20)
#    0.000    1.793    2.069    1.655    3.862    4.966 
#    0.000    0.000    0.000    3.724    0.000    0.000 
#    0.000    0.000    0.000    0.000    0.000    0.000 
#
# Total GULP energy -323360.375468 kJ/mol
# GULP energy per Si atom -5575.178887 kJ/mol
# Density = 1.823450 g / cm^3
# Si number density = 18.276097 Si / 1000 Ang^3
#
#
#
# Elastic Constant Matrix: (Units=GPa)
#
#
# Indices 1 2 3 4 5 6 
#
# 1 103.3223 50.3129 57.8390 0.0000 0.0000 0.0000
# 2 50.3129 114.6246 56.9627 0.0000 0.0000 0.0000
# 3 57.8390 56.9627 96.7272 0.0000 0.0000 0.0000
# 4 0.0000 0.0000 0.0000 30.2737 0.0000 0.0000
# 5 0.0000 0.0000 0.0000 0.0000 30.3230 0.0000
# 6 0.0000 0.0000 0.0000 0.0000 0.0000 31.1930
#
#
#
# Elastic Compliance Matrix: (Units=1/GPa)
#
#
# Indices 1 2 3 4 5 6 
#
# 1 0.015272 -0.003061 -0.007329 0.000000 0.000000 0.000000
# 2 -0.003061 0.012947 -0.005794 0.000000 0.000000 0.000000
# 3 -0.007329 -0.005794 0.018133 0.000000 0.000000 0.000000
# 4 0.000000 0.000000 0.000000 0.033032 0.000000 0.000000
# 5 0.000000 0.000000 0.000000 0.000000 0.032978 0.000000
# 6 0.000000 0.000000 0.000000 0.000000 0.000000 0.032058
#
#
# Mechanical properties :
#
#
# Convention : Reuss Voigt Hill
#
# Bulk Modulus (GPa) = 71.51491 71.65591 71.58541
# Shear Modulus (GPa) = 27.55561 28.32859 27.94210
#
# Velocity S-wave (km/s) = 3.88718 3.94132 3.91434
# Velocity P-wave (km/s) = 7.70468 7.74626 7.72550
#
# Compressibility (1/GPa) = 0.01398310
#
# Stress axis : x y z
#
# Youngs Moduli (GPa) = 65.47942 77.23699 55.14748
#
# Poissons Ratio (x) = 0.23643 0.40420
# Poissons Ratio (y) = 0.20044 0.31953
# Poissons Ratio (z) = 0.47992 0.44752
#
# Static dielectric constant tensor:
#      x y z
#    x 1.670460 0.000000 0.000000 
#    y 0.000000 1.631570 0.000000 
#    z 0.000000 0.000000 1.620120 
# 
# From -- ./inp_files/22509.got.cif
#   From: 2010.05.17/outbox.cif.g08.bks.cpg/sg49_12_cif.got.tgz:22509.got - 2010.06.03 21:02:19.
