data_PCOD9394724
_publ_section_title
;
Structure prediction by ZEFSAII (Michael W. Deem and Ramdas Pophale) SiO2 
 PCOD9394724
Probable space group: P C C M
;
_chemical_formula_sum "Si O2"
_cell_formula_units_Z 32
_cell_length_a 10.297497
_cell_length_b 5.083070
_cell_length_c 27.356775
_cell_angle_alpha 90.000000
_cell_angle_beta 90.000000
_cell_angle_gamma 90.000000
_cell_volume 1431.932886
_symmetry_space_group_name_H-M "P C C M"
_symmetry_group_IT_number 49
_symmetry_cell_setting 'orthorhombic'
loop_
_space_group_symop_operation_xyz
x,y,z
-x,-y,z
x,-y,1/2-z
-x,y,1/2-z
-x,-y,-z
x,y,-z
-x,y,1/2+z
x,-y,1/2+z
loop_
_atom_site_type_symbol
_atom_site_label
_atom_site_fract_x
_atom_site_fract_y
_atom_site_fract_z
Si Si1 0.843093 0.992491 0.192110
Si Si2 0.119775 0.180143 0.444200
Si Si3 0.242974 0.508824 0.867425
Si Si4 0.376071 0.812166 0.555820
O O1 0.795280 0.723868 0.168343
O O2 0.819530 0.000000 0.250000
O O3 0.764876 0.226918 0.165076
O O4 0.000000 0.000000 0.185231
O O5 0.103744 0.263215 0.500000
O O6 0.138765 0.425078 0.409324
O O7 0.249580 0.001138 0.440933
O O8 0.000000 0.000000 0.429853
O O9 0.360399 0.404771 0.901697
O O10 0.378254 0.701424 0.500000
O O11 0.500000 0.000000 0.561958
#
# Coordination Sequence:
#
# PCOD9394724 Si02
#       4
#     8   8   8   8
#     4  11  25  42  66 101 138 175 228 299 363 423
#     4  10  22  39  63 101 141 178 226 284 346 414
#     4  12  22  41  67  97 134 182 231 279 352 413
#     4  10  23  42  65 100 144 189 236 278 331 415
#
# _framework density 22.347415999999999
#
# number of rings (size 3 to 8) (size 9 to 14) (size 15 to 20)
#    0.000    1.250    2.500    3.000    3.500    3.000 
#    0.000    7.500    0.000    3.000    6.500    0.000 
#    0.000    0.000    0.000    0.000    0.000    0.000 
#
# Total GULP energy -179030.577946 kJ/mol
# GULP energy per Si atom -5594.705561 kJ/mol
# Density = 2.229655 g / cm^3
# Si number density = 22.347416 Si / 1000 Ang^3
#
#
#
# Elastic Constant Matrix: (Units=GPa)
#
#
# Indices 1 2 3 4 5 6 
#
# 1 132.6255 38.7243 26.1954 0.0000 0.0000 0.0000
# 2 38.7243 146.9549 77.3178 0.0000 0.0000 0.0000
# 3 26.1954 77.3178 184.9841 0.0000 0.0000 0.0000
# 4 0.0000 0.0000 0.0000 58.2311 0.0000 0.0000
# 5 0.0000 0.0000 0.0000 0.0000 44.6860 0.0000
# 6 0.0000 0.0000 0.0000 0.0000 0.0000 29.7626
#
#
#
# Elastic Compliance Matrix: (Units=1/GPa)
#
#
# Indices 1 2 3 4 5 6 
#
# 1 0.008184 -0.001983 -0.000330 0.000000 0.000000 0.000000
# 2 -0.001983 0.009204 -0.003566 0.000000 0.000000 0.000000
# 3 -0.000330 -0.003566 0.006943 0.000000 0.000000 0.000000
# 4 0.000000 0.000000 0.000000 0.017173 0.000000 0.000000
# 5 0.000000 0.000000 0.000000 0.000000 0.022378 0.000000
# 6 0.000000 0.000000 0.000000 0.000000 0.000000 0.033599
#
#
# Mechanical properties :
#
#
# Convention : Reuss Voigt Hill
#
# Bulk Modulus (GPa) = 79.53749 83.22660 81.38205
# Shear Modulus (GPa) = 44.07991 48.02443 46.05217
#
# Velocity S-wave (km/s) = 4.44608 4.64075 4.54446
# Velocity P-wave (km/s) = 7.87563 8.12640 8.00200
#
# Compressibility (1/GPa) = 0.01257269
#
# Stress axis : x y z
#
# Youngs Moduli (GPa) = 122.18638 108.65411 144.02785
#
# Poissons Ratio (x) = 0.21545 0.04755
# Poissons Ratio (y) = 0.24229 0.51360
# Poissons Ratio (z) = 0.04034 0.38746
#
# Static dielectric constant tensor:
#      x y z
#    x 1.848800 0.000000 0.000000 
#    y 0.000000 1.872650 0.000000 
#    z 0.000000 0.000000 1.823890 
# 
# From -- ./inp_files/26070.got.cif
#   From: 2010.05.17/outbox.cif.g08.bks.cpg/sg49_14_cif.got.tgz:26070.got - 2010.06.03 21:02:19.
