data_PCOD9394778
_publ_section_title
;
Structure prediction by ZEFSAII (Michael W. Deem and Ramdas Pophale) SiO2 
 PCOD9394778
Probable space group: P C C M
;
_chemical_formula_sum "Si O2"
_cell_formula_units_Z 58
_cell_length_a 17.054835
_cell_length_b 18.485665
_cell_length_c 8.912103
_cell_angle_alpha 90.000000
_cell_angle_beta 90.000000
_cell_angle_gamma 90.000000
_cell_volume 2809.718414
_symmetry_space_group_name_H-M "P C C M"
_symmetry_group_IT_number 49
_symmetry_cell_setting 'orthorhombic'
loop_
_space_group_symop_operation_xyz
x,y,z
-x,-y,z
x,-y,1/2-z
-x,y,1/2-z
-x,-y,-z
x,y,-z
-x,y,1/2+z
x,-y,1/2+z
loop_
_atom_site_type_symbol
_atom_site_label
_atom_site_fract_x
_atom_site_fract_y
_atom_site_fract_z
Si Si1 0.587285 0.426115 0.319242
Si Si2 0.077637 0.184119 0.173313
Si Si3 0.218963 0.072173 0.828303
Si Si4 0.175521 0.304722 0.324459
Si Si5 0.918973 0.421105 0.678369
Si Si6 0.355307 0.723561 0.821989
Si Si7 0.500000 0.000000 0.750000
Si Si8 0.383251 0.129520 0.826274
O O1 0.624423 0.500000 0.250000
O O2 0.500000 0.424556 0.250000
O O3 0.586008 0.430517 0.500000
O O4 0.623072 0.350245 0.263960
O O5 0.149137 0.128529 0.174753
O O6 0.108470 0.249729 0.273254
O O7 0.000000 0.153612 0.250000
O O8 0.063450 0.205647 0.000000
O O9 0.300085 0.101836 0.761848
O O10 0.192840 0.000000 0.750000
O O11 0.238348 0.054864 0.000000
O O12 0.169601 0.322318 0.500000
O O13 0.156211 0.374726 0.226234
O O14 0.261147 0.270365 0.298359
O O15 0.910780 0.500000 0.750000
O O16 0.927146 0.424480 0.500000
O O17 0.000000 0.390666 0.750000
O O18 0.399270 0.795851 0.763031
O O19 0.370179 0.715260 0.000000
O O20 0.441383 0.060135 0.822823
O O21 0.374388 0.151432 0.000000
#
# Coordination Sequence:
#
# PCOD9394778 Si02
#       8
#     8   8   8   8   8   8   2   8
#     4  11  23  43  70  98 134 174 219 271 328 392
#     4  11  23  40  62  90 122 162 212 264 322 386
#     4  10  22  41  65  90 124 168 210 260 323 386
#     4  11  23  40  62  90 123 164 213 264 319 383
#     4  11  22  38  60  87 124 167 213 267 323 381
#     4  11  25  43  67  97 131 173 220 270 328 391
#     4  12  26  44  72 106 138 172 224 274 330 404
#     4  11  24  44  67  97 135 175 220 271 331 395
#
# _framework density 20.64264
#
# number of rings (size 3 to 8) (size 9 to 14) (size 15 to 20)
#    0.000    1.103    2.069    5.172    0.966    5.241 
#    0.000    1.379    0.000    0.000    0.000    0.000 
#    0.000    0.000    0.000    0.000    0.000    0.000 
#
# Total GULP energy -323707.943943 kJ/mol
# GULP energy per Si atom -5581.171447 kJ/mol
# Density = 2.059566 g / cm^3
# Si number density = 20.642640 Si / 1000 Ang^3
#
#
#
# Elastic Constant Matrix: (Units=GPa)
#
#
# Indices 1 2 3 4 5 6 
#
# 1 65.0850 14.2000 32.0131 0.0000 0.0000 0.0000
# 2 14.2000 112.2966 55.6609 0.0000 0.0000 0.0000
# 3 32.0131 55.6609 132.3695 0.0000 0.0000 0.0000
# 4 0.0000 0.0000 0.0000 25.6888 0.0000 0.0000
# 5 0.0000 0.0000 0.0000 0.0000 18.6339 0.0000
# 6 0.0000 0.0000 0.0000 0.0000 0.0000 216.8046
#
#
#
# Elastic Compliance Matrix: (Units=1/GPa)
#
#
# Indices 1 2 3 4 5 6 
#
# 1 0.017441 -0.000145 -0.004157 0.000000 0.000000 0.000000
# 2 -0.000145 0.011251 -0.004696 0.000000 0.000000 0.000000
# 3 -0.004157 -0.004696 0.010535 0.000000 0.000000 0.000000
# 4 0.000000 0.000000 0.000000 0.038928 0.000000 0.000000
# 5 0.000000 0.000000 0.000000 0.000000 0.053666 0.000000
# 6 0.000000 0.000000 0.000000 0.000000 0.000000 0.004612
#
#
# Mechanical properties :
#
#
# Convention : Reuss Voigt Hill
#
# Bulk Modulus (GPa) = 47.10192 57.05544 52.07868
# Shear Modulus (GPa) = 30.95886 66.08392 48.52139
#
# Velocity S-wave (km/s) = 3.87687 5.66417 4.85350
# Velocity P-wave (km/s) = 6.55038 8.39504 7.52941
#
# Compressibility (1/GPa) = 0.02123056
#
# Stress axis : x y z
#
# Youngs Moduli (GPa) = 57.33660 88.88188 94.92537
#
# Poissons Ratio (x) = 0.01288 0.39461
# Poissons Ratio (y) = 0.00831 0.44576
# Poissons Ratio (z) = 0.23835 0.41738
#
# Static dielectric constant tensor:
#      x y z
#    x 1.783270 0.000000 0.000000 
#    y 0.000000 1.765200 0.000000 
#    z 0.000000 0.000000 1.706340 
# 
# From -- ./inp_files/5067.got.cif
#   From: 2010.05.17/outbox.cif.g08.bks.cpg/sg49_3_cif.got.tgz:5067.got - 2010.06.03 21:02:19.
