data_PCOD9394027
_publ_section_title
;
Structure prediction by ZEFSAII (Michael W. Deem and Ramdas Pophale) SiO2 
 PCOD9394027
Probable space group: P C C M
;
_chemical_formula_sum "Si O2"
_cell_formula_units_Z 54
_cell_length_a 30.077532
_cell_length_b 5.240831
_cell_length_c 15.121703
_cell_angle_alpha 90.000000
_cell_angle_beta 90.000000
_cell_angle_gamma 90.000000
_cell_volume 2383.653129
_symmetry_space_group_name_H-M "P C C M"
_symmetry_group_IT_number 49
_symmetry_cell_setting 'orthorhombic'
loop_
_space_group_symop_operation_xyz
x,y,z
-x,-y,z
x,-y,1/2-z
-x,y,1/2-z
-x,-y,-z
x,y,-z
-x,y,1/2+z
x,-y,1/2+z
loop_
_atom_site_type_symbol
_atom_site_label
_atom_site_fract_x
_atom_site_fract_y
_atom_site_fract_z
Si Si1 0.665477 0.000000 0.250000
Si Si2 0.103818 0.583736 0.103694
Si Si3 0.716854 0.730178 0.596435
Si Si4 0.637927 0.665459 0.903040
Si Si5 0.046665 0.098777 0.896767
Si Si6 0.196029 0.264357 0.692871
Si Si7 0.457697 0.679642 0.596897
Si Si8 0.500000 0.000000 0.250000
O O1 0.697786 0.868665 0.319110
O O2 0.637134 0.827061 0.185601
O O3 0.073627 0.345856 0.138215
O O4 0.148212 0.642227 0.157964
O O5 0.077013 0.848379 0.105296
O O6 0.114521 0.525900 0.000000
O O7 0.709062 0.845359 0.500000
O O8 0.685019 0.481207 0.597872
O O9 0.769504 0.738210 0.611899
O O10 0.589646 0.529339 0.898444
O O11 0.636783 0.794459 0.000000
O O12 0.037035 0.168667 0.000000
O O13 0.000000 0.000000 0.857326
O O14 0.214289 0.500000 0.750000
O O15 0.193787 0.000000 0.750000
O O16 0.500000 0.500000 0.594636
O O17 0.456830 0.815643 0.500000
O O18 0.467806 0.848152 0.682664
#
# Coordination Sequence:
#
# PCOD9394027 Si02
#       8
#     4   8   8   8   8   8   8   2
#     4  12  21  40  66  97 126 162 217 280 337 408
#     4  10  20  36  60  94 129 171 224 282 344 412
#     4  11  25  44  66  94 129 174 224 282 346 423
#     4  10  23  42  65  93 128 172 220 274 345 420
#     4   9  17  32  58  93 131 171 221 280 339 407
#     4  12  25  44  67  95 133 180 232 290 360 428
#     4  10  23  42  62  90 129 170 215 272 337 417
#     4  12  22  36  64  96 124 168 220 272 346 412
#
# _framework density 22.654304
#
# number of rings (size 3 to 8) (size 9 to 14) (size 15 to 20)
#    0.000    1.481    0.741    4.444    0.000    5.333 
#    0.000    4.444    0.000    6.667    0.000    0.000 
#    0.000    0.000    0.000    0.000    0.000    0.000 
#
# Total GULP energy -300802.650219 kJ/mol
# GULP energy per Si atom -5570.419449 kJ/mol
# Density = 2.260274 g / cm^3
# Si number density = 22.654304 Si / 1000 Ang^3
#
#
#
# Elastic Constant Matrix: (Units=GPa)
#
#
# Indices 1 2 3 4 5 6 
#
# 1 158.5476 46.0938 38.9676 0.0000 0.0000 0.0000
# 2 46.0938 95.5748 48.1436 0.0000 0.0000 0.0000
# 3 38.9676 48.1436 162.5356 0.0000 0.0000 0.0000
# 4 0.0000 0.0000 0.0000 33.0044 0.0000 0.0000
# 5 0.0000 0.0000 0.0000 0.0000 24.0880 0.0000
# 6 0.0000 0.0000 0.0000 0.0000 0.0000 42.8964
#
#
#
# Elastic Compliance Matrix: (Units=1/GPa)
#
#
# Indices 1 2 3 4 5 6 
#
# 1 0.007434 -0.003159 -0.000847 0.000000 0.000000 0.000000
# 2 -0.003159 0.013640 -0.003283 0.000000 0.000000 0.000000
# 3 -0.000847 -0.003283 0.007328 0.000000 0.000000 0.000000
# 4 0.000000 0.000000 0.000000 0.030299 0.000000 0.000000
# 5 0.000000 0.000000 0.000000 0.000000 0.041514 0.000000
# 6 0.000000 0.000000 0.000000 0.000000 0.000000 0.023312
#
#
# Mechanical properties :
#
#
# Convention : Reuss Voigt Hill
#
# Bulk Modulus (GPa) = 72.33166 75.89645 74.11406
# Shear Modulus (GPa) = 35.03565 38.89463 36.96514
#
# Velocity S-wave (km/s) = 3.93687 4.14802 4.04382
# Velocity P-wave (km/s) = 7.25693 7.51772 7.38847
#
# Compressibility (1/GPa) = 0.01382520
#
# Stress axis : x y z
#
# Youngs Moduli (GPa) = 134.52394 73.31340 136.46481
#
# Poissons Ratio (x) = 0.23157 0.11553
# Poissons Ratio (y) = 0.42491 0.44801
# Poissons Ratio (z) = 0.11389 0.24069
#
# Static dielectric constant tensor:
#      x y z
#    x 1.913180 0.000000 0.000000 
#    y 0.000000 1.906800 0.000000 
#    z 0.000000 0.000000 1.858160 
# 
# From -- ./inp_files/14653.got.cif
#   From: 2010.05.17/outbox.cif.g08.bks.cpg/sg49_8_cif.got.tgz:14653.got - 2010.06.03 21:02:19.
