data_PCOD9394349
_publ_section_title
;
Structure prediction by ZEFSAII (Michael W. Deem and Ramdas Pophale) SiO2 
 PCOD9394349
Probable space group: P C C M
;
_chemical_formula_sum "Si O2"
_cell_formula_units_Z 40
_cell_length_a 13.301050
_cell_length_b 8.881853
_cell_length_c 15.621232
_cell_angle_alpha 90.000000
_cell_angle_beta 90.000000
_cell_angle_gamma 90.000000
_cell_volume 1845.460651
_symmetry_space_group_name_H-M "P C C M"
_symmetry_group_IT_number 49
_symmetry_cell_setting 'orthorhombic'
loop_
_space_group_symop_operation_xyz
x,y,z
-x,-y,z
x,-y,1/2-z
-x,y,1/2-z
-x,-y,-z
x,y,-z
-x,y,1/2+z
x,-y,1/2+z
loop_
_atom_site_type_symbol
_atom_site_label
_atom_site_fract_x
_atom_site_fract_y
_atom_site_fract_z
Si Si1 0.341239 0.335119 0.274256
Si Si2 0.850006 0.610203 0.396283
Si Si3 0.059050 0.720597 0.602012
Si Si4 0.407565 0.113658 0.593645
Si Si5 0.239483 0.093775 0.835849
O O1 0.377417 0.500000 0.250000
O O2 0.246068 0.356206 0.338859
O O3 0.414718 0.231957 0.329845
O O4 0.303825 0.240491 0.192347
O O5 0.833267 0.623399 0.500000
O O6 0.888541 0.440245 0.378176
O O7 0.943727 0.715297 0.367830
O O8 0.051591 0.724770 0.500000
O O9 0.132924 0.851328 0.630389
O O10 0.407027 0.186878 0.500000
O O11 0.500000 0.000000 0.598682
O O12 0.306748 0.013350 0.604668
O O13 0.224971 0.000000 0.750000
#
# Coordination Sequence:
#
# PCOD9394349 Si02
#       5
#     8   8   8   8   8
#     4  11  21  37  62  95 125 157 202 260 315 365
#     4   9  18  33  57  87 123 165 207 252 302 354
#     4   9  17  33  56  84 121 169 211 249 298 358
#     4  10  23  45  68  88 120 167 209 253 315 382
#     4  10  21  36  58  89 128 166 206 252 320 372
#
# _framework density 21.674804999999999
#
# number of rings (size 3 to 8) (size 9 to 14) (size 15 to 20)
#    0.000    2.200    2.000    2.400    0.000    4.400 
#    0.000    9.000    0.000   13.200    0.000    0.000 
#    0.000    0.000    0.000    0.000    0.000    0.000 
#
# Total GULP energy -223585.117010 kJ/mol
# GULP energy per Si atom -5589.627925 kJ/mol
# Density = 2.162547 g / cm^3
# Si number density = 21.674805 Si / 1000 Ang^3
#
#
#
# Elastic Constant Matrix: (Units=GPa)
#
#
# Indices 1 2 3 4 5 6 
#
# 1 70.8834 11.4103 14.6617 0.0000 0.0000 0.0000
# 2 11.4103 82.5348 13.5911 0.0000 0.0000 0.0000
# 3 14.6617 13.5911 40.5747 0.0000 0.0000 0.0000
# 4 0.0000 0.0000 0.0000 -10.6715 0.0000 0.0000
# 5 0.0000 0.0000 0.0000 0.0000 28.5444 0.0000
# 6 0.0000 0.0000 0.0000 0.0000 0.0000 19.7131
#
#
#
# Elastic Compliance Matrix: (Units=1/GPa)
#
#
# Indices 1 2 3 4 5 6 
#
# 1 0.015374 -0.001281 -0.005126 0.000000 0.000000 0.000000
# 2 -0.001281 0.012930 -0.003868 0.000000 0.000000 0.000000
# 3 -0.005126 -0.003868 0.027794 0.000000 0.000000 0.000000
# 4 0.000000 0.000000 0.000000 -0.093708 0.000000 0.000000
# 5 0.000000 0.000000 0.000000 0.000000 0.035033 0.000000
# 6 0.000000 0.000000 0.000000 0.000000 0.000000 0.050728
#
#
# Mechanical properties :
#
#
# Convention : Reuss Voigt Hill
#
# Bulk Modulus (GPa) = 28.13184 30.36879 29.25031
# Shear Modulus (GPa) = 62.07163 17.80586 39.93875
#
# Velocity S-wave (km/s) = 5.35722 2.86929 4.29725
# Velocity P-wave (km/s) = 7.16057 5.00186 6.17626
#
# Compressibility (1/GPa) = 0.03554691
#
# Stress axis : x y z
#
# Youngs Moduli (GPa) = 65.04375 77.33825 35.97906
#
# Poissons Ratio (x) = 0.09910 0.18444
# Poissons Ratio (y) = 0.08334 0.13917
# Poissons Ratio (z) = 0.33343 0.29916
#
# Static dielectric constant tensor:
#      x y z
#    x 1.815640 0.000000 0.000000 
#    y 0.000000 1.892370 0.000000 
#    z 0.000000 0.000000 1.782010 
# 
# From -- ./inp_files/11555.got.cif
#   From: 2010.05.17/outbox.cif.g08.bks.cpg/sg49_6_cif.got.tgz:11555.got - 2010.06.03 21:02:19.
