data_PCOD9394046
_publ_section_title
;
Structure prediction by ZEFSAII (Michael W. Deem and Ramdas Pophale) SiO2 
 PCOD9394046
Probable space group: P C C M
;
_chemical_formula_sum "Si O2"
_cell_formula_units_Z 64
_cell_length_a 11.661078
_cell_length_b 19.471040
_cell_length_c 13.933733
_cell_angle_alpha 90.000000
_cell_angle_beta 90.000000
_cell_angle_gamma 90.000000
_cell_volume 3163.700284
_symmetry_space_group_name_H-M "P C C M"
_symmetry_group_IT_number 49
_symmetry_cell_setting 'orthorhombic'
loop_
_space_group_symop_operation_xyz
x,y,z
-x,-y,z
x,-y,1/2-z
-x,y,1/2-z
-x,-y,-z
x,y,-z
-x,y,1/2+z
x,-y,1/2+z
loop_
_atom_site_type_symbol
_atom_site_label
_atom_site_fract_x
_atom_site_fract_y
_atom_site_fract_z
Si Si1 0.716208 0.687085 0.112730
Si Si2 0.573186 0.932754 0.617261
Si Si3 0.132906 0.768908 0.730940
Si Si4 0.165864 0.052241 0.616007
Si Si5 0.362052 0.420453 0.250920
Si Si6 0.474520 0.210712 0.888702
Si Si7 0.291564 0.702495 0.112104
Si Si8 0.917226 0.101786 0.615893
O O1 0.836084 0.709892 0.154743
O O2 0.679123 0.614797 0.153462
O O3 0.627949 0.744729 0.154966
O O4 0.711879 0.688025 0.000000
O O5 0.579043 0.931921 0.500000
O O6 0.705832 0.931819 0.651203
O O7 0.506760 0.864198 0.647441
O O8 0.500000 0.000000 0.642995
O O9 0.203950 0.749510 0.826433
O O10 0.150372 0.840610 0.674480
O O11 0.000000 0.765791 0.750000
O O12 0.169199 0.057520 0.500000
O O13 0.053367 0.097005 0.642672
O O14 0.134381 0.973191 0.637449
O O15 0.328202 0.500000 0.250000
O O16 0.500000 0.416651 0.250000
O O17 0.311619 0.370826 0.334725
O O18 0.587114 0.257846 0.885904
O O19 0.442367 0.200186 0.000000
O O20 0.258463 0.695398 0.000000
O O21 0.909199 0.112938 0.500000
#
# Coordination Sequence:
#
# PCOD9394046 Si02
#       8
#     8   8   8   8   8   8   8   8
#     4  10  21  39  63  93 130 168 204 249 310 377
#     4   9  17  27  47  81 116 153 206 259 307 376
#     4  11  25  38  58  90 117 161 216 272 313 365
#     4   8  16  31  53  80 112 154 205 263 331 395
#     4  10  20  36  63 103 140 167 199 243 297 370
#     4   9  18  33  57  86 115 160 208 251 310 378
#     4  10  22  41  63  90 129 172 209 253 316 382
#     4   9  18  35  58  82 112 155 207 268 335 387
#
# _framework density 20.229476999999999
#
# number of rings (size 3 to 8) (size 9 to 14) (size 15 to 20)
#    0.000    2.500    1.250    1.125    3.500    1.500 
#    0.000    2.500    0.000    6.000    0.000    8.750 
#    0.000    0.000    0.000    0.000    0.000    0.000 
#
# Total GULP energy -357378.664553 kJ/mol
# GULP energy per Si atom -5584.041634 kJ/mol
# Density = 2.018343 g / cm^3
# Si number density = 20.229477 Si / 1000 Ang^3
#
#
#
# Elastic Constant Matrix: (Units=GPa)
#
#
# Indices 1 2 3 4 5 6 
#
# 1 54.1902 34.7403 24.8177 0.0000 0.0000 0.0000
# 2 34.7403 120.3420 35.7319 0.0000 0.0000 0.0000
# 3 24.8177 35.7319 122.3355 0.0000 0.0000 0.0000
# 4 0.0000 0.0000 0.0000 23.4672 0.0000 0.0000
# 5 0.0000 0.0000 0.0000 0.0000 15.0853 0.0000
# 6 0.0000 0.0000 0.0000 0.0000 0.0000 18.3438
#
#
#
# Elastic Compliance Matrix: (Units=1/GPa)
#
#
# Indices 1 2 3 4 5 6 
#
# 1 0.023652 -0.005916 -0.003070 0.000000 0.000000 0.000000
# 2 -0.005916 0.010579 -0.001890 0.000000 0.000000 0.000000
# 3 -0.003070 -0.001890 0.009349 0.000000 0.000000 0.000000
# 4 0.000000 0.000000 0.000000 0.042613 0.000000 0.000000
# 5 0.000000 0.000000 0.000000 0.000000 0.066290 0.000000
# 6 0.000000 0.000000 0.000000 0.000000 0.000000 0.054514
#
#
# Mechanical properties :
#
#
# Convention : Reuss Voigt Hill
#
# Bulk Modulus (GPa) = 45.81327 54.16084 49.98705
# Shear Modulus (GPa) = 21.18418 24.81778 23.00098
#
# Velocity S-wave (km/s) = 3.23955 3.50639 3.37561
# Velocity P-wave (km/s) = 6.05713 6.57452 6.32112
#
# Compressibility (1/GPa) = 0.02182774
#
# Stress axis : x y z
#
# Youngs Moduli (GPa) = 42.27891 94.53009 106.96334
#
# Poissons Ratio (x) = 0.55928 0.32840
# Poissons Ratio (y) = 0.25014 0.20212
# Poissons Ratio (z) = 0.12981 0.17862
#
# Static dielectric constant tensor:
#      x y z
#    x 1.714430 0.000000 0.000000 
#    y 0.000000 1.705600 0.000000 
#    z 0.000000 0.000000 1.770420 
# 
# From -- ./inp_files/13123.got.cif
#   From: 2010.05.17/outbox.cif.g08.bks.cpg/sg49_7_cif.got.tgz:13123.got - 2010.06.03 21:02:19.
