data_PCOD9394696
_publ_section_title
;
Structure prediction by ZEFSAII (Michael W. Deem and Ramdas Pophale) SiO2 
 PCOD9394696
Probable space group: P C C M
;
_chemical_formula_sum "Si O2"
_cell_formula_units_Z 56
_cell_length_a 22.017303
_cell_length_b 14.507237
_cell_length_c 8.505247
_cell_angle_alpha 90.000000
_cell_angle_beta 90.000000
_cell_angle_gamma 90.000000
_cell_volume 2716.662924
_symmetry_space_group_name_H-M "P C C M"
_symmetry_group_IT_number 49
_symmetry_cell_setting 'orthorhombic'
loop_
_space_group_symop_operation_xyz
x,y,z
-x,-y,z
x,-y,1/2-z
-x,y,1/2-z
-x,-y,-z
x,y,-z
-x,y,1/2+z
x,-y,1/2+z
loop_
_atom_site_type_symbol
_atom_site_label
_atom_site_fract_x
_atom_site_fract_y
_atom_site_fract_z
Si Si1 0.247099 0.604920 0.688521
Si Si2 0.881162 0.395765 0.186137
Si Si3 0.063906 0.782138 0.687718
Si Si4 0.684235 0.895427 0.190200
Si Si5 0.181549 0.104806 0.809612
Si Si6 0.436201 0.211607 0.810069
Si Si7 0.382481 0.396712 0.811142
O O1 0.249142 0.500000 0.750000
O O2 0.240163 0.608490 0.500000
O O3 0.185663 0.641556 0.763901
O O4 0.314316 0.639370 0.729094
O O5 0.887843 0.500000 0.250000
O O6 0.927786 0.323003 0.256602
O O7 0.885610 0.398889 0.000000
O O8 0.063636 0.784464 0.500000
O O9 0.122861 0.838689 0.745532
O O10 0.000000 0.819357 0.750000
O O11 0.751256 0.858546 0.237812
O O12 0.624064 0.842176 0.243901
O O13 0.681033 0.000000 0.250000
O O14 0.683349 0.894088 0.000000
O O15 0.177479 0.000000 0.750000
O O16 0.180514 0.105241 0.000000
O O17 0.500000 0.173555 0.750000
O O18 0.428168 0.317908 0.756744
O O19 0.436562 0.210388 0.000000
O O20 0.392102 0.500000 0.750000
O O21 0.384356 0.402169 0.000000
#
# Coordination Sequence:
#
# PCOD9394696 Si02
#       7
#     8   8   8   8   8   8   8
#     4   9  16  29  51  77 106 141 186 237 290 341
#     4  11  22  37  57  84 118 157 200 246 293 347
#     4  11  24  41  61  88 121 160 199 241 293 347
#     4   9  19  38  63  88 114 147 188 235 289 346
#     4   9  20  39  66  92 118 152 191 238 293 350
#     4  10  22  38  56  81 115 155 195 237 290 346
#     4   9  19  34  54  78 110 152 194 240 288 343
#
# _framework density 20.613526
#
# number of rings (size 3 to 8) (size 9 to 14) (size 15 to 20)
#    0.000    2.286    0.000    3.000    2.000    4.000 
#    0.000    5.714    0.000    0.000    0.000    0.000 
#    0.000    0.000    0.000    0.000    0.000    0.000 
#
# Total GULP energy -312486.046476 kJ/mol
# GULP energy per Si atom -5580.107973 kJ/mol
# Density = 2.056661 g / cm^3
# Si number density = 20.613526 Si / 1000 Ang^3
#
#
#
# Elastic Constant Matrix: (Units=GPa)
#
#
# Indices 1 2 3 4 5 6 
#
# 1 184.1108 71.8661 30.5850 0.0000 0.0000 0.0000
# 2 71.8661 75.0134 10.5548 0.0000 0.0000 0.0000
# 3 30.5850 10.5548 34.4031 0.0000 0.0000 0.0000
# 4 0.0000 0.0000 0.0000 15.4623 0.0000 0.0000
# 5 0.0000 0.0000 0.0000 0.0000 29.1435 0.0000
# 6 0.0000 0.0000 0.0000 0.0000 0.0000 26.2288
#
#
#
# Elastic Compliance Matrix: (Units=1/GPa)
#
#
# Indices 1 2 3 4 5 6 
#
# 1 0.009754 -0.008491 -0.006066 0.000000 0.000000 0.000000
# 2 -0.008491 0.021324 0.001006 0.000000 0.000000 0.000000
# 3 -0.006066 0.001006 0.034151 0.000000 0.000000 0.000000
# 4 0.000000 0.000000 0.000000 0.064673 0.000000 0.000000
# 5 0.000000 0.000000 0.000000 0.000000 0.034313 0.000000
# 6 0.000000 0.000000 0.000000 0.000000 0.000000 0.038126
#
#
# Mechanical properties :
#
#
# Convention : Reuss Voigt Hill
#
# Bulk Modulus (GPa) = 26.22769 57.72656 41.97713
# Shear Modulus (GPa) = 20.64823 26.20168 23.42495
#
# Velocity S-wave (km/s) = 3.16837 3.56910 3.37469
# Velocity P-wave (km/s) = 5.11233 6.71191 5.96597
#
# Compressibility (1/GPa) = 0.03812764
#
# Stress axis : x y z
#
# Youngs Moduli (GPa) = 102.52688 46.89572 29.28141
#
# Poissons Ratio (x) = 0.39818 0.17762
# Poissons Ratio (y) = 0.87053 -0.02947
# Poissons Ratio (z) = 0.62194 -0.04719
#
# Static dielectric constant tensor:
#      x y z
#    x 1.793400 0.000000 0.000000 
#    y 0.000000 1.724310 0.000000 
#    z 0.000000 0.000000 1.706220 
# 
# From -- ./inp_files/5814.got.cif
#   From: 2010.05.17/outbox.cif.g08.bks.cpg/sg49_3_cif.got.tgz:5814.got - 2010.06.03 21:02:19.
