data_PCOD9394030
_publ_section_title
;
Structure prediction by ZEFSAII (Michael W. Deem and Ramdas Pophale) SiO2 
 PCOD9394030
Probable space group: P C C M
;
_chemical_formula_sum "Si O2"
_cell_formula_units_Z 56
_cell_length_a 14.741938
_cell_length_b 9.913328
_cell_length_c 18.682653
_cell_angle_alpha 90.000000
_cell_angle_beta 90.000000
_cell_angle_gamma 90.000000
_cell_volume 2730.314049
_symmetry_space_group_name_H-M "P C C M"
_symmetry_group_IT_number 49
_symmetry_cell_setting 'orthorhombic'
loop_
_space_group_symop_operation_xyz
x,y,z
-x,-y,z
x,-y,1/2-z
-x,y,1/2-z
-x,-y,-z
x,y,-z
-x,y,1/2+z
x,-y,1/2+z
loop_
_atom_site_type_symbol
_atom_site_label
_atom_site_fract_x
_atom_site_fract_y
_atom_site_fract_z
Si Si1 0.889878 0.159173 0.249849
Si Si2 0.566272 0.627604 0.917221
Si Si3 0.144825 0.035156 0.500000
Si Si4 0.969377 0.228662 0.500000
Si Si5 0.075222 0.606720 0.359081
Si Si6 0.750860 0.181337 0.876649
Si Si7 0.255391 0.513218 0.916316
Si Si8 0.558910 0.133772 0.914551
O O1 0.883036 0.271797 0.311626
O O2 0.824604 0.206577 0.185539
O O3 0.000000 0.155365 0.250000
O O4 0.864502 0.000000 0.250000
O O5 0.500000 0.500000 0.918318
O O6 0.661406 0.575699 0.886185
O O7 0.507440 0.748687 0.886576
O O8 0.584568 0.667361 0.000000
O O9 0.201279 0.077650 0.569169
O O10 0.057731 0.134139 0.500000
O O11 0.112739 0.880332 0.500000
O O12 0.966299 0.320666 0.429499
O O13 0.161093 0.519448 0.380503
O O14 0.000000 0.500000 0.330289
O O15 0.728971 0.327741 0.909786
O O16 0.649562 0.123825 0.866914
O O17 0.247028 0.480448 0.000000
O O18 0.500000 0.000000 0.913581
O O19 0.583145 0.158946 0.000000
#
# Coordination Sequence:
#
# PCOD9394030 Si02
#       8
#     8   8   4   4   8   8   8   8
#     4  11  26  47  66  91 132 185 235 278 337 421
#     4   9  17  32  55  85 129 166 204 263 332 407
#     4  11  22  36  63  93 133 176 225 277 359 416
#     4  11  23  40  60  96 135 174 215 297 363 412
#     4  12  25  42  67  98 137 173 231 294 349 410
#     4  12  22  39  67  94 133 179 234 286 345 422
#     4  11  21  36  63  98 135 172 218 279 353 415
#     4  10  20  36  60  99 138 174 226 288 353 414
#
# _framework density 20.510460999999999
#
# number of rings (size 3 to 8) (size 9 to 14) (size 15 to 20)
#    0.000    1.143    3.571    3.643    0.000    6.571 
#    0.000    0.000    0.000    3.000    0.000    0.000 
#    0.000    0.000    0.000    0.000    0.000    0.000 
#
# Total GULP energy -312056.507193 kJ/mol
# GULP energy per Si atom -5572.437628 kJ/mol
# Density = 2.046378 g / cm^3
# Si number density = 20.510461 Si / 1000 Ang^3
#
#
#
# Elastic Constant Matrix: (Units=GPa)
#
#
# Indices 1 2 3 4 5 6 
#
# 1 141.8421 32.5418 30.2652 0.0000 0.0000 0.0000
# 2 32.5418 104.7134 26.5426 0.0000 0.0000 0.0000
# 3 30.2652 26.5426 62.0157 0.0000 0.0000 0.0000
# 4 0.0000 0.0000 0.0000 19.4124 0.0000 0.0000
# 5 0.0000 0.0000 0.0000 0.0000 5.1678 0.0000
# 6 0.0000 0.0000 0.0000 0.0000 0.0000 38.5199
#
#
#
# Elastic Compliance Matrix: (Units=1/GPa)
#
#
# Indices 1 2 3 4 5 6 
#
# 1 0.008133 -0.001706 -0.003239 0.000000 0.000000 0.000000
# 2 -0.001706 0.011070 -0.003905 0.000000 0.000000 0.000000
# 3 -0.003239 -0.003905 0.019377 0.000000 0.000000 0.000000
# 4 0.000000 0.000000 0.000000 0.051514 0.000000 0.000000
# 5 0.000000 0.000000 0.000000 0.000000 0.193507 0.000000
# 6 0.000000 0.000000 0.000000 0.000000 0.000000 0.025961
#
#
# Mechanical properties :
#
#
# Convention : Reuss Voigt Hill
#
# Bulk Modulus (GPa) = 47.89467 54.14116 51.01791
# Shear Modulus (GPa) = 14.96018 27.23478 21.09748
#
# Velocity S-wave (km/s) = 2.70366 3.64792 3.21069
# Velocity P-wave (km/s) = 5.75746 6.64810 6.21875
#
# Compressibility (1/GPa) = 0.02087915
#
# Stress axis : x y z
#
# Youngs Moduli (GPa) = 122.96162 90.33366 51.60797
#
# Poissons Ratio (x) = 0.15415 0.16714
# Poissons Ratio (y) = 0.20983 0.20154
# Poissons Ratio (z) = 0.39822 0.35277
#
# Static dielectric constant tensor:
#      x y z
#    x 1.759310 0.000000 0.000000 
#    y 0.000000 1.744270 0.000000 
#    z 0.000000 0.000000 1.760000 
# 
# From -- ./inp_files/20909.got.cif
#   From: 2010.05.17/outbox.cif.g08.bks.cpg/sg49_11_cif.got.tgz:20909.got - 2010.06.03 21:02:19.
