data_PCOD9394717
_publ_section_title
;
Structure prediction by ZEFSAII (Michael W. Deem and Ramdas Pophale) SiO2 
 PCOD9394717
Probable space group: P C C M
;
_chemical_formula_sum "Si O2"
_cell_formula_units_Z 56
_cell_length_a 19.889494
_cell_length_b 8.859339
_cell_length_c 14.488054
_cell_angle_alpha 90.000000
_cell_angle_beta 90.000000
_cell_angle_gamma 90.000000
_cell_volume 2552.907685
_symmetry_space_group_name_H-M "P C C M"
_symmetry_group_IT_number 49
_symmetry_cell_setting 'orthorhombic'
loop_
_space_group_symop_operation_xyz
x,y,z
-x,-y,z
x,-y,1/2-z
-x,y,1/2-z
-x,-y,-z
x,y,-z
-x,y,1/2+z
x,-y,1/2+z
loop_
_atom_site_type_symbol
_atom_site_label
_atom_site_fract_x
_atom_site_fract_y
_atom_site_fract_z
Si Si1 0.853093 0.842970 0.286302
Si Si2 0.067028 0.586812 0.892800
Si Si3 0.288278 0.901393 0.157341
Si Si4 0.571677 0.935086 0.890567
Si Si5 0.687755 0.452688 0.855025
Si Si6 0.555135 0.604892 0.896269
Si Si7 0.814737 0.341967 0.397061
O O1 0.904843 0.725448 0.332237
O O2 0.793464 0.888587 0.359108
O O3 0.819937 0.761087 0.195094
O O4 0.883851 0.000000 0.250000
O O5 0.123453 0.457196 0.892318
O O6 0.000000 0.500000 0.861044
O O7 0.056675 0.635294 0.000000
O O8 0.304349 0.725614 0.145140
O O9 0.284206 0.000000 0.250000
O O10 0.356845 0.980258 0.119581
O O11 0.574786 0.764390 0.851767
O O12 0.500000 0.000000 0.855812
O O13 0.564788 0.927883 0.000000
O O14 0.679949 0.500000 0.750000
O O15 0.621127 0.506126 0.903829
O O16 0.749904 0.550266 0.891590
O O17 0.500000 0.500000 0.849925
O O18 0.528993 0.639186 0.000000
O O19 0.814424 0.267089 0.500000
#
# Coordination Sequence:
#
# PCOD9394717 Si02
#       7
#     8   8   8   8   8   8   8
#     4  11  24  43  68 105 149 187 237 298 357 423
#     4  10  22  44  75 109 147 192 241 290 350 427
#     4  11  23  39  61  93 132 173 221 283 356 416
#     4  10  22  40  61  89 130 176 225 289 363 435
#     4  12  21  38  63  87 126 165 223 283 342 411
#     4  10  22  39  59  88 124 169 227 284 347 427
#     4  11  23  42  67 100 137 187 239 290 347 419
#
# _framework density 21.935770000000002
#
# number of rings (size 3 to 8) (size 9 to 14) (size 15 to 20)
#    0.000    1.286    2.857    2.571    2.000    5.143 
#    0.000    4.286    0.000    2.571    0.000    0.000 
#    0.000    0.000    0.000    0.000    0.000    0.000 
#
# Total GULP energy -311779.858634 kJ/mol
# GULP energy per Si atom -5567.497476 kJ/mol
# Density = 2.188584 g / cm^3
# Si number density = 21.935770 Si / 1000 Ang^3
#
#
#
# Elastic Constant Matrix: (Units=GPa)
#
#
# Indices 1 2 3 4 5 6 
#
# 1 155.5190 56.7713 39.8066 0.0000 0.0000 0.0000
# 2 56.7713 143.8755 36.5207 0.0000 0.0000 0.0000
# 3 39.8066 36.5207 87.0976 0.0000 0.0000 0.0000
# 4 0.0000 0.0000 0.0000 16.5020 0.0000 0.0000
# 5 0.0000 0.0000 0.0000 0.0000 28.6739 0.0000
# 6 0.0000 0.0000 0.0000 0.0000 0.0000 44.2645
#
#
#
# Elastic Compliance Matrix: (Units=1/GPa)
#
#
# Indices 1 2 3 4 5 6 
#
# 1 0.008011 -0.002497 -0.002614 0.000000 0.000000 0.000000
# 2 -0.002497 0.008557 -0.002447 0.000000 0.000000 0.000000
# 3 -0.002614 -0.002447 0.013702 0.000000 0.000000 0.000000
# 4 0.000000 0.000000 0.000000 0.060599 0.000000 0.000000
# 5 0.000000 0.000000 0.000000 0.000000 0.034875 0.000000
# 6 0.000000 0.000000 0.000000 0.000000 0.000000 0.022591
#
#
# Mechanical properties :
#
#
# Convention : Reuss Voigt Hill
#
# Bulk Modulus (GPa) = 65.99079 72.52103 69.25591
# Shear Modulus (GPa) = 29.67325 34.78101 32.22713
#
# Velocity S-wave (km/s) = 3.68194 3.98626 3.83712
# Velocity P-wave (km/s) = 6.94439 7.37017 7.16045
#
# Compressibility (1/GPa) = 0.01515363
#
# Stress axis : x y z
#
# Youngs Moduli (GPa) = 124.83083 116.86428 72.98230
#
# Poissons Ratio (x) = 0.29186 0.19078
# Poissons Ratio (y) = 0.31176 0.17856
# Poissons Ratio (z) = 0.32631 0.28592
#
# Static dielectric constant tensor:
#      x y z
#    x 1.818400 0.000000 0.000000 
#    y 0.000000 1.803730 0.000000 
#    z 0.000000 0.000000 1.871270 
# 
# From -- ./inp_files/14407.got.cif
#   From: 2010.05.17/outbox.cif.g08.bks.cpg/sg49_8_cif.got.tgz:14407.got - 2010.06.03 21:02:19.
