data_PCOD9394406
_publ_section_title
;
Structure prediction by ZEFSAII (Michael W. Deem and Ramdas Pophale) SiO2 
 PCOD9394406
Probable space group: P C C M
;
_chemical_formula_sum "Si O2"
_cell_formula_units_Z 48
_cell_length_a 30.446320
_cell_length_b 9.751778
_cell_length_c 8.679167
_cell_angle_alpha 90.000000
_cell_angle_beta 90.000000
_cell_angle_gamma 90.000000
_cell_volume 2576.894618
_symmetry_space_group_name_H-M "P C C M"
_symmetry_group_IT_number 49
_symmetry_cell_setting 'orthorhombic'
loop_
_space_group_symop_operation_xyz
x,y,z
-x,-y,z
x,-y,1/2-z
-x,y,1/2-z
-x,-y,-z
x,y,-z
-x,y,1/2+z
x,-y,1/2+z
loop_
_atom_site_type_symbol
_atom_site_label
_atom_site_fract_x
_atom_site_fract_y
_atom_site_fract_z
Si Si1 0.951908 0.150260 0.314942
Si Si2 0.622980 0.346827 0.315736
Si Si3 0.548911 0.851112 0.685015
Si Si4 0.799448 0.850603 0.316482
Si Si5 0.696158 0.849829 0.315583
Si Si6 0.872179 0.652444 0.184416
O O1 0.954032 0.142478 0.500000
O O2 0.915259 0.260392 0.269614
O O3 0.000000 0.185314 0.250000
O O4 0.940239 0.000000 0.250000
O O5 0.623914 0.500000 0.250000
O O6 0.619934 0.349013 0.500000
O O7 0.582042 0.263516 0.245178
O O8 0.666117 0.264074 0.262641
O O9 0.500000 0.826442 0.750000
O O10 0.548126 0.855309 0.500000
O O11 0.562921 0.000000 0.750000
O O12 0.805039 0.852790 0.500000
O O13 0.747838 0.827158 0.283110
O O14 0.830039 0.735069 0.244579
O O15 0.811363 0.000000 0.250000
O O16 0.689590 0.848486 0.500000
O O17 0.684610 0.000000 0.250000
O O18 0.873570 0.500000 0.250000
O O19 0.870862 0.647133 0.000000
#
# Coordination Sequence:
#
# PCOD9394406 Si02
#       6
#     8   8   8   8   8   8
#     4  10  21  37  59  85 111 145 187 234 283 337
#     4  12  25  41  60  86 119 157 196 239 291 347
#     4  11  22  40  64  91 120 154 196 242 289 341
#     4  10  21  38  62  88 116 150 192 238 286 339
#     4  10  21  39  62  89 117 151 193 239 287 339
#     4  11  24  39  57  83 116 153 192 234 287 343
#
# _framework density 18.62707
#
# number of rings (size 3 to 8) (size 9 to 14) (size 15 to 20)
#    0.000    1.333    0.000    7.000    0.000    7.333 
#    0.000    3.333    0.000    0.000    0.000    0.000 
#    0.000    0.000    0.000    0.000    0.000    0.000 
#
# Total GULP energy -268489.783363 kJ/mol
# GULP energy per Si atom -5593.537153 kJ/mol
# Density = 1.858467 g / cm^3
# Si number density = 18.627070 Si / 1000 Ang^3
#
#
#
# Elastic Constant Matrix: (Units=GPa)
#
#
# Indices 1 2 3 4 5 6 
#
# 1 108.4325 115.3539 70.6747 0.0000 0.0000 0.0000
# 2 115.3539 192.7090 83.7720 0.0000 0.0000 0.0000
# 3 70.6747 83.7720 129.5693 0.0000 0.0000 0.0000
# 4 0.0000 0.0000 0.0000 37.7396 0.0000 0.0000
# 5 0.0000 0.0000 0.0000 0.0000 39.0341 0.0000
# 6 0.0000 0.0000 0.0000 0.0000 0.0000 -48.3660
#
#
#
# Elastic Compliance Matrix: (Units=1/GPa)
#
#
# Indices 1 2 3 4 5 6 
#
# 1 0.028688 -0.014424 -0.006322 0.000000 0.000000 0.000000
# 2 -0.014424 0.014470 -0.001488 0.000000 0.000000 0.000000
# 3 -0.006322 -0.001488 0.012128 0.000000 0.000000 0.000000
# 4 0.000000 0.000000 0.000000 0.026497 0.000000 0.000000
# 5 0.000000 0.000000 0.000000 0.000000 0.025619 0.000000
# 6 0.000000 0.000000 0.000000 0.000000 0.000000 -0.020676
#
#
# Mechanical properties :
#
#
# Convention : Reuss Voigt Hill
#
# Bulk Modulus (GPa) = 92.43826 107.81246 100.12536
# Shear Modulus (GPa) = 37.09202 16.40888 26.75045
#
# Velocity S-wave (km/s) = 4.46724 2.97124 3.79371
# Velocity P-wave (km/s) = 8.73738 8.35321 8.54745
#
# Compressibility (1/GPa) = 0.01081803
#
# Stress axis : x y z
#
# Youngs Moduli (GPa) = 34.85834 69.10911 82.45137
#
# Poissons Ratio (x) = 0.99681 0.52128
# Poissons Ratio (y) = 0.50279 0.12267
# Poissons Ratio (z) = 0.22038 0.10282
#
# Static dielectric constant tensor:
#      x y z
#    x 1.639170 0.000000 0.000000 
#    y 0.000000 1.599830 0.000000 
#    z 0.000000 0.000000 1.621400 
# 
# From -- ./inp_files/2111.got.cif
#   From: 2010.05.17/outbox.cif.g08.bks.cpg/sg49_2_cif.got.tgz:2111.got - 2010.06.03 21:02:19.
