data_PCOD9394153
_publ_section_title
;
Structure prediction by ZEFSAII (Michael W. Deem and Ramdas Pophale) SiO2 
 PCOD9394153
Probable space group: P C C M
;
_chemical_formula_sum "Si O2"
_cell_formula_units_Z 48
_cell_length_a 18.528656
_cell_length_b 14.478011
_cell_length_c 9.369399
_cell_angle_alpha 90.000000
_cell_angle_beta 90.000000
_cell_angle_gamma 90.000000
_cell_volume 2513.417037
_symmetry_space_group_name_H-M "P C C M"
_symmetry_group_IT_number 49
_symmetry_cell_setting 'orthorhombic'
loop_
_space_group_symop_operation_xyz
x,y,z
-x,-y,z
x,-y,1/2-z
-x,y,1/2-z
-x,-y,-z
x,y,-z
-x,y,1/2+z
x,-y,1/2+z
loop_
_atom_site_type_symbol
_atom_site_label
_atom_site_fract_x
_atom_site_fract_y
_atom_site_fract_z
Si Si1 0.429139 0.597064 0.671027
Si Si2 0.070826 0.632976 0.500000
Si Si3 0.075669 0.087010 0.333368
Si Si4 0.098898 0.583291 0.000000
Si Si5 0.851721 0.280173 0.767989
Si Si6 0.308933 0.749202 0.331621
Si Si7 0.573144 0.901378 0.174092
O O1 0.416951 0.500000 0.750000
O O2 0.500000 0.636560 0.750000
O O3 0.441325 0.587147 0.500000
O O4 0.360758 0.661977 0.692018
O O5 0.100359 0.527385 0.500000
O O6 0.100855 0.690527 0.632155
O O7 0.984559 0.618464 0.500000
O O8 0.065602 0.064223 0.500000
O O9 0.117071 0.183712 0.325166
O O10 0.000000 0.099887 0.250000
O O11 0.111360 0.000000 0.250000
O O12 0.137165 0.631432 0.132227
O O13 0.767578 0.263098 0.741564
O O14 0.293656 0.755554 0.500000
O O15 0.358328 0.837055 0.294375
O O16 0.500000 0.864640 0.250000
O O17 0.584238 0.000000 0.250000
O O18 0.564344 0.907399 0.000000
#
# Coordination Sequence:
#
# PCOD9394153 Si02
#       7
#     8   4   8   4   8   8   8
#     4  10  20  38  60  87 117 156 205 246 299 358
#     4  11  24  42  73  85 130 167 213 269 337 386
#     4  11  24  41  66  95 124 162 209 259 314 381
#     4  11  24  44  63 103 116 165 221 275 321 402
#     4  12  24  43  63  95 132 166 214 266 330 382
#     4  10  23  41  59  87 125 168 204 248 312 370
#     4  10  20  39  64  94 125 162 210 252 304 365
#
# _framework density 19.097508000000001
#
# number of rings (size 3 to 8) (size 9 to 14) (size 15 to 20)
#    0.000    1.333    1.667    5.500    2.333    3.333 
#    6.000    1.667    0.000    0.000    0.000    0.000 
#    0.000    0.000    0.000    0.000    0.000    0.000 
#
# Total GULP energy -267882.413681 kJ/mol
# GULP energy per Si atom -5580.883618 kJ/mol
# Density = 1.905404 g / cm^3
# Si number density = 19.097508 Si / 1000 Ang^3
#
#
#
# Elastic Constant Matrix: (Units=GPa)
#
#
# Indices 1 2 3 4 5 6 
#
# 1 119.0886 55.7259 43.4226 0.0000 0.0000 0.0000
# 2 55.7259 114.2522 42.0360 0.0000 0.0000 0.0000
# 3 43.4226 42.0360 119.6530 0.0000 0.0000 0.0000
# 4 0.0000 0.0000 0.0000 33.2575 0.0000 0.0000
# 5 0.0000 0.0000 0.0000 0.0000 25.9427 0.0000
# 6 0.0000 0.0000 0.0000 0.0000 0.0000 45.8812
#
#
#
# Elastic Compliance Matrix: (Units=1/GPa)
#
#
# Indices 1 2 3 4 5 6 
#
# 1 0.011512 -0.004683 -0.002532 0.000000 0.000000 0.000000
# 2 -0.004683 0.011957 -0.002501 0.000000 0.000000 0.000000
# 3 -0.002532 -0.002501 0.010155 0.000000 0.000000 0.000000
# 4 0.000000 0.000000 0.000000 0.030068 0.000000 0.000000
# 5 0.000000 0.000000 0.000000 0.000000 0.038546 0.000000
# 6 0.000000 0.000000 0.000000 0.000000 0.000000 0.021795
#
#
# Mechanical properties :
#
#
# Convention : Reuss Voigt Hill
#
# Bulk Modulus (GPa) = 70.46898 70.59587 70.53243
# Shear Modulus (GPa) = 33.73864 35.13691 34.43777
#
# Velocity S-wave (km/s) = 4.20771 4.29402 4.25109
# Velocity P-wave (km/s) = 7.78371 7.85055 7.81720
#
# Compressibility (1/GPa) = 0.01419064
#
# Stress axis : x y z
#
# Youngs Moduli (GPa) = 86.86659 83.63329 98.47128
#
# Poissons Ratio (x) = 0.39166 0.24938
# Poissons Ratio (y) = 0.40681 0.24629
# Poissons Ratio (z) = 0.21999 0.20918
#
# Static dielectric constant tensor:
#      x y z
#    x 1.743700 0.000000 0.000000 
#    y 0.000000 1.668840 0.000000 
#    z 0.000000 0.000000 1.632580 
# 
# From -- ./inp_files/4913.got.cif
#   From: 2010.05.17/outbox.cif.g08.bks.cpg/sg49_3_cif.got.tgz:4913.got - 2010.06.03 21:02:19.
