data_PCOD9394293
_publ_section_title
;
Structure prediction by ZEFSAII (Michael W. Deem and Ramdas Pophale) SiO2 
 PCOD9394293
Probable space group: P C C M
;
_chemical_formula_sum "Si O2"
_cell_formula_units_Z 48
_cell_length_a 8.746439
_cell_length_b 21.694919
_cell_length_c 14.533776
_cell_angle_alpha 90.000000
_cell_angle_beta 90.000000
_cell_angle_gamma 90.000000
_cell_volume 2757.831749
_symmetry_space_group_name_H-M "P C C M"
_symmetry_group_IT_number 49
_symmetry_cell_setting 'orthorhombic'
loop_
_space_group_symop_operation_xyz
x,y,z
-x,-y,z
x,-y,1/2-z
-x,y,1/2-z
-x,-y,-z
x,y,-z
-x,y,1/2+z
x,-y,1/2+z
loop_
_atom_site_type_symbol
_atom_site_label
_atom_site_fract_x
_atom_site_fract_y
_atom_site_fract_z
Si Si1 0.683643 0.769610 0.750000
Si Si2 0.683709 0.000000 0.892326
Si Si3 0.817846 0.094783 0.250000
Si Si4 0.684305 0.664971 0.105995
Si Si5 0.816806 0.428890 0.250000
Si Si6 0.315695 0.664971 0.105995
O O1 0.500000 0.779444 0.750000
O O2 0.766515 0.834606 0.750000
O O3 0.723176 0.727201 0.838116
O O4 0.723176 0.727201 0.661885
O O5 0.750052 0.058886 0.838295
O O6 0.500000 0.000000 0.883703
O O7 0.750052 0.941114 0.838295
O O8 0.723331 0.000000 0.000000
O O9 0.000000 0.089022 0.250000
O O10 0.755136 0.608183 0.161752
O O11 0.500000 0.659268 0.109885
O O12 0.731943 0.667034 0.000000
O O13 0.767017 0.500000 0.250000
O O14 0.755136 0.391817 0.161752
O O15 0.000000 0.426972 0.250000
O O16 0.268056 0.667035 0.000000
#
# Coordination Sequence:
#
# PCOD9394293 Si02
#       6
#     8   8   8   8   8   8
#     4   9  18  34  54  77 107 139 173 212 256 310
#     4  10  21  38  59  79 102 138 181 219 256 303
#     4  11  22  35  54  81 112 140 169 212 263 312
#     4   9  19  36  57  79 102 133 176 222 262 302
#     4  10  21  35  51  75 108 142 173 209 259 317
#     4   9  19  36  57  79 102 133 176 222 262 302
#
# _framework density 17.404978
#
# number of rings (size 3 to 8) (size 9 to 14) (size 15 to 20)
#    0.000    2.333    0.000    4.500    0.000    8.000 
#    0.000    6.667    0.000    0.000    0.000    0.000 
#    0.000    0.000    0.000    0.000    0.000    0.000 
#
# Total GULP energy -267896.526681 kJ/mol
# GULP energy per Si atom -5581.177639 kJ/mol
# Density = 1.736536 g / cm^3
# Si number density = 17.404978 Si / 1000 Ang^3
#
#
#
# Elastic Constant Matrix: (Units=GPa)
#
#
# Indices 1 2 3 4 5 6 
#
# 1 57.5930 59.6843 59.3210 0.0000 0.0000 0.0000
# 2 59.6843 178.8272 101.2000 0.0000 0.0000 0.0000
# 3 59.3210 101.2000 196.4709 0.0000 0.0000 0.0000
# 4 0.0000 0.0000 0.0000 3.9756 0.0000 0.0000
# 5 0.0000 0.0000 0.0000 0.0000 6.8543 0.0000
# 6 0.0000 0.0000 0.0000 0.0000 0.0000 44.3064
#
#
#
# Elastic Compliance Matrix: (Units=1/GPa)
#
#
# Indices 1 2 3 4 5 6 
#
# 1 0.030317 -0.006970 -0.005563 0.000000 0.000000 0.000000
# 2 -0.006970 0.009495 -0.002786 0.000000 0.000000 0.000000
# 3 -0.005563 -0.002786 0.008205 0.000000 0.000000 0.000000
# 4 0.000000 0.000000 0.000000 0.251535 0.000000 0.000000
# 5 0.000000 0.000000 0.000000 0.000000 0.145893 0.000000
# 6 0.000000 0.000000 0.000000 0.000000 0.000000 0.022570
#
#
# Mechanical properties :
#
#
# Convention : Reuss Voigt Hill
#
# Bulk Modulus (GPa) = 57.54711 97.03352 77.29031
# Shear Modulus (GPa) = 9.91184 25.20630 17.55907
#
# Velocity S-wave (km/s) = 2.38897 3.80968 3.17969
# Velocity P-wave (km/s) = 6.38318 8.67312 7.61472
#
# Compressibility (1/GPa) = 0.01737707
#
# Stress axis : x y z
#
# Youngs Moduli (GPa) = 32.98525 105.31808 121.87951
#
# Poissons Ratio (x) = 0.73405 0.67807
# Poissons Ratio (y) = 0.22990 0.33960
# Poissons Ratio (z) = 0.18351 0.29345
#
# Static dielectric constant tensor:
#      x y z
#    x 1.582460 0.000000 0.000000 
#    y 0.000000 1.562150 0.000000 
#    z 0.000000 0.000000 1.581850 
# 
# From -- ./inp_files/11934.got.cif
#   From: 2010.05.17/outbox.cif.g08.bks.cpg/sg49_6_cif.got.tgz:11934.got - 2010.06.03 21:02:19.
