data_PCOD9394654
_publ_section_title
;
Structure prediction by ZEFSAII (Michael W. Deem and Ramdas Pophale) SiO2 
 PCOD9394654
Probable space group: P C C M
;
_chemical_formula_sum "Si O2"
_cell_formula_units_Z 48
_cell_length_a 12.179100
_cell_length_b 12.225607
_cell_length_c 16.843046
_cell_angle_alpha 90.000000
_cell_angle_beta 90.000000
_cell_angle_gamma 90.000000
_cell_volume 2507.877171
_symmetry_space_group_name_H-M "P C C M"
_symmetry_group_IT_number 49
_symmetry_cell_setting 'orthorhombic'
loop_
_space_group_symop_operation_xyz
x,y,z
-x,-y,z
x,-y,1/2-z
-x,y,1/2-z
-x,-y,-z
x,y,-z
-x,y,1/2+z
x,-y,1/2+z
loop_
_atom_site_type_symbol
_atom_site_label
_atom_site_fract_x
_atom_site_fract_y
_atom_site_fract_z
Si Si1 0.909642 0.413326 0.404254
Si Si2 0.831144 0.971113 0.342521
Si Si3 0.674219 0.514710 0.845273
Si Si4 0.515751 0.677986 0.345663
Si Si5 0.409232 0.911554 0.094831
Si Si6 0.969558 0.167844 0.405433
O O1 0.911137 0.411263 0.500000
O O2 0.793038 0.458068 0.376756
O O3 0.935773 0.289219 0.378143
O O4 0.000000 0.500000 0.376326
O O5 0.709388 0.934957 0.366956
O O6 0.921101 0.878163 0.363207
O O7 0.835101 0.000000 0.250000
O O8 0.873914 0.079637 0.388052
O O9 0.677111 0.500000 0.750000
O O10 0.594324 0.614088 0.870286
O O11 0.615308 0.402448 0.870225
O O12 0.500000 0.686770 0.250000
O O13 0.541665 0.794768 0.381150
O O14 0.500000 0.000000 0.120041
O O15 0.395893 0.917660 0.000000
O O16 0.990174 0.169868 0.500000
#
# Coordination Sequence:
#
# PCOD9394654 Si02
#       6
#     8   8   8   8   8   8
#     4  10  23  39  59  89 122 160 204 250 301 359
#     4  11  24  41  64  92 123 159 210 255 309 370
#     4   9  20  41  62  91 121 159 199 249 307 365
#     4   9  21  40  65  88 122 160 201 249 310 363
#     4  11  26  41  60  91 125 162 209 256 308 367
#     4  10  21  42  66  87 126 166 202 254 308 365
#
# _framework density 19.139693000000001
#
# number of rings (size 3 to 8) (size 9 to 14) (size 15 to 20)
#    0.000    2.000    0.000    4.000    7.000    3.000 
#    3.000    1.667    0.000    0.000    0.000    0.000 
#    0.000    0.000    0.000    0.000    0.000    0.000 
#
# Total GULP energy -267994.559227 kJ/mol
# GULP energy per Si atom -5583.219984 kJ/mol
# Density = 1.909613 g / cm^3
# Si number density = 19.139693 Si / 1000 Ang^3
#
#
#
# Elastic Constant Matrix: (Units=GPa)
#
#
# Indices 1 2 3 4 5 6 
#
# 1 158.6176 106.8192 31.5268 0.0000 0.0000 0.0000
# 2 106.8192 165.8586 24.1636 0.0000 0.0000 0.0000
# 3 31.5268 24.1636 41.4219 0.0000 0.0000 0.0000
# 4 0.0000 0.0000 0.0000 12.2018 0.0000 0.0000
# 5 0.0000 0.0000 0.0000 0.0000 31.4343 0.0000
# 6 0.0000 0.0000 0.0000 0.0000 0.0000 9.0556
#
#
#
# Elastic Compliance Matrix: (Units=1/GPa)
#
#
# Indices 1 2 3 4 5 6 
#
# 1 0.012034 -0.007012 -0.005069 0.000000 0.000000 0.000000
# 2 -0.007012 0.010675 -0.000890 0.000000 0.000000 0.000000
# 3 -0.005069 -0.000890 0.028519 0.000000 0.000000 0.000000
# 4 0.000000 0.000000 0.000000 0.081955 0.000000 0.000000
# 5 0.000000 0.000000 0.000000 0.000000 0.031812 0.000000
# 6 0.000000 0.000000 0.000000 0.000000 0.000000 0.110429
#
#
# Mechanical properties :
#
#
# Convention : Reuss Voigt Hill
#
# Bulk Modulus (GPa) = 39.54779 76.76857 58.15818
# Shear Modulus (GPa) = 16.13965 24.09755 20.11860
#
# Velocity S-wave (km/s) = 2.90704 3.55214 3.24565
# Velocity P-wave (km/s) = 5.65468 7.55118 6.67067
#
# Compressibility (1/GPa) = 0.02528586
#
# Stress axis : x y z
#
# Youngs Moduli (GPa) = 83.09757 93.67783 35.06408
#
# Poissons Ratio (x) = 0.65686 0.17773
# Poissons Ratio (y) = 0.58267 0.03122
# Poissons Ratio (z) = 0.42121 0.08341
#
# Static dielectric constant tensor:
#      x y z
#    x 1.645570 0.000000 0.000000 
#    y 0.000000 1.652160 0.000000 
#    z 0.000000 0.000000 1.668920 
# 
# From -- ./inp_files/17056.got.cif
#   From: 2010.05.17/outbox.cif.g08.bks.cpg/sg49_9_cif.got.tgz:17056.got - 2010.06.03 21:02:19.
