data_PCOD9394796
_publ_section_title
;
Structure prediction by ZEFSAII (Michael W. Deem and Ramdas Pophale) SiO2 
 PCOD9394796
Probable space group: P C C M
;
_chemical_formula_sum "Si O2"
_cell_formula_units_Z 54
_cell_length_a 30.481559
_cell_length_b 5.142807
_cell_length_c 14.476443
_cell_angle_alpha 90.000000
_cell_angle_beta 90.000000
_cell_angle_gamma 90.000000
_cell_volume 2269.338424
_symmetry_space_group_name_H-M "P C C M"
_symmetry_group_IT_number 49
_symmetry_cell_setting 'orthorhombic'
loop_
_space_group_symop_operation_xyz
x,y,z
-x,-y,z
x,-y,1/2-z
-x,y,1/2-z
-x,-y,-z
x,y,-z
-x,y,1/2+z
x,-y,1/2+z
loop_
_atom_site_type_symbol
_atom_site_label
_atom_site_fract_x
_atom_site_fract_y
_atom_site_fract_z
Si Si1 0.973367 0.248302 0.110922
Si Si2 0.290168 0.912852 0.849433
Si Si3 0.123937 0.247868 0.314141
Si Si4 0.212143 0.452375 0.359839
Si Si5 0.380919 0.299046 0.391041
Si Si6 0.745049 0.779112 0.000000
Si Si7 0.562824 0.201205 0.610045
Si Si8 0.500000 0.500000 0.250000
O O1 0.922786 0.223695 0.137764
O O2 0.000000 0.500000 0.143810
O O3 0.974797 0.253560 0.000000
O O4 0.000000 0.000000 0.143869
O O5 0.253505 0.721589 0.892223
O O6 0.336484 0.772447 0.839425
O O7 0.274419 0.000000 0.750000
O O8 0.291299 0.151070 0.919250
O O9 0.119963 0.500000 0.250000
O O10 0.166349 0.308086 0.376436
O O11 0.132941 0.000000 0.250000
O O12 0.215782 0.500000 0.250000
O O13 0.218650 0.709830 0.418793
O O14 0.371138 0.267656 0.500000
O O15 0.398176 0.588755 0.376824
O O16 0.418769 0.086556 0.369533
O O17 0.549811 0.210626 0.500000
O O18 0.526769 0.311079 0.680220
#
# Coordination Sequence:
#
# PCOD9394796 Si02
#       8
#     8   8   8   8   8   4   8   2
#     4  10  22  42  65  98 135 176 229 290 358 433
#     4  12  25  43  72 103 147 186 243 302 352 435
#     4  11  25  44  69  98 137 180 235 298 355 427
#     4  11  26  46  68 103 145 189 245 301 358 438
#     4  10  24  44  70 101 143 178 232 285 352 416
#     4  12  26  46  72 104 138 206 235 292 378 432
#     4  10  25  45  68 103 135 179 226 289 342 418
#     4  12  26  46  76  96 140 178 234 278 352 424
#
# _framework density 23.795482
#
# number of rings (size 3 to 8) (size 9 to 14) (size 15 to 20)
#    0.000    1.185    2.222    2.000    7.259    2.963 
#    0.000    2.222    0.000    0.000    0.000    0.000 
#    0.000    0.000    0.000    0.000    0.000    0.000 
#
# Total GULP energy -301361.146459 kJ/mol
# GULP energy per Si atom -5580.761971 kJ/mol
# Density = 2.374132 g / cm^3
# Si number density = 23.795482 Si / 1000 Ang^3
#
#
#
# Elastic Constant Matrix: (Units=GPa)
#
#
# Indices 1 2 3 4 5 6 
#
# 1 123.4157 12.7747 22.3634 0.0000 0.0000 0.0000
# 2 12.7747 89.5883 5.9946 0.0000 0.0000 0.0000
# 3 22.3634 5.9946 120.2201 0.0000 0.0000 0.0000
# 4 0.0000 0.0000 0.0000 547.7831 0.0000 0.0000
# 5 0.0000 0.0000 0.0000 0.0000 4.2041 0.0000
# 6 0.0000 0.0000 0.0000 0.0000 0.0000 37.3299
#
#
#
# Elastic Compliance Matrix: (Units=1/GPa)
#
#
# Indices 1 2 3 4 5 6 
#
# 1 0.008494 -0.001109 -0.001525 0.000000 0.000000 0.000000
# 2 -0.001109 0.011344 -0.000359 0.000000 0.000000 0.000000
# 3 -0.001525 -0.000359 0.008620 0.000000 0.000000 0.000000
# 4 0.000000 0.000000 0.000000 0.001826 0.000000 0.000000
# 5 0.000000 0.000000 0.000000 0.000000 0.237863 0.000000
# 6 0.000000 0.000000 0.000000 0.000000 0.000000 0.026788
#
#
# Mechanical properties :
#
#
# Convention : Reuss Voigt Hill
#
# Bulk Modulus (GPa) = 44.50105 46.16552 45.33328
# Shear Modulus (GPa) = 16.21212 137.33618 76.77415
#
# Velocity S-wave (km/s) = 2.61302 7.60530 5.68632
# Velocity P-wave (km/s) = 5.27692 9.82669 7.88701
#
# Compressibility (1/GPa) = 0.02247138
#
# Stress axis : x y z
#
# Youngs Moduli (GPa) = 117.73315 88.14946 116.01436
#
# Poissons Ratio (x) = 0.09777 0.17689
# Poissons Ratio (y) = 0.13058 0.04169
# Poissons Ratio (z) = 0.17951 0.03168
#
# Static dielectric constant tensor:
#      x y z
#    x 1.889230 0.000000 0.000000 
#    y 0.000000 2.017600 0.000000 
#    z 0.000000 0.000000 1.893570 
# 
# From -- ./inp_files/14641.got.cif
#   From: 2010.05.17/outbox.cif.g08.bks.cpg/sg49_8_cif.got.tgz:14641.got - 2010.06.03 21:02:19.
