data_PCOD9394225
_publ_section_title
;
Structure prediction by ZEFSAII (Michael W. Deem and Ramdas Pophale) SiO2 
 PCOD9394225
Probable space group: P C C M
;
_chemical_formula_sum "Si O2"
_cell_formula_units_Z 58
_cell_length_a 9.010715
_cell_length_b 17.394407
_cell_length_c 14.850812
_cell_angle_alpha 90.000000
_cell_angle_beta 90.000000
_cell_angle_gamma 90.000000
_cell_volume 2327.657524
_symmetry_space_group_name_H-M "P C C M"
_symmetry_group_IT_number 49
_symmetry_cell_setting 'orthorhombic'
loop_
_space_group_symop_operation_xyz
x,y,z
-x,-y,z
x,-y,1/2-z
-x,y,1/2-z
-x,-y,-z
x,y,-z
-x,y,1/2+z
x,-y,1/2+z
loop_
_atom_site_type_symbol
_atom_site_label
_atom_site_fract_x
_atom_site_fract_y
_atom_site_fract_z
Si Si1 0.908985 0.893541 0.399778
Si Si2 0.124264 0.648569 0.832478
Si Si3 0.184841 0.652608 0.399350
Si Si4 0.797390 0.816617 0.891479
Si Si5 0.349571 0.777744 0.898394
Si Si6 0.000000 0.000000 0.750000
Si Si7 0.548796 0.914598 0.890475
Si Si8 0.676623 0.505329 0.390372
O O1 0.947756 0.922920 0.500000
O O2 0.757858 0.850172 0.408459
O O3 0.031238 0.831016 0.373018
O O4 0.902768 0.951861 0.319232
O O5 0.249491 0.715058 0.846516
O O6 0.223382 0.572279 0.846503
O O7 0.000000 0.649902 0.750000
O O8 0.993514 0.652850 0.906494
O O9 0.247929 0.652608 0.500000
O O10 0.238562 0.732177 0.355230
O O11 0.249256 0.574834 0.359558
O O12 0.717944 0.895610 0.864976
O O13 0.780178 0.811781 0.000000
O O14 0.485844 0.829338 0.861447
O O15 0.385369 0.747316 0.000000
O O16 0.500000 0.000000 0.859535
O O17 0.532077 0.916298 0.000000
O O18 0.500000 0.500000 0.369402
O O19 0.688804 0.514244 0.500000
#
# Coordination Sequence:
#
# PCOD9394225 Si02
#       8
#     8   8   8   8   8   2   8   8
#     4  10  22  40  63  94 127 172 228 290 356 428
#     4  12  25  41  65  98 140 186 234 287 359 440
#     4  10  20  39  66  95 128 171 226 289 352 422
#     4   9  18  35  61  92 126 165 220 283 347 418
#     4  10  21  39  66  96 131 175 231 291 347 421
#     4  12  26  36  64  92 132 166 218 290 356 426
#     4   9  19  34  59  94 130 171 222 285 359 430
#     4  10  23  42  71 106 139 176 235 304 362 431
#
# _framework density 24.917753999999999
#
# number of rings (size 3 to 8) (size 9 to 14) (size 15 to 20)
#    0.000    1.931    1.379    1.862    4.828    2.207 
#    0.000    1.379    0.000    3.310    0.000    0.000 
#    0.000    0.000    0.000    0.000    0.000    0.000 
#
# Total GULP energy -322955.457620 kJ/mol
# GULP energy per Si atom -5568.197545 kJ/mol
# Density = 2.486104 g / cm^3
# Si number density = 24.917754 Si / 1000 Ang^3
#
#
#
# Elastic Constant Matrix: (Units=GPa)
#
#
# Indices 1 2 3 4 5 6 
#
# 1 65.5077 42.7293 15.0509 0.0000 0.0000 0.0000
# 2 42.7293 169.9927 49.1528 0.0000 0.0000 0.0000
# 3 15.0509 49.1528 126.5209 0.0000 0.0000 0.0000
# 4 0.0000 0.0000 0.0000 1711.6397 0.0000 0.0000
# 5 0.0000 0.0000 0.0000 0.0000 6.6594 0.0000
# 6 0.0000 0.0000 0.0000 0.0000 0.0000 46.1704
#
#
#
# Elastic Compliance Matrix: (Units=1/GPa)
#
#
# Indices 1 2 3 4 5 6 
#
# 1 0.018281 -0.004468 -0.000439 0.000000 0.000000 0.000000
# 2 -0.004468 0.007719 -0.002467 0.000000 0.000000 0.000000
# 3 -0.000439 -0.002467 0.008915 0.000000 0.000000 0.000000
# 4 0.000000 0.000000 0.000000 0.000584 0.000000 0.000000
# 5 0.000000 0.000000 0.000000 0.000000 0.150164 0.000000
# 6 0.000000 0.000000 0.000000 0.000000 0.000000 0.021659
#
#
# Mechanical properties :
#
#
# Convention : Reuss Voigt Hill
#
# Bulk Modulus (GPa) = 49.58879 63.98746 56.78812
# Shear Modulus (GPa) = 21.85394 369.89979 195.87687
#
# Velocity S-wave (km/s) = 2.96470 12.19715 8.87581
# Velocity P-wave (km/s) = 5.62703 14.96983 11.30839
#
# Compressibility (1/GPa) = 0.02016585
#
# Stress axis : x y z
#
# Youngs Moduli (GPa) = 54.70254 129.54820 112.17586
#
# Poissons Ratio (x) = 0.57884 0.04922
# Poissons Ratio (y) = 0.24442 0.27677
# Poissons Ratio (z) = 0.02400 0.31964
#
# Static dielectric constant tensor:
#      x y z
#    x 1.653150 0.000000 0.000000 
#    y 0.000000 2.014210 0.000000 
#    z 0.000000 0.000000 2.147090 
# 
# From -- ./inp_files/16479.got.cif
#   From: 2010.05.17/outbox.cif.g08.bks.cpg/sg49_9_cif.got.tgz:16479.got - 2010.06.03 21:02:19.
