data_PCOD9394989
_publ_section_title
;
Structure prediction by ZEFSAII (Michael W. Deem and Ramdas Pophale) SiO2 
 PCOD9394989
Probable space group: P C C M
;
_chemical_formula_sum "Si O2"
_cell_formula_units_Z 64
_cell_length_a 9.611917
_cell_length_b 21.385055
_cell_length_c 17.449839
_cell_angle_alpha 90.000000
_cell_angle_beta 90.000000
_cell_angle_gamma 90.000000
_cell_volume 3586.838377
_symmetry_space_group_name_H-M "P C C M"
_symmetry_group_IT_number 49
_symmetry_cell_setting 'orthorhombic'
loop_
_space_group_symop_operation_xyz
x,y,z
-x,-y,z
x,-y,1/2-z
-x,y,1/2-z
-x,-y,-z
x,y,-z
-x,y,1/2+z
x,-y,1/2+z
loop_
_atom_site_type_symbol
_atom_site_label
_atom_site_fract_x
_atom_site_fract_y
_atom_site_fract_z
Si Si1 0.201652 0.536352 0.326222
Si Si2 0.999218 0.366934 0.907476
Si Si3 0.683701 0.868289 0.906244
Si Si4 0.703836 0.586255 0.409168
Si Si5 0.775100 0.268131 0.407784
Si Si6 0.416642 0.066305 0.589174
Si Si7 0.434310 0.360874 0.826754
Si Si8 0.841245 0.005325 0.406137
O O1 0.158204 0.500000 0.250000
O O2 0.081524 0.576896 0.366050
O O3 0.260089 0.483931 0.383382
O O4 0.326293 0.583918 0.305619
O O5 0.080327 0.303005 0.887180
O O6 0.837637 0.371717 0.885846
O O7 0.009375 0.375301 0.000000
O O8 0.749288 0.802743 0.881692
O O9 0.525905 0.883307 0.878743
O O10 0.777702 0.927576 0.884496
O O11 0.678404 0.868175 0.000000
O O12 0.692264 0.588701 0.500000
O O13 0.561469 0.609817 0.373298
O O14 0.768338 0.268385 0.500000
O O15 0.652532 0.311223 0.375125
O O16 0.394709 0.083286 0.500000
O O17 0.500000 0.000000 0.589753
O O18 0.265464 0.048649 0.621822
O O19 0.500000 0.332967 0.750000
O O20 0.839165 0.002666 0.500000
O O21 0.000000 0.000000 0.381169
#
# Coordination Sequence:
#
# PCOD9394989 Si02
#       8
#     8   8   8   8   8   8   8   8
#     4  11  21  35  53  77 101 128 162 202 251 311
#     4   9  20  36  51  73 102 131 165 204 249 302
#     4   8  13  23  40  59  83 125 169 195 228 289
#     4  11  22  35  54  76 100 128 159 205 258 306
#     4   9  18  34  52  67  93 136 176 202 240 304
#     4   7  10  17  30  51  81 114 150 189 227 272
#     4  11  22  37  51  72 100 125 162 211 254 296
#     4   8  12  18  31  57  92 123 152 196 249 286
#
# _framework density 17.843012999999999
#
# number of rings (size 3 to 8) (size 9 to 14) (size 15 to 20)
#    0.000    2.750    1.250    3.000    0.000    4.000 
#    0.000    1.250    0.000    6.000    0.000    0.000 
#    0.000    4.500    0.000    1.500    0.000    1.625 
#
# Total GULP energy -356547.873843 kJ/mol
# GULP energy per Si atom -5571.060529 kJ/mol
# Density = 1.780240 g / cm^3
# Si number density = 17.843013 Si / 1000 Ang^3
#
#
#
# Elastic Constant Matrix: (Units=GPa)
#
#
# Indices 1 2 3 4 5 6 
#
# 1 100.6960 31.2889 6.2302 0.0000 0.0000 0.0000
# 2 31.2889 86.1397 3.2936 0.0000 0.0000 0.0000
# 3 6.2302 3.2936 11.1839 0.0000 0.0000 0.0000
# 4 0.0000 0.0000 0.0000 -1.3272 0.0000 0.0000
# 5 0.0000 0.0000 0.0000 0.0000 8.4162 0.0000
# 6 0.0000 0.0000 0.0000 0.0000 0.0000 10.1565
#
#
#
# Elastic Compliance Matrix: (Units=1/GPa)
#
#
# Indices 1 2 3 4 5 6 
#
# 1 0.011489 -0.003973 -0.005230 0.000000 0.000000 0.000000
# 2 -0.003973 0.013115 -0.001649 0.000000 0.000000 0.000000
# 3 -0.005230 -0.001649 0.092813 0.000000 0.000000 0.000000
# 4 0.000000 0.000000 0.000000 -0.753473 0.000000 0.000000
# 5 0.000000 0.000000 0.000000 0.000000 0.118818 0.000000
# 6 0.000000 0.000000 0.000000 0.000000 0.000000 0.098459
#
#
# Mechanical properties :
#
#
# Convention : Reuss Voigt Hill
#
# Bulk Modulus (GPa) = 10.44792 31.07168 20.75980
# Shear Modulus (GPa) = -13.69226 13.92957 0.11866
#
# Velocity S-wave (km/s) = -2.77316 2.79709 0.25816
# Velocity P-wave (km/s) = 2.09420 5.28046 3.42765
#
# Compressibility (1/GPa) = 0.09571283
#
# Stress axis : x y z
#
# Youngs Moduli (GPa) = 87.03924 76.24671 10.77434
#
# Poissons Ratio (x) = 0.30295 0.05635
# Poissons Ratio (y) = 0.34583 0.01777
# Poissons Ratio (z) = 0.45523 0.12573
#
# Static dielectric constant tensor:
#      x y z
#    x 1.641110 0.000000 0.000000 
#    y 0.000000 1.604260 0.000000 
#    z 0.000000 0.000000 1.612980 
# 
# From -- ./inp_files/20053.got.cif
#   From: 2010.05.17/outbox.cif.g08.bks.cpg/sg49_11_cif.got.tgz:20053.got - 2010.06.03 21:02:19.
