data_PCOD9394022
_publ_section_title
;
Structure prediction by ZEFSAII (Michael W. Deem and Ramdas Pophale) SiO2 
 PCOD9394022
Probable space group: P C C M
;
_chemical_formula_sum "Si O2"
_cell_formula_units_Z 40
_cell_length_a 9.999296
_cell_length_b 11.111471
_cell_length_c 17.097915
_cell_angle_alpha 90.000000
_cell_angle_beta 90.000000
_cell_angle_gamma 90.000000
_cell_volume 1899.696119
_symmetry_space_group_name_H-M "P C C M"
_symmetry_group_IT_number 49
_symmetry_cell_setting 'orthorhombic'
loop_
_space_group_symop_operation_xyz
x,y,z
-x,-y,z
x,-y,1/2-z
-x,y,1/2-z
-x,-y,-z
x,y,-z
-x,y,1/2+z
x,-y,1/2+z
loop_
_atom_site_type_symbol
_atom_site_label
_atom_site_fract_x
_atom_site_fract_y
_atom_site_fract_z
Si Si1 0.113926 0.302067 0.813729
Si Si2 0.067633 0.869928 0.086726
Si Si3 0.469209 0.332488 0.338881
Si Si4 0.712020 0.470905 0.591885
Si Si5 0.697647 0.129838 0.788001
O O1 0.170021 0.420004 0.855143
O O2 0.234112 0.223802 0.773897
O O3 0.000000 0.326777 0.750000
O O4 0.041633 0.220485 0.878534
O O5 0.190178 0.881028 0.145633
O O6 0.109983 0.832535 0.000000
O O7 0.000000 0.000000 0.083478
O O8 0.500000 0.372778 0.250000
O O9 0.342352 0.404206 0.373163
O O10 0.590903 0.374988 0.393208
O O11 0.429763 0.193724 0.328102
O O12 0.741033 0.479473 0.500000
O O13 0.673654 0.000000 0.750000
#
# Coordination Sequence:
#
# PCOD9394022 Si02
#       5
#     8   8   8   8   8
#     4  10  21  38  66  96 129 170 215 265 322 392
#     4  10  20  36  60  90 131 171 212 265 330 392
#     4  11  23  41  67  92 124 175 223 262 323 386
#     4  11  23  43  69  97 131 169 216 274 331 385
#     4  11  22  39  64  92 130 169 222 268 316 390
#
# _framework density 21.055999
#
# number of rings (size 3 to 8) (size 9 to 14) (size 15 to 20)
#    0.000    1.400    4.000    3.000    0.000    2.000 
#    0.000    7.000    0.000    7.200    0.000    0.000 
#    0.000    0.000    0.000    0.000    0.000    0.000 
#
# Total GULP energy -223601.527537 kJ/mol
# GULP energy per Si atom -5590.038188 kJ/mol
# Density = 2.100807 g / cm^3
# Si number density = 21.055999 Si / 1000 Ang^3
#
#
#
# Elastic Constant Matrix: (Units=GPa)
#
#
# Indices 1 2 3 4 5 6 
#
# 1 32.2633 29.0327 1.6958 0.0000 0.0000 0.0000
# 2 29.0327 72.8614 35.3870 0.0000 0.0000 0.0000
# 3 1.6958 35.3870 119.6133 0.0000 0.0000 0.0000
# 4 0.0000 0.0000 0.0000 19.0676 0.0000 0.0000
# 5 0.0000 0.0000 0.0000 0.0000 33.2808 0.0000
# 6 0.0000 0.0000 0.0000 0.0000 0.0000 36.8955
#
#
#
# Elastic Compliance Matrix: (Units=1/GPa)
#
#
# Indices 1 2 3 4 5 6 
#
# 1 0.052104 -0.023826 0.006310 0.000000 0.000000 0.000000
# 2 -0.023826 0.026923 -0.007627 0.000000 0.000000 0.000000
# 3 0.006310 -0.007627 0.010527 0.000000 0.000000 0.000000
# 4 0.000000 0.000000 0.000000 0.052445 0.000000 0.000000
# 5 0.000000 0.000000 0.000000 0.000000 0.030047 0.000000
# 6 0.000000 0.000000 0.000000 0.000000 0.000000 0.027104
#
#
# Mechanical properties :
#
#
# Convention : Reuss Voigt Hill
#
# Bulk Modulus (GPa) = 25.46642 39.66322 32.56482
# Shear Modulus (GPa) = 19.04580 28.42362 23.73471
#
# Velocity S-wave (km/s) = 3.01080 3.67809 3.36105
# Velocity P-wave (km/s) = 4.92011 6.07583 5.52825
#
# Compressibility (1/GPa) = 0.03926740
#
# Stress axis : x y z
#
# Youngs Moduli (GPa) = 19.19256 37.14313 94.99124
#
# Poissons Ratio (x) = 0.88497 -0.59941
# Poissons Ratio (y) = 0.45728 0.72452
# Poissons Ratio (z) = -0.12111 0.28330
#
# Static dielectric constant tensor:
#      x y z
#    x 1.810450 0.000000 0.000000 
#    y 0.000000 1.747750 0.000000 
#    z 0.000000 0.000000 1.737890 
# 
# From -- ./inp_files/12588.got.cif
#   From: 2010.05.17/outbox.cif.g08.bks.cpg/sg49_7_cif.got.tgz:12588.got - 2010.06.03 21:02:19.
