data_PCOD9394168
_publ_section_title
;
Structure prediction by ZEFSAII (Michael W. Deem and Ramdas Pophale) SiO2 
 PCOD9394168
Probable space group: P C C M
;
_chemical_formula_sum "Si O2"
_cell_formula_units_Z 58
_cell_length_a 15.959982
_cell_length_b 10.124156
_cell_length_c 18.764147
_cell_angle_alpha 90.000000
_cell_angle_beta 90.000000
_cell_angle_gamma 90.000000
_cell_volume 3031.936157
_symmetry_space_group_name_H-M "P C C M"
_symmetry_group_IT_number 49
_symmetry_cell_setting 'orthorhombic'
loop_
_space_group_symop_operation_xyz
x,y,z
-x,-y,z
x,-y,1/2-z
-x,y,1/2-z
-x,-y,-z
x,y,-z
-x,y,1/2+z
x,-y,1/2+z
loop_
_atom_site_type_symbol
_atom_site_label
_atom_site_fract_x
_atom_site_fract_y
_atom_site_fract_z
Si Si1 0.823012 0.232411 0.917625
Si Si2 0.500000 0.500000 0.750000
Si Si3 0.679096 0.007599 0.919461
Si Si4 0.316491 0.561261 0.085543
Si Si5 0.909800 0.156073 0.227140
Si Si6 0.385317 0.686063 0.339264
Si Si7 0.739284 0.860166 0.790024
Si Si8 0.545590 0.214703 0.086139
O O1 0.750941 0.120389 0.919941
O O2 0.770674 0.363763 0.896243
O O3 0.887340 0.186227 0.855648
O O4 0.854825 0.244859 0.000000
O O5 0.555280 0.411278 0.701144
O O6 0.596781 0.083491 0.891018
O O7 0.718674 0.893223 0.871926
O O8 0.663434 0.964521 0.000000
O O9 0.326883 0.414173 0.116008
O O10 0.394766 0.658971 0.104820
O O11 0.318510 0.554062 0.000000
O O12 0.828242 0.201901 0.271217
O O13 0.000000 0.210779 0.250000
O O14 0.912175 0.000000 0.250000
O O15 0.335673 0.761495 0.276770
O O16 0.451458 0.772712 0.384761
O O17 0.732237 0.000000 0.750000
O O18 0.542839 0.210860 0.000000
#
# Coordination Sequence:
#
# PCOD9394168 Si02
#       8
#     8   2   8   8   8   8   8   8
#     4   9  17  34  62  86 112 150 190 236 290 350
#     4  12  28  36  44  80 114 148 200 236 272 332
#     4   9  18  35  56  81 111 149 193 237 286 345
#     4   9  18  35  60  83 106 145 199 247 284 324
#     4  10  20  38  62  88 117 146 188 237 299 360
#     4  12  24  35  53  76 113 152 194 242 281 331
#     4  11  24  39  56  79 115 154 184 235 299 354
#     4   9  18  35  57  77 106 149 197 244 280 322
#
# _framework density 19.12969
#
# number of rings (size 3 to 8) (size 9 to 14) (size 15 to 20)
#    0.000    2.069    4.138    2.069    3.862    2.759 
#    0.000    3.448    0.000    1.655    0.000    1.931 
#    0.000    0.000    0.000    0.000    0.000    0.000 
#
# Total GULP energy -323054.660689 kJ/mol
# GULP energy per Si atom -5569.907943 kJ/mol
# Density = 1.908615 g / cm^3
# Si number density = 19.129690 Si / 1000 Ang^3
#
#
#
# Elastic Constant Matrix: (Units=GPa)
#
#
# Indices 1 2 3 4 5 6 
#
# 1 120.4246 32.5333 56.7169 0.0000 0.0000 0.0000
# 2 32.5333 43.1956 18.8973 0.0000 0.0000 0.0000
# 3 56.7169 18.8973 79.6828 0.0000 0.0000 0.0000
# 4 0.0000 0.0000 0.0000 25.3686 0.0000 0.0000
# 5 0.0000 0.0000 0.0000 0.0000 25.3352 0.0000
# 6 0.0000 0.0000 0.0000 0.0000 0.0000 13.1195
#
#
#
# Elastic Compliance Matrix: (Units=1/GPa)
#
#
# Indices 1 2 3 4 5 6 
#
# 1 0.014155 -0.006977 -0.008420 0.000000 0.000000 0.000000
# 2 -0.006977 0.029269 -0.001975 0.000000 0.000000 0.000000
# 3 -0.008420 -0.001975 0.019012 0.000000 0.000000 0.000000
# 4 0.000000 0.000000 0.000000 0.039419 0.000000 0.000000
# 5 0.000000 0.000000 0.000000 0.000000 0.039471 0.000000
# 6 0.000000 0.000000 0.000000 0.000000 0.000000 0.076222
#
#
# Mechanical properties :
#
#
# Convention : Reuss Voigt Hill
#
# Bulk Modulus (GPa) = 36.11358 51.06643 43.59001
# Shear Modulus (GPa) = 19.11876 21.77503 20.44690
#
# Velocity S-wave (km/s) = 3.16480 3.37751 3.27288
# Velocity P-wave (km/s) = 5.68101 6.47788 6.09249
#
# Compressibility (1/GPa) = 0.02769041
#
# Stress axis : x y z
#
# Youngs Moduli (GPa) = 70.64843 34.16527 52.59912
#
# Poissons Ratio (x) = 0.23837 0.44290
# Poissons Ratio (y) = 0.49291 0.10390
# Poissons Ratio (z) = 0.59489 0.06749
#
# Static dielectric constant tensor:
#      x y z
#    x 1.677670 0.000000 0.000000 
#    y 0.000000 1.731450 0.000000 
#    z 0.000000 0.000000 1.713280 
# 
# From -- ./inp_files/17889.got.cif
#   From: 2010.05.17/outbox.cif.g08.bks.cpg/sg49_9_cif.got.tgz:17889.got - 2010.06.03 21:02:19.
