data_PCOD9394449
_publ_section_title
;
Structure prediction by ZEFSAII (Michael W. Deem and Ramdas Pophale) SiO2 
 PCOD9394449
Probable space group: P C C M
;
_chemical_formula_sum "Si O2"
_cell_formula_units_Z 46
_cell_length_a 11.606513
_cell_length_b 15.576104
_cell_length_c 12.234978
_cell_angle_alpha 90.000000
_cell_angle_beta 90.000000
_cell_angle_gamma 90.000000
_cell_volume 2211.891365
_symmetry_space_group_name_H-M "P C C M"
_symmetry_group_IT_number 49
_symmetry_cell_setting 'orthorhombic'
loop_
_space_group_symop_operation_xyz
x,y,z
-x,-y,z
x,-y,1/2-z
-x,y,1/2-z
-x,-y,-z
x,y,-z
-x,y,1/2+z
x,-y,1/2+z
loop_
_atom_site_type_symbol
_atom_site_label
_atom_site_fract_x
_atom_site_fract_y
_atom_site_fract_z
Si Si1 0.000000 0.644655 0.250000
Si Si2 0.863119 0.101698 0.744485
Si Si3 0.618616 0.323503 0.210972
Si Si4 0.500000 0.000000 0.750000
Si Si5 0.350494 0.140519 0.374696
Si Si6 0.199044 0.744103 0.624513
Si Si7 0.193773 0.549381 0.870354
O O1 0.906405 0.702190 0.189399
O O2 0.930481 0.591044 0.341757
O O3 0.783939 0.142635 0.838968
O O4 0.812861 0.153257 0.640908
O O5 0.000000 0.115650 0.750000
O O6 0.844978 0.000000 0.750000
O O7 0.500000 0.365578 0.250000
O O8 0.595339 0.233125 0.151203
O O9 0.688900 0.294178 0.318230
O O10 0.702908 0.381462 0.138178
O O11 0.583175 0.935397 0.685637
O O12 0.357935 0.122149 0.500000
O O13 0.194679 0.720338 0.500000
O O14 0.212438 0.500000 0.750000
O O15 0.193219 0.516883 0.000000
#
# Coordination Sequence:
#
# PCOD9394449 Si02
#       7
#     4   8   8   2   8   8   8
#     4  10  21  42  67  94 132 164 212 265 326 404
#     4  10  21  39  55  83 127 163 218 267 321 392
#     4  10  23  45  64  94 131 169 219 267 326 397
#     4  12  22  44  62  98 130 160 234 274 320 374
#     4  11  23  41  66  90 127 173 217 272 326 379
#     4  10  21  37  62  90 121 166 214 270 324 384
#     4  11  25  44  71 102 135 174 219 272 336 406
#
# _framework density 20.796681
#
# number of rings (size 3 to 8) (size 9 to 14) (size 15 to 20)
#    0.000    1.565    2.609    1.565    0.000    7.304 
#    0.000    2.609    0.000    0.000    0.000    0.000 
#    0.000    0.000    0.000    0.000    0.000    0.000 
#
# Total GULP energy -256314.740513 kJ/mol
# GULP energy per Si atom -5572.059576 kJ/mol
# Density = 2.074935 g / cm^3
# Si number density = 20.796681 Si / 1000 Ang^3
#
#
#
# Elastic Constant Matrix: (Units=GPa)
#
#
# Indices 1 2 3 4 5 6 
#
# 1 115.0152 14.2410 38.0279 0.0000 0.0000 0.0000
# 2 14.2410 64.8663 27.6883 0.0000 0.0000 0.0000
# 3 38.0279 27.6883 152.0994 0.0000 0.0000 0.0000
# 4 0.0000 0.0000 0.0000 0.8851 0.0000 0.0000
# 5 0.0000 0.0000 0.0000 0.0000 1.8759 0.0000
# 6 0.0000 0.0000 0.0000 0.0000 0.0000 20.2419
#
#
#
# Elastic Compliance Matrix: (Units=1/GPa)
#
#
# Indices 1 2 3 4 5 6 
#
# 1 0.009559 -0.001169 -0.002177 0.000000 0.000000 0.000000
# 2 -0.001169 0.016858 -0.002777 0.000000 0.000000 0.000000
# 3 -0.002177 -0.002777 0.007624 0.000000 0.000000 0.000000
# 4 0.000000 0.000000 0.000000 1.129804 0.000000 0.000000
# 5 0.000000 0.000000 0.000000 0.000000 0.533071 0.000000
# 6 0.000000 0.000000 0.000000 0.000000 0.000000 0.049403
#
#
# Mechanical properties :
#
#
# Convention : Reuss Voigt Hill
#
# Bulk Modulus (GPa) = 45.88041 54.65503 50.26772
# Shear Modulus (GPa) = 2.83153 21.40216 12.11685
#
# Velocity S-wave (km/s) = 1.16811 3.21146 2.41640
# Velocity P-wave (km/s) = 4.89169 6.33159 5.65763
#
# Compressibility (1/GPa) = 0.02179580
#
# Stress axis : x y z
#
# Youngs Moduli (GPa) = 104.61226 59.31823 131.15774
#
# Poissons Ratio (x) = 0.06936 0.28554
# Poissons Ratio (y) = 0.12233 0.36416
# Poissons Ratio (z) = 0.22775 0.16470
#
# Static dielectric constant tensor:
#      x y z
#    x 1.749570 0.000000 0.000000 
#    y 0.000000 1.837680 0.000000 
#    z 0.000000 0.000000 1.747470 
# 
# From -- ./inp_files/8881.got.cif
#   From: 2010.05.17/outbox.cif.g08.bks.cpg/sg49_5_cif.got.tgz:8881.got - 2010.06.03 21:02:19.
