data_PCOD9394587
_publ_section_title
;
Structure prediction by ZEFSAII (Michael W. Deem and Ramdas Pophale) SiO2 
 PCOD9394587
Probable space group: P C C M
;
_chemical_formula_sum "Si O2"
_cell_formula_units_Z 56
_cell_length_a 30.302409
_cell_length_b 4.986459
_cell_length_c 17.192025
_cell_angle_alpha 90.000000
_cell_angle_beta 90.000000
_cell_angle_gamma 90.000000
_cell_volume 2597.744549
_symmetry_space_group_name_H-M "P C C M"
_symmetry_group_IT_number 49
_symmetry_cell_setting 'orthorhombic'
loop_
_space_group_symop_operation_xyz
x,y,z
-x,-y,z
x,-y,1/2-z
-x,y,1/2-z
-x,-y,-z
x,y,-z
-x,y,1/2+z
x,-y,1/2+z
loop_
_atom_site_type_symbol
_atom_site_label
_atom_site_fract_x
_atom_site_fract_y
_atom_site_fract_z
Si Si1 0.450238 0.563847 0.158981
Si Si2 0.030762 0.741252 0.088730
Si Si3 0.833705 0.466640 0.407481
Si Si4 0.880511 0.968564 0.658131
Si Si5 0.693606 0.102111 0.090493
Si Si6 0.591917 0.937861 0.090252
Si Si7 0.262406 0.607335 0.662249
O O1 0.500000 0.500000 0.132844
O O2 0.447052 0.500000 0.250000
O O3 0.416411 0.367718 0.114759
O O4 0.438512 0.869618 0.141668
O O5 0.072639 0.833745 0.137958
O O6 0.000000 0.500000 0.118966
O O7 0.045196 0.668097 0.000000
O O8 0.000000 0.000000 0.083770
O O9 0.829918 0.462695 0.500000
O O10 0.845644 0.761585 0.377595
O O11 0.787583 0.391313 0.368214
O O12 0.871404 0.256102 0.381016
O O13 0.875315 0.000000 0.750000
O O14 0.642016 0.036941 0.100141
O O15 0.719094 0.902893 0.147936
O O16 0.707890 0.402810 0.111385
O O17 0.705259 0.047968 0.000000
O O18 0.580158 0.970906 0.000000
O O19 0.264062 0.500000 0.750000
#
# Coordination Sequence:
#
# PCOD9394587 Si02
#       7
#     8   8   8   8   8   8   8
#     4  11  24  41  62  90 125 163 205 256 316 380
#     4  10  21  39  64  92 124 164 208 251 302 370
#     4  12  25  44  68  93 128 174 217 260 319 385
#     4  12  25  43  66  98 134 168 214 272 324 374
#     4  11  24  43  64  91 127 166 209 257 315 380
#     4  11  24  41  64  92 123 162 209 260 311 372
#     4  12  25  42  65  96 128 164 212 264 317 373
#
# _framework density 21.557161000000001
#
# number of rings (size 3 to 8) (size 9 to 14) (size 15 to 20)
#    0.000    0.714    0.000    8.143    0.000   10.000 
#    0.000    0.714    0.000    0.000    0.000    0.000 
#    0.000    0.000    0.000    0.000    0.000    0.000 
#
# Total GULP energy -313568.296671 kJ/mol
# GULP energy per Si atom -5599.433869 kJ/mol
# Density = 2.150810 g / cm^3
# Si number density = 21.557161 Si / 1000 Ang^3
#
#
#
# Elastic Constant Matrix: (Units=GPa)
#
#
# Indices 1 2 3 4 5 6 
#
# 1 45.3786 -11.2543 16.5843 0.0000 0.0000 0.0000
# 2 -11.2543 71.3227 -6.6100 0.0000 0.0000 0.0000
# 3 16.5843 -6.6100 101.9241 0.0000 0.0000 0.0000
# 4 0.0000 0.0000 0.0000 35.7892 0.0000 0.0000
# 5 0.0000 0.0000 0.0000 0.0000 25.7370 0.0000
# 6 0.0000 0.0000 0.0000 0.0000 0.0000 25.7072
#
#
#
# Elastic Compliance Matrix: (Units=1/GPa)
#
#
# Indices 1 2 3 4 5 6 
#
# 1 0.024261 0.003483 -0.003722 0.000000 0.000000 0.000000
# 2 0.003483 0.014606 0.000380 0.000000 0.000000 0.000000
# 3 -0.003722 0.000380 0.010441 0.000000 0.000000 0.000000
# 4 0.000000 0.000000 0.000000 0.027941 0.000000 0.000000
# 5 0.000000 0.000000 0.000000 0.000000 0.038855 0.000000
# 6 0.000000 0.000000 0.000000 0.000000 0.000000 0.038900
#
#
# Mechanical properties :
#
#
# Convention : Reuss Voigt Hill
#
# Bulk Modulus (GPa) = 20.16449 24.00728 22.08588
# Shear Modulus (GPa) = 29.19708 32.10705 30.65206
#
# Velocity S-wave (km/s) = 3.68421 3.86345 3.77490
# Velocity P-wave (km/s) = 5.24139 5.57337 5.40993
#
# Compressibility (1/GPa) = 0.04959213
#
# Stress axis : x y z
#
# Youngs Moduli (GPa) = 41.21876 68.46650 95.77223
#
# Poissons Ratio (x) = -0.23849 0.35643
# Poissons Ratio (y) = -0.14358 -0.03643
# Poissons Ratio (z) = 0.15340 -0.02605
#
# Static dielectric constant tensor:
#      x y z
#    x 1.795650 0.000000 0.000000 
#    y 0.000000 1.705120 0.000000 
#    z 0.000000 0.000000 1.755020 
# 
# From -- ./inp_files/14606.got.cif
#   From: 2010.05.17/outbox.cif.g08.bks.cpg/sg49_8_cif.got.tgz:14606.got - 2010.06.03 21:02:19.
