data_PCOD9394159
_publ_section_title
;
Structure prediction by ZEFSAII (Michael W. Deem and Ramdas Pophale) SiO2 
 PCOD9394159
Probable space group: P C C M
;
_chemical_formula_sum "Si O2"
_cell_formula_units_Z 64
_cell_length_a 21.352805
_cell_length_b 17.824660
_cell_length_c 8.308005
_cell_angle_alpha 90.000000
_cell_angle_beta 90.000000
_cell_angle_gamma 90.000000
_cell_volume 3162.080615
_symmetry_space_group_name_H-M "P C C M"
_symmetry_group_IT_number 49
_symmetry_cell_setting 'orthorhombic'
loop_
_space_group_symop_operation_xyz
x,y,z
-x,-y,z
x,-y,1/2-z
-x,y,1/2-z
-x,-y,-z
x,y,-z
-x,y,1/2+z
x,-y,1/2+z
loop_
_atom_site_type_symbol
_atom_site_label
_atom_site_fract_x
_atom_site_fract_y
_atom_site_fract_z
Si Si1 0.068485 0.620027 0.694476
Si Si2 0.567415 0.752508 0.310720
Si Si3 0.586554 0.081062 0.683091
Si Si4 0.285799 0.115572 0.316584
Si Si5 0.297173 0.280552 0.808085
Si Si6 0.066439 0.207804 0.807070
Si Si7 0.154668 0.075459 0.193239
Si Si8 0.791800 0.419453 0.694013
O O1 0.067835 0.616811 0.500000
O O2 0.072208 0.706837 0.750591
O O3 0.135315 0.586892 0.750159
O O4 0.000000 0.590789 0.750000
O O5 0.500000 0.724813 0.250000
O O6 0.573473 0.741108 0.500000
O O7 0.568752 0.842543 0.275679
O O8 0.628088 0.715210 0.226497
O O9 0.565337 0.088702 0.500000
O O10 0.661840 0.084365 0.696748
O O11 0.567418 0.000000 0.750000
O O12 0.307196 0.104187 0.500000
O O13 0.278081 0.204008 0.280983
O O14 0.220407 0.077586 0.283228
O O15 0.253646 0.350571 0.756483
O O16 0.288260 0.270216 0.000000
O O17 0.119387 0.150764 0.756063
O O18 0.000000 0.178106 0.750000
O O19 0.067794 0.211260 0.000000
O O20 0.120528 0.000000 0.250000
O O21 0.162400 0.075993 0.000000
O O22 0.767214 0.500000 0.750000
O O23 0.793329 0.417275 0.500000
#
# Coordination Sequence:
#
# PCOD9394159 Si02
#       8
#     8   8   8   8   8   8   8   8
#     4   9  18  35  56  81 110 147 187 227 271 325
#     4  11  22  38  59  86 115 149 192 237 283 337
#     4  11  21  35  53  77 111 150 188 232 282 333
#     4  11  21  34  53  78 104 137 181 228 274 330
#     4  10  20  38  61  85 113 149 186 230 281 333
#     4   9  19  35  54  71  94 128 172 221 273 327
#     4  11  22  35  49  69  98 134 175 227 282 334
#     4  10  22  38  59  86 120 153 186 224 273 329
#
# _framework density 20.239839
#
# number of rings (size 3 to 8) (size 9 to 14) (size 15 to 20)
#    0.000    1.750    0.000    6.750    0.000    5.250 
#    0.000    6.250    0.000    0.375    0.000    2.625 
#    0.000    0.000    0.000    0.000    0.000    0.000 
#
# Total GULP energy -357327.391996 kJ/mol
# GULP energy per Si atom -5583.240500 kJ/mol
# Density = 2.019377 g / cm^3
# Si number density = 20.239839 Si / 1000 Ang^3
#
#
#
# Elastic Constant Matrix: (Units=GPa)
#
#
# Indices 1 2 3 4 5 6 
#
# 1 100.6709 45.2107 2.0292 0.0000 0.0000 0.0000
# 2 45.2107 93.1236 5.7138 0.0000 0.0000 0.0000
# 3 2.0292 5.7138 47.3222 0.0000 0.0000 0.0000
# 4 0.0000 0.0000 0.0000 23.8038 0.0000 0.0000
# 5 0.0000 0.0000 0.0000 0.0000 11.4868 0.0000
# 6 0.0000 0.0000 0.0000 0.0000 0.0000 -18.9995
#
#
#
# Elastic Compliance Matrix: (Units=1/GPa)
#
#
# Indices 1 2 3 4 5 6 
#
# 1 0.012705 -0.006180 0.000201 0.000000 0.000000 0.000000
# 2 -0.006180 0.013825 -0.001404 0.000000 0.000000 0.000000
# 3 0.000201 -0.001404 0.021293 0.000000 0.000000 0.000000
# 4 0.000000 0.000000 0.000000 0.042010 0.000000 0.000000
# 5 0.000000 0.000000 0.000000 0.000000 0.087056 0.000000
# 6 0.000000 0.000000 0.000000 0.000000 0.000000 -0.052633
#
#
# Mechanical properties :
#
#
# Convention : Reuss Voigt Hill
#
# Bulk Modulus (GPa) = 30.25155 38.55822 34.40489
# Shear Modulus (GPa) = 33.32408 15.80242 24.56325
#
# Velocity S-wave (km/s) = 4.06206 2.79724 3.48747
# Velocity P-wave (km/s) = 6.08107 5.43367 5.76646
#
# Compressibility (1/GPa) = 0.03305615
#
# Stress axis : x y z
#
# Youngs Moduli (GPa) = 78.70971 72.33200 46.96453
#
# Poissons Ratio (x) = 0.44705 -0.00946
# Poissons Ratio (y) = 0.48646 0.06595
# Poissons Ratio (z) = -0.01586 0.10157
#
# Static dielectric constant tensor:
#      x y z
#    x 1.749640 0.000000 0.000000 
#    y 0.000000 1.722510 0.000000 
#    z 0.000000 0.000000 1.712470 
# 
# From -- ./inp_files/6018.got.cif
#   From: 2010.05.17/outbox.cif.g08.bks.cpg/sg49_4_cif.got.tgz:6018.got - 2010.06.03 21:02:19.
