data_PCOD9394902
_publ_section_title
;
Structure prediction by ZEFSAII (Michael W. Deem and Ramdas Pophale) SiO2 
 PCOD9394902
Probable space group: P C C M
;
_chemical_formula_sum "Si O2"
_cell_formula_units_Z 30
_cell_length_a 25.863262
_cell_length_b 5.912658
_cell_length_c 8.997849
_cell_angle_alpha 90.000000
_cell_angle_beta 90.000000
_cell_angle_gamma 90.000000
_cell_volume 1375.956674
_symmetry_space_group_name_H-M "P C C M"
_symmetry_group_IT_number 49
_symmetry_cell_setting 'orthorhombic'
loop_
_space_group_symop_operation_xyz
x,y,z
-x,-y,z
x,-y,1/2-z
-x,y,1/2-z
-x,-y,-z
x,y,-z
-x,y,1/2+z
x,-y,1/2+z
loop_
_atom_site_type_symbol
_atom_site_label
_atom_site_fract_x
_atom_site_fract_y
_atom_site_fract_z
Si Si1 0.917330 0.000000 0.750000
Si Si2 0.300086 0.000000 0.250000
Si Si3 0.500000 0.000000 0.250000
Si Si4 0.046869 0.322808 0.000000
Si Si5 0.133688 0.306293 0.500000
Si Si6 0.746904 0.694573 0.500000
Si Si7 0.455769 0.312865 0.000000
Si Si8 0.658825 0.684498 0.000000
O O1 0.950639 0.162673 0.643655
O O2 0.882482 0.155750 0.857600
O O3 0.265261 0.154147 0.356183
O O4 0.334006 0.158347 0.144002
O O5 0.534707 0.156239 0.356406
O O6 0.098662 0.471627 0.000000
O O7 0.000000 0.500000 0.000000
O O8 0.193499 0.372004 0.500000
O O9 0.705478 0.493073 0.500000
O O10 0.500000 0.500000 0.000000
O O11 0.398513 0.416348 0.000000
#
# Coordination Sequence:
#
# PCOD9394902 Si02
#       8
#     4   4   2   4   4   4   4   4
#     4  10  25  45  69  99 135 173 217 269 324 384
#     4  10  24  42  63  91 131 169 212 266 324 382
#     4  10  24  42  64  90 128 168 208 266 328 386
#     4  11  26  46  70 100 135 175 220 268 324 385
#     4  11  24  43  69  98 133 174 218 267 322 383
#     4  11  24  42  66  97 130 171 218 266 320 382
#     4  11  24  42  65  93 125 165 214 264 322 388
#     4  11  24  42  65  93 127 169 214 265 322 385
#
# _framework density 21.803011000000001
#
# number of rings (size 3 to 8) (size 9 to 14) (size 15 to 20)
#    0.000    1.333    0.000    3.600    0.000   22.400 
#    0.000    2.000    0.000    0.000    0.000    0.000 
#    0.000    0.000    0.000    0.000    0.000    0.000 
#
# Total GULP energy -168067.092847 kJ/mol
# GULP energy per Si atom -5602.236428 kJ/mol
# Density = 2.175339 g / cm^3
# Si number density = 21.803011 Si / 1000 Ang^3
#
#
#
# Elastic Constant Matrix: (Units=GPa)
#
#
# Indices 1 2 3 4 5 6 
#
# 1 215.1806 91.4101 65.1281 0.0000 0.0000 0.0000
# 2 91.4101 138.6354 69.2717 0.0000 0.0000 0.0000
# 3 65.1281 69.2717 160.7165 0.0000 0.0000 0.0000
# 4 0.0000 0.0000 0.0000 -21.3740 0.0000 0.0000
# 5 0.0000 0.0000 0.0000 0.0000 -12.4951 0.0000
# 6 0.0000 0.0000 0.0000 0.0000 0.0000 34.5332
#
#
#
# Elastic Compliance Matrix: (Units=1/GPa)
#
#
# Indices 1 2 3 4 5 6 
#
# 1 0.006583 -0.003833 -0.001016 0.000000 0.000000 0.000000
# 2 -0.003833 0.011425 -0.003371 0.000000 0.000000 0.000000
# 3 -0.001016 -0.003371 0.008087 0.000000 0.000000 0.000000
# 4 0.000000 0.000000 0.000000 -0.046786 0.000000 0.000000
# 5 0.000000 0.000000 0.000000 0.000000 -0.080031 0.000000
# 6 0.000000 0.000000 0.000000 0.000000 0.000000 0.028958
#
#
# Mechanical properties :
#
#
# Convention : Reuss Voigt Hill
#
# Bulk Modulus (GPa) = 103.57085 107.35023 105.46054
# Shear Modulus (GPa) = -95.95629 19.38099 -38.28765
#
# Velocity S-wave (km/s) = -6.64124 2.98470 -4.19510
# Velocity P-wave (km/s) = 3.34694 7.82440 5.00096
#
# Compressibility (1/GPa) = 0.00965523
#
# Stress axis : x y z
#
# Youngs Moduli (GPa) = 151.90785 87.52783 123.66070
#
# Poissons Ratio (x) = 0.33550 0.12558
# Poissons Ratio (y) = 0.58227 0.41687
# Poissons Ratio (z) = 0.15427 0.29506
#
# Static dielectric constant tensor:
#      x y z
#    x 1.768300 0.000000 0.000000 
#    y 0.000000 1.776130 0.000000 
#    z 0.000000 0.000000 1.797010 
# 
# From -- ./inp_files/6811.got.cif
#   From: 2010.05.17/outbox.cif.g08.bks.cpg/sg49_4_cif.got.tgz:6811.got - 2010.06.03 21:02:19.
