data_PCOD9394567
_publ_section_title
;
Structure prediction by ZEFSAII (Michael W. Deem and Ramdas Pophale) SiO2 
 PCOD9394567
Probable space group: P C C M
;
_chemical_formula_sum "Si O2"
_cell_formula_units_Z 48
_cell_length_a 9.020234
_cell_length_b 29.150011
_cell_length_c 9.204613
_cell_angle_alpha 90.000000
_cell_angle_beta 90.000000
_cell_angle_gamma 90.000000
_cell_volume 2420.260209
_symmetry_space_group_name_H-M "P C C M"
_symmetry_group_IT_number 49
_symmetry_cell_setting 'orthorhombic'
loop_
_space_group_symop_operation_xyz
x,y,z
-x,-y,z
x,-y,1/2-z
-x,y,1/2-z
-x,-y,-z
x,y,-z
-x,y,1/2+z
x,-y,1/2+z
loop_
_atom_site_type_symbol
_atom_site_label
_atom_site_fract_x
_atom_site_fract_y
_atom_site_fract_z
Si Si1 0.159390 0.267641 0.828668
Si Si2 0.301047 0.040224 0.500000
Si Si3 0.649323 0.807679 0.665597
Si Si4 0.159306 0.626331 0.672928
Si Si5 0.639903 0.068086 0.500000
Si Si6 0.662232 0.454160 0.176904
Si Si7 0.175737 0.897337 0.230974
O O1 0.272296 0.233572 0.751089
O O2 0.209822 0.320670 0.816182
O O3 0.000000 0.263423 0.750000
O O4 0.143967 0.256881 0.000000
O O5 0.460728 0.066687 0.500000
O O6 0.208486 0.058264 0.365395
O O7 0.323170 0.986147 0.500000
O O8 0.500000 0.820667 0.750000
O O9 0.614742 0.794631 0.500000
O O10 0.761086 0.850605 0.664242
O O11 0.152739 0.614899 0.500000
O O12 0.256570 0.590727 0.763463
O O13 0.000000 0.624776 0.750000
O O14 0.719260 0.092953 0.367492
O O15 0.732371 0.500000 0.250000
O O16 0.500000 0.452031 0.250000
O O17 0.657514 0.456864 0.000000
O O18 0.000000 0.892890 0.250000
#
# Coordination Sequence:
#
# PCOD9394567 Si02
#       7
#     8   4   8   8   4   8   8
#     4  10  22  41  67  95 129 167 210 262 321 384
#     4  11  23  47  63  99 129 169 219 251 328 375
#     4  12  26  44  67  93 128 167 215 267 324 392
#     4  10  21  39  62  92 126 165 210 262 320 383
#     4  11  25  41  73  91 131 173 207 269 310 393
#     4  11  22  38  60  87 122 166 213 267 323 385
#     4  12  26  42  66  97 129 168 213 265 321 384
#
# _framework density 19.832578000000002
#
# number of rings (size 3 to 8) (size 9 to 14) (size 15 to 20)
#    0.000    1.000    0.833    6.500    2.333    6.333 
#    0.000    1.667    0.000    0.000    0.000    0.000 
#    0.000    0.000    0.000    0.000    0.000    0.000 
#
# Total GULP energy -268101.881775 kJ/mol
# GULP energy per Si atom -5585.455870 kJ/mol
# Density = 1.978744 g / cm^3
# Si number density = 19.832578 Si / 1000 Ang^3
#
#
#
# Elastic Constant Matrix: (Units=GPa)
#
#
# Indices 1 2 3 4 5 6 
#
# 1 107.9864 52.7461 35.3051 0.0000 0.0000 0.0000
# 2 52.7461 91.5614 51.6194 0.0000 0.0000 0.0000
# 3 35.3051 51.6194 170.0975 0.0000 0.0000 0.0000
# 4 0.0000 0.0000 0.0000 22.7326 0.0000 0.0000
# 5 0.0000 0.0000 0.0000 0.0000 29.9060 0.0000
# 6 0.0000 0.0000 0.0000 0.0000 0.0000 44.6534
#
#
#
# Elastic Compliance Matrix: (Units=1/GPa)
#
#
# Indices 1 2 3 4 5 6 
#
# 1 0.012923 -0.007157 -0.000510 0.000000 0.000000 0.000000
# 2 -0.007157 0.017139 -0.003716 0.000000 0.000000 0.000000
# 3 -0.000510 -0.003716 0.007113 0.000000 0.000000 0.000000
# 4 0.000000 0.000000 0.000000 0.043990 0.000000 0.000000
# 5 0.000000 0.000000 0.000000 0.000000 0.033438 0.000000
# 6 0.000000 0.000000 0.000000 0.000000 0.000000 0.022395
#
#
# Mechanical properties :
#
#
# Convention : Reuss Voigt Hill
#
# Bulk Modulus (GPa) = 69.40193 72.10963 70.75578
# Shear Modulus (GPa) = 30.38282 34.79004 32.58643
#
# Velocity S-wave (km/s) = 3.91828 4.19284 4.05788
# Velocity P-wave (km/s) = 7.45254 7.73809 7.59666
#
# Compressibility (1/GPa) = 0.01440882
#
# Stress axis : x y z
#
# Youngs Moduli (GPa) = 77.38080 58.34513 140.59651
#
# Poissons Ratio (x) = 0.41757 0.07176
# Poissons Ratio (y) = 0.55381 0.52243
# Poissons Ratio (z) = 0.03949 0.21680
#
# Static dielectric constant tensor:
#      x y z
#    x 1.691230 0.000000 0.000000 
#    y 0.000000 1.692910 0.000000 
#    z 0.000000 0.000000 1.659590 
# 
# From -- ./inp_files/2136.got.cif
#   From: 2010.05.17/outbox.cif.g08.bks.cpg/sg49_2_cif.got.tgz:2136.got - 2010.06.03 21:02:19.
