data_PCOD9394854
_publ_section_title
;
Structure prediction by ZEFSAII (Michael W. Deem and Ramdas Pophale) SiO2 
 PCOD9394854
Probable space group: P C C M
;
_chemical_formula_sum "Si O2"
_cell_formula_units_Z 26
_cell_length_a 5.380464
_cell_length_b 13.891206
_cell_length_c 14.152304
_cell_angle_alpha 90.000000
_cell_angle_beta 90.000000
_cell_angle_gamma 90.000000
_cell_volume 1057.759247
_symmetry_space_group_name_H-M "P C C M"
_symmetry_group_IT_number 49
_symmetry_cell_setting 'orthorhombic'
loop_
_space_group_symop_operation_xyz
x,y,z
-x,-y,z
x,-y,1/2-z
-x,y,1/2-z
-x,-y,-z
x,y,-z
-x,y,1/2+z
x,-y,1/2+z
loop_
_atom_site_type_symbol
_atom_site_label
_atom_site_fract_x
_atom_site_fract_y
_atom_site_fract_z
Si Si1 0.097845 0.394327 0.884877
Si Si2 0.346206 0.901911 0.395414
Si Si3 0.000000 0.000000 0.750000
Si Si4 0.601939 0.704265 0.614203
O O1 0.876916 0.323231 0.853293
O O2 0.000000 0.500000 0.858994
O O3 0.372945 0.363421 0.852812
O O4 0.109836 0.392307 0.000000
O O5 0.237913 0.879289 0.500000
O O6 0.519186 0.813142 0.367278
O O7 0.149001 0.928647 0.317702
O O8 0.500000 0.000000 0.403276
O O9 0.610831 0.693920 0.500000
#
# Coordination Sequence:
#
# PCOD9394854 Si02
#       4
#     8   8   2   8
#     4   9  16  28  49  81 121 160 203 255 308 371
#     4  10  23  41  62  90 131 173 214 273 336 398
#     4  12  24  40  64  92 126 168 232 276 326 402
#     4   9  18  31  52  82 120 165 205 251 316 377
#
# _framework density 24.580264
#
# number of rings (size 3 to 8) (size 9 to 14) (size 15 to 20)
#    0.000    2.462    0.000    1.846    4.308    3.692 
#    0.000    0.000    0.000    0.000    0.000    1.077 
#    0.000    0.000    0.000    0.000    0.000    3.077 
#
# Total GULP energy -145529.799016 kJ/mol
# GULP energy per Si atom -5597.299962 kJ/mol
# Density = 2.452432 g / cm^3
# Si number density = 24.580264 Si / 1000 Ang^3
#
#
#
# Elastic Constant Matrix: (Units=GPa)
#
#
# Indices 1 2 3 4 5 6 
#
# 1 111.1816 26.5153 44.7955 0.0000 0.0000 0.0000
# 2 26.5153 113.5848 3.6470 0.0000 0.0000 0.0000
# 3 44.7955 3.6470 121.4637 0.0000 0.0000 0.0000
# 4 0.0000 0.0000 0.0000 14.6523 0.0000 0.0000
# 5 0.0000 0.0000 0.0000 0.0000 -106.3796 0.0000
# 6 0.0000 0.0000 0.0000 0.0000 0.0000 36.8722
#
#
#
# Elastic Compliance Matrix: (Units=1/GPa)
#
#
# Indices 1 2 3 4 5 6 
#
# 1 0.011226 -0.002490 -0.004065 0.000000 0.000000 0.000000
# 2 -0.002490 0.009365 0.000637 0.000000 0.000000 0.000000
# 3 -0.004065 0.000637 0.009713 0.000000 0.000000 0.000000
# 4 0.000000 0.000000 0.000000 0.068249 0.000000 0.000000
# 5 0.000000 0.000000 0.000000 0.000000 -0.009400 0.000000
# 6 0.000000 0.000000 0.000000 0.000000 0.000000 0.027121
#
#
# Mechanical properties :
#
#
# Convention : Reuss Voigt Hill
#
# Bulk Modulus (GPa) = 54.14959 55.12730 54.63844
# Shear Modulus (GPa) = 37.23960 7.11378 22.17669
#
# Velocity S-wave (km/s) = 3.89655 1.70305 3.00695
# Velocity P-wave (km/s) = 6.50551 5.13258 5.85939
#
# Compressibility (1/GPa) = 0.01846736
#
# Stress axis : x y z
#
# Youngs Moduli (GPa) = 89.07811 106.78254 102.95388
#
# Poissons Ratio (x) = 0.26590 0.41855
# Poissons Ratio (y) = 0.22181 -0.06560
# Poissons Ratio (z) = 0.36214 -0.06804
#
# Static dielectric constant tensor:
#      x y z
#    x 1.913800 0.000000 0.000000 
#    y 0.000000 2.041140 0.000000 
#    z 0.000000 0.000000 2.059000 
# 
# From -- ./inp_files/15038.got.cif
#   From: 2010.05.17/outbox.cif.g08.bks.cpg/sg49_8_cif.got.tgz:15038.got - 2010.06.03 21:02:19.
