data_PCOD9394997
_publ_section_title
;
Structure prediction by ZEFSAII (Michael W. Deem and Ramdas Pophale) SiO2 
 PCOD9394997
Probable space group: P C C M
;
_chemical_formula_sum "Si O2"
_cell_formula_units_Z 48
_cell_length_a 31.927159
_cell_length_b 9.563587
_cell_length_c 8.589721
_cell_angle_alpha 90.000000
_cell_angle_beta 90.000000
_cell_angle_gamma 90.000000
_cell_volume 2622.769629
_symmetry_space_group_name_H-M "P C C M"
_symmetry_group_IT_number 49
_symmetry_cell_setting 'orthorhombic'
loop_
_space_group_symop_operation_xyz
x,y,z
-x,-y,z
x,-y,1/2-z
-x,y,1/2-z
-x,-y,-z
x,y,-z
-x,y,1/2+z
x,-y,1/2+z
loop_
_atom_site_type_symbol
_atom_site_label
_atom_site_fract_x
_atom_site_fract_y
_atom_site_fract_z
Si Si1 0.707841 0.658881 0.313065
Si Si2 0.800159 0.342245 0.187466
Si Si3 0.953609 0.345562 0.313650
Si Si4 0.454983 0.842714 0.813775
Si Si5 0.379276 0.658579 0.314208
Si Si6 0.879213 0.843167 0.312436
O O1 0.708994 0.500000 0.250000
O O2 0.703814 0.658305 0.500000
O O3 0.753867 0.715321 0.269528
O O4 0.665624 0.720518 0.240377
O O5 0.805055 0.500000 0.250000
O O6 0.838089 0.243946 0.238153
O O7 0.800993 0.350773 0.000000
O O8 0.942526 0.500000 0.250000
O O9 0.954436 0.349060 0.500000
O O10 0.919808 0.235876 0.252949
O O11 0.000000 0.312932 0.250000
O O12 0.500000 0.792520 0.750000
O O13 0.417448 0.747028 0.753513
O O14 0.449300 0.000000 0.750000
O O15 0.455945 0.845344 0.000000
O O16 0.381844 0.500000 0.250000
O O17 0.380797 0.655257 0.500000
O O18 0.880800 0.843683 0.500000
O O19 0.877328 0.000000 0.250000
#
# Coordination Sequence:
#
# PCOD9394997 Si02
#       6
#     8   8   8   8   8   8
#     4   9  16  30  51  78 108 141 178 224 274 325
#     4   9  19  34  56  81 108 141 183 227 272 324
#     4  11  22  39  62  88 114 145 183 228 273 324
#     4  11  22  39  59  81 108 143 182 224 270 326
#     4  11  21  35  55  83 113 145 182 227 276 326
#     4  11  23  39  56  81 114 150 187 229 277 329
#
# _framework density 18.301264
#
# number of rings (size 3 to 8) (size 9 to 14) (size 15 to 20)
#    0.000    1.667    0.000    8.000    0.000    4.000 
#    0.000    4.167    0.000    2.000    0.000    0.000 
#    0.000    0.000    0.000    0.000    0.000    0.000 
#
# Total GULP energy -268045.310660 kJ/mol
# GULP energy per Si atom -5584.277305 kJ/mol
# Density = 1.825961 g / cm^3
# Si number density = 18.301264 Si / 1000 Ang^3
#
#
#
# Elastic Constant Matrix: (Units=GPa)
#
#
# Indices 1 2 3 4 5 6 
#
# 1 174.8005 103.6010 67.6280 0.0000 0.0000 0.0000
# 2 103.6010 88.3102 43.6617 0.0000 0.0000 0.0000
# 3 67.6280 43.6617 141.2136 0.0000 0.0000 0.0000
# 4 0.0000 0.0000 0.0000 27.3181 0.0000 0.0000
# 5 0.0000 0.0000 0.0000 0.0000 32.4076 0.0000
# 6 0.0000 0.0000 0.0000 0.0000 0.0000 -26.3789
#
#
#
# Elastic Compliance Matrix: (Units=1/GPa)
#
#
# Indices 1 2 3 4 5 6 
#
# 1 0.019604 -0.021669 -0.002689 0.000000 0.000000 0.000000
# 2 -0.021669 0.037318 -0.001161 0.000000 0.000000 0.000000
# 3 -0.002689 -0.001161 0.008728 0.000000 0.000000 0.000000
# 4 0.000000 0.000000 0.000000 0.036606 0.000000 0.000000
# 5 0.000000 0.000000 0.000000 0.000000 0.030857 0.000000
# 6 0.000000 0.000000 0.000000 0.000000 0.000000 -0.037909
#
#
# Mechanical properties :
#
#
# Convention : Reuss Voigt Hill
#
# Bulk Modulus (GPa) = 68.43116 92.67843 80.55479
# Shear Modulus (GPa) = 33.08808 19.29825 26.19317
#
# Velocity S-wave (km/s) = 4.25663 3.25079 3.78725
# Velocity P-wave (km/s) = 7.85056 8.05237 7.95210
#
# Compressibility (1/GPa) = 0.01461323
#
# Stress axis : x y z
#
# Youngs Moduli (GPa) = 51.01098 26.79640 114.57293
#
# Poissons Ratio (x) = 0.58064 0.30804
# Poissons Ratio (y) = 1.10534 0.13304
# Poissons Ratio (z) = 0.13715 0.03112
#
# Static dielectric constant tensor:
#      x y z
#    x 1.658440 0.000000 0.000000 
#    y 0.000000 1.571840 0.000000 
#    z 0.000000 0.000000 1.614670 
# 
# From -- ./inp_files/6859.got.cif
#   From: 2010.05.17/outbox.cif.g08.bks.cpg/sg49_4_cif.got.tgz:6859.got - 2010.06.03 21:02:19.
