data_PCOD9394265
_publ_section_title
;
Structure prediction by ZEFSAII (Michael W. Deem and Ramdas Pophale) SiO2 
 PCOD9394265
Probable space group: P C C M
;
_chemical_formula_sum "Si O2"
_cell_formula_units_Z 44
_cell_length_a 18.681600
_cell_length_b 16.358374
_cell_length_c 8.887455
_cell_angle_alpha 90.000000
_cell_angle_beta 90.000000
_cell_angle_gamma 90.000000
_cell_volume 2716.011578
_symmetry_space_group_name_H-M "P C C M"
_symmetry_group_IT_number 49
_symmetry_cell_setting 'orthorhombic'
loop_
_space_group_symop_operation_xyz
x,y,z
-x,-y,z
x,-y,1/2-z
-x,y,1/2-z
-x,-y,-z
x,y,-z
-x,y,1/2+z
x,-y,1/2+z
loop_
_atom_site_type_symbol
_atom_site_label
_atom_site_fract_x
_atom_site_fract_y
_atom_site_fract_z
Si Si1 0.069230 0.117371 0.665246
Si Si2 0.574796 0.909053 0.680735
Si Si3 0.191118 0.000000 0.250000
Si Si4 0.836762 0.265592 0.182986
Si Si5 0.284281 0.843339 0.325799
Si Si6 0.923172 0.590583 0.182027
O O1 0.043854 0.138019 0.500000
O O2 0.102962 0.199445 0.732133
O O3 0.000000 0.087477 0.750000
O O4 0.134390 0.053634 0.656582
O O5 0.500000 0.877948 0.750000
O O6 0.571363 0.913861 0.500000
O O7 0.642489 0.857509 0.736048
O O8 0.584074 0.000000 0.750000
O O9 0.241246 0.930329 0.321143
O O10 0.764144 0.225520 0.246175
O O11 0.861313 0.350031 0.256413
O O12 0.834893 0.269271 0.000000
O O13 0.297203 0.823352 0.500000
O O14 0.912472 0.500000 0.250000
O O15 0.000000 0.618752 0.250000
O O16 0.926001 0.588985 0.000000
#
# Coordination Sequence:
#
# PCOD9394265 Si02
#       6
#     8   8   4   8   8   8
#     4  10  21  33  45  62  85 119 160 206 250 292
#     4  11  21  34  52  74 100 131 169 211 254 302
#     4  10  21  32  47  62  90 122 168 206 251 292
#     4  10  21  36  51  71  99 129 165 208 256 304
#     4  11  21  34  52  72  98 131 169 209 255 302
#     4  11  21  35  55  78 103 133 169 210 259 311
#
# _framework density 16.200226000000001
#
# number of rings (size 3 to 8) (size 9 to 14) (size 15 to 20)
#    0.000    1.455    0.909    6.818    0.000    8.000 
#    0.000    0.000    0.000    0.000    0.000    0.000 
#    0.000    0.727    0.000    7.273    0.000    4.364 
#
# Total GULP energy -245367.501009 kJ/mol
# GULP energy per Si atom -5576.534114 kJ/mol
# Density = 1.616335 g / cm^3
# Si number density = 16.200226 Si / 1000 Ang^3
#
#
#
# Elastic Constant Matrix: (Units=GPa)
#
#
# Indices 1 2 3 4 5 6 
#
# 1 129.7145 45.0973 62.0129 0.0000 0.0000 0.0000
# 2 45.0973 71.3329 34.6416 0.0000 0.0000 0.0000
# 3 62.0129 34.6416 137.7392 0.0000 0.0000 0.0000
# 4 0.0000 0.0000 0.0000 12.1781 0.0000 0.0000
# 5 0.0000 0.0000 0.0000 0.0000 20.0821 0.0000
# 6 0.0000 0.0000 0.0000 0.0000 0.0000 23.7766
#
#
#
# Elastic Compliance Matrix: (Units=1/GPa)
#
#
# Indices 1 2 3 4 5 6 
#
# 1 0.011377 -0.005360 -0.003774 0.000000 0.000000 0.000000
# 2 -0.005360 0.018494 -0.002238 0.000000 0.000000 0.000000
# 3 -0.003774 -0.002238 0.009522 0.000000 0.000000 0.000000
# 4 0.000000 0.000000 0.000000 0.082115 0.000000 0.000000
# 5 0.000000 0.000000 0.000000 0.000000 0.049796 0.000000
# 6 0.000000 0.000000 0.000000 0.000000 0.000000 0.042058
#
#
# Mechanical properties :
#
#
# Convention : Reuss Voigt Hill
#
# Bulk Modulus (GPa) = 60.06338 69.14336 64.60337
# Shear Modulus (GPa) = 20.69060 24.34303 22.51681
#
# Velocity S-wave (km/s) = 3.57764 3.88059 3.73219
# Velocity P-wave (km/s) = 7.36357 7.92791 7.65095
#
# Compressibility (1/GPa) = 0.01664908
#
# Stress axis : x y z
#
# Youngs Moduli (GPa) = 87.89702 54.07093 105.01765
#
# Poissons Ratio (x) = 0.28981 0.39635
# Poissons Ratio (y) = 0.47111 0.23506
# Poissons Ratio (z) = 0.33174 0.12102
#
# Static dielectric constant tensor:
#      x y z
#    x 1.574520 0.000000 0.000000 
#    y 0.000000 1.550790 0.000000 
#    z 0.000000 0.000000 1.573600 
# 
# From -- ./inp_files/4838.got.cif
#   From: 2010.05.17/outbox.cif.g08.bks.cpg/sg49_3_cif.got.tgz:4838.got - 2010.06.03 21:02:19.
