data_PCOD9394306
_publ_section_title
;
Structure prediction by ZEFSAII (Michael W. Deem and Ramdas Pophale) SiO2 
 PCOD9394306
Probable space group: P C C M
;
_chemical_formula_sum "Si O2"
_cell_formula_units_Z 56
_cell_length_a 10.141914
_cell_length_b 18.795806
_cell_length_c 14.947669
_cell_angle_alpha 90.000000
_cell_angle_beta 90.000000
_cell_angle_gamma 90.000000
_cell_volume 2849.406100
_symmetry_space_group_name_H-M "P C C M"
_symmetry_group_IT_number 49
_symmetry_cell_setting 'orthorhombic'
loop_
_space_group_symop_operation_xyz
x,y,z
-x,-y,z
x,-y,1/2-z
-x,y,1/2-z
-x,-y,-z
x,y,-z
-x,y,1/2+z
x,-y,1/2+z
loop_
_atom_site_type_symbol
_atom_site_label
_atom_site_fract_x
_atom_site_fract_y
_atom_site_fract_z
Si Si1 0.978541 0.782010 0.144361
Si Si2 0.158755 0.583799 0.751660
Si Si3 0.489935 0.219387 0.608857
Si Si4 0.267457 0.683952 0.603370
Si Si5 0.405561 0.065240 0.890371
Si Si6 0.897643 0.058517 0.606941
Si Si7 0.235391 0.303126 0.601750
O O1 0.102598 0.743191 0.100955
O O2 0.000000 0.773191 0.250000
O O3 0.847085 0.742640 0.112657
O O4 0.960722 0.864448 0.122812
O O5 0.185776 0.500000 0.750000
O O6 0.223280 0.619624 0.665140
O O7 0.213075 0.628620 0.835802
O O8 0.000000 0.593523 0.750000
O O9 0.487990 0.215567 0.500000
O O10 0.599598 0.277254 0.633765
O O11 0.533168 0.140886 0.639124
O O12 0.349409 0.250449 0.637274
O O13 0.280656 0.663098 0.500000
O O14 0.253715 0.056655 0.859148
O O15 0.500000 0.000000 0.864083
O O16 0.402671 0.066301 0.000000
O O17 0.887073 0.047496 0.500000
O O18 0.000000 0.000000 0.642340
O O19 0.268188 0.324533 0.500000
#
# Coordination Sequence:
#
# PCOD9394306 Si02
#       7
#     8   8   8   8   8   8   8
#     4  12  22  38  60  87 121 162 212 257 297 359
#     4  11  24  42  63  96 128 154 199 249 303 372
#     4   9  20  35  59  89 120 160 207 251 299 363
#     4  11  20  40  65  89 120 163 206 246 300 361
#     4   9  17  31  51  82 121 155 197 255 307 353
#     4  10  21  35  56  86 117 159 209 254 307 363
#     4  11  22  39  62  93 126 159 202 252 303 358
#
# _framework density 19.653217000000001
#
# number of rings (size 3 to 8) (size 9 to 14) (size 15 to 20)
#    0.000    1.571    4.286    1.286    2.000    1.429 
#    0.000    2.857    0.000    2.571    0.000    0.000 
#    0.000    0.000    0.000    0.000    0.000    0.000 
#
# Total GULP energy -312863.406992 kJ/mol
# GULP energy per Si atom -5586.846553 kJ/mol
# Density = 1.960849 g / cm^3
# Si number density = 19.653217 Si / 1000 Ang^3
#
#
#
# Elastic Constant Matrix: (Units=GPa)
#
#
# Indices 1 2 3 4 5 6 
#
# 1 74.6854 36.7408 0.4368 0.0000 0.0000 0.0000
# 2 36.7408 151.3762 15.6704 0.0000 0.0000 0.0000
# 3 0.4368 15.6704 56.5480 0.0000 0.0000 0.0000
# 4 0.0000 0.0000 0.0000 12.2361 0.0000 0.0000
# 5 0.0000 0.0000 0.0000 0.0000 37.7801 0.0000
# 6 0.0000 0.0000 0.0000 0.0000 0.0000 20.7800
#
#
#
# Elastic Compliance Matrix: (Units=1/GPa)
#
#
# Indices 1 2 3 4 5 6 
#
# 1 0.015253 -0.003799 0.000935 0.000000 0.000000 0.000000
# 2 -0.003799 0.007747 -0.002118 0.000000 0.000000 0.000000
# 3 0.000935 -0.002118 0.018264 0.000000 0.000000 0.000000
# 4 0.000000 0.000000 0.000000 0.081725 0.000000 0.000000
# 5 0.000000 0.000000 0.000000 0.000000 0.026469 0.000000
# 6 0.000000 0.000000 0.000000 0.000000 0.000000 0.048123
#
#
# Mechanical properties :
#
#
# Convention : Reuss Voigt Hill
#
# Bulk Modulus (GPa) = 31.94802 43.14506 37.54654
# Shear Modulus (GPa) = 22.93810 29.47668 26.20739
#
# Velocity S-wave (km/s) = 3.42005 3.87698 3.65566
# Velocity P-wave (km/s) = 5.64684 6.48399 6.07984
#
# Compressibility (1/GPa) = 0.03130085
#
# Stress axis : x y z
#
# Youngs Moduli (GPa) = 65.56165 129.07743 54.75345
#
# Poissons Ratio (x) = 0.49034 -0.05119
# Poissons Ratio (y) = 0.24906 0.11594
# Poissons Ratio (z) = -0.06129 0.27333
#
# Static dielectric constant tensor:
#      x y z
#    x 1.675220 0.000000 0.000000 
#    y 0.000000 1.724300 0.000000 
#    z 0.000000 0.000000 1.730330 
# 
# From -- ./inp_files/11992.got.cif
#   From: 2010.05.17/outbox.cif.g08.bks.cpg/sg49_6_cif.got.tgz:11992.got - 2010.06.03 21:02:19.
