data_PCOD9394391
_publ_section_title
;
Structure prediction by ZEFSAII (Michael W. Deem and Ramdas Pophale) SiO2 
 PCOD9394391
Probable space group: P C C M
;
_chemical_formula_sum "Si O2"
_cell_formula_units_Z 40
_cell_length_a 22.210042
_cell_length_b 5.111561
_cell_length_c 17.630475
_cell_angle_alpha 90.000000
_cell_angle_beta 90.000000
_cell_angle_gamma 90.000000
_cell_volume 2001.552292
_symmetry_space_group_name_H-M "P C C M"
_symmetry_group_IT_number 49
_symmetry_cell_setting 'orthorhombic'
loop_
_space_group_symop_operation_xyz
x,y,z
-x,-y,z
x,-y,1/2-z
-x,y,1/2-z
-x,-y,-z
x,y,-z
-x,y,1/2+z
x,-y,1/2+z
loop_
_atom_site_type_symbol
_atom_site_label
_atom_site_fract_x
_atom_site_fract_y
_atom_site_fract_z
Si Si1 0.040642 0.241946 0.086231
Si Si2 0.231970 0.004032 0.658131
Si Si3 0.428188 0.502347 0.159741
Si Si4 0.636593 0.003189 0.090503
Si Si5 0.840538 0.511663 0.840932
O O1 0.099152 0.349097 0.129199
O O2 0.000000 0.500000 0.082678
O O3 0.057706 0.163028 0.000000
O O4 0.000000 0.000000 0.117726
O O5 0.296359 0.054056 0.621920
O O6 0.211213 0.714429 0.635990
O O7 0.236732 0.000000 0.750000
O O8 0.181577 0.221614 0.635743
O O9 0.500000 0.500000 0.148391
O O10 0.416678 0.500000 0.250000
O O11 0.392689 0.260509 0.123347
O O12 0.403699 0.762452 0.121428
O O13 0.637577 0.993734 0.000000
O O14 0.845691 0.500000 0.750000
#
# Coordination Sequence:
#
# PCOD9394391 Si02
#       5
#     8   8   8   8   8
#     4  10  21  37  57  82 114 152 190 233 290 351
#     4  10  21  38  59  83 117 158 199 244 298 361
#     4  11  24  43  66  90 122 168 213 252 307 378
#     4  12  25  40  63  96 128 160 205 261 317 368
#     4  10  21  37  58  85 114 151 199 247 292 344
#
# _framework density 19.984487000000001
#
# number of rings (size 3 to 8) (size 9 to 14) (size 15 to 20)
#    0.000    1.400    0.000    5.400    0.000    7.600 
#    0.000    1.000    0.000    0.000    0.000    0.000 
#    0.000    0.000    0.000    0.000    0.000    0.000 
#
# Total GULP energy -223359.893305 kJ/mol
# GULP energy per Si atom -5583.997333 kJ/mol
# Density = 1.993900 g / cm^3
# Si number density = 19.984487 Si / 1000 Ang^3
#
#
#
# Elastic Constant Matrix: (Units=GPa)
#
#
# Indices 1 2 3 4 5 6 
#
# 1 115.9987 55.0441 64.0179 0.0000 0.0000 0.0000
# 2 55.0441 169.3568 53.7199 0.0000 0.0000 0.0000
# 3 64.0179 53.7199 63.0061 0.0000 0.0000 0.0000
# 4 0.0000 0.0000 0.0000 16.9038 0.0000 0.0000
# 5 0.0000 0.0000 0.0000 0.0000 -193.6131 0.0000
# 6 0.0000 0.0000 0.0000 0.0000 0.0000 40.9781
#
#
#
# Elastic Compliance Matrix: (Units=1/GPa)
#
#
# Indices 1 2 3 4 5 6 
#
# 1 0.019627 -0.000073 -0.019879 0.000000 0.000000 0.000000
# 2 -0.000073 0.008094 -0.006826 0.000000 0.000000 0.000000
# 3 -0.019879 -0.006826 0.041890 0.000000 0.000000 0.000000
# 4 0.000000 0.000000 0.000000 0.059158 0.000000 0.000000
# 5 0.000000 0.000000 0.000000 0.000000 -0.005165 0.000000
# 6 0.000000 0.000000 0.000000 0.000000 0.000000 0.024403
#
#
# Mechanical properties :
#
#
# Convention : Reuss Voigt Hill
#
# Bulk Modulus (GPa) = 62.29477 77.10281 69.69879
# Shear Modulus (GPa) = 24.16430 -15.44092 4.36169
#
# Velocity S-wave (km/s) = 3.48106 -2.78267 1.47894
# Velocity P-wave (km/s) = 6.88449 5.32361 6.15374
#
# Compressibility (1/GPa) = 0.01605271
#
# Stress axis : x y z
#
# Youngs Moduli (GPa) = 50.95100 123.55025 23.87181
#
# Poissons Ratio (x) = 0.00906 0.47456
# Poissons Ratio (y) = 0.00374 0.16296
# Poissons Ratio (z) = 1.01287 0.84341
#
# Static dielectric constant tensor:
#      x y z
#    x 1.699400 0.000000 0.000000 
#    y 0.000000 1.639850 0.000000 
#    z 0.000000 0.000000 1.690840 
# 
# From -- ./inp_files/18270.got.cif
#   From: 2010.05.17/outbox.cif.g08.bks.cpg/sg49_10_cif.got.tgz:18270.got - 2010.06.03 21:02:19.
