data_PCOD9394817
_publ_section_title
;
Structure prediction by ZEFSAII (Michael W. Deem and Ramdas Pophale) SiO2 
 PCOD9394817
Probable space group: P C C M
;
_chemical_formula_sum "Si O2"
_cell_formula_units_Z 34
_cell_length_a 5.263165
_cell_length_b 21.369847
_cell_length_c 13.819155
_cell_angle_alpha 90.000000
_cell_angle_beta 90.000000
_cell_angle_gamma 90.000000
_cell_volume 1554.282246
_symmetry_space_group_name_H-M "P C C M"
_symmetry_group_IT_number 49
_symmetry_cell_setting 'orthorhombic'
loop_
_space_group_symop_operation_xyz
x,y,z
-x,-y,z
x,-y,1/2-z
-x,y,1/2-z
-x,-y,-z
x,y,-z
-x,y,1/2+z
x,-y,1/2+z
loop_
_atom_site_type_symbol
_atom_site_label
_atom_site_fract_x
_atom_site_fract_y
_atom_site_fract_z
Si Si1 0.000000 0.500000 0.500000
Si Si2 0.250209 0.070502 0.209947
Si Si3 0.252220 0.891505 0.500000
Si Si4 0.247239 0.806437 0.000000
Si Si5 0.248971 0.427276 0.318587
Si Si6 0.747874 0.717755 0.314930
O O1 0.187537 0.469520 0.412751
O O2 0.500000 0.103140 0.250000
O O3 0.252591 0.067722 0.095942
O O4 0.000000 0.103067 0.250000
O O5 0.249868 0.000000 0.250000
O O6 0.500592 0.848480 0.500000
O O7 0.000216 0.849934 0.500000
O O8 0.243997 0.763432 0.094510
O O9 0.500000 0.437378 0.250000
O O10 0.267474 0.354471 0.350009
O O11 0.000000 0.431221 0.250000
O O12 0.500000 0.729823 0.250000
O O13 0.000000 0.724301 0.250000
#
# Coordination Sequence:
#
# PCOD9394817 Si02
#       6
#     2   8   4   4   8   8
#     4  12  24  42  72  96 140 184 222 294 352 388
#     4  10  23  42  65  89 123 169 210 253 316 383
#     4  12  26  40  63 100 130 158 215 275 314 390
#     4  12  25  40  65  99 130 165 215 272 336 384
#     4  10  24  43  65  98 133 177 234 278 335 417
#     4  10  22  43  67  92 131 175 217 270 331 400
#
# _framework density 21.875050000000002
#
# number of rings (size 3 to 8) (size 9 to 14) (size 15 to 20)
#    0.000    1.412    0.000    3.882    0.000   13.176 
#    0.000    7.059    0.000    0.000    0.000    0.000 
#    0.000    0.000    0.000    0.000    0.000    0.000 
#
# Total GULP energy -189590.910353 kJ/mol
# GULP energy per Si atom -5576.203246 kJ/mol
# Density = 2.182526 g / cm^3
# Si number density = 21.875050 Si / 1000 Ang^3
#
#
#
# Elastic Constant Matrix: (Units=GPa)
#
#
# Indices 1 2 3 4 5 6 
#
# 1 222.0535 40.0139 81.1152 0.0000 0.0000 0.0000
# 2 40.0139 112.8446 73.4391 0.0000 0.0000 0.0000
# 3 81.1152 73.4391 221.7545 0.0000 0.0000 0.0000
# 4 0.0000 0.0000 0.0000 118.3922 0.0000 0.0000
# 5 0.0000 0.0000 0.0000 0.0000 23.1346 0.0000
# 6 0.0000 0.0000 0.0000 0.0000 0.0000 13.8014
#
#
#
# Elastic Compliance Matrix: (Units=1/GPa)
#
#
# Indices 1 2 3 4 5 6 
#
# 1 0.005251 -0.000780 -0.001663 0.000000 0.000000 0.000000
# 2 -0.000780 0.011412 -0.003494 0.000000 0.000000 0.000000
# 3 -0.001663 -0.003494 0.006275 0.000000 0.000000 0.000000
# 4 0.000000 0.000000 0.000000 0.008447 0.000000 0.000000
# 5 0.000000 0.000000 0.000000 0.000000 0.043225 0.000000
# 6 0.000000 0.000000 0.000000 0.000000 0.000000 0.072456
#
#
# Mechanical properties :
#
#
# Convention : Reuss Voigt Hill
#
# Bulk Modulus (GPa) = 90.37550 105.08770 97.73160
# Shear Modulus (GPa) = 30.74497 55.20459 42.97478
#
# Velocity S-wave (km/s) = 3.75304 5.02903 4.43714
# Velocity P-wave (km/s) = 7.75787 9.04797 8.42764
#
# Compressibility (1/GPa) = 0.01106495
#
# Stress axis : x y z
#
# Youngs Moduli (GPa) = 190.42890 87.62455 159.36835
#
# Poissons Ratio (x) = 0.06836 0.26495
# Poissons Ratio (y) = 0.14856 0.55685
# Poissons Ratio (z) = 0.31659 0.30617
#
# Static dielectric constant tensor:
#      x y z
#    x 1.853630 0.000000 0.000000 
#    y 0.000000 1.771770 0.000000 
#    z 0.000000 0.000000 1.758190 
# 
# From -- ./inp_files/7522.got.cif
#   From: 2010.05.17/outbox.cif.g08.bks.cpg/sg49_4_cif.got.tgz:7522.got - 2010.06.03 21:02:19.
