data_PCOD9394125
_publ_section_title
;
Structure prediction by ZEFSAII (Michael W. Deem and Ramdas Pophale) SiO2 
 PCOD9394125
Probable space group: P C C M
;
_chemical_formula_sum "Si O2"
_cell_formula_units_Z 26
_cell_length_a 9.693675
_cell_length_b 16.264016
_cell_length_c 8.793908
_cell_angle_alpha 90.000000
_cell_angle_beta 90.000000
_cell_angle_gamma 90.000000
_cell_volume 1386.430698
_symmetry_space_group_name_H-M "P C C M"
_symmetry_group_IT_number 49
_symmetry_cell_setting 'orthorhombic'
loop_
_space_group_symop_operation_xyz
x,y,z
-x,-y,z
x,-y,1/2-z
-x,y,1/2-z
-x,-y,-z
x,y,-z
-x,y,1/2+z
x,-y,1/2+z
loop_
_atom_site_type_symbol
_atom_site_label
_atom_site_fract_x
_atom_site_fract_y
_atom_site_fract_z
Si Si1 0.000000 0.000000 0.750000
Si Si2 0.347657 0.730259 0.318735
Si Si3 0.153164 0.411237 0.316646
Si Si4 0.137208 0.838327 0.828995
O O1 0.900091 0.064794 0.833267
O O2 0.500000 0.729396 0.250000
O O3 0.350921 0.721783 0.500000
O O4 0.256843 0.657876 0.243946
O O5 0.267429 0.813376 0.270320
O O6 0.196309 0.500000 0.250000
O O7 0.148887 0.413256 0.500000
O O8 0.000000 0.396367 0.250000
O O9 0.000000 0.801606 0.750000
O O10 0.153684 0.807377 0.000000
#
# Coordination Sequence:
#
# PCOD9394125 Si02
#       4
#     2   8   8   8
#     4   8  22  36  68  92 124 148 204 240 306 348
#     4  12  25  41  60  87 123 163 203 248 302 361
#     4  11  22  40  64  92 123 159 205 253 299 350
#     4  10  20  37  62  91 120 154 197 246 296 353
#
# _framework density 18.753191000000001
#
# number of rings (size 3 to 8) (size 9 to 14) (size 15 to 20)
#    0.923    0.308    0.000    8.769    0.000    0.615 
#    0.000    3.846    0.000    3.692    0.000    0.000 
#    0.000    0.000    0.000    0.000    0.000    0.000 
#
# Total GULP energy -145023.164203 kJ/mol
# GULP energy per Si atom -5577.814008 kJ/mol
# Density = 1.871051 g / cm^3
# Si number density = 18.753191 Si / 1000 Ang^3
#
#
#
# Elastic Constant Matrix: (Units=GPa)
#
#
# Indices 1 2 3 4 5 6 
#
# 1 131.7515 49.8397 65.4242 0.0000 0.0000 0.0000
# 2 49.8397 109.0748 42.6244 0.0000 0.0000 0.0000
# 3 65.4242 42.6244 214.1581 0.0000 0.0000 0.0000
# 4 0.0000 0.0000 0.0000 31.5840 0.0000 0.0000
# 5 0.0000 0.0000 0.0000 0.0000 26.4376 0.0000
# 6 0.0000 0.0000 0.0000 0.0000 0.0000 7.2575
#
#
#
# Elastic Compliance Matrix: (Units=1/GPa)
#
#
# Indices 1 2 3 4 5 6 
#
# 1 0.010174 -0.003724 -0.002367 0.000000 0.000000 0.000000
# 2 -0.003724 0.011304 -0.001112 0.000000 0.000000 0.000000
# 3 -0.002367 -0.001112 0.005614 0.000000 0.000000 0.000000
# 4 0.000000 0.000000 0.000000 0.031662 0.000000 0.000000
# 5 0.000000 0.000000 0.000000 0.000000 0.037825 0.000000
# 6 0.000000 0.000000 0.000000 0.000000 0.000000 0.137788
#
#
# Mechanical properties :
#
#
# Convention : Reuss Voigt Hill
#
# Bulk Modulus (GPa) = 78.82712 85.64011 82.23361
# Shear Modulus (GPa) = 19.76271 32.86224 26.31247
#
# Velocity S-wave (km/s) = 3.24980 4.19066 3.74985
# Velocity P-wave (km/s) = 7.49712 8.31754 7.91797
#
# Compressibility (1/GPa) = 0.01268599
#
# Stress axis : x y z
#
# Youngs Moduli (GPa) = 98.28861 88.46231 178.12865
#
# Poissons Ratio (x) = 0.32943 0.42162
# Poissons Ratio (y) = 0.36602 0.19813
# Poissons Ratio (z) = 0.23265 0.09839
#
# Static dielectric constant tensor:
#      x y z
#    x 1.609830 0.000000 0.000000 
#    y 0.000000 1.698390 0.000000 
#    z 0.000000 0.000000 1.644470 
# 
# From -- ./inp_files/1253.got.cif
#   From: 2010.05.17/outbox.cif.g08.bks.cpg/sg49_1_cif.got.tgz:1253.got - 2010.06.03 21:02:19.
