data_PCOD9394719
_publ_section_title
;
Structure prediction by ZEFSAII (Michael W. Deem and Ramdas Pophale) SiO2 
 PCOD9394719
Probable space group: P C C M
;
_chemical_formula_sum "Si O2"
_cell_formula_units_Z 48
_cell_length_a 7.883886
_cell_length_b 14.071210
_cell_length_c 17.493244
_cell_angle_alpha 90.000000
_cell_angle_beta 90.000000
_cell_angle_gamma 90.000000
_cell_volume 1940.627289
_symmetry_space_group_name_H-M "P C C M"
_symmetry_group_IT_number 49
_symmetry_cell_setting 'orthorhombic'
loop_
_space_group_symop_operation_xyz
x,y,z
-x,-y,z
x,-y,1/2-z
-x,y,1/2-z
-x,-y,-z
x,y,-z
-x,y,1/2+z
x,-y,1/2+z
loop_
_atom_site_type_symbol
_atom_site_label
_atom_site_fract_x
_atom_site_fract_y
_atom_site_fract_z
Si Si1 0.870328 0.108750 0.588163
Si Si2 0.495770 0.794316 0.410198
Si Si3 0.164324 0.458385 0.837765
Si Si4 0.963564 0.270088 0.831196
Si Si5 0.604052 0.615241 0.667930
Si Si6 0.669635 0.041534 0.163977
O O1 0.882655 0.089061 0.500000
O O2 0.693491 0.166544 0.603424
O O3 0.012894 0.185294 0.609955
O O4 0.830944 0.007774 0.627457
O O5 0.539636 0.809482 0.500000
O O6 0.502799 0.683509 0.388888
O O7 0.625474 0.849035 0.351905
O O8 0.162556 0.500000 0.750000
O O9 0.115545 0.348391 0.838331
O O10 0.333364 0.511914 0.862733
O O11 0.000000 0.500000 0.880222
O O12 0.211991 0.328674 0.671967
O O13 0.000000 0.221196 0.750000
O O14 0.500000 0.613348 0.750000
O O15 0.500000 0.000000 0.123939
O O16 0.670225 0.000000 0.250000
#
# Coordination Sequence:
#
# PCOD9394719 Si02
#       6
#     8   8   8   8   8   8
#     4  10  22  41  64  93 134 182 222 265 335 403
#     4  10  22  39  60  94 136 176 219 276 337 394
#     4   9  17  36  57  91 124 161 207 265 326 384
#     4  11  21  39  64  92 127 168 221 272 325 396
#     4  11  23  37  65  98 127 165 218 276 333 386
#     4   9  19  34  65  98 131 171 228 281 328 385
#
# _framework density 24.734271
#
# number of rings (size 3 to 8) (size 9 to 14) (size 15 to 20)
#    0.000    2.000    3.333    1.500    7.000    3.000 
#    0.000    1.667    0.000    7.000    0.000    1.167 
#    0.000    0.000    0.000    0.000    0.000    0.000 
#
# Total GULP energy -267417.405569 kJ/mol
# GULP energy per Si atom -5571.195949 kJ/mol
# Density = 2.467797 g / cm^3
# Si number density = 24.734271 Si / 1000 Ang^3
#
#
#
# Elastic Constant Matrix: (Units=GPa)
#
#
# Indices 1 2 3 4 5 6 
#
# 1 166.9088 29.7680 5.7453 0.0000 0.0000 0.0000
# 2 29.7680 160.7143 19.2936 0.0000 0.0000 0.0000
# 3 5.7453 19.2936 48.4308 0.0000 0.0000 0.0000
# 4 0.0000 0.0000 0.0000 21.1690 0.0000 0.0000
# 5 0.0000 0.0000 0.0000 0.0000 15.0239 0.0000
# 6 0.0000 0.0000 0.0000 0.0000 0.0000 33.6661
#
#
#
# Elastic Compliance Matrix: (Units=1/GPa)
#
#
# Indices 1 2 3 4 5 6 
#
# 1 0.006200 -0.001113 -0.000292 0.000000 0.000000 0.000000
# 2 -0.001113 0.006735 -0.002551 0.000000 0.000000 0.000000
# 3 -0.000292 -0.002551 0.021699 0.000000 0.000000 0.000000
# 4 0.000000 0.000000 0.000000 0.047239 0.000000 0.000000
# 5 0.000000 0.000000 0.000000 0.000000 0.066561 0.000000
# 6 0.000000 0.000000 0.000000 0.000000 0.000000 0.029703
#
#
# Mechanical properties :
#
#
# Convention : Reuss Voigt Hill
#
# Bulk Modulus (GPa) = 37.42354 53.96309 45.69331
# Shear Modulus (GPa) = 25.64685 35.38827 30.51756
#
# Velocity S-wave (km/s) = 3.22358 3.78661 3.51638
# Velocity P-wave (km/s) = 5.38687 6.40175 5.91611
#
# Compressibility (1/GPa) = 0.02672115
#
# Stress axis : x y z
#
# Youngs Moduli (GPa) = 161.29277 148.48562 46.08537
#
# Poissons Ratio (x) = 0.16531 0.01346
# Poissons Ratio (y) = 0.17957 0.11756
# Poissons Ratio (z) = 0.04709 0.37876
#
# Static dielectric constant tensor:
#      x y z
#    x 2.232340 0.000000 0.000000 
#    y 0.000000 2.088230 0.000000 
#    z 0.000000 0.000000 1.989620 
# 
# From -- ./inp_files/16299.got.cif
#   From: 2010.05.17/outbox.cif.g08.bks.cpg/sg49_9_cif.got.tgz:16299.got - 2010.06.03 21:02:19.
