data_PCOD9394431
_publ_section_title
;
Structure prediction by ZEFSAII (Michael W. Deem and Ramdas Pophale) SiO2 
 PCOD9394431
Probable space group: P C C M
;
_chemical_formula_sum "Si O2"
_cell_formula_units_Z 48
_cell_length_a 9.116533
_cell_length_b 29.470551
_cell_length_c 9.542318
_cell_angle_alpha 90.000000
_cell_angle_beta 90.000000
_cell_angle_gamma 90.000000
_cell_volume 2563.727427
_symmetry_space_group_name_H-M "P C C M"
_symmetry_group_IT_number 49
_symmetry_cell_setting 'orthorhombic'
loop_
_space_group_symop_operation_xyz
x,y,z
-x,-y,z
x,-y,1/2-z
-x,y,1/2-z
-x,-y,-z
x,y,-z
-x,y,1/2+z
x,-y,1/2+z
loop_
_atom_site_type_symbol
_atom_site_label
_atom_site_fract_x
_atom_site_fract_y
_atom_site_fract_z
Si Si1 0.652520 0.865846 0.332923
Si Si2 0.846569 0.208052 0.331659
Si Si3 0.646787 0.295657 0.661921
Si Si4 0.154370 0.436187 0.500000
Si Si5 0.323939 0.602406 0.738524
Si Si6 0.810880 0.543876 0.000000
Si Si7 0.150866 0.044693 0.666922
O O1 0.500000 0.868916 0.250000
O O2 0.634670 0.854879 0.500000
O O3 0.748088 0.828858 0.249192
O O4 0.738038 0.913583 0.324099
O O5 0.861872 0.198508 0.500000
O O6 0.764953 0.256320 0.316973
O O7 0.000000 0.209106 0.250000
O O8 0.500000 0.287167 0.750000
O O9 0.602617 0.295622 0.500000
O O10 0.707196 0.345681 0.696035
O O11 0.228994 0.410749 0.628245
O O12 0.192637 0.489695 0.500000
O O13 0.977932 0.437535 0.500000
O O14 0.500000 0.599852 0.750000
O O15 0.272829 0.565052 0.629461
O O16 0.125579 0.036041 0.500000
O O17 0.000000 0.056297 0.750000
O O18 0.205725 0.000000 0.750000
#
# Coordination Sequence:
#
# PCOD9394431 Si02
#       7
#     8   8   8   4   8   4   8
#     4  11  24  41  62  91 125 167 211 261 318 374
#     4  11  24  42  64  94 125 161 207 255 308 372
#     4  10  23  42  64  90 122 158 197 247 304 362
#     4  11  25  39  63  91 119 169 199 249 312 361
#     4  11  23  41  63  92 122 158 205 253 305 367
#     4  11  23  43  61  87 129 157 205 251 304 373
#     4  10  21  37  60  89 123 163 210 259 315 373
#
# _framework density 18.722740000000002
#
# number of rings (size 3 to 8) (size 9 to 14) (size 15 to 20)
#    0.000    1.333    0.833    4.500    3.500   11.667 
#    0.000    1.667    0.000    0.000    0.000    0.000 
#    0.000    0.000    0.000    0.000    0.000    0.000 
#
# Total GULP energy -267990.135305 kJ/mol
# GULP energy per Si atom -5583.127819 kJ/mol
# Density = 1.868013 g / cm^3
# Si number density = 18.722740 Si / 1000 Ang^3
#
#
#
# Elastic Constant Matrix: (Units=GPa)
#
#
# Indices 1 2 3 4 5 6 
#
# 1 99.0888 80.2282 63.3942 0.0000 0.0000 0.0000
# 2 80.2282 114.3438 64.1847 0.0000 0.0000 0.0000
# 3 63.3942 64.1847 143.3746 0.0000 0.0000 0.0000
# 4 0.0000 0.0000 0.0000 33.9856 0.0000 0.0000
# 5 0.0000 0.0000 0.0000 0.0000 -152.0265 0.0000
# 6 0.0000 0.0000 0.0000 0.0000 0.0000 29.9208
#
#
#
# Elastic Compliance Matrix: (Units=1/GPa)
#
#
# Indices 1 2 3 4 5 6 
#
# 1 0.025216 -0.015272 -0.004313 0.000000 0.000000 0.000000
# 2 -0.015272 0.020930 -0.002617 0.000000 0.000000 0.000000
# 3 -0.004313 -0.002617 0.010053 0.000000 0.000000 0.000000
# 4 0.000000 0.000000 0.000000 0.029424 0.000000 0.000000
# 5 0.000000 0.000000 0.000000 0.000000 -0.006578 0.000000
# 6 0.000000 0.000000 0.000000 0.000000 0.000000 0.033422
#
#
# Mechanical properties :
#
#
# Convention : Reuss Voigt Hill
#
# Bulk Modulus (GPa) = 84.77525 85.82459 85.29992
# Shear Modulus (GPa) = 31.09406 -7.69068 11.70169
#
# Velocity S-wave (km/s) = 4.07967 -2.02894 2.50271
# Velocity P-wave (km/s) = 8.22005 6.36007 7.34914
#
# Compressibility (1/GPa) = 0.01179589
#
# Stress axis : x y z
#
# Youngs Moduli (GPa) = 39.65740 47.77856 99.46976
#
# Poissons Ratio (x) = 0.72966 0.42899
# Poissons Ratio (y) = 0.60563 0.26033
# Poissons Ratio (z) = 0.17103 0.12505
#
# Static dielectric constant tensor:
#      x y z
#    x 1.617450 0.000000 0.000000 
#    y 0.000000 1.626440 0.000000 
#    z 0.000000 0.000000 1.620810 
# 
# From -- ./inp_files/2135.got.cif
#   From: 2010.05.17/outbox.cif.g08.bks.cpg/sg49_2_cif.got.tgz:2135.got - 2010.06.03 21:02:19.
