data_PCOD9394689
_publ_section_title
;
Structure prediction by ZEFSAII (Michael W. Deem and Ramdas Pophale) SiO2 
 PCOD9394689
Probable space group: P C C M
;
_chemical_formula_sum "Si O2"
_cell_formula_units_Z 40
_cell_length_a 22.586147
_cell_length_b 7.177938
_cell_length_c 11.213229
_cell_angle_alpha 90.000000
_cell_angle_beta 90.000000
_cell_angle_gamma 90.000000
_cell_volume 1817.910695
_symmetry_space_group_name_H-M "P C C M"
_symmetry_group_IT_number 49
_symmetry_cell_setting 'orthorhombic'
loop_
_space_group_symop_operation_xyz
x,y,z
-x,-y,z
x,-y,1/2-z
-x,y,1/2-z
-x,-y,-z
x,y,-z
-x,y,1/2+z
x,-y,1/2+z
loop_
_atom_site_type_symbol
_atom_site_label
_atom_site_fract_x
_atom_site_fract_y
_atom_site_fract_z
Si Si1 0.283344 0.712831 0.370605
Si Si2 0.332842 0.709179 0.128782
Si Si3 0.525543 0.290252 0.870914
Si Si4 0.153165 0.137128 0.865133
Si Si5 0.975339 0.711141 0.129060
O O1 0.302585 0.788206 0.500000
O O2 0.310887 0.797059 0.251270
O O3 0.304030 0.497506 0.372501
O O4 0.213168 0.742912 0.360327
O O5 0.403640 0.696631 0.135825
O O6 0.316819 0.793705 0.000000
O O7 0.500000 0.500000 0.873424
O O8 0.500000 0.204310 0.750000
O O9 0.509318 0.207128 0.000000
O O10 0.095289 0.267879 0.861824
O O11 0.151842 0.000000 0.750000
O O12 0.152572 0.047110 0.000000
O O13 0.000000 0.500000 0.127744
O O14 0.000000 0.797968 0.250000
O O15 0.993478 0.790889 0.000000
#
# Coordination Sequence:
#
# PCOD9394689 Si02
#       5
#     8   8   8   8   8
#     4   9  17  30  47  66  92 126 162 199 242 292
#     4   9  17  27  42  68  98 126 160 204 250 297
#     4   9  15  22  34  56  90 128 160 192 237 296
#     4  10  22  38  54  74 101 133 168 207 251 300
#     4   9  19  36  57  81 106 131 164 205 248 296
#
# _framework density 22.00328
#
# number of rings (size 3 to 8) (size 9 to 14) (size 15 to 20)
#    0.000    2.800    0.000    2.400    0.000    7.600 
#    0.000    4.000    0.000    0.000    0.000    0.000 
#    0.000   12.800    0.000  120.000    0.000   36.000 
#
# Total GULP energy -222790.366209 kJ/mol
# GULP energy per Si atom -5569.759155 kJ/mol
# Density = 2.195320 g / cm^3
# Si number density = 22.003280 Si / 1000 Ang^3
#
#
#
# Elastic Constant Matrix: (Units=GPa)
#
#
# Indices 1 2 3 4 5 6 
#
# 1 88.7324 26.1526 85.7416 0.0000 0.0000 0.0000
# 2 26.1526 109.5044 36.7181 0.0000 0.0000 0.0000
# 3 85.7416 36.7181 301.5628 0.0000 0.0000 0.0000
# 4 0.0000 0.0000 0.0000 -59.9603 0.0000 0.0000
# 5 0.0000 0.0000 0.0000 0.0000 39.3695 0.0000
# 6 0.0000 0.0000 0.0000 0.0000 0.0000 -65.9893
#
#
#
# Elastic Compliance Matrix: (Units=1/GPa)
#
#
# Indices 1 2 3 4 5 6 
#
# 1 0.016128 -0.002413 -0.004292 0.000000 0.000000 0.000000
# 2 -0.002413 0.009882 -0.000517 0.000000 0.000000 0.000000
# 3 -0.004292 -0.000517 0.004599 0.000000 0.000000 0.000000
# 4 0.000000 0.000000 0.000000 -0.016678 0.000000 0.000000
# 5 0.000000 0.000000 0.000000 0.000000 0.025400 0.000000
# 6 0.000000 0.000000 0.000000 0.000000 0.000000 -0.015154
#
#
# Mechanical properties :
#
#
# Convention : Reuss Voigt Hill
#
# Bulk Modulus (GPa) = 61.85970 88.55824 75.20897
# Shear Modulus (GPa) = 113.61075 6.09646 59.85361
#
# Velocity S-wave (km/s) = 7.19344 1.66635 5.22122
# Velocity P-wave (km/s) = 9.85744 6.63607 8.40257
#
# Compressibility (1/GPa) = 0.01616561
#
# Stress axis : x y z
#
# Youngs Moduli (GPa) = 62.00340 101.19715 217.42398
#
# Poissons Ratio (x) = 0.24416 0.93315
# Poissons Ratio (y) = 0.14960 0.11245
# Poissons Ratio (z) = 0.26611 0.05234
#
# Static dielectric constant tensor:
#      x y z
#    x 1.751500 0.000000 0.000000 
#    y 0.000000 1.751960 0.000000 
#    z 0.000000 0.000000 1.923040 
# 
# From -- ./inp_files/8118.got.cif
#   From: 2010.05.17/outbox.cif.g08.bks.cpg/sg49_5_cif.got.tgz:8118.got - 2010.06.03 21:02:19.
