data_PCOD9394122
_publ_section_title
;
Structure prediction by ZEFSAII (Michael W. Deem and Ramdas Pophale) SiO2 
 PCOD9394122
Probable space group: P C C M
;
_chemical_formula_sum "Si O2"
_cell_formula_units_Z 48
_cell_length_a 18.933482
_cell_length_b 14.108750
_cell_length_c 10.044292
_cell_angle_alpha 90.000000
_cell_angle_beta 90.000000
_cell_angle_gamma 90.000000
_cell_volume 2683.109265
_symmetry_space_group_name_H-M "P C C M"
_symmetry_group_IT_number 49
_symmetry_cell_setting 'orthorhombic'
loop_
_space_group_symop_operation_xyz
x,y,z
-x,-y,z
x,-y,1/2-z
-x,y,1/2-z
-x,-y,-z
x,y,-z
-x,y,1/2+z
x,-y,1/2+z
loop_
_atom_site_type_symbol
_atom_site_label
_atom_site_fract_x
_atom_site_fract_y
_atom_site_fract_z
Si Si1 0.344582 0.796503 0.266274
Si Si2 0.699880 0.409152 0.340975
Si Si3 0.130243 0.586052 0.345659
Si Si4 0.570502 0.113521 0.500000
Si Si5 0.064618 0.209636 0.843849
Si Si6 0.206177 0.089505 0.845029
Si Si7 0.598975 0.894046 0.500000
O O1 0.336497 0.683683 0.278745
O O2 0.401941 0.832533 0.371206
O O3 0.269583 0.839150 0.312166
O O4 0.366849 0.842718 0.126906
O O5 0.681941 0.500000 0.250000
O O6 0.683300 0.418535 0.500000
O O7 0.785233 0.397439 0.332875
O O8 0.110121 0.500000 0.250000
O O9 0.116593 0.561666 0.500000
O O10 0.090139 0.683240 0.314170
O O11 0.486060 0.113640 0.500000
O O12 0.606096 0.008540 0.500000
O O13 0.131838 0.142014 0.824033
O O14 0.000000 0.183414 0.750000
O O15 0.044992 0.205424 0.000000
O O16 0.212549 0.000000 0.750000
O O17 0.211053 0.062022 0.000000
#
# Coordination Sequence:
#
# PCOD9394122 Si02
#       7
#     8   8   8   4   8   8   4
#     4  12  22  40  65  93 128 163 204 257 308 358
#     4  10  20  37  62  90 121 159 204 257 309 359
#     4   9  18  35  56  82 113 149 194 243 299 357
#     4  11  22  44  65  91 132 172 198 247 311 361
#     4  10  22  40  58  81 118 158 197 245 304 358
#     4  11  23  40  62  87 118 158 204 251 302 361
#     4  11  26  38  63 101 130 162 210 245 297 383
#
# _framework density 17.889690999999999
#
# number of rings (size 3 to 8) (size 9 to 14) (size 15 to 20)
#    0.000    1.500    3.333    2.000    2.333    3.333 
#    0.000    3.333    0.000    3.000    0.000    0.000 
#    0.000    0.000    0.000    0.000    0.000    0.000 
#
# Total GULP energy -268068.732411 kJ/mol
# GULP energy per Si atom -5584.765259 kJ/mol
# Density = 1.784897 g / cm^3
# Si number density = 17.889691 Si / 1000 Ang^3
#
#
#
# Elastic Constant Matrix: (Units=GPa)
#
#
# Indices 1 2 3 4 5 6 
#
# 1 58.5947 27.8442 23.1349 0.0000 0.0000 0.0000
# 2 27.8442 108.3593 42.6241 0.0000 0.0000 0.0000
# 3 23.1349 42.6241 76.2317 0.0000 0.0000 0.0000
# 4 0.0000 0.0000 0.0000 21.8909 0.0000 0.0000
# 5 0.0000 0.0000 0.0000 0.0000 31.7768 0.0000
# 6 0.0000 0.0000 0.0000 0.0000 0.0000 12.0831
#
#
#
# Elastic Compliance Matrix: (Units=1/GPa)
#
#
# Indices 1 2 3 4 5 6 
#
# 1 0.020431 -0.003604 -0.004186 0.000000 0.000000 0.000000
# 2 -0.003604 0.012466 -0.005877 0.000000 0.000000 0.000000
# 3 -0.004186 -0.005877 0.017674 0.000000 0.000000 0.000000
# 4 0.000000 0.000000 0.000000 0.045681 0.000000 0.000000
# 5 0.000000 0.000000 0.000000 0.000000 0.031469 0.000000
# 6 0.000000 0.000000 0.000000 0.000000 0.000000 0.082760
#
#
# Mechanical properties :
#
#
# Convention : Reuss Voigt Hill
#
# Bulk Modulus (GPa) = 43.02971 47.82137 45.42554
# Shear Modulus (GPa) = 20.36153 23.12233 21.74193
#
# Velocity S-wave (km/s) = 3.37734 3.59903 3.48994
# Velocity P-wave (km/s) = 6.27005 6.63777 6.45653
#
# Compressibility (1/GPa) = 0.02323976
#
# Stress axis : x y z
#
# Youngs Moduli (GPa) = 48.94414 80.21683 56.58008
#
# Poissons Ratio (x) = 0.28907 0.23682
# Poissons Ratio (y) = 0.17638 0.33250
# Poissons Ratio (z) = 0.20486 0.47141
#
# Static dielectric constant tensor:
#      x y z
#    x 1.598040 0.000000 0.000000 
#    y 0.000000 1.594000 0.000000 
#    z 0.000000 0.000000 1.591140 
# 
# From -- ./inp_files/3750.got.cif
#   From: 2010.05.17/outbox.cif.g08.bks.cpg/sg49_2_cif.got.tgz:3750.got - 2010.06.03 21:02:19.
