data_PCOD9394490
_publ_section_title
;
Structure prediction by ZEFSAII (Michael W. Deem and Ramdas Pophale) SiO2 
 PCOD9394490
Probable space group: P C C M
;
_chemical_formula_sum "Si O2"
_cell_formula_units_Z 64
_cell_length_a 5.285826
_cell_length_b 28.378198
_cell_length_c 19.805088
_cell_angle_alpha 90.000000
_cell_angle_beta 90.000000
_cell_angle_gamma 90.000000
_cell_volume 2970.807104
_symmetry_space_group_name_H-M "P C C M"
_symmetry_group_IT_number 49
_symmetry_cell_setting 'orthorhombic'
loop_
_space_group_symop_operation_xyz
x,y,z
-x,-y,z
x,-y,1/2-z
-x,y,1/2-z
-x,-y,-z
x,y,-z
-x,y,1/2+z
x,-y,1/2+z
loop_
_atom_site_type_symbol
_atom_site_label
_atom_site_fract_x
_atom_site_fract_y
_atom_site_fract_z
Si Si1 0.732610 0.820830 0.922130
Si Si2 0.799978 0.635436 0.918930
Si Si3 0.342097 0.149385 0.312793
Si Si4 0.692838 0.694029 0.418438
Si Si5 0.749458 0.528228 0.917544
Si Si6 0.567837 0.948556 0.348504
Si Si7 0.028246 0.236048 0.673838
Si Si8 0.058927 0.921994 0.424480
O O1 0.496275 0.842080 0.881495
O O2 0.809236 0.773613 0.881359
O O3 0.936281 0.864452 0.924512
O O4 0.676008 0.809564 0.000000
O O5 0.568794 0.669052 0.898794
O O6 0.763762 0.582192 0.893492
O O7 0.073128 0.657978 0.905241
O O8 0.781931 0.632570 0.000000
O O9 0.500000 0.168700 0.250000
O O10 0.319117 0.093499 0.302416
O O11 0.101458 0.181743 0.314121
O O12 0.693150 0.704871 0.500000
O O13 0.759510 0.737207 0.369387
O O14 0.500000 0.500000 0.895974
O O15 0.000000 0.500000 0.897681
O O16 0.744865 0.529308 0.000000
O O17 0.794859 0.946507 0.403806
O O18 0.293654 0.934351 0.377053
O O19 0.500000 0.000000 0.321830
O O20 0.000000 0.256390 0.750000
O O21 0.124310 0.936773 0.500000
#
# Coordination Sequence:
#
# PCOD9394490 Si02
#       8
#     8   8   8   8   8   8   8   8
#     4  10  22  40  64  93 121 155 202 254 308 373
#     4   9  18  34  52  80 124 168 209 260 319 370
#     4  11  24  43  65  88 124 160 201 256 316 372
#     4  10  22  37  57  84 121 166 211 262 316 377
#     4   9  15  24  45  77 115 162 210 253 306 373
#     4  11  23  39  61  89 120 157 198 242 302 377
#     4  12  24  41  65  89 118 164 211 266 321 384
#     4  10  21  38  60  88 122 157 192 239 298 363
#
# _framework density 21.542967000000001
#
# number of rings (size 3 to 8) (size 9 to 14) (size 15 to 20)
#    0.000    1.750    2.500    1.875    1.750    6.250 
#    0.000    0.000    0.000    1.500    0.000    0.000 
#    0.000    7.500    0.000    0.000    0.000    0.000 
#
# Total GULP energy -356672.153003 kJ/mol
# GULP energy per Si atom -5573.002391 kJ/mol
# Density = 2.149393 g / cm^3
# Si number density = 21.542967 Si / 1000 Ang^3
#
#
#
# Elastic Constant Matrix: (Units=GPa)
#
#
# Indices 1 2 3 4 5 6 
#
# 1 84.4364 32.1794 8.7503 0.0000 0.0000 0.0000
# 2 32.1794 109.2162 22.7474 0.0000 0.0000 0.0000
# 3 8.7503 22.7474 95.1520 0.0000 0.0000 0.0000
# 4 0.0000 0.0000 0.0000 4.5649 0.0000 0.0000
# 5 0.0000 0.0000 0.0000 0.0000 9.0229 0.0000
# 6 0.0000 0.0000 0.0000 0.0000 0.0000 30.0893
#
#
#
# Elastic Compliance Matrix: (Units=1/GPa)
#
#
# Indices 1 2 3 4 5 6 
#
# 1 0.013350 -0.003870 -0.000302 0.000000 0.000000 0.000000
# 2 -0.003870 0.010758 -0.002216 0.000000 0.000000 0.000000
# 3 -0.000302 -0.002216 0.011067 0.000000 0.000000 0.000000
# 4 0.000000 0.000000 0.000000 0.219061 0.000000 0.000000
# 5 0.000000 0.000000 0.000000 0.000000 0.110829 0.000000
# 6 0.000000 0.000000 0.000000 0.000000 0.000000 0.033234
#
#
# Mechanical properties :
#
#
# Convention : Reuss Voigt Hill
#
# Bulk Modulus (GPa) = 44.64809 46.23986 45.44397
# Shear Modulus (GPa) = 11.94622 23.74393 17.84508
#
# Velocity S-wave (km/s) = 2.35740 3.32349 2.88123
# Velocity P-wave (km/s) = 5.30848 6.01981 5.67530
#
# Compressibility (1/GPa) = 0.02239737
#
# Stress axis : x y z
#
# Youngs Moduli (GPa) = 74.90867 92.95378 90.35821
#
# Poissons Ratio (x) = 0.35976 0.02732
# Poissons Ratio (y) = 0.28992 0.20023
# Poissons Ratio (z) = 0.02265 0.20598
#
# Static dielectric constant tensor:
#      x y z
#    x 1.843960 0.000000 0.000000 
#    y 0.000000 1.855220 0.000000 
#    z 0.000000 0.000000 1.864500 
# 
# From -- ./inp_files/19109.got.cif
#   From: 2010.05.17/outbox.cif.g08.bks.cpg/sg49_10_cif.got.tgz:19109.got - 2010.06.03 21:02:19.
