data_PCOD9394911
_publ_section_title
;
Structure prediction by ZEFSAII (Michael W. Deem and Ramdas Pophale) SiO2 
 PCOD9394911
Probable space group: P C C M
;
_chemical_formula_sum "Si O2"
_cell_formula_units_Z 28
_cell_length_a 22.839968
_cell_length_b 5.003797
_cell_length_c 10.242422
_cell_angle_alpha 90.000000
_cell_angle_beta 90.000000
_cell_angle_gamma 90.000000
_cell_volume 1170.571211
_symmetry_space_group_name_H-M "P C C M"
_symmetry_group_IT_number 49
_symmetry_cell_setting 'orthorhombic'
loop_
_space_group_symop_operation_xyz
x,y,z
-x,-y,z
x,-y,1/2-z
-x,y,1/2-z
-x,-y,-z
x,y,-z
-x,y,1/2+z
x,-y,1/2+z
loop_
_atom_site_type_symbol
_atom_site_label
_atom_site_fract_x
_atom_site_fract_y
_atom_site_fract_z
Si Si1 0.000000 0.000000 0.250000
Si Si2 0.215268 0.500000 0.750000
Si Si3 0.068992 0.224604 0.500000
Si Si4 0.856264 0.287789 0.500000
Si Si5 0.500000 0.000000 0.250000
Si Si6 0.294929 0.000000 0.250000
Si Si7 0.606423 0.696917 0.865345
O O1 0.961855 0.163036 0.140943
O O2 0.178084 0.618206 0.629382
O O3 0.255276 0.249286 0.707810
O O4 0.084809 0.535567 0.500000
O O5 0.125103 0.022471 0.500000
O O6 0.455915 0.169534 0.161804
O O7 0.340405 0.095715 0.139827
O O8 0.618416 0.500000 0.750000
O O9 0.604868 0.545446 0.000000
#
# Coordination Sequence:
#
# PCOD9394911 Si02
#       7
#     2   4   4   4   2   4   8
#     4  10  24  42  76 102 148 186 232 292 348 422
#     4  12  26  44  70  98 138 192 236 302 356 420
#     4  11  24  44  68 108 140 188 236 287 354 416
#     4  12  26  45  70 100 146 185 242 294 350 422
#     4  10  24  44  68 106 142 190 232 290 382 428
#     4  11  26  44  68 102 136 180 246 289 366 422
#     4  11  25  45  72 103 143 185 235 308 355 459
#
# _framework density 23.919947000000001
#
# number of rings (size 3 to 8) (size 9 to 14) (size 15 to 20)
#    0.000    0.857    1.429    4.286    4.000   10.286 
#    0.000    0.000    0.000    0.000    0.000    0.000 
#    0.000    0.000    0.000    0.000    0.000    0.000 
#
# Total GULP energy -156522.872898 kJ/mol
# GULP energy per Si atom -5590.102603 kJ/mol
# Density = 2.386550 g / cm^3
# Si number density = 23.919947 Si / 1000 Ang^3
#
#
#
# Elastic Constant Matrix: (Units=GPa)
#
#
# Indices 1 2 3 4 5 6 
#
# 1 85.0845 14.9155 41.7146 0.0000 0.0000 0.0000
# 2 14.9155 82.6758 18.0210 0.0000 0.0000 0.0000
# 3 41.7146 18.0210 200.2661 0.0000 0.0000 0.0000
# 4 0.0000 0.0000 0.0000 4.3730 0.0000 0.0000
# 5 0.0000 0.0000 0.0000 0.0000 583.6430 0.0000
# 6 0.0000 0.0000 0.0000 0.0000 0.0000 -104.5503
#
#
#
# Elastic Compliance Matrix: (Units=1/GPa)
#
#
# Indices 1 2 3 4 5 6 
#
# 1 0.013359 -0.001840 -0.002617 0.000000 0.000000 0.000000
# 2 -0.001840 0.012591 -0.000750 0.000000 0.000000 0.000000
# 3 -0.002617 -0.000750 0.005606 0.000000 0.000000 0.000000
# 4 0.000000 0.000000 0.000000 0.228675 0.000000 0.000000
# 5 0.000000 0.000000 0.000000 0.000000 0.001713 0.000000
# 6 0.000000 0.000000 0.000000 0.000000 0.000000 -0.009565
#
#
# Mechanical properties :
#
#
# Convention : Reuss Voigt Hill
#
# Bulk Modulus (GPa) = 47.29813 57.48093 52.38953
# Shear Modulus (GPa) = 18.52957 116.25150 67.39053
#
# Velocity S-wave (km/s) = 2.78627 6.97895 5.31362
# Velocity P-wave (km/s) = 5.49250 9.43524 7.71982
#
# Compressibility (1/GPa) = 0.02114249
#
# Stress axis : x y z
#
# Youngs Moduli (GPa) = 74.85843 79.42336 178.38229
#
# Poissons Ratio (x) = 0.14611 0.46683
# Poissons Ratio (y) = 0.13771 0.13375
# Poissons Ratio (z) = 0.19590 0.05955
#
# Static dielectric constant tensor:
#      x y z
#    x 1.965830 0.000000 0.000000 
#    y 0.000000 1.922080 0.000000 
#    z 0.000000 0.000000 1.924910 
# 
# From -- ./inp_files/9960.got.cif
#   From: 2010.05.17/outbox.cif.g08.bks.cpg/sg49_5_cif.got.tgz:9960.got - 2010.06.03 21:02:19.
