data_PCOD9394209
_publ_section_title
;
Structure prediction by ZEFSAII (Michael W. Deem and Ramdas Pophale) SiO2 
 PCOD9394209
Probable space group: P C C M
;
_chemical_formula_sum "Si O2"
_cell_formula_units_Z 64
_cell_length_a 12.718429
_cell_length_b 14.897114
_cell_length_c 16.504823
_cell_angle_alpha 90.000000
_cell_angle_beta 90.000000
_cell_angle_gamma 90.000000
_cell_volume 3127.133934
_symmetry_space_group_name_H-M "P C C M"
_symmetry_group_IT_number 49
_symmetry_cell_setting 'orthorhombic'
loop_
_space_group_symop_operation_xyz
x,y,z
-x,-y,z
x,-y,1/2-z
-x,y,1/2-z
-x,-y,-z
x,y,-z
-x,y,1/2+z
x,-y,1/2+z
loop_
_atom_site_type_symbol
_atom_site_label
_atom_site_fract_x
_atom_site_fract_y
_atom_site_fract_z
Si Si1 0.753605 0.552432 0.164137
Si Si2 0.171899 0.004554 0.652195
Si Si3 0.602332 0.053282 0.097358
Si Si4 0.456162 0.600539 0.403414
Si Si5 0.001915 0.857812 0.651102
Si Si6 0.184766 0.379263 0.408323
Si Si7 0.029733 0.343095 0.156581
Si Si8 0.363610 0.743261 0.900842
O O1 0.758244 0.500000 0.250000
O O2 0.648849 0.608914 0.149708
O O3 0.751256 0.471072 0.099885
O O4 0.857414 0.611440 0.150271
O O5 0.288728 0.004735 0.618559
O O6 0.107324 0.094322 0.627154
O O7 0.176981 0.000000 0.750000
O O8 0.097737 0.922203 0.626069
O O9 0.613147 0.156074 0.127391
O O10 0.500000 0.000000 0.128096
O O11 0.593223 0.058028 0.000000
O O12 0.500000 0.500000 0.390223
O O13 0.433882 0.610285 0.500000
O O14 0.543335 0.674043 0.380906
O O15 0.020107 0.757226 0.621126
O O16 0.000000 0.857925 0.750000
O O17 0.171363 0.352731 0.500000
O O18 0.254439 0.300318 0.368520
O O19 0.068814 0.398302 0.376515
O O20 0.000000 0.334238 0.250000
O O21 0.358113 0.744752 0.000000
#
# Coordination Sequence:
#
# PCOD9394209 Si02
#       8
#     8   8   8   8   8   8   8   8
#     4  12  24  37  55  82 118 151 187 236 291 340
#     4   9  17  35  60  82 111 145 190 233 272 336
#     4  10  21  36  57  84 117 151 182 228 293 344
#     4  10  20  39  62  80 107 149 197 241 280 331
#     4   8  17  34  58  83 108 150 188 225 283 340
#     4  11  22  38  61  83 109 151 200 235 274 339
#     4  11  22  37  55  80 119 153 184 231 292 343
#     4   9  19  38  62  85 109 147 193 236 284 339
#
# _framework density 20.466023
#
# number of rings (size 3 to 8) (size 9 to 14) (size 15 to 20)
#    0.000    2.000    2.500    2.250    0.000    3.000 
#    0.000    1.875    2.750    0.000    0.000    0.000 
#    0.000    0.000    0.000    0.000    0.000    0.000 
#
# Total GULP energy -357112.102613 kJ/mol
# GULP energy per Si atom -5579.876603 kJ/mol
# Density = 2.041944 g / cm^3
# Si number density = 20.466023 Si / 1000 Ang^3
#
#
#
# Elastic Constant Matrix: (Units=GPa)
#
#
# Indices 1 2 3 4 5 6 
#
# 1 159.1158 39.5774 16.2015 0.0000 0.0000 0.0000
# 2 39.5774 75.6102 4.1159 0.0000 0.0000 0.0000
# 3 16.2015 4.1159 8.4045 0.0000 0.0000 0.0000
# 4 0.0000 0.0000 0.0000 15.1260 0.0000 0.0000
# 5 0.0000 0.0000 0.0000 0.0000 3.2901 0.0000
# 6 0.0000 0.0000 0.0000 0.0000 0.0000 -89.8833
#
#
#
# Elastic Compliance Matrix: (Units=1/GPa)
#
#
# Indices 1 2 3 4 5 6 
#
# 1 0.008751 -0.003762 -0.015026 0.000000 0.000000 0.000000
# 2 -0.003762 0.015206 -0.000194 0.000000 0.000000 0.000000
# 3 -0.015026 -0.000194 0.148046 0.000000 0.000000 0.000000
# 4 0.000000 0.000000 0.000000 0.066111 0.000000 0.000000
# 5 0.000000 0.000000 0.000000 0.000000 0.303943 0.000000
# 6 0.000000 0.000000 0.000000 0.000000 0.000000 -0.011126
#
#
# Mechanical properties :
#
#
# Convention : Reuss Voigt Hill
#
# Bulk Modulus (GPa) = 7.46060 40.32444 23.89252
# Shear Modulus (GPa) = 8.14897 -2.07773 3.03562
#
# Velocity S-wave (km/s) = 1.99759 -1.00867 1.21921
# Velocity P-wave (km/s) = 2.99562 4.28828 3.69886
#
# Compressibility (1/GPa) = 0.13403749
#
# Stress axis : x y z
#
# Youngs Moduli (GPa) = 114.27829 65.76487 6.75467
#
# Poissons Ratio (x) = 0.24744 0.10150
# Poissons Ratio (y) = 0.42997 0.00131
# Poissons Ratio (z) = 1.71716 0.01274
#
# Static dielectric constant tensor:
#      x y z
#    x 1.864970 0.000000 0.000000 
#    y 0.000000 1.740270 0.000000 
#    z 0.000000 0.000000 1.990110 
# 
# From -- ./inp_files/17340.got.cif
#   From: 2010.05.17/outbox.cif.g08.bks.cpg/sg49_9_cif.got.tgz:17340.got - 2010.06.03 21:02:19.
