data_PCOD9394451
_publ_section_title
;
Structure prediction by ZEFSAII (Michael W. Deem and Ramdas Pophale) SiO2 
 PCOD9394451
Probable space group: P C C M
;
_chemical_formula_sum "Si O2"
_cell_formula_units_Z 32
_cell_length_a 5.247174
_cell_length_b 7.193175
_cell_length_c 36.388144
_cell_angle_alpha 90.000000
_cell_angle_beta 90.000000
_cell_angle_gamma 90.000000
_cell_volume 1373.428316
_symmetry_space_group_name_H-M "P C C M"
_symmetry_group_IT_number 49
_symmetry_cell_setting 'orthorhombic'
loop_
_space_group_symop_operation_xyz
x,y,z
-x,-y,z
x,-y,1/2-z
-x,y,1/2-z
-x,-y,-z
x,y,-z
-x,y,1/2+z
x,-y,1/2+z
loop_
_atom_site_type_symbol
_atom_site_label
_atom_site_fract_x
_atom_site_fract_y
_atom_site_fract_z
Si Si1 0.979181 0.724116 0.582257
Si Si2 0.239819 0.121307 0.341342
Si Si3 0.253029 0.708110 0.766621
Si Si4 0.517454 0.274213 0.541465
O O1 0.863833 0.796483 0.620387
O O2 0.767048 0.782746 0.552533
O O3 0.000000 0.500000 0.584031
O O4 0.261938 0.785742 0.569914
O O5 0.272949 0.279419 0.310419
O O6 0.500000 0.000000 0.344872
O O7 0.000000 0.000000 0.327858
O O8 0.252873 0.500000 0.750000
O O9 0.500000 0.801554 0.750000
O O10 0.000000 0.792970 0.750000
O O11 0.500000 0.500000 0.542303
O O12 0.584781 0.219473 0.500000
#
# Coordination Sequence:
#
# PCOD9394451 Si02
#       4
#     8   8   8   8
#     4  10  21  37  62  93 124 171 216 261 318 383
#     4  12  26  43  65  94 133 170 208 266 327 386
#     4  10  23  43  67  94 121 165 208 268 310 386
#     4   9  17  33  59  94 127 161 215 275 315 357
#
# _framework density 23.299358000000002
#
# number of rings (size 3 to 8) (size 9 to 14) (size 15 to 20)
#    0.000    1.750    0.000    3.750    3.500    6.000 
#    9.000    0.000    0.000   15.000    0.000    0.000 
#    0.000    0.000    0.000    0.000    0.000    0.000 
#
# Total GULP energy -178734.283769 kJ/mol
# GULP energy per Si atom -5585.446368 kJ/mol
# Density = 2.324633 g / cm^3
# Si number density = 23.299358 Si / 1000 Ang^3
#
#
#
# Elastic Constant Matrix: (Units=GPa)
#
#
# Indices 1 2 3 4 5 6 
#
# 1 208.7645 26.9844 53.4856 0.0000 0.0000 0.0000
# 2 26.9844 113.0292 27.2820 0.0000 0.0000 0.0000
# 3 53.4856 27.2820 168.1294 0.0000 0.0000 0.0000
# 4 0.0000 0.0000 0.0000 56.0811 0.0000 0.0000
# 5 0.0000 0.0000 0.0000 0.0000 27.5828 0.0000
# 6 0.0000 0.0000 0.0000 0.0000 0.0000 -7.7594
#
#
#
# Elastic Compliance Matrix: (Units=1/GPa)
#
#
# Indices 1 2 3 4 5 6 
#
# 1 0.005300 -0.000893 -0.001541 0.000000 0.000000 0.000000
# 2 -0.000893 0.009359 -0.001234 0.000000 0.000000 0.000000
# 3 -0.001541 -0.001234 0.006638 0.000000 0.000000 0.000000
# 4 0.000000 0.000000 0.000000 0.017831 0.000000 0.000000
# 5 0.000000 0.000000 0.000000 0.000000 0.036255 0.000000
# 6 0.000000 0.000000 0.000000 0.000000 0.000000 -0.128876
#
#
# Mechanical properties :
#
#
# Convention : Reuss Voigt Hill
#
# Bulk Modulus (GPa) = 71.63663 78.38080 75.00872
# Shear Modulus (GPa) = -120.47566 40.65897 -39.90835
#
# Velocity S-wave (km/s) = -7.19861 4.18193 -4.14315
# Velocity P-wave (km/s) = 6.18711 7.55195 3.06199
#
# Compressibility (1/GPa) = 0.01395934
#
# Stress axis : x y z
#
# Youngs Moduli (GPa) = 188.66411 106.85464 150.63893
#
# Poissons Ratio (x) = 0.09547 0.23217
# Poissons Ratio (y) = 0.16855 0.18594
# Poissons Ratio (z) = 0.29077 0.13190
#
# Static dielectric constant tensor:
#      x y z
#    x 1.862320 0.000000 0.000000 
#    y 0.000000 1.905600 0.000000 
#    z 0.000000 0.000000 1.866450 
# 
# From -- ./inp_files/25543.got.cif
#   From: 2010.05.17/outbox.cif.g08.bks.cpg/sg49_13_cif.got.tgz:25543.got - 2010.06.03 21:02:19.
