data_PCOD9394166
_publ_section_title
;
Structure prediction by ZEFSAII (Michael W. Deem and Ramdas Pophale) SiO2 
 PCOD9394166
Probable space group: P C C M
;
_chemical_formula_sum "Si O2"
_cell_formula_units_Z 64
_cell_length_a 12.456052
_cell_length_b 9.243811
_cell_length_c 29.010667
_cell_angle_alpha 90.000000
_cell_angle_beta 90.000000
_cell_angle_gamma 90.000000
_cell_volume 3340.328538
_symmetry_space_group_name_H-M "P C C M"
_symmetry_group_IT_number 49
_symmetry_cell_setting 'orthorhombic'
loop_
_space_group_symop_operation_xyz
x,y,z
-x,-y,z
x,-y,1/2-z
-x,y,1/2-z
-x,-y,-z
x,y,-z
-x,y,1/2+z
x,-y,1/2+z
loop_
_atom_site_type_symbol
_atom_site_label
_atom_site_fract_x
_atom_site_fract_y
_atom_site_fract_z
Si Si1 0.554770 0.340865 0.203363
Si Si2 0.558784 0.151961 0.636515
Si Si3 0.790919 0.790850 0.709370
Si Si4 0.890178 0.329488 0.123802
Si Si5 0.225882 0.128966 0.812629
Si Si6 0.714249 0.818511 0.051673
Si Si7 0.859633 0.649353 0.889265
Si Si8 0.884764 0.076992 0.946277
O O1 0.500000 0.500000 0.201646
O O2 0.500000 0.275805 0.250000
O O3 0.523825 0.268588 0.155045
O O4 0.681902 0.306379 0.207386
O O5 0.649018 0.150954 0.676421
O O6 0.620478 0.182336 0.589232
O O7 0.500000 0.000000 0.633608
O O8 0.879267 0.718983 0.676769
O O9 0.812350 0.812390 0.763356
O O10 0.783595 0.954743 0.688850
O O11 0.830972 0.483834 0.121883
O O12 0.853135 0.204596 0.088707
O O13 0.012911 0.346949 0.108527
O O14 0.170684 0.226275 0.852062
O O15 0.797529 0.692380 0.064667
O O16 0.788936 0.960719 0.055968
O O17 0.673364 0.807898 0.000000
O O18 0.895919 0.124195 0.000000
O O19 0.000000 0.000000 0.933880
#
# Coordination Sequence:
#
# PCOD9394166 Si02
#       8
#     8   8   8   8   8   8   8   8
#     4  11  24  38  59  90 123 161 200 246 302 359
#     4  11  21  38  62  84 119 154 198 256 294 359
#     4  11  23  37  61  88 120 160 206 253 295 363
#     4  11  23  37  60  89 121 161 200 248 312 363
#     4  10  22  39  58  87 119 161 204 248 300 356
#     4  10  22  40  63  89 117 157 201 249 306 363
#     4  10  23  39  58  87 124 161 199 249 305 370
#     4  10  20  38  62  87 115 147 195 251 300 357
#
# _framework density 19.159793000000001
#
# number of rings (size 3 to 8) (size 9 to 14) (size 15 to 20)
#    0.000    1.500    3.750    1.500    3.500    2.000 
#    0.000    3.750    0.000    0.375    0.000    0.000 
#    0.000    0.000    0.000    0.000    0.000    0.000 
#
# Total GULP energy -356474.653714 kJ/mol
# GULP energy per Si atom -5569.916464 kJ/mol
# Density = 1.911618 g / cm^3
# Si number density = 19.159793 Si / 1000 Ang^3
#
#
#
# Elastic Constant Matrix: (Units=GPa)
#
#
# Indices 1 2 3 4 5 6 
#
# 1 28.2390 0.9276 12.3521 0.0000 0.0000 0.0000
# 2 0.9276 75.0210 33.6791 0.0000 0.0000 0.0000
# 3 12.3521 33.6791 111.0062 0.0000 0.0000 0.0000
# 4 0.0000 0.0000 0.0000 -3.5182 0.0000 0.0000
# 5 0.0000 0.0000 0.0000 0.0000 12.1477 0.0000
# 6 0.0000 0.0000 0.0000 0.0000 0.0000 23.5086
#
#
#
# Elastic Compliance Matrix: (Units=1/GPa)
#
#
# Indices 1 2 3 4 5 6 
#
# 1 0.037395 0.001627 -0.004655 0.000000 0.000000 0.000000
# 2 0.001627 0.015502 -0.004884 0.000000 0.000000 0.000000
# 3 -0.004655 -0.004884 0.011008 0.000000 0.000000 0.000000
# 4 0.000000 0.000000 0.000000 -0.284235 0.000000 0.000000
# 5 0.000000 0.000000 0.000000 0.000000 0.082320 0.000000
# 6 0.000000 0.000000 0.000000 0.000000 0.000000 0.042538
#
#
# Mechanical properties :
#
#
# Convention : Reuss Voigt Hill
#
# Bulk Modulus (GPa) = 20.79805 34.24265 27.52035
# Shear Modulus (GPa) = -78.59083 17.58142 -30.50470
#
# Velocity S-wave (km/s) = -6.41153 3.03251 -3.99447
# Velocity P-wave (km/s) = 6.62809 5.49294 2.62290
#
# Compressibility (1/GPa) = 0.04808143
#
# Stress axis : x y z
#
# Youngs Moduli (GPa) = 26.74180 64.50680 90.83982
#
# Poissons Ratio (x) = -0.10497 0.42284
# Poissons Ratio (y) = -0.04352 0.44370
# Poissons Ratio (z) = 0.12448 0.31508
#
# Static dielectric constant tensor:
#      x y z
#    x 1.674520 0.000000 0.000000 
#    y 0.000000 1.741170 0.000000 
#    z 0.000000 0.000000 1.668000 
# 
# From -- ./inp_files/26696.got.cif
#   From: 2010.05.17/outbox.cif.g08.bks.cpg/sg49_14_cif.got.tgz:26696.got - 2010.06.03 21:02:19.
