data_PCOD9394634
_publ_section_title
;
Structure prediction by ZEFSAII (Michael W. Deem and Ramdas Pophale) SiO2 
 PCOD9394634
Probable space group: P C C M
;
_chemical_formula_sum "Si O2"
_cell_formula_units_Z 52
_cell_length_a 19.626665
_cell_length_b 6.118518
_cell_length_c 20.513613
_cell_angle_alpha 90.000000
_cell_angle_beta 90.000000
_cell_angle_gamma 90.000000
_cell_volume 2463.399845
_symmetry_space_group_name_H-M "P C C M"
_symmetry_group_IT_number 49
_symmetry_cell_setting 'orthorhombic'
loop_
_space_group_symop_operation_xyz
x,y,z
-x,-y,z
x,-y,1/2-z
-x,y,1/2-z
-x,-y,-z
x,y,-z
-x,y,1/2+z
x,-y,1/2+z
loop_
_atom_site_type_symbol
_atom_site_label
_atom_site_fract_x
_atom_site_fract_y
_atom_site_fract_z
Si Si1 0.753110 0.870656 0.813836
Si Si2 0.675604 0.621370 0.074675
Si Si3 0.000000 0.000000 0.360038
Si Si4 0.900834 0.328145 0.694543
Si Si5 0.091167 0.630400 0.927188
Si Si6 0.244024 0.208879 0.571544
Si Si7 0.480822 0.748454 0.425106
O O1 0.708115 0.708288 0.857882
O O2 0.823027 0.748014 0.795964
O O3 0.726359 0.000000 0.750000
O O4 0.765959 0.051734 0.868431
O O5 0.689830 0.361673 0.079941
O O6 0.600708 0.723533 0.073867
O O7 0.703442 0.662369 0.000000
O O8 0.948147 0.122584 0.313016
O O9 0.047567 0.160275 0.403705
O O10 0.918302 0.500000 0.750000
O O11 0.915724 0.445171 0.626080
O O12 0.172795 0.663722 0.929062
O O13 0.070959 0.569419 0.000000
O O14 0.249605 0.104071 0.500000
O O15 0.500000 0.500000 0.397538
O O16 0.507944 0.746363 0.500000
O O17 0.500000 0.000000 0.400321
#
# Coordination Sequence:
#
# PCOD9394634 Si02
#       7
#     8   8   4   8   8   8   8
#     4  12  25  42  66  93 128 168 219 273 330 392
#     4  10  22  40  68 101 134 175 220 272 334 391
#     4  12  27  47  64  90 121 167 216 268 351 421
#     4  12  28  47  66  91 124 166 220 278 337 407
#     4  11  24  44  67  94 126 161 208 270 342 416
#     4  10  21  40  67  97 127 164 212 270 331 396
#     4   9  19  36  62 103 147 182 223 279 337 400
#
# _framework density 21.109038000000002
#
# number of rings (size 3 to 8) (size 9 to 14) (size 15 to 20)
#    0.000    1.231    3.077    2.077    2.154    4.308 
#    0.000    0.000    0.000    0.462    0.000    0.000 
#    0.000    0.000    0.000    0.000    0.000    0.000 
#
# Total GULP energy -289565.655400 kJ/mol
# GULP energy per Si atom -5568.570296 kJ/mol
# Density = 2.106099 g / cm^3
# Si number density = 21.109038 Si / 1000 Ang^3
#
#
#
# Elastic Constant Matrix: (Units=GPa)
#
#
# Indices 1 2 3 4 5 6 
#
# 1 32.4088 7.4201 -16.6417 0.0000 0.0000 0.0000
# 2 7.4201 65.7348 17.7588 0.0000 0.0000 0.0000
# 3 -16.6417 17.7588 122.6777 0.0000 0.0000 0.0000
# 4 0.0000 0.0000 0.0000 36.6659 0.0000 0.0000
# 5 0.0000 0.0000 0.0000 0.0000 0.5597 0.0000
# 6 0.0000 0.0000 0.0000 0.0000 0.0000 29.2523
#
#
#
# Elastic Compliance Matrix: (Units=1/GPa)
#
#
# Indices 1 2 3 4 5 6 
#
# 1 0.034938 -0.005437 0.005527 0.000000 0.000000 0.000000
# 2 -0.005437 0.016678 -0.003152 0.000000 0.000000 0.000000
# 3 0.005527 -0.003152 0.009357 0.000000 0.000000 0.000000
# 4 0.000000 0.000000 0.000000 0.027273 0.000000 0.000000
# 5 0.000000 0.000000 0.000000 0.000000 1.786655 0.000000
# 6 0.000000 0.000000 0.000000 0.000000 0.000000 0.034185
#
#
# Mechanical properties :
#
#
# Convention : Reuss Voigt Hill
#
# Bulk Modulus (GPa) = 18.23170 26.43286 22.33228
# Shear Modulus (GPa) = 2.58599 27.44786 15.01693
#
# Velocity S-wave (km/s) = 1.10803 3.60986 2.67010
# Velocity P-wave (km/s) = 3.20821 5.47029 4.48423
#
# Compressibility (1/GPa) = 0.05484951
#
# Stress axis : x y z
#
# Youngs Moduli (GPa) = 28.62175 59.95984 106.86731
#
# Poissons Ratio (x) = 0.32599 -0.59061
# Poissons Ratio (y) = 0.15561 0.33683
# Poissons Ratio (z) = -0.15818 0.18898
#
# Static dielectric constant tensor:
#      x y z
#    x 1.761690 0.000000 0.000000 
#    y 0.000000 1.909080 0.000000 
#    z 0.000000 0.000000 1.731810 
# 
# From -- ./inp_files/21190.got.cif
#   From: 2010.05.17/outbox.cif.g08.bks.cpg/sg49_11_cif.got.tgz:21190.got - 2010.06.03 21:02:19.
