data_PCOD9394048
_publ_section_title
;
Structure prediction by ZEFSAII (Michael W. Deem and Ramdas Pophale) SiO2 
 PCOD9394048
Probable space group: P C C M
;
_chemical_formula_sum "Si O2"
_cell_formula_units_Z 48
_cell_length_a 8.778658
_cell_length_b 17.634932
_cell_length_c 15.244752
_cell_angle_alpha 90.000000
_cell_angle_beta 90.000000
_cell_angle_gamma 90.000000
_cell_volume 2360.055864
_symmetry_space_group_name_H-M "P C C M"
_symmetry_group_IT_number 49
_symmetry_cell_setting 'orthorhombic'
loop_
_space_group_symop_operation_xyz
x,y,z
-x,-y,z
x,-y,1/2-z
-x,y,1/2-z
-x,-y,-z
x,y,-z
-x,y,1/2+z
x,-y,1/2+z
loop_
_atom_site_type_symbol
_atom_site_label
_atom_site_fract_x
_atom_site_fract_y
_atom_site_fract_z
Si Si1 0.088543 0.195126 0.163285
Si Si2 0.698437 0.674949 0.095691
Si Si3 0.663725 0.705001 0.397164
Si Si4 0.884338 0.062228 0.100870
Si Si5 0.818182 0.589790 0.261435
Si Si6 0.667009 0.138370 0.787184
O O1 0.182278 0.255984 0.108028
O O2 0.216913 0.142631 0.206557
O O3 0.000000 0.226935 0.250000
O O4 0.972415 0.142567 0.110726
O O5 0.519922 0.695311 0.101195
O O6 0.733571 0.624070 0.178121
O O7 0.725017 0.639890 0.000000
O O8 0.713069 0.710606 0.500000
O O9 0.749994 0.636081 0.345647
O O10 0.683527 0.782402 0.341494
O O11 0.727150 0.071643 0.151476
O O12 0.856082 0.044470 0.000000
O O13 0.000000 0.000000 0.137738
O O14 0.791795 0.500000 0.250000
O O15 0.000000 0.601219 0.250000
O O16 0.500000 0.131260 0.750000
#
# Coordination Sequence:
#
# PCOD9394048 Si02
#       6
#     8   8   8   8   8   8
#     4  10  20  36  63  91 127 168 209 260 311 373
#     4  11  22  38  63  94 127 165 212 262 318 379
#     4  11  23  40  66  97 128 165 215 268 325 385
#     4  10  23  42  62  93 134 172 215 264 323 388
#     4  11  25  44  63  89 128 170 213 264 323 384
#     4  11  20  38  66  94 127 166 217 268 319 380
#
# _framework density 20.3385
#
# number of rings (size 3 to 8) (size 9 to 14) (size 15 to 20)
#    0.000    1.333    3.333    2.000    2.333    5.667 
#    0.000    5.000    0.000    2.000    0.000    0.000 
#    0.000    0.000    0.000    0.000    0.000    0.000 
#
# Total GULP energy -267831.474971 kJ/mol
# GULP energy per Si atom -5579.822395 kJ/mol
# Density = 2.029221 g / cm^3
# Si number density = 20.338500 Si / 1000 Ang^3
#
#
#
# Elastic Constant Matrix: (Units=GPa)
#
#
# Indices 1 2 3 4 5 6 
#
# 1 123.1982 34.8786 43.6220 0.0000 0.0000 0.0000
# 2 34.8786 79.8114 21.4514 0.0000 0.0000 0.0000
# 3 43.6220 21.4514 104.2972 0.0000 0.0000 0.0000
# 4 0.0000 0.0000 0.0000 21.6981 0.0000 0.0000
# 5 0.0000 0.0000 0.0000 0.0000 7.9773 0.0000
# 6 0.0000 0.0000 0.0000 0.0000 0.0000 24.4972
#
#
#
# Elastic Compliance Matrix: (Units=1/GPa)
#
#
# Indices 1 2 3 4 5 6 
#
# 1 0.010411 -0.003577 -0.003619 0.000000 0.000000 0.000000
# 2 -0.003577 0.014492 -0.001484 0.000000 0.000000 0.000000
# 3 -0.003619 -0.001484 0.011407 0.000000 0.000000 0.000000
# 4 0.000000 0.000000 0.000000 0.046087 0.000000 0.000000
# 5 0.000000 0.000000 0.000000 0.000000 0.125355 0.000000
# 6 0.000000 0.000000 0.000000 0.000000 0.000000 0.040821
#
#
# Mechanical properties :
#
#
# Convention : Reuss Voigt Hill
#
# Bulk Modulus (GPa) = 52.77305 56.35675 54.56490
# Shear Modulus (GPa) = 18.36549 24.65817 21.51183
#
# Velocity S-wave (km/s) = 3.00824 3.48572 3.25574
# Velocity P-wave (km/s) = 6.17007 6.63097 6.40467
#
# Compressibility (1/GPa) = 0.01894907
#
# Stress axis : x y z
#
# Youngs Moduli (GPa) = 96.05208 69.00457 87.66705
#
# Poissons Ratio (x) = 0.24684 0.31724
# Poissons Ratio (y) = 0.34359 0.13014
# Poissons Ratio (z) = 0.34758 0.10244
#
# Static dielectric constant tensor:
#      x y z
#    x 1.778930 0.000000 0.000000 
#    y 0.000000 1.811700 0.000000 
#    z 0.000000 0.000000 1.725650 
# 
# From -- ./inp_files/11816.got.cif
#   From: 2010.05.17/outbox.cif.g08.bks.cpg/sg49_6_cif.got.tgz:11816.got - 2010.06.03 21:02:19.
