data_PCOD9394188
_publ_section_title
;
Structure prediction by ZEFSAII (Michael W. Deem and Ramdas Pophale) SiO2 
 PCOD9394188
Probable space group: P C C M
;
_chemical_formula_sum "Si O2"
_cell_formula_units_Z 18
_cell_length_a 12.077974
_cell_length_b 7.218069
_cell_length_c 9.702593
_cell_angle_alpha 90.000000
_cell_angle_beta 90.000000
_cell_angle_gamma 90.000000
_cell_volume 845.868659
_symmetry_space_group_name_H-M "P C C M"
_symmetry_group_IT_number 49
_symmetry_cell_setting 'orthorhombic'
loop_
_space_group_symop_operation_xyz
x,y,z
-x,-y,z
x,-y,1/2-z
-x,y,1/2-z
-x,-y,-z
x,y,-z
-x,y,1/2+z
x,-y,1/2+z
loop_
_atom_site_type_symbol
_atom_site_label
_atom_site_fract_x
_atom_site_fract_y
_atom_site_fract_z
Si Si1 0.650066 0.332371 0.845961
Si Si2 0.500000 0.000000 0.250000
Si Si3 0.897757 0.806771 0.665956
O O1 0.616363 0.500000 0.750000
O O2 0.581043 0.142843 0.828185
O O3 0.779836 0.291479 0.821990
O O4 0.635580 0.399207 0.000000
O O5 0.920095 0.827653 0.500000
O O6 0.000000 0.716925 0.750000
O O7 0.884117 0.000000 0.750000
#
# Coordination Sequence:
#
# PCOD9394188 Si02
#       3
#     8   2   8
#     4  11  26  44  68  99 132 172 219 270 327 389
#     4  12  24  48  70  92 130 172 226 272 330 378
#     4  10  20  38  64  97 130 170 213 262 324 386
#
# _framework density 21.279900999999999
#
# number of rings (size 3 to 8) (size 9 to 14) (size 15 to 20)
#    0.000    1.333    2.222    4.000    0.000    9.778 
#    0.000    4.444    0.000    0.000    0.000    0.000 
#    0.000    0.000    0.000    0.000    0.000    0.000 
#
# Total GULP energy -100421.107229 kJ/mol
# GULP energy per Si atom -5578.950402 kJ/mol
# Density = 2.123147 g / cm^3
# Si number density = 21.279901 Si / 1000 Ang^3
#
#
#
# Elastic Constant Matrix: (Units=GPa)
#
#
# Indices 1 2 3 4 5 6 
#
# 1 174.4325 48.9725 90.6793 0.0000 0.0000 0.0000
# 2 48.9725 125.3937 84.7579 0.0000 0.0000 0.0000
# 3 90.6793 84.7579 191.6547 0.0000 0.0000 0.0000
# 4 0.0000 0.0000 0.0000 14.8215 0.0000 0.0000
# 5 0.0000 0.0000 0.0000 0.0000 15.7628 0.0000
# 6 0.0000 0.0000 0.0000 0.0000 0.0000 -7.8313
#
#
#
# Elastic Compliance Matrix: (Units=1/GPa)
#
#
# Indices 1 2 3 4 5 6 
#
# 1 0.007655 -0.000772 -0.003280 0.000000 0.000000 0.000000
# 2 -0.000772 0.011453 -0.004700 0.000000 0.000000 0.000000
# 3 -0.003280 -0.004700 0.008848 0.000000 0.000000 0.000000
# 4 0.000000 0.000000 0.000000 0.067470 0.000000 0.000000
# 5 0.000000 0.000000 0.000000 0.000000 0.063441 0.000000
# 6 0.000000 0.000000 0.000000 0.000000 0.000000 -0.127693
#
#
# Mechanical properties :
#
#
# Convention : Reuss Voigt Hill
#
# Bulk Modulus (GPa) = 95.67852 104.47781 100.07816
# Shear Modulus (GPa) = 95.85534 22.35534 59.10534
#
# Velocity S-wave (km/s) = 6.71884 3.24472 5.27594
# Velocity P-wave (km/s) = 10.25914 7.95243 9.17854
#
# Compressibility (1/GPa) = 0.01045167
#
# Stress axis : x y z
#
# Youngs Moduli (GPa) = 130.63358 87.31188 113.01814
#
# Poissons Ratio (x) = 0.06744 0.37073
# Poissons Ratio (y) = 0.10090 0.53114
# Poissons Ratio (z) = 0.42852 0.41033
#
# Static dielectric constant tensor:
#      x y z
#    x 1.841200 0.000000 0.000000 
#    y 0.000000 1.732600 0.000000 
#    z 0.000000 0.000000 1.741730 
# 
# From -- ./inp_files/942.got.cif
#   From: 2010.05.17/outbox.cif.g08.bks.cpg/sg49_1_cif.got.tgz:942.got - 2010.06.03 21:02:19.
