data_PCOD9394379
_publ_section_title
;
Structure prediction by ZEFSAII (Michael W. Deem and Ramdas Pophale) SiO2 
 PCOD9394379
Probable space group: P C C M
;
_chemical_formula_sum "Si O2"
_cell_formula_units_Z 56
_cell_length_a 15.554325
_cell_length_b 20.518591
_cell_length_c 8.931996
_cell_angle_alpha 90.000000
_cell_angle_beta 90.000000
_cell_angle_gamma 90.000000
_cell_volume 2850.671827
_symmetry_space_group_name_H-M "P C C M"
_symmetry_group_IT_number 49
_symmetry_cell_setting 'orthorhombic'
loop_
_space_group_symop_operation_xyz
x,y,z
-x,-y,z
x,-y,1/2-z
-x,y,1/2-z
-x,-y,-z
x,y,-z
-x,y,1/2+z
x,-y,1/2+z
loop_
_atom_site_type_symbol
_atom_site_label
_atom_site_fract_x
_atom_site_fract_y
_atom_site_fract_z
Si Si1 0.670249 0.293277 0.326381
Si Si2 0.088088 0.604799 0.823724
Si Si3 0.269163 0.566292 0.679788
Si Si4 0.266528 0.067905 0.320282
Si Si5 0.910777 0.886908 0.823162
Si Si6 0.872288 0.735057 0.171308
Si Si7 0.410533 0.827217 0.177641
O O1 0.643318 0.289637 0.500000
O O2 0.676995 0.368884 0.280605
O O3 0.768793 0.267708 0.318445
O O4 0.612583 0.245653 0.229722
O O5 0.173102 0.576629 0.744839
O O6 0.093101 0.682360 0.787997
O O7 0.000000 0.580423 0.750000
O O8 0.090052 0.592386 0.000000
O O9 0.304139 0.500000 0.750000
O O10 0.264263 0.562845 0.500000
O O11 0.263100 0.063928 0.500000
O O12 0.172166 0.083085 0.256339
O O13 0.332392 0.125296 0.276998
O O14 0.296386 0.000000 0.250000
O O15 0.903174 0.808356 0.805002
O O16 0.000000 0.908771 0.750000
O O17 0.909009 0.901215 0.000000
O O18 0.894678 0.714424 0.000000
O O19 0.500000 0.848020 0.250000
O O20 0.417860 0.829563 0.000000
#
# Coordination Sequence:
#
# PCOD9394379 Si02
#       7
#     8   8   8   8   8   8   8
#     4   9  18  36  61  88 121 156 195 244 300 358
#     4  11  21  32  48  72 107 150 198 254 306 360
#     4  10  21  37  56  82 114 154 200 245 301 364
#     4  11  25  44  65  92 125 165 208 254 307 367
#     4  11  22  37  59  87 122 164 209 259 308 361
#     4   9  18  33  54  81 113 153 197 248 307 359
#     4  11  24  41  67  99 128 159 201 248 304 370
#
# _framework density 19.644493000000001
#
# number of rings (size 3 to 8) (size 9 to 14) (size 15 to 20)
#    0.000    1.714    1.429    4.286    0.000    7.714 
#    0.000    4.286    0.000    0.429    0.000    3.000 
#    0.000    0.000    0.000    0.000    0.000    0.000 
#
# Total GULP energy -313026.303327 kJ/mol
# GULP energy per Si atom -5589.755417 kJ/mol
# Density = 1.959978 g / cm^3
# Si number density = 19.644493 Si / 1000 Ang^3
#
#
#
# Elastic Constant Matrix: (Units=GPa)
#
#
# Indices 1 2 3 4 5 6 
#
# 1 81.5316 37.0324 37.9591 0.0000 0.0000 0.0000
# 2 37.0324 100.4495 49.1525 0.0000 0.0000 0.0000
# 3 37.9591 49.1525 78.3410 0.0000 0.0000 0.0000
# 4 0.0000 0.0000 0.0000 29.8415 0.0000 0.0000
# 5 0.0000 0.0000 0.0000 0.0000 29.4583 0.0000
# 6 0.0000 0.0000 0.0000 0.0000 0.0000 -2.1035
#
#
#
# Elastic Compliance Matrix: (Units=1/GPa)
#
#
# Indices 1 2 3 4 5 6 
#
# 1 0.016494 -0.003131 -0.006027 0.000000 0.000000 0.000000
# 2 -0.003131 0.014960 -0.007869 0.000000 0.000000 0.000000
# 3 -0.006027 -0.007869 0.020622 0.000000 0.000000 0.000000
# 4 0.000000 0.000000 0.000000 0.033510 0.000000 0.000000
# 5 0.000000 0.000000 0.000000 0.000000 0.033946 0.000000
# 6 0.000000 0.000000 0.000000 0.000000 0.000000 -0.475408
#
#
# Mechanical properties :
#
#
# Convention : Reuss Voigt Hill
#
# Bulk Modulus (GPa) = 55.49078 56.51224 56.00151
# Shear Modulus (GPa) = -15.83214 20.51782 2.34284
#
# Velocity S-wave (km/s) = -2.84198 3.23531 1.09326
# Velocity P-wave (km/s) = 4.18805 6.54112 5.49208
#
# Compressibility (1/GPa) = 0.01802101
#
# Stress axis : x y z
#
# Youngs Moduli (GPa) = 60.62975 66.84401 48.49157
#
# Poissons Ratio (x) = 0.20932 0.29226
# Poissons Ratio (y) = 0.18986 0.38158
# Poissons Ratio (z) = 0.36542 0.52599
#
# Static dielectric constant tensor:
#      x y z
#    x 1.673420 0.000000 0.000000 
#    y 0.000000 1.715770 0.000000 
#    z 0.000000 0.000000 1.655830 
# 
# From -- ./inp_files/4074.got.cif
#   From: 2010.05.17/outbox.cif.g08.bks.cpg/sg49_3_cif.got.tgz:4074.got - 2010.06.03 21:02:19.
