data_PCOD9394955
_publ_section_title
;
Structure prediction by ZEFSAII (Michael W. Deem and Ramdas Pophale) SiO2 
 PCOD9394955
Probable space group: P C C M
;
_chemical_formula_sum "Si O2"
_cell_formula_units_Z 52
_cell_length_a 15.919101
_cell_length_b 9.026953
_cell_length_c 18.054338
_cell_angle_alpha 90.000000
_cell_angle_beta 90.000000
_cell_angle_gamma 90.000000
_cell_volume 2594.426001
_symmetry_space_group_name_H-M "P C C M"
_symmetry_group_IT_number 49
_symmetry_cell_setting 'orthorhombic'
loop_
_space_group_symop_operation_xyz
x,y,z
-x,-y,z
x,-y,1/2-z
-x,y,1/2-z
-x,-y,-z
x,y,-z
-x,y,1/2+z
x,-y,1/2+z
loop_
_atom_site_type_symbol
_atom_site_label
_atom_site_fract_x
_atom_site_fract_y
_atom_site_fract_z
Si Si1 0.261417 0.354583 0.853176
Si Si2 0.882705 0.827380 0.917568
Si Si3 0.814206 0.153334 0.916304
Si Si4 0.132108 0.500000 0.750000
Si Si5 0.674299 0.160472 0.786032
Si Si6 0.589688 0.444502 0.835314
Si Si7 0.035994 0.339106 0.362547
O O1 0.207198 0.254181 0.907914
O O2 0.191437 0.457455 0.816749
O O3 0.293116 0.250979 0.785710
O O4 0.336280 0.464682 0.876561
O O5 0.956753 0.769255 0.865805
O O6 0.864024 0.999289 0.908472
O O7 0.914657 0.797831 0.000000
O O8 0.746832 0.153093 0.849167
O O9 0.885638 0.278059 0.908972
O O10 0.777039 0.158936 0.000000
O O11 0.077068 0.368673 0.717556
O O12 0.605094 0.268071 0.825688
O O13 0.650916 0.000000 0.750000
O O14 0.500000 0.500000 0.864177
O O15 0.594475 0.500000 0.750000
O O16 0.000000 0.500000 0.386366
#
# Coordination Sequence:
#
# PCOD9394955 Si02
#       7
#     8   8   8   4   8   8   8
#     4  11  19  38  61  84 121 157 201 250 310 371
#     4  11  25  40  57  83 120 165 210 262 315 367
#     4  11  24  42  60  85 125 165 208 263 316 370
#     4  12  21  38  57  86 118 158 205 270 310 355
#     4  11  20  37  66  93 119 157 211 248 302 375
#     4   9  19  37  62  94 131 155 186 254 313 365
#     4  12  24  37  58  81 117 160 216 263 315 365
#
# _framework density 20.042968999999999
#
# number of rings (size 3 to 8) (size 9 to 14) (size 15 to 20)
#    0.000    1.077    6.923    1.154    0.000    2.462 
#    0.000    6.154    0.000    1.846    0.000    2.154 
#    0.000    0.615    0.000    0.000    0.000    0.000 
#
# Total GULP energy -289746.621081 kJ/mol
# GULP energy per Si atom -5572.050405 kJ/mol
# Density = 1.999735 g / cm^3
# Si number density = 20.042969 Si / 1000 Ang^3
#
#
#
# Elastic Constant Matrix: (Units=GPa)
#
#
# Indices 1 2 3 4 5 6 
#
# 1 108.0607 56.8136 25.1583 0.0000 0.0000 0.0000
# 2 56.8136 115.8216 29.0173 0.0000 0.0000 0.0000
# 3 25.1583 29.0173 51.9478 0.0000 0.0000 0.0000
# 4 0.0000 0.0000 0.0000 -0.0509 0.0000 0.0000
# 5 0.0000 0.0000 0.0000 0.0000 9.6438 0.0000
# 6 0.0000 0.0000 0.0000 0.0000 0.0000 17.7389
#
#
#
# Elastic Compliance Matrix: (Units=1/GPa)
#
#
# Indices 1 2 3 4 5 6 
#
# 1 0.012900 -0.005537 -0.003154 0.000000 0.000000 0.000000
# 2 -0.005537 0.012416 -0.004254 0.000000 0.000000 0.000000
# 3 -0.003154 -0.004254 0.023154 0.000000 0.000000 0.000000
# 4 0.000000 0.000000 0.000000-19.650201 0.000000 0.000000
# 5 0.000000 0.000000 0.000000 0.000000 0.103693 0.000000
# 6 0.000000 0.000000 0.000000 0.000000 0.000000 0.056373
#
#
# Mechanical properties :
#
#
# Convention : Reuss Voigt Hill
#
# Bulk Modulus (GPa) = 44.28919 55.31206 49.80063
# Shear Modulus (GPa) = -0.25762 16.45575 8.09906
#
# Velocity S-wave (km/s) = -0.35891 2.86846 2.01237
# Velocity P-wave (km/s) = 4.68757 6.21509 5.50458
#
# Compressibility (1/GPa) = 0.02257887
#
# Stress axis : x y z
#
# Youngs Moduli (GPa) = 77.52082 80.54192 43.18975
#
# Poissons Ratio (x) = 0.44600 0.13623
# Poissons Ratio (y) = 0.42927 0.18371
# Poissons Ratio (z) = 0.24452 0.34259
#
# Static dielectric constant tensor:
#      x y z
#    x 1.733330 0.000000 0.000000 
#    y 0.000000 1.767910 0.000000 
#    z 0.000000 0.000000 1.708650 
# 
# From -- ./inp_files/20810.got.cif
#   From: 2010.05.17/outbox.cif.g08.bks.cpg/sg49_11_cif.got.tgz:20810.got - 2010.06.03 21:02:19.
