data_PCOD9394542
_publ_section_title
;
Structure prediction by ZEFSAII (Michael W. Deem and Ramdas Pophale) SiO2 
 PCOD9394542
Probable space group: P C C M
;
_chemical_formula_sum "Si O2"
_cell_formula_units_Z 32
_cell_length_a 8.123453
_cell_length_b 11.497379
_cell_length_c 13.672689
_cell_angle_alpha 90.000000
_cell_angle_beta 90.000000
_cell_angle_gamma 90.000000
_cell_volume 1277.007521
_symmetry_space_group_name_H-M "P C C M"
_symmetry_group_IT_number 49
_symmetry_cell_setting 'orthorhombic'
loop_
_space_group_symop_operation_xyz
x,y,z
-x,-y,z
x,-y,1/2-z
-x,y,1/2-z
-x,-y,-z
x,y,-z
-x,y,1/2+z
x,-y,1/2+z
loop_
_atom_site_type_symbol
_atom_site_label
_atom_site_fract_x
_atom_site_fract_y
_atom_site_fract_z
Si Si1 0.766276 0.460751 0.616933
Si Si2 0.046509 0.756856 0.616647
Si Si3 0.425659 0.321136 0.383666
Si Si4 0.261753 0.135620 0.733408
O O1 0.783097 0.476357 0.500000
O O2 0.919307 0.378765 0.644278
O O3 0.715757 0.588429 0.654065
O O4 0.598174 0.386352 0.631371
O O5 0.034232 0.763103 0.500000
O O6 0.208763 0.817727 0.660128
O O7 0.896002 0.825200 0.666151
O O8 0.406002 0.304499 0.500000
O O9 0.401815 0.201898 0.327113
O O10 0.285555 0.000000 0.750000
#
# Coordination Sequence:
#
# PCOD9394542 Si02
#       4
#     8   8   8   8
#     4   8  17  36  64  95 122 155 197 246 319 383
#     4  10  21  39  60  83 117 158 205 261 309 362
#     4   9  18  37  64  94 128 157 193 254 314 374
#     4  11  24  38  56  86 118 164 217 250 303 375
#
# _framework density 25.058584
#
# number of rings (size 3 to 8) (size 9 to 14) (size 15 to 20)
#    0.000    2.500    0.000    3.750    0.000    6.000 
#    0.000   12.500    0.000    4.500    0.000    0.000 
#    0.000    0.000    0.000    0.000    0.000    0.000 
#
# Total GULP energy -178900.535467 kJ/mol
# GULP energy per Si atom -5590.641733 kJ/mol
# Density = 2.500155 g / cm^3
# Si number density = 25.058584 Si / 1000 Ang^3
#
#
#
# Elastic Constant Matrix: (Units=GPa)
#
#
# Indices 1 2 3 4 5 6 
#
# 1 89.9253 26.0514 52.2915 0.0000 0.0000 0.0000
# 2 26.0514 218.4149 64.6062 0.0000 0.0000 0.0000
# 3 52.2915 64.6062 154.3673 0.0000 0.0000 0.0000
# 4 0.0000 0.0000 0.0000 61.5417 0.0000 0.0000
# 5 0.0000 0.0000 0.0000 0.0000 33.5217 0.0000
# 6 0.0000 0.0000 0.0000 0.0000 0.0000 30.1362
#
#
#
# Elastic Compliance Matrix: (Units=1/GPa)
#
#
# Indices 1 2 3 4 5 6 
#
# 1 0.013866 -0.000302 -0.004571 0.000000 0.000000 0.000000
# 2 -0.000302 0.005232 -0.002087 0.000000 0.000000 0.000000
# 3 -0.004571 -0.002087 0.008900 0.000000 0.000000 0.000000
# 4 0.000000 0.000000 0.000000 0.016249 0.000000 0.000000
# 5 0.000000 0.000000 0.000000 0.000000 0.029831 0.000000
# 6 0.000000 0.000000 0.000000 0.000000 0.000000 0.033183
#
#
# Mechanical properties :
#
#
# Convention : Reuss Voigt Hill
#
# Bulk Modulus (GPa) = 71.03424 83.17840 77.10632
# Shear Modulus (GPa) = 39.72257 46.35714 43.03985
#
# Velocity S-wave (km/s) = 3.98576 4.30577 4.14885
# Velocity P-wave (km/s) = 7.04205 7.61480 7.33402
#
# Compressibility (1/GPa) = 0.01407772
#
# Stress axis : x y z
#
# Youngs Moduli (GPa) = 72.12103 191.13534 112.36001
#
# Poissons Ratio (x) = 0.05769 0.51355
# Poissons Ratio (y) = 0.02177 0.23454
# Poissons Ratio (z) = 0.32964 0.39898
#
# Static dielectric constant tensor:
#      x y z
#    x 2.155240 0.000000 0.000000 
#    y 0.000000 1.970240 0.000000 
#    z 0.000000 0.000000 1.966590 
# 
# From -- ./inp_files/11166.got.cif
#   From: 2010.05.17/outbox.cif.g08.bks.cpg/sg49_6_cif.got.tgz:11166.got - 2010.06.03 21:02:19.
