data_PCOD9394701
_publ_section_title
;
Structure prediction by ZEFSAII (Michael W. Deem and Ramdas Pophale) SiO2 
 PCOD9394701
Probable space group: P C C M
;
_chemical_formula_sum "Si O2"
_cell_formula_units_Z 40
_cell_length_a 8.551903
_cell_length_b 12.152919
_cell_length_c 18.946428
_cell_angle_alpha 90.000000
_cell_angle_beta 90.000000
_cell_angle_gamma 90.000000
_cell_volume 1969.113335
_symmetry_space_group_name_H-M "P C C M"
_symmetry_group_IT_number 49
_symmetry_cell_setting 'orthorhombic'
loop_
_space_group_symop_operation_xyz
x,y,z
-x,-y,z
x,-y,1/2-z
-x,y,1/2-z
-x,-y,-z
x,y,-z
-x,y,1/2+z
x,-y,1/2+z
loop_
_atom_site_type_symbol
_atom_site_label
_atom_site_fract_x
_atom_site_fract_y
_atom_site_fract_z
Si Si1 0.507347 0.366821 0.579310
Si Si2 0.832121 0.603711 0.714754
Si Si3 0.147362 0.691804 0.920678
Si Si4 0.042543 0.122227 0.833266
Si Si5 0.357514 0.220634 0.795034
O O1 0.500000 0.500000 0.591287
O O2 0.577227 0.353923 0.500000
O O3 0.336770 0.307236 0.575933
O O4 0.591525 0.305630 0.643631
O O5 0.751729 0.500000 0.750000
O O6 0.866975 0.590034 0.632814
O O7 0.730340 0.707793 0.735221
O O8 0.000000 0.617191 0.750000
O O9 0.054019 0.789347 0.880162
O O10 0.088565 0.679795 0.000000
O O11 0.228718 0.143304 0.831505
O O12 0.000000 0.129572 0.750000
O O13 0.000000 0.000000 0.857738
O O14 0.500000 0.168846 0.750000
#
# Coordination Sequence:
#
# PCOD9394701 Si02
#       5
#     8   8   8   8   8
#     4  10  22  38  58  92 133 169 208 263 328 396
#     4  11  21  37  60  91 127 168 211 261 305 393
#     4  11  21  41  63  88 129 172 211 264 329 386
#     4  11  23  44  66  88 122 167 226 282 324 388
#     4  12  21  37  66  93 125 164 216 266 332 382
#
# _framework density 20.313711000000001
#
# number of rings (size 3 to 8) (size 9 to 14) (size 15 to 20)
#    0.000    1.000    6.000    1.200    0.000    1.200 
#    0.000    9.000    0.000    2.400    0.000    0.000 
#    0.000    0.000    0.000    0.000    0.000    0.000 
#
# Total GULP energy -222717.838576 kJ/mol
# GULP energy per Si atom -5567.945964 kJ/mol
# Density = 2.026748 g / cm^3
# Si number density = 20.313711 Si / 1000 Ang^3
#
#
#
# Elastic Constant Matrix: (Units=GPa)
#
#
# Indices 1 2 3 4 5 6 
#
# 1 99.3590 36.8814 28.5586 0.0000 0.0000 0.0000
# 2 36.8814 82.9521 32.0232 0.0000 0.0000 0.0000
# 3 28.5586 32.0232 172.7148 0.0000 0.0000 0.0000
# 4 0.0000 0.0000 0.0000 1.6176 0.0000 0.0000
# 5 0.0000 0.0000 0.0000 0.0000 21.4634 0.0000
# 6 0.0000 0.0000 0.0000 0.0000 0.0000 14.3092
#
#
#
# Elastic Compliance Matrix: (Units=1/GPa)
#
#
# Indices 1 2 3 4 5 6 
#
# 1 0.012243 -0.005021 -0.001093 0.000000 0.000000 0.000000
# 2 -0.005021 0.015044 -0.001959 0.000000 0.000000 0.000000
# 3 -0.001093 -0.001959 0.006334 0.000000 0.000000 0.000000
# 4 0.000000 0.000000 0.000000 0.618192 0.000000 0.000000
# 5 0.000000 0.000000 0.000000 0.000000 0.046591 0.000000
# 6 0.000000 0.000000 0.000000 0.000000 0.000000 0.069885
#
#
# Mechanical properties :
#
#
# Convention : Reuss Voigt Hill
#
# Bulk Modulus (GPa) = 57.23002 61.10578 59.16790
# Shear Modulus (GPa) = 6.32703 24.64888 15.48796
#
# Velocity S-wave (km/s) = 1.76675 3.48718 2.76422
# Velocity P-wave (km/s) = 5.69176 6.80884 6.27521
#
# Compressibility (1/GPa) = 0.01747335
#
# Stress axis : x y z
#
# Youngs Moduli (GPa) = 81.68222 66.47228 157.88041
#
# Poissons Ratio (x) = 0.33376 0.17262
# Poissons Ratio (y) = 0.41013 0.30930
# Poissons Ratio (z) = 0.08931 0.13022
#
# Static dielectric constant tensor:
#      x y z
#    x 1.829910 0.000000 0.000000 
#    y 0.000000 1.800870 0.000000 
#    z 0.000000 0.000000 1.776030 
# 
# From -- ./inp_files/15950.got.cif
#   From: 2010.05.17/outbox.cif.g08.bks.cpg/sg49_8_cif.got.tgz:15950.got - 2010.06.03 21:02:19.
