data_PCOD9394085
_publ_section_title
;
Structure prediction by ZEFSAII (Michael W. Deem and Ramdas Pophale) SiO2 
 PCOD9394085
Probable space group: P C C M
;
_chemical_formula_sum "Si O2"
_cell_formula_units_Z 58
_cell_length_a 19.650908
_cell_length_b 19.674227
_cell_length_c 8.386800
_cell_angle_alpha 90.000000
_cell_angle_beta 90.000000
_cell_angle_gamma 90.000000
_cell_volume 3242.474631
_symmetry_space_group_name_H-M "P C C M"
_symmetry_group_IT_number 49
_symmetry_cell_setting 'orthorhombic'
loop_
_space_group_symop_operation_xyz
x,y,z
-x,-y,z
x,-y,1/2-z
-x,y,1/2-z
-x,-y,-z
x,y,-z
-x,y,1/2+z
x,-y,1/2+z
loop_
_atom_site_type_symbol
_atom_site_label
_atom_site_fract_x
_atom_site_fract_y
_atom_site_fract_z
Si Si1 0.104408 0.895943 0.312885
Si Si2 0.254056 0.927312 0.812157
Si Si3 0.576880 0.682057 0.191302
Si Si4 0.318192 0.205060 0.191497
Si Si5 0.000000 0.000000 0.750000
Si Si6 0.311888 0.423287 0.310440
Si Si7 0.072762 0.746638 0.812304
Si Si8 0.795283 0.682183 0.189748
O O1 0.088975 0.911453 0.500000
O O2 0.182941 0.911114 0.276922
O O3 0.089254 0.817485 0.277238
O O4 0.056826 0.943275 0.201580
O O5 0.305691 0.866555 0.773611
O O6 0.278772 0.000000 0.750000
O O7 0.240539 0.930229 0.000000
O O8 0.500000 0.679424 0.250000
O O9 0.615353 0.751903 0.238870
O O10 0.622579 0.620499 0.257115
O O11 0.579109 0.678455 0.000000
O O12 0.254350 0.254312 0.230057
O O13 0.318881 0.195787 0.000000
O O14 0.316441 0.500000 0.250000
O O15 0.307474 0.422289 0.500000
O O16 0.246361 0.384375 0.239565
O O17 0.133425 0.694820 0.774600
O O18 0.000000 0.722017 0.750000
O O19 0.069692 0.760442 0.000000
O O20 0.805224 0.682482 0.000000
#
# Coordination Sequence:
#
# PCOD9394085 Si02
#       8
#     8   8   8   8   2   8   8   8
#     4  12  24  37  52  72 103 141 187 238 290 350
#     4  12  24  36  54  77 106 142 189 239 293 348
#     4  10  21  38  61  91 125 159 194 232 281 336
#     4   9  19  36  58  81 112 148 189 236 287 341
#     4  12  26  36  56  70 106 148 194 228 302 368
#     4  11  22  38  61  91 126 161 198 234 278 335
#     4  12  24  37  55  79 108 145 191 241 294 346
#     4  10  20  37  60  84 114 150 192 242 291 342
#
# _framework density 17.887571999999999
#
# number of rings (size 3 to 8) (size 9 to 14) (size 15 to 20)
#    0.000    1.103    2.759    6.000    0.000    4.138 
#    0.000    1.379    0.000    0.828    0.000    5.793 
#    0.000    0.000    0.000    0.000    0.000    0.000 
#
# Total GULP energy -323870.670717 kJ/mol
# GULP energy per Si atom -5583.977081 kJ/mol
# Density = 1.784686 g / cm^3
# Si number density = 17.887572 Si / 1000 Ang^3
#
#
#
# Elastic Constant Matrix: (Units=GPa)
#
#
# Indices 1 2 3 4 5 6 
#
# 1 104.7912 61.0144 23.7065 0.0000 0.0000 0.0000
# 2 61.0144 113.0833 26.4014 0.0000 0.0000 0.0000
# 3 23.7065 26.4014 80.4535 0.0000 0.0000 0.0000
# 4 0.0000 0.0000 0.0000 22.5359 0.0000 0.0000
# 5 0.0000 0.0000 0.0000 0.0000 30.6653 0.0000
# 6 0.0000 0.0000 0.0000 0.0000 0.0000 15.9133
#
#
#
# Elastic Compliance Matrix: (Units=1/GPa)
#
#
# Indices 1 2 3 4 5 6 
#
# 1 0.014151 -0.007215 -0.001802 0.000000 0.000000 0.000000
# 2 -0.007215 0.013255 -0.002224 0.000000 0.000000 0.000000
# 3 -0.001802 -0.002224 0.013690 0.000000 0.000000 0.000000
# 4 0.000000 0.000000 0.000000 0.044374 0.000000 0.000000
# 5 0.000000 0.000000 0.000000 0.000000 0.032610 0.000000
# 6 0.000000 0.000000 0.000000 0.000000 0.000000 0.062841
#
#
# Mechanical properties :
#
#
# Convention : Reuss Voigt Hill
#
# Bulk Modulus (GPa) = 53.71991 57.84140 55.78065
# Shear Modulus (GPa) = 23.85417 26.30328 25.07873
#
# Velocity S-wave (km/s) = 3.65576 3.83884 3.74842
# Velocity P-wave (km/s) = 6.92218 7.21493 7.07007
#
# Compressibility (1/GPa) = 0.01861507
#
# Stress axis : x y z
#
# Youngs Moduli (GPa) = 70.66565 75.44413 73.04400
#
# Poissons Ratio (x) = 0.54429 0.13165
# Poissons Ratio (y) = 0.50982 0.16244
# Poissons Ratio (z) = 0.12736 0.16778
#
# Static dielectric constant tensor:
#      x y z
#    x 1.604080 0.000000 0.000000 
#    y 0.000000 1.599940 0.000000 
#    z 0.000000 0.000000 1.641490 
# 
# From -- ./inp_files/5118.got.cif
#   From: 2010.05.17/outbox.cif.g08.bks.cpg/sg49_3_cif.got.tgz:5118.got - 2010.06.03 21:02:19.
