data_PCOD9394660
_publ_section_title
;
Structure prediction by ZEFSAII (Michael W. Deem and Ramdas Pophale) SiO2 
 PCOD9394660
Probable space group: P C C M
;
_chemical_formula_sum "Si O2"
_cell_formula_units_Z 22
_cell_length_a 5.574156
_cell_length_b 5.220897
_cell_length_c 31.734157
_cell_angle_alpha 90.000000
_cell_angle_beta 90.000000
_cell_angle_gamma 90.000000
_cell_volume 923.530431
_symmetry_space_group_name_H-M "P C C M"
_symmetry_group_IT_number 49
_symmetry_cell_setting 'orthorhombic'
loop_
_space_group_symop_operation_xyz
x,y,z
-x,-y,z
x,-y,1/2-z
-x,y,1/2-z
-x,-y,-z
x,y,-z
-x,y,1/2+z
x,-y,1/2+z
loop_
_atom_site_type_symbol
_atom_site_label
_atom_site_fract_x
_atom_site_fract_y
_atom_site_fract_z
Si Si1 0.500000 0.500000 0.750000
Si Si2 0.256466 0.154964 0.500000
Si Si3 0.168549 0.249591 0.317214
Si Si4 0.837401 0.254331 0.091903
O O1 0.651137 0.688097 0.720041
O O2 0.271359 0.290956 0.454542
O O3 0.500000 0.000000 0.500000
O O4 0.000000 0.000000 0.500000
O O5 0.297846 0.231827 0.363340
O O6 0.000000 0.500000 0.317277
O O7 0.000000 0.000000 0.311699
O O8 0.000000 0.500000 0.096910
O O9 0.000000 0.000000 0.089971
#
# Coordination Sequence:
#
# PCOD9394660 Si02
#       4
#     2   4   8   8
#     4  12  26  46  76 106 136 198 254 298 392 430
#     4  10  21  42  70 104 142 188 234 290 360 441
#     4  10  24  46  70 101 143 181 239 303 359 437
#     4   9  19  42  68  98 137 182 229 288 359 428
#
# _framework density 23.821631
#
# number of rings (size 3 to 8) (size 9 to 14) (size 15 to 20)
#    0.000    2.182    0.000    1.091    0.000    5.818 
#   32.727    7.273    0.000    0.000    0.000    0.000 
#    0.000    0.000    0.000    0.000    0.000    0.000 
#
# Total GULP energy -122735.572055 kJ/mol
# GULP energy per Si atom -5578.889639 kJ/mol
# Density = 2.376741 g / cm^3
# Si number density = 23.821631 Si / 1000 Ang^3
#
#
#
# Elastic Constant Matrix: (Units=GPa)
#
#
# Indices 1 2 3 4 5 6 
#
# 1 80.4519 37.9530 78.5876 0.0000 0.0000 0.0000
# 2 37.9530 165.2348 45.2052 0.0000 0.0000 0.0000
# 3 78.5876 45.2052 325.9822 0.0000 0.0000 0.0000
# 4 0.0000 0.0000 0.0000 34.1772 0.0000 0.0000
# 5 0.0000 0.0000 0.0000 0.0000 -133.5278 0.0000
# 6 0.0000 0.0000 0.0000 0.0000 0.0000 33.8319
#
#
#
# Elastic Compliance Matrix: (Units=1/GPa)
#
#
# Indices 1 2 3 4 5 6 
#
# 1 0.017574 -0.002991 -0.003822 0.000000 0.000000 0.000000
# 2 -0.002991 0.006800 -0.000222 0.000000 0.000000 0.000000
# 3 -0.003822 -0.000222 0.004020 0.000000 0.000000 0.000000
# 4 0.000000 0.000000 0.000000 0.029259 0.000000 0.000000
# 5 0.000000 0.000000 0.000000 0.000000 -0.007489 0.000000
# 6 0.000000 0.000000 0.000000 0.000000 0.000000 0.029558
#
#
# Mechanical properties :
#
#
# Convention : Reuss Voigt Hill
#
# Bulk Modulus (GPa) = 69.81302 99.46229 84.63765
# Shear Modulus (GPa) = 50.72728 14.22448 32.47588
#
# Velocity S-wave (km/s) = 4.61962 2.44626 3.69629
# Velocity P-wave (km/s) = 7.60425 7.05851 7.33646
#
# Compressibility (1/GPa) = 0.01432398
#
# Stress axis : x y z
#
# Youngs Moduli (GPa) = 56.90141 147.06522 248.76684
#
# Poissons Ratio (x) = 0.43988 0.95079
# Poissons Ratio (y) = 0.17019 0.05519
# Poissons Ratio (z) = 0.21748 0.03263
#
# Static dielectric constant tensor:
#      x y z
#    x 1.625120 0.000000 0.000000 
#    y 0.000000 2.004950 0.000000 
#    z 0.000000 0.000000 2.345700 
# 
# From -- ./inp_files/25326.got.cif
#   From: 2010.05.17/outbox.cif.g08.bks.cpg/sg49_13_cif.got.tgz:25326.got - 2010.06.03 21:02:19.
