data_PCOD9394130
_publ_section_title
;
Structure prediction by ZEFSAII (Michael W. Deem and Ramdas Pophale) SiO2 
 PCOD9394130
Probable space group: P C C M
;
_chemical_formula_sum "Si O2"
_cell_formula_units_Z 64
_cell_length_a 8.731293
_cell_length_b 22.805014
_cell_length_c 16.302970
_cell_angle_alpha 90.000000
_cell_angle_beta 90.000000
_cell_angle_gamma 90.000000
_cell_volume 3246.202702
_symmetry_space_group_name_H-M "P C C M"
_symmetry_group_IT_number 49
_symmetry_cell_setting 'orthorhombic'
loop_
_space_group_symop_operation_xyz
x,y,z
-x,-y,z
x,-y,1/2-z
-x,y,1/2-z
-x,-y,-z
x,y,-z
-x,y,1/2+z
x,-y,1/2+z
loop_
_atom_site_type_symbol
_atom_site_label
_atom_site_fract_x
_atom_site_fract_y
_atom_site_fract_z
Si Si1 0.812665 0.366381 0.405778
Si Si2 0.830924 0.998369 0.846486
Si Si3 0.698473 0.226870 0.100019
Si Si4 0.342282 0.246892 0.901083
Si Si5 0.681758 0.568343 0.240014
Si Si6 0.396203 0.892852 0.163628
Si Si7 0.111416 0.334982 0.327545
Si Si8 0.709207 0.123085 0.592249
O O1 0.771816 0.372930 0.500000
O O2 0.740921 0.305064 0.373943
O O3 0.737939 0.415458 0.350563
O O4 0.993967 0.361755 0.393640
O O5 0.770030 0.934134 0.865277
O O6 0.850674 0.000000 0.750000
O O7 0.706494 0.050322 0.858286
O O8 0.000000 0.000000 0.886398
O O9 0.522776 0.247401 0.115858
O O10 0.707228 0.165428 0.150631
O O11 0.807914 0.277284 0.135983
O O12 0.718941 0.219760 0.000000
O O13 0.266906 0.186910 0.868188
O O14 0.327711 0.243272 0.000000
O O15 0.719744 0.500000 0.250000
O O16 0.500000 0.576079 0.250000
O O17 0.770399 0.614568 0.298510
O O18 0.500000 0.896123 0.250000
O O19 0.526282 0.884541 0.095001
O O20 0.000000 0.321845 0.250000
O O21 0.768675 0.123514 0.500000
#
# Coordination Sequence:
#
# PCOD9394130 Si02
#       8
#     8   8   8   8   8   8   8   8
#     4  10  20  37  62  92 127 163 201 243 300 361
#     4  11  24  41  55  79 114 152 190 238 295 361
#     4  10  21  39  61  89 121 155 202 250 293 352
#     4   8  17  34  58  87 114 146 189 243 292 343
#     4  10  22  42  64  88 122 163 209 254 297 348
#     4  11  22  38  62  84 112 150 197 246 303 352
#     4  10  22  37  58  90 126 162 198 241 304 359
#     4  10  21  38  63  87 110 145 194 243 293 350
#
# _framework density 19.715344000000002
#
# number of rings (size 3 to 8) (size 9 to 14) (size 15 to 20)
#    0.000    2.000    1.250    2.625    0.000    9.500 
#    2.250    5.000    0.000    0.000    0.000    0.000 
#    0.000    0.000    0.000    0.000    0.000    0.000 
#
# Total GULP energy -356520.960898 kJ/mol
# GULP energy per Si atom -5570.640014 kJ/mol
# Density = 1.967047 g / cm^3
# Si number density = 19.715344 Si / 1000 Ang^3
#
#
#
# Elastic Constant Matrix: (Units=GPa)
#
#
# Indices 1 2 3 4 5 6 
#
# 1 71.0556 71.2049 20.9186 0.0000 0.0000 0.0000
# 2 71.2049 164.3021 53.0880 0.0000 0.0000 0.0000
# 3 20.9186 53.0880 58.1137 0.0000 0.0000 0.0000
# 4 0.0000 0.0000 0.0000 25.6874 0.0000 0.0000
# 5 0.0000 0.0000 0.0000 0.0000 34.3929 0.0000
# 6 0.0000 0.0000 0.0000 0.0000 0.0000 -30.3066
#
#
#
# Elastic Compliance Matrix: (Units=1/GPa)
#
#
# Indices 1 2 3 4 5 6 
#
# 1 0.024944 -0.011221 0.001272 0.000000 0.000000 0.000000
# 2 -0.011221 0.013683 -0.008461 0.000000 0.000000 0.000000
# 3 0.001272 -0.008461 0.024479 0.000000 0.000000 0.000000
# 4 0.000000 0.000000 0.000000 0.038930 0.000000 0.000000
# 5 0.000000 0.000000 0.000000 0.000000 0.029076 0.000000
# 6 0.000000 0.000000 0.000000 0.000000 0.000000 -0.032996
#
#
# Mechanical properties :
#
#
# Convention : Reuss Voigt Hill
#
# Bulk Modulus (GPa) = 38.04307 64.87716 51.46011
# Shear Modulus (GPa) = 34.79571 15.83873 25.31722
#
# Velocity S-wave (km/s) = 4.20563 2.83745 3.58737
# Velocity P-wave (km/s) = 6.55143 6.61160 6.58158
#
# Compressibility (1/GPa) = 0.02628600
#
# Stress axis : x y z
#
# Youngs Moduli (GPa) = 40.09046 73.08346 40.85174
#
# Poissons Ratio (x) = 0.82007 -0.05196
# Poissons Ratio (y) = 0.44985 0.34563
# Poissons Ratio (z) = -0.05099 0.61833
#
# Static dielectric constant tensor:
#      x y z
#    x 1.722010 0.000000 0.000000 
#    y 0.000000 1.786000 0.000000 
#    z 0.000000 0.000000 1.717560 
# 
# From -- ./inp_files/16566.got.cif
#   From: 2010.05.17/outbox.cif.g08.bks.cpg/sg49_9_cif.got.tgz:16566.got - 2010.06.03 21:02:19.
