data_PCOD9394492
_publ_section_title
;
Structure prediction by ZEFSAII (Michael W. Deem and Ramdas Pophale) SiO2 
 PCOD9394492
Probable space group: P C C M
;
_chemical_formula_sum "Si O2"
_cell_formula_units_Z 64
_cell_length_a 12.139144
_cell_length_b 16.030225
_cell_length_c 15.658958
_cell_angle_alpha 90.000000
_cell_angle_beta 90.000000
_cell_angle_gamma 90.000000
_cell_volume 3047.126897
_symmetry_space_group_name_H-M "P C C M"
_symmetry_group_IT_number 49
_symmetry_cell_setting 'orthorhombic'
loop_
_space_group_symop_operation_xyz
x,y,z
-x,-y,z
x,-y,1/2-z
-x,y,1/2-z
-x,-y,-z
x,y,-z
-x,y,1/2+z
x,-y,1/2+z
loop_
_atom_site_type_symbol
_atom_site_label
_atom_site_fract_x
_atom_site_fract_y
_atom_site_fract_z
Si Si1 0.389781 0.787539 0.595257
Si Si2 0.265155 0.137543 0.402399
Si Si3 0.406634 0.693033 0.100029
Si Si4 0.833777 0.287568 0.643403
Si Si5 0.962978 0.596355 0.405996
Si Si6 0.293564 0.953325 0.601970
Si Si7 0.247199 0.406980 0.286318
Si Si8 0.878639 0.117932 0.733255
O O1 0.435608 0.799559 0.500000
O O2 0.473945 0.721656 0.634696
O O3 0.266306 0.751843 0.589909
O O4 0.377321 0.880644 0.631677
O O5 0.218285 0.137339 0.500000
O O6 0.334906 0.221763 0.393859
O O7 0.181091 0.133150 0.323790
O O8 0.330109 0.049409 0.394057
O O9 0.346940 0.621869 0.153938
O O10 0.412396 0.667774 0.000000
O O11 0.766674 0.344410 0.708674
O O12 0.887721 0.208396 0.688903
O O13 0.930865 0.344573 0.605785
O O14 0.915824 0.613052 0.500000
O O15 0.867174 0.605593 0.337696
O O16 0.000000 0.500000 0.401680
O O17 0.268417 0.937728 0.500000
O O18 0.190877 0.938440 0.666281
O O19 0.256174 0.500000 0.250000
O O20 0.000000 0.086646 0.750000
#
# Coordination Sequence:
#
# PCOD9394492 Si02
#       8
#     8   8   8   8   8   8   8   8
#     4   9  20  41  65  89 123 165 210 261 316 382
#     4  10  21  38  60  91 129 168 218 271 323 381
#     4  10  22  42  66  92 126 169 215 266 321 381
#     4  11  22  39  62  91 122 161 208 260 323 382
#     4  11  23  39  64  93 121 158 206 260 316 379
#     4   9  20  38  61  91 126 168 217 271 324 381
#     4  12  23  40  63  91 128 161 204 259 320 384
#     4  11  22  38  59  88 127 174 218 261 323 394
#
# _framework density 21.003392000000002
#
# number of rings (size 3 to 8) (size 9 to 14) (size 15 to 20)
#    0.000    1.625    2.500    2.250    0.000    3.000 
#    0.000    5.000    0.000    3.000    0.000    0.000 
#    0.000    0.000    0.000    0.000    0.000    0.000 
#
# Total GULP energy -357014.350791 kJ/mol
# GULP energy per Si atom -5578.349231 kJ/mol
# Density = 2.095559 g / cm^3
# Si number density = 21.003392 Si / 1000 Ang^3
#
#
#
# Elastic Constant Matrix: (Units=GPa)
#
#
# Indices 1 2 3 4 5 6 
#
# 1 80.1214 10.6754 24.7043 0.0000 0.0000 0.0000
# 2 10.6754 90.3222 22.3918 0.0000 0.0000 0.0000
# 3 24.7043 22.3918 81.2851 0.0000 0.0000 0.0000
# 4 0.0000 0.0000 0.0000 -3.4410 0.0000 0.0000
# 5 0.0000 0.0000 0.0000 0.0000 52.0347 0.0000
# 6 0.0000 0.0000 0.0000 0.0000 0.0000 11.2510
#
#
#
# Elastic Compliance Matrix: (Units=1/GPa)
#
#
# Indices 1 2 3 4 5 6 
#
# 1 0.013805 -0.000635 -0.004021 0.000000 0.000000 0.000000
# 2 -0.000635 0.011912 -0.003089 0.000000 0.000000 0.000000
# 3 -0.004021 -0.003089 0.014375 0.000000 0.000000 0.000000
# 4 0.000000 0.000000 0.000000 -0.290613 0.000000 0.000000
# 5 0.000000 0.000000 0.000000 0.000000 0.019218 0.000000
# 6 0.000000 0.000000 0.000000 0.000000 0.000000 0.088881
#
#
# Mechanical properties :
#
#
# Convention : Reuss Voigt Hill
#
# Bulk Modulus (GPa) = 40.64336 40.80797 40.72567
# Shear Modulus (GPa) = -42.11184 24.89940 -8.60622
#
# Velocity S-wave (km/s) = -4.48258 3.44684 -2.02643
# Velocity P-wave (km/s) = 2.72002 5.94242 3.73589
#
# Compressibility (1/GPa) = 0.02460426
#
# Stress axis : x y z
#
# Youngs Moduli (GPa) = 72.43518 83.94761 69.56414
#
# Poissons Ratio (x) = 0.05330 0.27971
# Poissons Ratio (y) = 0.04599 0.21485
# Poissons Ratio (z) = 0.29125 0.25927
#
# Static dielectric constant tensor:
#      x y z
#    x 1.761440 0.000000 0.000000 
#    y 0.000000 1.736470 0.000000 
#    z 0.000000 0.000000 1.776350 
# 
# From -- ./inp_files/13086.got.cif
#   From: 2010.05.17/outbox.cif.g08.bks.cpg/sg49_7_cif.got.tgz:13086.got - 2010.06.03 21:02:19.
