data_PCOD9394181
_publ_section_title
;
Structure prediction by ZEFSAII (Michael W. Deem and Ramdas Pophale) SiO2 
 PCOD9394181
Probable space group: P C C M
;
_chemical_formula_sum "Si O2"
_cell_formula_units_Z 48
_cell_length_a 12.555650
_cell_length_b 10.588984
_cell_length_c 17.908108
_cell_angle_alpha 90.000000
_cell_angle_beta 90.000000
_cell_angle_gamma 90.000000
_cell_volume 2380.911199
_symmetry_space_group_name_H-M "P C C M"
_symmetry_group_IT_number 49
_symmetry_cell_setting 'orthorhombic'
loop_
_space_group_symop_operation_xyz
x,y,z
-x,-y,z
x,-y,1/2-z
-x,y,1/2-z
-x,-y,-z
x,y,-z
-x,y,1/2+z
x,-y,1/2+z
loop_
_atom_site_type_symbol
_atom_site_label
_atom_site_fract_x
_atom_site_fract_y
_atom_site_fract_z
Si Si1 0.446772 0.875808 0.831325
Si Si2 0.042491 0.787692 0.915394
Si Si3 0.199195 0.116019 0.301012
Si Si4 0.181745 0.532757 0.914263
Si Si5 0.573739 0.614330 0.588714
Si Si6 0.103382 0.321770 0.800600
O O1 0.500000 0.861691 0.750000
O O2 0.321727 0.899515 0.821283
O O3 0.458652 0.745984 0.875070
O O4 0.500000 0.000000 0.866906
O O5 0.127157 0.875776 0.874325
O O6 0.098520 0.648576 0.914906
O O7 0.940457 0.774816 0.863082
O O8 0.019998 0.822807 0.000000
O O9 0.181582 0.245720 0.254183
O O10 0.164034 0.000000 0.250000
O O11 0.301013 0.584138 0.900345
O O12 0.151019 0.436507 0.848377
O O13 0.178989 0.478739 0.000000
O O14 0.500000 0.500000 0.616966
O O15 0.557768 0.624144 0.500000
O O16 0.000000 0.355092 0.750000
#
# Coordination Sequence:
#
# PCOD9394181 Si02
#       6
#     8   8   8   8   8   8
#     4  11  23  42  66  91 122 166 217 257 310 389
#     4  10  21  40  64  88 122 168 212 250 308 377
#     4  11  23  42  62  88 126 163 207 267 314 360
#     4  10  20  38  63  90 128 166 204 254 313 377
#     4  10  23  42  64  96 132 163 205 268 329 377
#     4  10  23  37  59  94 129 167 210 255 311 375
#
# _framework density 20.160349
#
# number of rings (size 3 to 8) (size 9 to 14) (size 15 to 20)
#    0.000    1.667    3.333    1.000    2.333    9.667 
#    0.000    2.500    0.000    0.000    0.000    0.000 
#    0.000    0.000    0.000    0.000    0.000    0.000 
#
# Total GULP energy -268253.774069 kJ/mol
# GULP energy per Si atom -5588.620293 kJ/mol
# Density = 2.011446 g / cm^3
# Si number density = 20.160349 Si / 1000 Ang^3
#
#
#
# Elastic Constant Matrix: (Units=GPa)
#
#
# Indices 1 2 3 4 5 6 
#
# 1 64.7740 25.6317 22.5560 0.0000 0.0000 0.0000
# 2 25.6317 111.7127 46.9630 0.0000 0.0000 0.0000
# 3 22.5560 46.9630 108.5395 0.0000 0.0000 0.0000
# 4 0.0000 0.0000 0.0000 27.0911 0.0000 0.0000
# 5 0.0000 0.0000 0.0000 0.0000 23.2606 0.0000
# 6 0.0000 0.0000 0.0000 0.0000 0.0000 32.3953
#
#
#
# Elastic Compliance Matrix: (Units=1/GPa)
#
#
# Indices 1 2 3 4 5 6 
#
# 1 0.017443 -0.003029 -0.002314 0.000000 0.000000 0.000000
# 2 -0.003029 0.011468 -0.004332 0.000000 0.000000 0.000000
# 3 -0.002314 -0.004332 0.011569 0.000000 0.000000 0.000000
# 4 0.000000 0.000000 0.000000 0.036913 0.000000 0.000000
# 5 0.000000 0.000000 0.000000 0.000000 0.042991 0.000000
# 6 0.000000 0.000000 0.000000 0.000000 0.000000 0.030869
#
#
# Mechanical properties :
#
#
# Convention : Reuss Voigt Hill
#
# Bulk Modulus (GPa) = 47.33112 52.81417 50.07264
# Shear Modulus (GPa) = 28.14583 29.20775 28.67679
#
# Velocity S-wave (km/s) = 3.74049 3.81040 3.77561
# Velocity P-wave (km/s) = 6.49487 6.75373 6.62556
#
# Compressibility (1/GPa) = 0.02112775
#
# Stress axis : x y z
#
# Youngs Moduli (GPa) = 57.33004 87.19999 86.44012
#
# Poissons Ratio (x) = 0.26416 0.20003
# Poissons Ratio (y) = 0.17367 0.37449
# Poissons Ratio (z) = 0.13267 0.37779
#
# Static dielectric constant tensor:
#      x y z
#    x 1.696150 0.000000 0.000000 
#    y 0.000000 1.738750 0.000000 
#    z 0.000000 0.000000 1.736990 
# 
# From -- ./inp_files/17073.got.cif
#   From: 2010.05.17/outbox.cif.g08.bks.cpg/sg49_9_cif.got.tgz:17073.got - 2010.06.03 21:02:19.
