data_PCOD9394522
_publ_section_title
;
Structure prediction by ZEFSAII (Michael W. Deem and Ramdas Pophale) SiO2 
 PCOD9394522
Probable space group: P C C M
;
_chemical_formula_sum "Si O2"
_cell_formula_units_Z 64
_cell_length_a 15.721024
_cell_length_b 7.482371
_cell_length_c 25.205746
_cell_angle_alpha 90.000000
_cell_angle_beta 90.000000
_cell_angle_gamma 90.000000
_cell_volume 2964.965364
_symmetry_space_group_name_H-M "P C C M"
_symmetry_group_IT_number 49
_symmetry_cell_setting 'orthorhombic'
loop_
_space_group_symop_operation_xyz
x,y,z
-x,-y,z
x,-y,1/2-z
-x,y,1/2-z
-x,-y,-z
x,y,-z
-x,y,1/2+z
x,-y,1/2+z
loop_
_atom_site_type_symbol
_atom_site_label
_atom_site_fract_x
_atom_site_fract_y
_atom_site_fract_z
Si Si1 0.199316 0.665083 0.058307
Si Si2 0.255138 0.294014 0.744414
Si Si3 0.308330 0.164799 0.854519
Si Si4 0.164482 0.755169 0.441012
Si Si5 0.345712 0.775441 0.138988
Si Si6 0.018567 0.716958 0.896314
Si Si7 0.926947 0.811242 0.718338
Si Si8 0.487582 0.218950 0.812108
O O1 0.175345 0.457821 0.055131
O O2 0.273873 0.686027 0.102222
O O3 0.107291 0.747984 0.072511
O O4 0.228929 0.725280 0.000000
O O5 0.280336 0.500000 0.750000
O O6 0.258097 0.183696 0.798684
O O7 0.314009 0.211852 0.699736
O O8 0.161232 0.288939 0.720615
O O9 0.236141 0.202267 0.897823
O O10 0.394932 0.265894 0.836006
O O11 0.346024 0.981046 0.877027
O O12 0.179047 0.831393 0.500000
O O13 0.067860 0.790418 0.422337
O O14 0.440645 0.705702 0.147889
O O15 0.038341 0.811940 0.840800
O O16 0.000000 0.500000 0.889621
O O17 0.000000 0.710926 0.750000
O O18 0.915363 0.000000 0.750000
O O19 0.500000 0.274228 0.750000
O O20 0.500000 0.000000 0.811154
#
# Coordination Sequence:
#
# PCOD9394522 Si02
#       8
#     8   8   8   8   8   8   8   8
#     4  10  21  40  64  89 119 160 210 258 306 362
#     4  12  24  36  57  89 125 163 199 244 310 376
#     4  11  22  38  64  89 122 159 205 252 307 366
#     4  10  22  42  64  88 120 160 207 258 309 360
#     4  11  21  39  63  89 124 156 203 256 303 363
#     4  10  21  38  64  88 119 163 212 254 298 365
#     4  11  24  37  55  84 124 163 204 247 303 355
#     4   9  18  36  61  89 120 161 201 241 301 370
#
# _framework density 21.585412999999999
#
# number of rings (size 3 to 8) (size 9 to 14) (size 15 to 20)
#    0.000    1.500    2.500    3.000    3.500    3.000 
#    0.000    3.750    0.000    5.250    0.000    0.000 
#    0.000    0.000    0.000    0.000    0.000    0.000 
#
# Total GULP energy -356657.724879 kJ/mol
# GULP energy per Si atom -5572.776951 kJ/mol
# Density = 2.153628 g / cm^3
# Si number density = 21.585413 Si / 1000 Ang^3
#
#
#
# Elastic Constant Matrix: (Units=GPa)
#
#
# Indices 1 2 3 4 5 6 
#
# 1 170.3092 -9.0712 71.1883 0.0000 0.0000 0.0000
# 2 -9.0712 24.5802 -10.3445 0.0000 0.0000 0.0000
# 3 71.1883 -10.3445 150.1500 0.0000 0.0000 0.0000
# 4 0.0000 0.0000 0.0000 15.6996 0.0000 0.0000
# 5 0.0000 0.0000 0.0000 0.0000 -6.0727 0.0000
# 6 0.0000 0.0000 0.0000 0.0000 0.0000 39.9702
#
#
#
# Elastic Compliance Matrix: (Units=1/GPa)
#
#
# Indices 1 2 3 4 5 6 
#
# 1 0.007362 0.001285 -0.003402 0.000000 0.000000 0.000000
# 2 0.001285 0.042122 0.002293 0.000000 0.000000 0.000000
# 3 -0.003402 0.002293 0.008431 0.000000 0.000000 0.000000
# 4 0.000000 0.000000 0.000000 0.063696 0.000000 0.000000
# 5 0.000000 0.000000 0.000000 0.000000 -0.164672 0.000000
# 6 0.000000 0.000000 0.000000 0.000000 0.000000 0.025019
#
#
# Mechanical properties :
#
#
# Convention : Reuss Voigt Hill
#
# Bulk Modulus (GPa) = 17.16233 49.84272 33.50252
# Shear Modulus (GPa) = 4863.12894 29.47054 2446.29974
#
# Velocity S-wave (km/s) = 47.51696 3.69900 33.70121
# Velocity P-wave (km/s) = 54.94042 6.43308 39.11415
#
# Compressibility (1/GPa) = 0.05826715
#
# Stress axis : x y z
#
# Youngs Moduli (GPa) = 135.83035 23.74042 118.61170
#
# Poissons Ratio (x) = -0.03051 0.40351
# Poissons Ratio (y) = -0.17458 -0.27193
# Poissons Ratio (z) = 0.46209 -0.05443
#
# Static dielectric constant tensor:
#      x y z
#    x 1.826330 0.000000 0.000000 
#    y 0.000000 2.067580 0.000000 
#    z 0.000000 0.000000 1.816020 
# 
# From -- ./inp_files/23210.got.cif
#   From: 2010.05.17/outbox.cif.g08.bks.cpg/sg49_12_cif.got.tgz:23210.got - 2010.06.03 21:02:19.
