data_PCOD9394020
_publ_section_title
;
Structure prediction by ZEFSAII (Michael W. Deem and Ramdas Pophale) SiO2 
 PCOD9394020
Probable space group: P C C M
;
_chemical_formula_sum "Si O2"
_cell_formula_units_Z 58
_cell_length_a 9.519110
_cell_length_b 16.946968
_cell_length_c 17.193703
_cell_angle_alpha 90.000000
_cell_angle_beta 90.000000
_cell_angle_gamma 90.000000
_cell_volume 2773.689072
_symmetry_space_group_name_H-M "P C C M"
_symmetry_group_IT_number 49
_symmetry_cell_setting 'orthorhombic'
loop_
_space_group_symop_operation_xyz
x,y,z
-x,-y,z
x,-y,1/2-z
-x,y,1/2-z
-x,-y,-z
x,y,-z
-x,y,1/2+z
x,-y,1/2+z
loop_
_atom_site_type_symbol
_atom_site_label
_atom_site_fract_x
_atom_site_fract_y
_atom_site_fract_z
Si Si1 0.533785 0.292600 0.159896
Si Si2 0.500000 0.000000 0.250000
Si Si3 0.962246 0.910772 0.407358
Si Si4 0.349326 0.429203 0.087940
Si Si5 0.872670 0.794403 0.810476
Si Si6 0.677372 0.139499 0.180374
Si Si7 0.945418 0.356614 0.411181
Si Si8 0.747645 0.408524 0.905678
O O1 0.500000 0.300647 0.250000
O O2 0.418207 0.349698 0.120795
O O3 0.564537 0.200467 0.143364
O O4 0.678539 0.332489 0.132830
O O5 0.400726 0.941312 0.201181
O O6 0.951713 0.906824 0.500000
O O7 0.815460 0.879801 0.370711
O O8 0.090556 0.858270 0.375908
O O9 0.000000 0.000000 0.383350
O O10 0.347349 0.517444 0.123453
O O11 0.182139 0.416733 0.084593
O O12 0.402975 0.433453 0.000000
O O13 0.736539 0.817302 0.759445
O O14 0.000000 0.799567 0.750000
O O15 0.892297 0.710806 0.852747
O O16 0.967747 0.325031 0.500000
O O17 0.087939 0.400489 0.386713
O O18 0.737540 0.407974 0.000000
#
# Coordination Sequence:
#
# PCOD9394020 Si02
#       8
#     8   2   8   8   8   8   8   8
#     4  12  24  40  59  88 125 164 215 267 310 370
#     4  12  24  44  64  84 118 176 216 256 300 400
#     4  10  21  39  64  95 124 151 196 265 338 397
#     4  10  22  39  60  88 126 170 216 262 317 387
#     4  10  20  36  60  90 120 157 202 260 314 392
#     4  11  24  41  65  90 126 169 218 258 319 396
#     4  10  20  36  61  91 123 161 210 268 325 372
#     4  10  21  39  63  90 123 169 218 263 319 384
#
# _framework density 20.910779000000002
#
# number of rings (size 3 to 8) (size 9 to 14) (size 15 to 20)
#    0.000    1.517    0.690    4.966    0.000    8.000 
#    0.000    0.345    0.000    2.483    0.000    0.000 
#    0.000    0.000    0.000    0.000    0.000    0.000 
#
# Total GULP energy -323388.913173 kJ/mol
# GULP energy per Si atom -5575.670917 kJ/mol
# Density = 2.086319 g / cm^3
# Si number density = 20.910779 Si / 1000 Ang^3
#
#
#
# Elastic Constant Matrix: (Units=GPa)
#
#
# Indices 1 2 3 4 5 6 
#
# 1 100.2503 27.7317 17.8213 0.0000 0.0000 0.0000
# 2 27.7317 135.6095 29.7117 0.0000 0.0000 0.0000
# 3 17.8213 29.7117 39.5982 0.0000 0.0000 0.0000
# 4 0.0000 0.0000 0.0000 28.8779 0.0000 0.0000
# 5 0.0000 0.0000 0.0000 0.0000 13.1875 0.0000
# 6 0.0000 0.0000 0.0000 0.0000 0.0000 33.5880
#
#
#
# Elastic Compliance Matrix: (Units=1/GPa)
#
#
# Indices 1 2 3 4 5 6 
#
# 1 0.011061 -0.001402 -0.003926 0.000000 0.000000 0.000000
# 2 -0.001402 0.009003 -0.006124 0.000000 0.000000 0.000000
# 3 -0.003926 -0.006124 0.031616 0.000000 0.000000 0.000000
# 4 0.000000 0.000000 0.000000 0.034629 0.000000 0.000000
# 5 0.000000 0.000000 0.000000 0.000000 0.075829 0.000000
# 6 0.000000 0.000000 0.000000 0.000000 0.000000 0.029773
#
#
# Mechanical properties :
#
#
# Convention : Reuss Voigt Hill
#
# Bulk Modulus (GPa) = 34.75219 47.33193 41.04206
# Shear Modulus (GPa) = 22.28116 28.47690 25.37903
#
# Velocity S-wave (km/s) = 3.26779 3.69430 3.48757
# Velocity P-wave (km/s) = 5.55818 6.39386 5.99061
#
# Compressibility (1/GPa) = 0.02877516
#
# Stress axis : x y z
#
# Youngs Moduli (GPa) = 90.41005 111.08019 31.62986
#
# Poissons Ratio (x) = 0.15570 0.12419
# Poissons Ratio (y) = 0.12672 0.19370
# Poissons Ratio (z) = 0.35497 0.68026
#
# Static dielectric constant tensor:
#      x y z
#    x 1.799490 0.000000 0.000000 
#    y 0.000000 1.840420 0.000000 
#    z 0.000000 0.000000 1.744180 
# 
# From -- ./inp_files/16496.got.cif
#   From: 2010.05.17/outbox.cif.g08.bks.cpg/sg49_9_cif.got.tgz:16496.got - 2010.06.03 21:02:19.
