data_PCOD9394079
_publ_section_title
;
Structure prediction by ZEFSAII (Michael W. Deem and Ramdas Pophale) SiO2 
 PCOD9394079
Probable space group: P C C M
;
_chemical_formula_sum "Si O2"
_cell_formula_units_Z 56
_cell_length_a 21.829747
_cell_length_b 14.267816
_cell_length_c 8.632582
_cell_angle_alpha 90.000000
_cell_angle_beta 90.000000
_cell_angle_gamma 90.000000
_cell_volume 2688.728278
_symmetry_space_group_name_H-M "P C C M"
_symmetry_group_IT_number 49
_symmetry_cell_setting 'orthorhombic'
loop_
_space_group_symop_operation_xyz
x,y,z
-x,-y,z
x,-y,1/2-z
-x,y,1/2-z
-x,-y,-z
x,y,-z
-x,y,1/2+z
x,-y,1/2+z
loop_
_atom_site_type_symbol
_atom_site_label
_atom_site_fract_x
_atom_site_fract_y
_atom_site_fract_z
Si Si1 0.250000 0.605336 0.813946
Si Si2 0.885609 0.605431 0.313432
Si Si3 0.063495 0.788070 0.683852
Si Si4 0.681787 0.894167 0.313722
Si Si5 0.181787 0.105833 0.686278
Si Si6 0.436505 0.211930 0.816148
Si Si7 0.385609 0.394569 0.686568
O O1 0.250000 0.500000 0.750000
O O2 0.183171 0.641271 0.768027
O O3 0.316829 0.641271 0.768027
O O4 0.250000 0.604936 0.000000
O O5 0.893576 0.500000 0.250000
O O6 0.890158 0.604334 0.500000
O O7 0.930589 0.680970 0.241710
O O8 0.062542 0.791718 0.500000
O O9 0.123480 0.840645 0.746867
O O10 0.000000 0.828230 0.750000
O O11 0.677804 0.893750 0.500000
O O12 0.750000 0.855387 0.273140
O O13 0.623480 0.840645 0.246867
O O14 0.680081 0.000000 0.250000
O O15 0.177804 0.106250 0.500000
O O16 0.180081 0.000000 0.750000
O O17 0.500000 0.171770 0.750000
O O18 0.430589 0.319030 0.758290
O O19 0.437458 0.208282 0.000000
O O20 0.393577 0.500000 0.750000
O O21 0.390158 0.395666 0.500000
#
# Coordination Sequence:
#
# PCOD9394079 Si02
#       7
#     8   8   8   8   8   8   8
#     4   8  16  30  52  80 113 150 195 248 304 360
#     4  10  20  37  59  88 124 167 213 262 317 373
#     4  12  26  43  63  92 128 170 217 264 317 377
#     4  10  22  43  71 101 132 165 205 256 314 377
#     4  10  22  43  71 101 132 165 205 256 314 377
#     4  12  26  43  63  92 128 170 217 264 317 377
#     4  10  20  37  59  88 124 167 213 262 317 373
#
# _framework density 20.827691999999999
#
# number of rings (size 3 to 8) (size 9 to 14) (size 15 to 20)
#    0.000    1.714    0.000    4.286    2.000    4.000 
#    0.000    5.714    0.000    0.000    0.000    0.000 
#    0.000    0.000    0.000    0.000    0.000    0.000 
#
# Total GULP energy -312809.016742 kJ/mol
# GULP energy per Si atom -5585.875299 kJ/mol
# Density = 2.078029 g / cm^3
# Si number density = 20.827692 Si / 1000 Ang^3
#
#
#
# Elastic Constant Matrix: (Units=GPa)
#
#
# Indices 1 2 3 4 5 6 
#
# 1 193.7250 69.5089 76.1248 0.0000 0.0000 0.0000
# 2 69.5089 76.3647 36.3933 0.0000 0.0000 0.0000
# 3 76.1248 36.3933 119.8279 0.0000 0.0000 0.0000
# 4 0.0000 0.0000 0.0000 33.5983 0.0000 0.0000
# 5 0.0000 0.0000 0.0000 0.0000 29.0550 0.0000
# 6 0.0000 0.0000 0.0000 0.0000 0.0000 24.4076
#
#
#
# Elastic Compliance Matrix: (Units=1/GPa)
#
#
# Indices 1 2 3 4 5 6 
#
# 1 0.008896 -0.006318 -0.003732 0.000000 0.000000 0.000000
# 2 -0.006318 0.019799 -0.001999 0.000000 0.000000 0.000000
# 3 -0.003732 -0.001999 0.011324 0.000000 0.000000 0.000000
# 4 0.000000 0.000000 0.000000 0.029763 0.000000 0.000000
# 5 0.000000 0.000000 0.000000 0.000000 0.034418 0.000000
# 6 0.000000 0.000000 0.000000 0.000000 0.000000 0.040971
#
#
# Mechanical properties :
#
#
# Convention : Reuss Voigt Hill
#
# Bulk Modulus (GPa) = 62.82047 83.77462 73.29755
# Shear Modulus (GPa) = 28.64089 31.27154 29.95622
#
# Velocity S-wave (km/s) = 3.71230 3.87905 3.79659
# Velocity P-wave (km/s) = 6.97154 7.76999 7.38157
#
# Compressibility (1/GPa) = 0.01591838
#
# Stress axis : x y z
#
# Youngs Moduli (GPa) = 112.41555 50.50792 88.31133
#
# Poissons Ratio (x) = 0.31912 0.32960
# Poissons Ratio (y) = 0.71027 0.17656
# Poissons Ratio (z) = 0.41957 0.10098
#
# Static dielectric constant tensor:
#      x y z
#    x 1.795100 0.000000 0.000000 
#    y 0.000000 1.794710 0.000000 
#    z 0.000000 0.000000 1.696650 
# 
# From -- ./inp_files/5815.got.cif
#   From: 2010.05.17/outbox.cif.g08.bks.cpg/sg49_3_cif.got.tgz:5815.got - 2010.06.03 21:02:19.
