data_PCOD9394050
_publ_section_title
;
Structure prediction by ZEFSAII (Michael W. Deem and Ramdas Pophale) SiO2 
 PCOD9394050
Probable space group: P C C M
;
_chemical_formula_sum "Si O2"
_cell_formula_units_Z 64
_cell_length_a 15.319033
_cell_length_b 11.742764
_cell_length_c 18.199115
_cell_angle_alpha 90.000000
_cell_angle_beta 90.000000
_cell_angle_gamma 90.000000
_cell_volume 3273.798563
_symmetry_space_group_name_H-M "P C C M"
_symmetry_group_IT_number 49
_symmetry_cell_setting 'orthorhombic'
loop_
_space_group_symop_operation_xyz
x,y,z
-x,-y,z
x,-y,1/2-z
-x,y,1/2-z
-x,-y,-z
x,y,-z
-x,y,1/2+z
x,-y,1/2+z
loop_
_atom_site_type_symbol
_atom_site_label
_atom_site_fract_x
_atom_site_fract_y
_atom_site_fract_z
Si Si1 0.392772 0.238592 0.086729
Si Si2 0.648424 0.000169 0.838071
Si Si3 0.833559 0.978490 0.086515
Si Si4 0.887561 0.227007 0.913279
Si Si5 0.080154 0.259572 0.911581
Si Si6 0.236645 0.610315 0.349603
Si Si7 0.260723 0.651088 0.179605
Si Si8 0.552330 0.230019 0.172443
O O1 0.312887 0.317468 0.111652
O O2 0.485380 0.285017 0.114880
O O3 0.384922 0.118246 0.128924
O O4 0.390104 0.221660 0.000000
O O5 0.745281 0.008700 0.870836
O O6 0.585634 0.106324 0.855016
O O7 0.653210 0.000000 0.750000
O O8 0.893518 0.089810 0.092320
O O9 0.878054 0.861704 0.112818
O O10 0.811735 0.963116 0.000000
O O11 0.806379 0.273351 0.867173
O O12 0.980542 0.274691 0.886857
O O13 0.874578 0.253280 0.000000
O O14 0.145325 0.357568 0.886542
O O15 0.077070 0.254743 0.000000
O O16 0.232349 0.647085 0.264536
O O17 0.257335 0.476972 0.351185
O O18 0.358851 0.699036 0.179905
O O19 0.500000 0.221896 0.250000
#
# Coordination Sequence:
#
# PCOD9394050 Si02
#       8
#     8   8   8   8   8   8   8   8
#     4  12  26  43  67  99 133 172 219 273 335 407
#     4  12  22  37  66  97 133 171 210 264 333 400
#     4  10  20  36  63  95 133 174 213 262 327 400
#     4  10  22  40  64  97 134 174 219 272 333 399
#     4  10  21  40  66  96 135 176 216 270 337 402
#     4  11  24  44  67  92 126 173 226 277 332 395
#     4  11  25  45  67  92 125 174 226 280 337 386
#     4  12  24  44  67  94 134 175 213 268 339 409
#
# _framework density 19.549156
#
# number of rings (size 3 to 8) (size 9 to 14) (size 15 to 20)
#    0.000    1.000    5.000    1.500    0.000    6.000 
#    0.000    3.125    0.000    2.250    0.000    0.000 
#    0.000    0.000    0.000    0.000    0.000    0.000 
#
# Total GULP energy -357612.922606 kJ/mol
# GULP energy per Si atom -5587.701916 kJ/mol
# Density = 1.950466 g / cm^3
# Si number density = 19.549156 Si / 1000 Ang^3
#
#
#
# Elastic Constant Matrix: (Units=GPa)
#
#
# Indices 1 2 3 4 5 6 
#
# 1 134.0205 29.8807 27.0420 0.0000 0.0000 0.0000
# 2 29.8807 70.1719 30.0958 0.0000 0.0000 0.0000
# 3 27.0420 30.0958 67.4510 0.0000 0.0000 0.0000
# 4 0.0000 0.0000 0.0000 20.5956 0.0000 0.0000
# 5 0.0000 0.0000 0.0000 0.0000 37.4170 0.0000
# 6 0.0000 0.0000 0.0000 0.0000 0.0000 4.3159
#
#
#
# Elastic Compliance Matrix: (Units=1/GPa)
#
#
# Indices 1 2 3 4 5 6 
#
# 1 0.008504 -0.002670 -0.002218 0.000000 0.000000 0.000000
# 2 -0.002670 0.018461 -0.007167 0.000000 0.000000 0.000000
# 3 -0.002218 -0.007167 0.018913 0.000000 0.000000 0.000000
# 4 0.000000 0.000000 0.000000 0.048554 0.000000 0.000000
# 5 0.000000 0.000000 0.000000 0.000000 0.026726 0.000000
# 6 0.000000 0.000000 0.000000 0.000000 0.000000 0.231701
#
#
# Mechanical properties :
#
#
# Convention : Reuss Voigt Hill
#
# Bulk Modulus (GPa) = 45.93814 49.52005 47.72910
# Shear Modulus (GPa) = 13.01318 24.77403 18.89360
#
# Velocity S-wave (km/s) = 2.58285 3.56373 3.11218
# Velocity P-wave (km/s) = 5.69602 6.50535 6.11409
#
# Compressibility (1/GPa) = 0.02176840
#
# Stress axis : x y z
#
# Youngs Moduli (GPa) = 117.58587 54.16702 52.87469
#
# Poissons Ratio (x) = 0.14463 0.11729
# Poissons Ratio (y) = 0.31395 0.37894
# Poissons Ratio (z) = 0.26083 0.38820
#
# Static dielectric constant tensor:
#      x y z
#    x 1.698480 0.000000 0.000000 
#    y 0.000000 1.695300 0.000000 
#    z 0.000000 0.000000 1.666080 
# 
# From -- ./inp_files/17936.got.cif
#   From: 2010.05.17/outbox.cif.g08.bks.cpg/sg49_9_cif.got.tgz:17936.got - 2010.06.03 21:02:19.
