data_PCOD9394338
_publ_section_title
;
Structure prediction by ZEFSAII (Michael W. Deem and Ramdas Pophale) SiO2 
 PCOD9394338
Probable space group: P C C M
;
_chemical_formula_sum "Si O2"
_cell_formula_units_Z 40
_cell_length_a 11.231402
_cell_length_b 10.167919
_cell_length_c 14.312032
_cell_angle_alpha 90.000000
_cell_angle_beta 90.000000
_cell_angle_gamma 90.000000
_cell_volume 1634.433851
_symmetry_space_group_name_H-M "P C C M"
_symmetry_group_IT_number 49
_symmetry_cell_setting 'orthorhombic'
loop_
_space_group_symop_operation_xyz
x,y,z
-x,-y,z
x,-y,1/2-z
-x,y,1/2-z
-x,-y,-z
x,y,-z
-x,y,1/2+z
x,-y,1/2+z
loop_
_atom_site_type_symbol
_atom_site_label
_atom_site_fract_x
_atom_site_fract_y
_atom_site_fract_z
Si Si1 0.158185 0.411333 0.385900
Si Si2 0.390490 0.073948 0.649662
Si Si3 0.075178 0.301866 0.111910
Si Si4 0.136104 0.020689 0.140729
Si Si5 0.425456 0.630501 0.886314
O O1 0.158455 0.409881 0.500000
O O2 0.120921 0.557232 0.355919
O O3 0.290699 0.393101 0.355675
O O4 0.062581 0.301708 0.354395
O O5 0.440068 0.222566 0.652649
O O6 0.500000 0.000000 0.600739
O O7 0.378642 0.000000 0.750000
O O8 0.255269 0.057651 0.608475
O O9 0.154949 0.177190 0.131673
O O10 0.070346 0.308834 0.000000
O O11 0.124623 0.000000 0.250000
O O12 0.000000 0.000000 0.101255
O O13 0.500000 0.500000 0.860304
O O14 0.434159 0.640400 0.000000
#
# Coordination Sequence:
#
# PCOD9394338 Si02
#       5
#     8   8   8   8   8
#     4   8  16  32  54  86 121 146 184 243 304 360
#     4  10  23  42  60  81 125 165 200 242 298 373
#     4   9  17  31  57  86 114 152 191 237 299 365
#     4  10  21  36  57  80 117 156 198 247 295 351
#     4  10  21  37  62  92 120 152 200 257 306 352
#
# _framework density 24.473306000000001
#
# number of rings (size 3 to 8) (size 9 to 14) (size 15 to 20)
#    0.000    2.600    0.000    2.400    2.800    1.600 
#    0.000    2.000    0.000   24.000    0.000    0.000 
#    0.000    0.000    0.000    0.000    0.000    0.000 
#
# Total GULP energy -223011.852681 kJ/mol
# GULP energy per Si atom -5575.296317 kJ/mol
# Density = 2.441760 g / cm^3
# Si number density = 24.473306 Si / 1000 Ang^3
#
#
#
# Elastic Constant Matrix: (Units=GPa)
#
#
# Indices 1 2 3 4 5 6 
#
# 1 148.8600 62.3373 16.5231 0.0000 0.0000 0.0000
# 2 62.3373 180.9455 19.3087 0.0000 0.0000 0.0000
# 3 16.5231 19.3087 83.2761 0.0000 0.0000 0.0000
# 4 0.0000 0.0000 0.0000 45.4794 0.0000 0.0000
# 5 0.0000 0.0000 0.0000 0.0000 -0.9436 0.0000
# 6 0.0000 0.0000 0.0000 0.0000 0.0000 36.4844
#
#
#
# Elastic Compliance Matrix: (Units=1/GPa)
#
#
# Indices 1 2 3 4 5 6 
#
# 1 0.007925 -0.002627 -0.000963 0.000000 0.000000 0.000000
# 2 -0.002627 0.006538 -0.000995 0.000000 0.000000 0.000000
# 3 -0.000963 -0.000995 0.012430 0.000000 0.000000 0.000000
# 4 0.000000 0.000000 0.000000 0.021988 0.000000 0.000000
# 5 0.000000 0.000000 0.000000 0.000000 -1.059802 0.000000
# 6 0.000000 0.000000 0.000000 0.000000 0.000000 0.027409
#
#
# Mechanical properties :
#
#
# Convention : Reuss Voigt Hill
#
# Bulk Modulus (GPa) = 56.42604 67.71331 62.06968
# Shear Modulus (GPa) = -5.16297 37.19820 16.01762
#
# Velocity S-wave (km/s) = -1.45403 3.90288 2.56108
# Velocity P-wave (km/s) = 4.50414 6.93097 5.84489
#
# Compressibility (1/GPa) = 0.01772231
#
# Stress axis : x y z
#
# Youngs Moduli (GPa) = 126.18449 152.95605 80.45075
#
# Poissons Ratio (x) = 0.40188 0.07749
# Poissons Ratio (y) = 0.33154 0.08001
# Poissons Ratio (z) = 0.12154 0.15213
#
# Static dielectric constant tensor:
#      x y z
#    x 2.022620 0.000000 0.000000 
#    y 0.000000 2.069500 0.000000 
#    z 0.000000 0.000000 1.969870 
# 
# From -- ./inp_files/16856.got.cif
#   From: 2010.05.17/outbox.cif.g08.bks.cpg/sg49_9_cif.got.tgz:16856.got - 2010.06.03 21:02:19.
