data_PCOD9394883
_publ_section_title
;
Structure prediction by ZEFSAII (Michael W. Deem and Ramdas Pophale) SiO2 
 PCOD9394883
Probable space group: P C C M
;
_chemical_formula_sum "Si O2"
_cell_formula_units_Z 42
_cell_length_a 10.716840
_cell_length_b 7.164738
_cell_length_c 22.807366
_cell_angle_alpha 90.000000
_cell_angle_beta 90.000000
_cell_angle_gamma 90.000000
_cell_volume 1751.225984
_symmetry_space_group_name_H-M "P C C M"
_symmetry_group_IT_number 49
_symmetry_cell_setting 'orthorhombic'
loop_
_space_group_symop_operation_xyz
x,y,z
-x,-y,z
x,-y,1/2-z
-x,y,1/2-z
-x,-y,-z
x,y,-z
-x,y,1/2+z
x,-y,1/2+z
loop_
_atom_site_type_symbol
_atom_site_label
_atom_site_fract_x
_atom_site_fract_y
_atom_site_fract_z
Si Si1 0.962592 0.218763 0.933259
Si Si2 0.201616 0.780331 0.242120
Si Si3 0.000000 0.500000 0.750000
Si Si4 0.220097 0.694196 0.378642
Si Si5 0.612054 0.632215 0.647147
Si Si6 0.693655 0.084634 0.069984
O O1 0.076846 0.316974 0.900151
O O2 0.821284 0.195876 0.911377
O O3 0.958530 0.288402 0.000000
O O4 0.000000 0.000000 0.934993
O O5 0.220960 0.715917 0.308609
O O6 0.318989 0.730473 0.201913
O O7 0.089971 0.648983 0.217829
O O8 0.173244 0.000000 0.250000
O O9 0.303244 0.514488 0.389171
O O10 0.281085 0.876181 0.407914
O O11 0.500000 0.500000 0.667393
O O12 0.585094 0.802779 0.602841
O O13 0.682496 0.087562 0.000000
#
# Coordination Sequence:
#
# PCOD9394883 Si02
#       6
#     8   8   2   8   8   8
#     4   8  17  35  65 104 142 181 228 286 359 440
#     4  12  26  46  73 108 148 193 237 301 379 452
#     4  12  26  44  74 118 146 180 234 302 380 460
#     4  11  22  42  72 100 142 190 237 301 368 443
#     4  12  28  48  70 102 144 198 253 309 356 425
#     4  10  23  44  72 108 145 189 243 299 371 442
#
# _framework density 23.9832
#
# number of rings (size 3 to 8) (size 9 to 14) (size 15 to 20)
#    0.000    1.333    3.810    2.000    2.667    6.476 
#    0.000    3.810    0.000    0.000    0.000    0.000 
#    0.000    0.000    0.000    0.000    0.000    0.000 
#
# Total GULP energy -234686.055081 kJ/mol
# GULP energy per Si atom -5587.763216 kJ/mol
# Density = 2.392861 g / cm^3
# Si number density = 23.983200 Si / 1000 Ang^3
#
#
#
# Elastic Constant Matrix: (Units=GPa)
#
#
# Indices 1 2 3 4 5 6 
#
# 1 76.1685 59.7686 22.0738 0.0000 0.0000 0.0000
# 2 59.7686 182.5846 29.6268 0.0000 0.0000 0.0000
# 3 22.0738 29.6268 99.8753 0.0000 0.0000 0.0000
# 4 0.0000 0.0000 0.0000 -598.3320 0.0000 0.0000
# 5 0.0000 0.0000 0.0000 0.0000 7.8024 0.0000
# 6 0.0000 0.0000 0.0000 0.0000 0.0000 38.1993
#
#
#
# Elastic Compliance Matrix: (Units=1/GPa)
#
#
# Indices 1 2 3 4 5 6 
#
# 1 0.018184 -0.005568 -0.002367 0.000000 0.000000 0.000000
# 2 -0.005568 0.007459 -0.000982 0.000000 0.000000 0.000000
# 3 -0.002367 -0.000982 0.010827 0.000000 0.000000 0.000000
# 4 0.000000 0.000000 0.000000 -0.001671 0.000000 0.000000
# 5 0.000000 0.000000 0.000000 0.000000 0.128166 0.000000
# 6 0.000000 0.000000 0.000000 0.000000 0.000000 0.026179
#
#
# Mechanical properties :
#
#
# Convention : Reuss Voigt Hill
#
# Bulk Modulus (GPa) = 53.66197 64.61856 59.14026
# Shear Modulus (GPa) = 23.45317 -93.98881 -35.26782
#
# Velocity S-wave (km/s) = 3.13053 -6.26694 -3.83890
# Velocity P-wave (km/s) = 5.95738 5.03629 2.25012
#
# Compressibility (1/GPa) = 0.01863517
#
# Stress axis : x y z
#
# Youngs Moduli (GPa) = 54.99238 134.06476 92.36221
#
# Poissons Ratio (x) = 0.74654 0.21864
# Poissons Ratio (y) = 0.30622 0.09069
# Poissons Ratio (z) = 0.13018 0.13164
#
# Static dielectric constant tensor:
#      x y z
#    x 2.060780 0.000000 0.000000 
#    y 0.000000 1.960480 0.000000 
#    z 0.000000 0.000000 1.882280 
# 
# From -- ./inp_files/22789.got.cif
#   From: 2010.05.17/outbox.cif.g08.bks.cpg/sg49_12_cif.got.tgz:22789.got - 2010.06.03 21:02:19.
