data_PCOD9394519
_publ_section_title
;
Structure prediction by ZEFSAII (Michael W. Deem and Ramdas Pophale) SiO2 
 PCOD9394519
Probable space group: P C C M
;
_chemical_formula_sum "Si O2"
_cell_formula_units_Z 48
_cell_length_a 13.887570
_cell_length_b 18.747836
_cell_length_c 9.532135
_cell_angle_alpha 90.000000
_cell_angle_beta 90.000000
_cell_angle_gamma 90.000000
_cell_volume 2481.804635
_symmetry_space_group_name_H-M "P C C M"
_symmetry_group_IT_number 49
_symmetry_cell_setting 'orthorhombic'
loop_
_space_group_symop_operation_xyz
x,y,z
-x,-y,z
x,-y,1/2-z
-x,y,1/2-z
-x,-y,-z
x,y,-z
-x,y,1/2+z
x,-y,1/2+z
loop_
_atom_site_type_symbol
_atom_site_label
_atom_site_fract_x
_atom_site_fract_y
_atom_site_fract_z
Si Si1 0.415444 0.896867 0.500000
Si Si2 0.691775 0.428693 0.331107
Si Si3 0.906111 0.788460 0.834312
Si Si4 0.404264 0.701820 0.836543
Si Si5 0.637048 0.062912 0.000000
Si Si6 0.092164 0.380215 0.835875
Si Si7 0.298129 0.157759 0.259889
O O1 0.530834 0.900561 0.500000
O O2 0.371322 0.858015 0.366263
O O3 0.379531 0.978771 0.500000
O O4 0.660703 0.500000 0.250000
O O5 0.672522 0.429331 0.500000
O O6 0.642591 0.362680 0.251497
O O7 0.806946 0.419192 0.312199
O O8 0.892121 0.703913 0.802519
O O9 0.809443 0.829607 0.793758
O O10 0.000000 0.812611 0.750000
O O11 0.922642 0.794729 0.000000
O O12 0.500000 0.720843 0.750000
O O13 0.333835 0.769672 0.832519
O O14 0.423578 0.683389 0.000000
O O15 0.692241 0.091961 0.865173
O O16 0.000000 0.406050 0.750000
O O17 0.068929 0.385214 0.000000
#
# Coordination Sequence:
#
# PCOD9394519 Si02
#       7
#     4   8   8   8   4   8   8
#     4  11  24  42  67  93 142 174 216 261 325 389
#     4  11  24  43  64  90 129 169 212 267 326 383
#     4  10  21  38  63  94 127 167 215 271 326 382
#     4  12  26  42  66  96 127 168 218 267 317 381
#     4  11  24  42  63 103 132 178 216 261 321 397
#     4   9  19  36  58  87 122 162 207 261 320 378
#     4  12  23  40  67  98 132 172 217 271 325 381
#
# _framework density 19.340765000000001
#
# number of rings (size 3 to 8) (size 9 to 14) (size 15 to 20)
#    0.000    1.167    3.333    3.000    3.500    3.333 
#    0.000    3.333    0.000    3.000    0.000    0.000 
#    0.000    0.000    0.000    0.000    0.000    0.000 
#
# Total GULP energy -268274.506455 kJ/mol
# GULP energy per Si atom -5589.052218 kJ/mol
# Density = 1.929674 g / cm^3
# Si number density = 19.340765 Si / 1000 Ang^3
#
#
#
# Elastic Constant Matrix: (Units=GPa)
#
#
# Indices 1 2 3 4 5 6 
#
# 1 81.0120 24.4464 37.4946 0.0000 0.0000 0.0000
# 2 24.4464 69.8678 30.9837 0.0000 0.0000 0.0000
# 3 37.4946 30.9837 114.8889 0.0000 0.0000 0.0000
# 4 0.0000 0.0000 0.0000 29.1032 0.0000 0.0000
# 5 0.0000 0.0000 0.0000 0.0000 37.7147 0.0000
# 6 0.0000 0.0000 0.0000 0.0000 0.0000 21.2797
#
#
#
# Elastic Compliance Matrix: (Units=1/GPa)
#
#
# Indices 1 2 3 4 5 6 
#
# 1 0.015282 -0.003561 -0.004027 0.000000 0.000000 0.000000
# 2 -0.003561 0.017087 -0.003446 0.000000 0.000000 0.000000
# 3 -0.004027 -0.003446 0.010948 0.000000 0.000000 0.000000
# 4 0.000000 0.000000 0.000000 0.034361 0.000000 0.000000
# 5 0.000000 0.000000 0.000000 0.000000 0.026515 0.000000
# 6 0.000000 0.000000 0.000000 0.000000 0.000000 0.046993
#
#
# Mechanical properties :
#
#
# Convention : Reuss Voigt Hill
#
# Bulk Modulus (GPa) = 47.06226 50.17979 48.62102
# Shear Modulus (GPa) = 27.72593 29.14245 28.43419
#
# Velocity S-wave (km/s) = 3.79033 3.88595 3.83844
# Velocity P-wave (km/s) = 6.59860 6.79232 6.69616
#
# Compressibility (1/GPa) = 0.02124845
#
# Stress axis : x y z
#
# Youngs Moduli (GPa) = 65.43491 58.52429 91.34432
#
# Poissons Ratio (x) = 0.20843 0.36785
# Poissons Ratio (y) = 0.23304 0.31475
# Poissons Ratio (z) = 0.26351 0.20166
#
# Static dielectric constant tensor:
#      x y z
#    x 1.652310 0.000000 0.000000 
#    y 0.000000 1.670400 0.000000 
#    z 0.000000 0.000000 1.648360 
# 
# From -- ./inp_files/3753.got.cif
#   From: 2010.05.17/outbox.cif.g08.bks.cpg/sg49_2_cif.got.tgz:3753.got - 2010.06.03 21:02:19.
