data_PCOD9394826
_publ_section_title
;
Structure prediction by ZEFSAII (Michael W. Deem and Ramdas Pophale) SiO2 
 PCOD9394826
Probable space group: P C C M
;
_chemical_formula_sum "Si O2"
_cell_formula_units_Z 38
_cell_length_a 11.533826
_cell_length_b 15.628509
_cell_length_c 9.110380
_cell_angle_alpha 90.000000
_cell_angle_beta 90.000000
_cell_angle_gamma 90.000000
_cell_volume 1642.205244
_symmetry_space_group_name_H-M "P C C M"
_symmetry_group_IT_number 49
_symmetry_cell_setting 'orthorhombic'
loop_
_space_group_symop_operation_xyz
x,y,z
-x,-y,z
x,-y,1/2-z
-x,y,1/2-z
-x,-y,-z
x,y,-z
-x,y,1/2+z
x,-y,1/2+z
loop_
_atom_site_type_symbol
_atom_site_label
_atom_site_fract_x
_atom_site_fract_y
_atom_site_fract_z
Si Si1 0.883996 0.334457 0.176732
Si Si2 0.667777 0.582718 0.834374
Si Si3 0.885364 0.146258 0.325009
Si Si4 0.670247 0.875618 0.654739
Si Si5 0.500000 0.273908 0.750000
Si Si6 0.500000 0.000000 0.000000
O O1 0.773851 0.385341 0.234775
O O2 0.874932 0.240022 0.249954
O O3 0.000000 0.372373 0.250000
O O4 0.891030 0.330477 0.000000
O O5 0.621819 0.500000 0.750000
O O6 0.576226 0.660139 0.843309
O O7 0.704666 0.561401 0.000000
O O8 0.898696 0.151773 0.500000
O O9 0.761644 0.105589 0.282581
O O10 0.000000 0.106644 0.250000
O O11 0.738747 0.865239 0.500000
O O12 0.594758 0.789738 0.679749
O O13 0.577084 0.947524 0.621214
#
# Coordination Sequence:
#
# PCOD9394826 Si02
#       6
#     8   8   8   8   4   2
#     4  11  22  40  68 102 148 199 254 315 381 453
#     4  12  27  45  66 103 147 197 263 320 381 451
#     4  11  21  37  69 113 155 202 261 320 380 467
#     4  10  22  44  71 108 153 199 253 308 382 466
#     4  12  25  41  78 100 144 198 260 307 387 464
#     4   8  24  46  74 112 156 206 248 320 392 468
#
# _framework density 23.139617000000001
#
# number of rings (size 3 to 8) (size 9 to 14) (size 15 to 20)
#    0.632    0.421    2.105    6.632    0.000    5.053 
#    0.000    2.632    0.000    0.000    0.000    5.895 
#    0.000    0.000    0.000    0.000    0.000    0.000 
#
# Total GULP energy -211701.998277 kJ/mol
# GULP energy per Si atom -5571.105218 kJ/mol
# Density = 2.308695 g / cm^3
# Si number density = 23.139617 Si / 1000 Ang^3
#
#
#
# Elastic Constant Matrix: (Units=GPa)
#
#
# Indices 1 2 3 4 5 6 
#
# 1 154.8467 65.3338 71.6552 0.0000 0.0000 0.0000
# 2 65.3338 101.5749 50.2359 0.0000 0.0000 0.0000
# 3 71.6552 50.2359 245.4689 0.0000 0.0000 0.0000
# 4 0.0000 0.0000 0.0000 17.6115 0.0000 0.0000
# 5 0.0000 0.0000 0.0000 0.0000 42.5602 0.0000
# 6 0.0000 0.0000 0.0000 0.0000 0.0000 19.4620
#
#
#
# Elastic Compliance Matrix: (Units=1/GPa)
#
#
# Indices 1 2 3 4 5 6 
#
# 1 0.009451 -0.005245 -0.001685 0.000000 0.000000 0.000000
# 2 -0.005245 0.013865 -0.001306 0.000000 0.000000 0.000000
# 3 -0.001685 -0.001306 0.004833 0.000000 0.000000 0.000000
# 4 0.000000 0.000000 0.000000 0.056781 0.000000 0.000000
# 5 0.000000 0.000000 0.000000 0.000000 0.023496 0.000000
# 6 0.000000 0.000000 0.000000 0.000000 0.000000 0.051382
#
#
# Mechanical properties :
#
#
# Convention : Reuss Voigt Hill
#
# Bulk Modulus (GPa) = 85.65385 97.37114 91.51249
# Shear Modulus (GPa) = 27.75089 36.90446 32.32768
#
# Velocity S-wave (km/s) = 3.46682 3.99790 3.74180
# Velocity P-wave (km/s) = 7.28846 7.96757 7.63557
#
# Compressibility (1/GPa) = 0.01167490
#
# Stress axis : x y z
#
# Youngs Moduli (GPa) = 105.80757 72.12437 206.90428
#
# Poissons Ratio (x) = 0.37833 0.34871
# Poissons Ratio (y) = 0.55501 0.27027
# Poissons Ratio (z) = 0.17833 0.09421
#
# Static dielectric constant tensor:
#      x y z
#    x 1.924630 0.000000 0.000000 
#    y 0.000000 1.915840 0.000000 
#    z 0.000000 0.000000 1.873360 
# 
# From -- ./inp_files/2702.got.cif
#   From: 2010.05.17/outbox.cif.g08.bks.cpg/sg49_2_cif.got.tgz:2702.got - 2010.06.03 21:02:19.
