data_PCOD9394035
_publ_section_title
;
Structure prediction by ZEFSAII (Michael W. Deem and Ramdas Pophale) SiO2 
 PCOD9394035
Probable space group: P C C M
;
_chemical_formula_sum "Si O2"
_cell_formula_units_Z 64
_cell_length_a 11.162097
_cell_length_b 15.907215
_cell_length_c 17.422162
_cell_angle_alpha 90.000000
_cell_angle_beta 90.000000
_cell_angle_gamma 90.000000
_cell_volume 3093.442095
_symmetry_space_group_name_H-M "P C C M"
_symmetry_group_IT_number 49
_symmetry_cell_setting 'orthorhombic'
loop_
_space_group_symop_operation_xyz
x,y,z
-x,-y,z
x,-y,1/2-z
-x,y,1/2-z
-x,-y,-z
x,y,-z
-x,y,1/2+z
x,-y,1/2+z
loop_
_atom_site_type_symbol
_atom_site_label
_atom_site_fract_x
_atom_site_fract_y
_atom_site_fract_z
Si Si1 0.832642 0.791743 0.303740
Si Si2 0.368176 0.486154 0.907883
Si Si3 0.486285 0.810726 0.589911
Si Si4 0.279157 0.692071 0.589548
Si Si5 0.921392 0.201750 0.631073
Si Si6 0.648374 0.061392 0.178551
Si Si7 0.132651 0.979523 0.587504
Si Si8 0.704659 0.676036 0.587878
O O1 0.885138 0.787651 0.219550
O O2 0.728205 0.859250 0.296584
O O3 0.781835 0.708367 0.341367
O O4 0.936967 0.814332 0.364962
O O5 0.500000 0.500000 0.874438
O O6 0.307959 0.400448 0.878230
O O7 0.308528 0.576830 0.901172
O O8 0.380145 0.473604 0.000000
O O9 0.472192 0.835138 0.500000
O O10 0.365488 0.766339 0.621890
O O11 0.537096 0.892516 0.635353
O O12 0.584032 0.733953 0.591722
O O13 0.312362 0.691575 0.500000
O O14 0.140256 0.717162 0.594494
O O15 0.862896 0.120888 0.592352
O O16 0.624150 0.000000 0.250000
O O17 0.746218 0.014023 0.125145
O O18 0.129007 0.009977 0.500000
O O19 0.000000 0.000000 0.623671
O O20 0.750255 0.690556 0.500000
#
# Coordination Sequence:
#
# PCOD9394035 Si02
#       8
#     8   8   8   8   8   8   8   8
#     4  10  22  37  59  81 114 154 197 248 310 351
#     4   9  15  30  59  92 120 152 196 241 289 350
#     4   9  18  34  58  89 122 155 196 247 300 350
#     4  10  20  36  61  91 124 160 194 240 301 365
#     4  11  22  39  57  82 114 157 199 247 301 363
#     4  11  20  36  61  84 115 156 202 250 297 353
#     4  11  22  35  57  86 113 147 201 258 301 350
#     4   9  17  32  58  90 119 149 195 248 294 349
#
# _framework density 20.688928000000001
#
# number of rings (size 3 to 8) (size 9 to 14) (size 15 to 20)
#    0.000    2.000    3.750    0.750    0.000    1.750 
#    0.000    4.375    2.750    6.750    0.000    0.000 
#    0.000    0.000    0.000    0.000    0.000    0.000 
#
# Total GULP energy -356414.245140 kJ/mol
# GULP energy per Si atom -5568.972580 kJ/mol
# Density = 2.064184 g / cm^3
# Si number density = 20.688928 Si / 1000 Ang^3
#
#
#
# Elastic Constant Matrix: (Units=GPa)
#
#
# Indices 1 2 3 4 5 6 
#
# 1 42.5721 23.3066 19.9849 0.0000 0.0000 0.0000
# 2 23.3066 105.6869 29.3565 0.0000 0.0000 0.0000
# 3 19.9849 29.3565 47.5729 0.0000 0.0000 0.0000
# 4 0.0000 0.0000 0.0000 23.0812 0.0000 0.0000
# 5 0.0000 0.0000 0.0000 0.0000 40.3072 0.0000
# 6 0.0000 0.0000 0.0000 0.0000 0.0000 9.5291
#
#
#
# Elastic Compliance Matrix: (Units=1/GPa)
#
#
# Indices 1 2 3 4 5 6 
#
# 1 0.030487 -0.003820 -0.010450 0.000000 0.000000 0.000000
# 2 -0.003820 0.011898 -0.005737 0.000000 0.000000 0.000000
# 3 -0.010450 -0.005737 0.028950 0.000000 0.000000 0.000000
# 4 0.000000 0.000000 0.000000 0.043325 0.000000 0.000000
# 5 0.000000 0.000000 0.000000 0.000000 0.024809 0.000000
# 6 0.000000 0.000000 0.000000 0.000000 0.000000 0.104942
#
#
# Mechanical properties :
#
#
# Convention : Reuss Voigt Hill
#
# Bulk Modulus (GPa) = 31.92781 37.90311 34.91546
# Shear Modulus (GPa) = 16.95683 22.79575 19.87629
#
# Velocity S-wave (km/s) = 2.86599 3.32299 3.10291
# Velocity P-wave (km/s) = 5.13981 5.75180 5.45440
#
# Compressibility (1/GPa) = 0.03132066
#
# Stress axis : x y z
#
# Youngs Moduli (GPa) = 32.80134 84.04768 34.54185
#
# Poissons Ratio (x) = 0.32110 0.36095
# Poissons Ratio (y) = 0.12532 0.19817
# Poissons Ratio (z) = 0.34276 0.48219
#
# Static dielectric constant tensor:
#      x y z
#    x 1.831050 0.000000 0.000000 
#    y 0.000000 1.754630 0.000000 
#    z 0.000000 0.000000 1.770280 
# 
# From -- ./inp_files/17303.got.cif
#   From: 2010.05.17/outbox.cif.g08.bks.cpg/sg49_9_cif.got.tgz:17303.got - 2010.06.03 21:02:19.
