data_PCOD9394113
_publ_section_title
;
Structure prediction by ZEFSAII (Michael W. Deem and Ramdas Pophale) SiO2 
 PCOD9394113
Probable space group: P C C M
;
_chemical_formula_sum "Si O2"
_cell_formula_units_Z 64
_cell_length_a 12.639219
_cell_length_b 14.273671
_cell_length_c 17.064176
_cell_angle_alpha 90.000000
_cell_angle_beta 90.000000
_cell_angle_gamma 90.000000
_cell_volume 3078.514780
_symmetry_space_group_name_H-M "P C C M"
_symmetry_group_IT_number 49
_symmetry_cell_setting 'orthorhombic'
loop_
_space_group_symop_operation_xyz
x,y,z
-x,-y,z
x,-y,1/2-z
-x,y,1/2-z
-x,-y,-z
x,y,-z
-x,y,1/2+z
x,-y,1/2+z
loop_
_atom_site_type_symbol
_atom_site_label
_atom_site_fract_x
_atom_site_fract_y
_atom_site_fract_z
Si Si1 0.979220 0.608968 0.913664
Si Si2 0.240968 0.858743 0.595751
Si Si3 0.286129 0.604981 0.237945
Si Si4 0.888928 0.271571 0.708686
Si Si5 0.429933 0.744511 0.327678
Si Si6 0.161026 0.758086 0.909578
Si Si7 0.381829 0.661619 0.914519
Si Si8 0.113866 0.038530 0.404763
O O1 0.085096 0.668288 0.897733
O O2 0.000000 0.500000 0.913294
O O3 0.902846 0.635955 0.844279
O O4 0.937821 0.635016 0.000000
O O5 0.239993 0.843165 0.500000
O O6 0.150196 0.802772 0.644578
O O7 0.348032 0.820358 0.636925
O O8 0.209512 0.966483 0.611566
O O9 0.244070 0.500000 0.250000
O O10 0.201081 0.691233 0.232270
O O11 0.364273 0.651430 0.301928
O O12 0.353320 0.595904 0.158062
O O13 0.000000 0.249483 0.750000
O O14 0.500000 0.771865 0.250000
O O15 0.511524 0.715189 0.394571
O O16 0.284276 0.734084 0.912223
O O17 0.135054 0.857936 0.870397
O O18 0.132356 0.778772 0.000000
O O19 0.383505 0.616580 0.000000
O O20 0.107586 0.037802 0.500000
O O21 0.000000 0.000000 0.376846
#
# Coordination Sequence:
#
# PCOD9394113 Si02
#       8
#     8   8   8   8   8   8   8   8
#     4  10  21  35  55  83 116 155 201 253 297 353
#     4  10  20  38  63  92 121 159 213 264 305 367
#     4  10  23  39  57  82 116 153 194 244 301 372
#     4  11  23  35  56  82 121 163 198 239 306 374
#     4   9  20  39  61  86 119 158 196 250 322 376
#     4   9  18  33  54  87 122 151 195 253 303 352
#     4  10  20  37  62  84 109 148 196 248 302 355
#     4   9  17  31  57  89 122 158 196 244 302 357
#
# _framework density 20.789245999999999
#
# number of rings (size 3 to 8) (size 9 to 14) (size 15 to 20)
#    0.000    2.250    0.000    2.250    3.500    4.250 
#    0.000    5.000    0.000   25.875    0.000    0.000 
#    0.000    0.000    0.000    0.000    0.000    0.125 
#
# Total GULP energy -356296.329946 kJ/mol
# GULP energy per Si atom -5567.130155 kJ/mol
# Density = 2.074193 g / cm^3
# Si number density = 20.789246 Si / 1000 Ang^3
#
#
#
# Elastic Constant Matrix: (Units=GPa)
#
#
# Indices 1 2 3 4 5 6 
#
# 1 77.0512 43.6541 15.5534 0.0000 0.0000 0.0000
# 2 43.6541 115.3851 5.5256 0.0000 0.0000 0.0000
# 3 15.5534 5.5256 72.9392 0.0000 0.0000 0.0000
# 4 0.0000 0.0000 0.0000 6.4981 0.0000 0.0000
# 5 0.0000 0.0000 0.0000 0.0000 29.3391 0.0000
# 6 0.0000 0.0000 0.0000 0.0000 0.0000 19.5014
#
#
#
# Elastic Compliance Matrix: (Units=1/GPa)
#
#
# Indices 1 2 3 4 5 6 
#
# 1 0.017229 -0.006366 -0.003192 0.000000 0.000000 0.000000
# 2 -0.006366 0.011050 0.000520 0.000000 0.000000 0.000000
# 3 -0.003192 0.000520 0.014351 0.000000 0.000000 0.000000
# 4 0.000000 0.000000 0.000000 0.153892 0.000000 0.000000
# 5 0.000000 0.000000 0.000000 0.000000 0.034084 0.000000
# 6 0.000000 0.000000 0.000000 0.000000 0.000000 0.051278
#
#
# Mechanical properties :
#
#
# Convention : Reuss Voigt Hill
#
# Bulk Modulus (GPa) = 40.72245 43.87132 42.29688
# Shear Modulus (GPa) = 16.22616 24.44386 20.33501
#
# Velocity S-wave (km/s) = 2.79679 3.43270 3.13093
# Velocity P-wave (km/s) = 5.48271 6.07124 5.78447
#
# Compressibility (1/GPa) = 0.02455648
#
# Stress axis : x y z
#
# Youngs Moduli (GPa) = 58.04132 90.49768 69.68047
#
# Poissons Ratio (x) = 0.57606 0.22240
# Poissons Ratio (y) = 0.36946 -0.03625
# Poissons Ratio (z) = 0.18525 -0.04708
#
# Static dielectric constant tensor:
#      x y z
#    x 1.788180 0.000000 0.000000 
#    y 0.000000 1.738110 0.000000 
#    z 0.000000 0.000000 1.910520 
# 
# From -- ./inp_files/17355.got.cif
#   From: 2010.05.17/outbox.cif.g08.bks.cpg/sg49_9_cif.got.tgz:17355.got - 2010.06.03 21:02:19.
