data_PCOD9394656
_publ_section_title
;
Structure prediction by ZEFSAII (Michael W. Deem and Ramdas Pophale) SiO2 
 PCOD9394656
Probable space group: P C C M
;
_chemical_formula_sum "Si O2"
_cell_formula_units_Z 36
_cell_length_a 13.822728
_cell_length_b 9.644277
_cell_length_c 14.210570
_cell_angle_alpha 90.000000
_cell_angle_beta 90.000000
_cell_angle_gamma 90.000000
_cell_volume 1894.414181
_symmetry_space_group_name_H-M "P C C M"
_symmetry_group_IT_number 49
_symmetry_cell_setting 'orthorhombic'
loop_
_space_group_symop_operation_xyz
x,y,z
-x,-y,z
x,-y,1/2-z
-x,y,1/2-z
-x,-y,-z
x,y,-z
-x,y,1/2+z
x,-y,1/2+z
loop_
_atom_site_type_symbol
_atom_site_label
_atom_site_fract_x
_atom_site_fract_y
_atom_site_fract_z
Si Si1 0.904297 0.088534 0.887003
Si Si2 0.259663 0.000000 0.750000
Si Si3 0.909709 0.407874 0.886006
Si Si4 0.693014 0.492372 0.111938
Si Si5 0.385680 0.725243 0.249959
O O1 0.913182 0.248269 0.853414
O O2 0.811842 0.020861 0.838136
O O3 0.893124 0.089162 0.000000
O O4 0.000000 0.000000 0.864866
O O5 0.326118 0.134453 0.759288
O O6 0.806927 0.477925 0.863915
O O7 0.000000 0.500000 0.854648
O O8 0.914527 0.401432 0.000000
O O9 0.643818 0.354810 0.154285
O O10 0.645786 0.620666 0.166667
O O11 0.682393 0.502592 0.000000
O O12 0.500000 0.748211 0.250000
#
# Coordination Sequence:
#
# PCOD9394656 Si02
#       5
#     8   4   8   8   8
#     4  10  22  40  62  90 127 164 199 245 298 363
#     4  12  24  42  62  90 126 166 204 246 308 376
#     4   9  18  35  61  91 120 154 195 244 301 360
#     4  10  21  42  67  90 121 160 203 255 310 365
#     4  11  25  42  62  90 121 159 208 262 310 358
#
# _framework density 19.003235
#
# number of rings (size 3 to 8) (size 9 to 14) (size 15 to 20)
#    0.000    1.778    2.222    2.000    3.111    2.667 
#    0.000    2.222    0.000    4.000    0.000    0.000 
#    0.000    0.000    0.000    0.000    0.000    0.000 
#
# Total GULP energy -201191.996601 kJ/mol
# GULP energy per Si atom -5588.666572 kJ/mol
# Density = 1.895998 g / cm^3
# Si number density = 19.003235 Si / 1000 Ang^3
#
#
#
# Elastic Constant Matrix: (Units=GPa)
#
#
# Indices 1 2 3 4 5 6 
#
# 1 201.4736 97.3514 50.0544 0.0000 0.0000 0.0000
# 2 97.3514 161.6483 48.2905 0.0000 0.0000 0.0000
# 3 50.0544 48.2905 97.0103 0.0000 0.0000 0.0000
# 4 0.0000 0.0000 0.0000 7.7164 0.0000 0.0000
# 5 0.0000 0.0000 0.0000 0.0000 21.9444 0.0000
# 6 0.0000 0.0000 0.0000 0.0000 0.0000 192.8746
#
#
#
# Elastic Compliance Matrix: (Units=1/GPa)
#
#
# Indices 1 2 3 4 5 6 
#
# 1 0.007272 -0.003828 -0.001847 0.000000 0.000000 0.000000
# 2 -0.003828 0.009282 -0.002645 0.000000 0.000000 0.000000
# 3 -0.001847 -0.002645 0.012578 0.000000 0.000000 0.000000
# 4 0.000000 0.000000 0.000000 0.129594 0.000000 0.000000
# 5 0.000000 0.000000 0.000000 0.000000 0.045570 0.000000
# 6 0.000000 0.000000 0.000000 0.000000 0.000000 0.005185
#
#
# Mechanical properties :
#
#
# Convention : Reuss Voigt Hill
#
# Bulk Modulus (GPa) = 80.05161 94.61387 87.33274
# Shear Modulus (GPa) = 21.71246 62.13615 41.92430
#
# Velocity S-wave (km/s) = 3.38385 5.72439 4.70208
# Velocity P-wave (km/s) = 7.58182 9.67408 8.69114
#
# Compressibility (1/GPa) = 0.01249194
#
# Stress axis : x y z
#
# Youngs Moduli (GPa) = 137.51877 107.73850 79.50512
#
# Poissons Ratio (x) = 0.41239 0.14682
# Poissons Ratio (y) = 0.52638 0.21032
# Poissons Ratio (z) = 0.25394 0.28501
#
# Static dielectric constant tensor:
#      x y z
#    x 1.641220 0.000000 0.000000 
#    y 0.000000 1.639940 0.000000 
#    z 0.000000 0.000000 1.674150 
# 
# From -- ./inp_files/13291.got.cif
#   From: 2010.05.17/outbox.cif.g08.bks.cpg/sg49_7_cif.got.tgz:13291.got - 2010.06.03 21:02:19.
