data_PCOD9394499
_publ_section_title
;
Structure prediction by ZEFSAII (Michael W. Deem and Ramdas Pophale) SiO2 
 PCOD9394499
Probable space group: P C C M
;
_chemical_formula_sum "Si O2"
_cell_formula_units_Z 56
_cell_length_a 24.311586
_cell_length_b 7.926450
_cell_length_c 15.050627
_cell_angle_alpha 90.000000
_cell_angle_beta 90.000000
_cell_angle_gamma 90.000000
_cell_volume 2900.324617
_symmetry_space_group_name_H-M "P C C M"
_symmetry_group_IT_number 49
_symmetry_cell_setting 'orthorhombic'
loop_
_space_group_symop_operation_xyz
x,y,z
-x,-y,z
x,-y,1/2-z
-x,y,1/2-z
-x,-y,-z
x,y,-z
-x,y,1/2+z
x,-y,1/2+z
loop_
_atom_site_type_symbol
_atom_site_label
_atom_site_fract_x
_atom_site_fract_y
_atom_site_fract_z
Si Si1 0.561058 0.203219 0.601359
Si Si2 0.937420 0.500000 0.107860
Si Si3 0.228780 0.704596 0.250000
Si Si4 0.561057 0.796780 0.398641
Si Si5 0.141856 0.806085 0.605822
Si Si6 0.858144 0.806086 0.605822
Si Si7 0.646461 0.300914 0.250000
O O1 0.569050 0.261191 0.500000
O O2 0.500001 0.261069 0.631316
O O3 0.610057 0.253127 0.665192
O O4 0.559384 0.999999 0.600478
O O5 0.903549 0.667475 0.133050
O O6 0.903550 0.332524 0.133050
O O7 0.000000 0.500000 0.140235
O O8 0.939390 0.499999 0.000000
O O9 0.227208 0.500000 0.250000
O O10 0.195643 0.768899 0.335977
O O11 0.195643 0.768899 0.164023
O O12 0.291581 0.767732 0.249999
O O13 0.569049 0.738807 0.500000
O O14 0.610056 0.746871 0.334808
O O15 0.152227 0.785788 0.500000
O O16 0.124239 0.999999 0.620636
O O17 0.847774 0.785789 0.500000
O O18 0.652539 0.500000 0.250000
#
# Coordination Sequence:
#
# PCOD9394499 Si02
#       7
#     8   8   8   8   8   8   8
#     4   9  19  37  59  81 109 147 187 230 284 342
#     4   9  18  35  61  91 122 155 189 234 292 346
#     4  11  23  40  58  77 113 158 196 239 291 346
#     4   9  19  37  59  81 109 147 187 230 284 342
#     4  10  21  38  61  87 116 154 197 240 290 346
#     4  10  21  38  61  87 116 154 197 240 290 346
#     4  11  24  36  53  84 114 146 187 234 286 337
#
# _framework density 19.308181999999999
#
# number of rings (size 3 to 8) (size 9 to 14) (size 15 to 20)
#    0.000    2.143    1.429    2.143    0.000    6.857 
#    0.000   11.429    0.000    1.714    0.000    0.000 
#    0.000    0.000    0.000    0.000    0.000    0.000 
#
# Total GULP energy -312591.245828 kJ/mol
# GULP energy per Si atom -5581.986533 kJ/mol
# Density = 1.926424 g / cm^3
# Si number density = 19.308182 Si / 1000 Ang^3
#
#
#
# Elastic Constant Matrix: (Units=GPa)
#
#
# Indices 1 2 3 4 5 6 
#
# 1 211.1209 67.5543 82.6244 0.0000 0.0000 0.0000
# 2 67.5543 105.0989 39.5175 0.0000 0.0000 0.0000
# 3 82.6244 39.5175 87.9167 0.0000 0.0000 0.0000
# 4 0.0000 0.0000 0.0000 35.8954 0.0000 0.0000
# 5 0.0000 0.0000 0.0000 0.0000 -10.1099 0.0000
# 6 0.0000 0.0000 0.0000 0.0000 0.0000 990.8055
#
#
#
# Elastic Compliance Matrix: (Units=1/GPa)
#
#
# Indices 1 2 3 4 5 6 
#
# 1 0.008138 -0.002834 -0.006374 0.000000 0.000000 0.000000
# 2 -0.002834 0.012437 -0.002927 0.000000 0.000000 0.000000
# 3 -0.006374 -0.002927 0.018681 0.000000 0.000000 0.000000
# 4 0.000000 0.000000 0.000000 0.027859 0.000000 0.000000
# 5 0.000000 0.000000 0.000000 0.000000 -0.098913 0.000000
# 6 0.000000 0.000000 0.000000 0.000000 0.000000 0.001009
#
#
# Mechanical properties :
#
#
# Convention : Reuss Voigt Hill
#
# Bulk Modulus (GPa) = 66.73221 87.05875 76.89548
# Shear Modulus (GPa) = -3281.56335 217.61423 -1531.97456
#
# Velocity S-wave (km/s) = -41.27058 10.62781 -28.19850
# Velocity P-wave (km/s) = 47.29036 13.99241 31.94206
#
# Compressibility (1/GPa) = 0.01498527
#
# Stress axis : x y z
#
# Youngs Moduli (GPa) = 122.87763 80.40501 53.53157
#
# Poissons Ratio (x) = 0.22788 0.34123
# Poissons Ratio (y) = 0.34826 0.15667
# Poissons Ratio (z) = 0.78327 0.23532
#
# Static dielectric constant tensor:
#      x y z
#    x 1.662800 0.000000 0.000000 
#    y 0.000000 1.686450 0.000000 
#    z 0.000000 0.000000 1.694190 
# 
# From -- ./inp_files/14398.got.cif
#   From: 2010.05.17/outbox.cif.g08.bks.cpg/sg49_8_cif.got.tgz:14398.got - 2010.06.03 21:02:19.
