data_PCOD9394604
_publ_section_title
;
Structure prediction by ZEFSAII (Michael W. Deem and Ramdas Pophale) SiO2 
 PCOD9394604
Probable space group: P C C M
;
_chemical_formula_sum "Si O2"
_cell_formula_units_Z 64
_cell_length_a 7.782429
_cell_length_b 15.259362
_cell_length_c 23.196319
_cell_angle_alpha 90.000000
_cell_angle_beta 90.000000
_cell_angle_gamma 90.000000
_cell_volume 2754.676575
_symmetry_space_group_name_H-M "P C C M"
_symmetry_group_IT_number 49
_symmetry_cell_setting 'orthorhombic'
loop_
_space_group_symop_operation_xyz
x,y,z
-x,-y,z
x,-y,1/2-z
-x,y,1/2-z
-x,-y,-z
x,y,-z
-x,y,1/2+z
x,-y,1/2+z
loop_
_atom_site_type_symbol
_atom_site_label
_atom_site_fract_x
_atom_site_fract_y
_atom_site_fract_z
Si Si1 0.922002 0.782634 0.934649
Si Si2 0.769264 0.421984 0.872541
Si Si3 0.665845 0.745213 0.433922
Si Si4 0.630396 0.080346 0.871547
Si Si5 0.828690 0.390667 0.379771
Si Si6 0.208554 0.153745 0.254411
Si Si7 0.149954 0.055566 0.853623
Si Si8 0.701903 0.357755 0.251323
O O1 0.806894 0.699831 0.913969
O O2 0.896941 0.860413 0.890166
O O3 0.127026 0.762366 0.932809
O O4 0.877152 0.805118 0.000000
O O5 0.650407 0.344377 0.897548
O O6 0.728375 0.519796 0.894213
O O7 0.771322 0.411070 0.803418
O O8 0.968225 0.407320 0.889191
O O9 0.613104 0.733808 0.500000
O O10 0.583330 0.832654 0.406224
O O11 0.706992 0.111512 0.810683
O O12 0.500000 0.000000 0.866366
O O13 0.783714 0.020287 0.897113
O O14 0.788624 0.377796 0.312320
O O15 0.261412 0.097851 0.198317
O O16 0.269326 0.253969 0.256260
O O17 0.000000 0.158206 0.250000
O O18 0.000000 0.000000 0.823079
O O19 0.500000 0.376296 0.250000
#
# Coordination Sequence:
#
# PCOD9394604 Si02
#       8
#     8   8   8   8   8   8   8   8
#     4  10  21  39  66  97 127 166 223 277 319 379
#     4  10  21  40  67  96 129 169 219 265 333 405
#     4  10  21  41  66  93 129 174 220 271 327 386
#     4  12  27  41  64  95 135 170 218 272 327 391
#     4  10  21  40  66  97 130 170 213 272 330 403
#     4  12  23  41  64  93 131 174 216 269 330 398
#     4  12  23  39  64  94 124 173 216 260 323 391
#     4  12  25  38  65  95 133 171 209 270 337 402
#
# _framework density 23.233218000000001
#
# number of rings (size 3 to 8) (size 9 to 14) (size 15 to 20)
#    0.000    1.000    5.000    1.875    1.750    4.000 
#    0.000    2.500    0.000    0.000    0.000    1.750 
#    0.000    0.000    0.000    0.000    0.000    0.000 
#
# Total GULP energy -357201.658351 kJ/mol
# GULP energy per Si atom -5581.275912 kJ/mol
# Density = 2.318034 g / cm^3
# Si number density = 23.233218 Si / 1000 Ang^3
#
#
#
# Elastic Constant Matrix: (Units=GPa)
#
#
# Indices 1 2 3 4 5 6 
#
# 1 23.6494 19.1662 -1.8204 0.0000 0.0000 0.0000
# 2 19.1662 150.5558 33.6614 0.0000 0.0000 0.0000
# 3 -1.8204 33.6614 102.6154 0.0000 0.0000 0.0000
# 4 0.0000 0.0000 0.0000 -36.7116 0.0000 0.0000
# 5 0.0000 0.0000 0.0000 0.0000 -2.9241 0.0000
# 6 0.0000 0.0000 0.0000 0.0000 0.0000 20.0591
#
#
#
# Elastic Compliance Matrix: (Units=1/GPa)
#
#
# Indices 1 2 3 4 5 6 
#
# 1 0.048037 -0.006805 0.003084 0.000000 0.000000 0.000000
# 2 -0.006805 0.008132 -0.002788 0.000000 0.000000 0.000000
# 3 0.003084 -0.002788 0.010714 0.000000 0.000000 0.000000
# 4 0.000000 0.000000 0.000000 -0.027239 0.000000 0.000000
# 5 0.000000 0.000000 0.000000 0.000000 -0.341986 0.000000
# 6 0.000000 0.000000 0.000000 0.000000 0.000000 0.049853
#
#
# Mechanical properties :
#
#
# Convention : Reuss Voigt Hill
#
# Bulk Modulus (GPa) = 18.56474 42.09277 30.32876
# Shear Modulus (GPa) = -22.57163 11.13890 -5.71636
#
# Velocity S-wave (km/s) = -3.12031 2.19198 -1.57028
# Velocity P-wave (km/s) = 2.23021 4.95613 3.12965
#
# Compressibility (1/GPa) = 0.05386556
#
# Stress axis : x y z
#
# Youngs Moduli (GPa) = 20.81744 122.97536 93.33180
#
# Poissons Ratio (x) = 0.83682 -0.28787
# Poissons Ratio (y) = 0.14166 0.26023
# Poissons Ratio (z) = -0.06421 0.34288
#
# Static dielectric constant tensor:
#      x y z
#    x 2.306930 0.000000 0.000000 
#    y 0.000000 1.899740 0.000000 
#    z 0.000000 0.000000 1.820220 
# 
# From -- ./inp_files/22546.got.cif
#   From: 2010.05.17/outbox.cif.g08.bks.cpg/sg49_12_cif.got.tgz:22546.got - 2010.06.03 21:02:19.
