data_PCOD9394510
_publ_section_title
;
Structure prediction by ZEFSAII (Michael W. Deem and Ramdas Pophale) SiO2 
 PCOD9394510
Probable space group: P C C M
;
_chemical_formula_sum "Si O2"
_cell_formula_units_Z 34
_cell_length_a 9.511520
_cell_length_b 20.642300
_cell_length_c 8.921503
_cell_angle_alpha 90.000000
_cell_angle_beta 90.000000
_cell_angle_gamma 90.000000
_cell_volume 1751.644770
_symmetry_space_group_name_H-M "P C C M"
_symmetry_group_IT_number 49
_symmetry_cell_setting 'orthorhombic'
loop_
_space_group_symop_operation_xyz
x,y,z
-x,-y,z
x,-y,1/2-z
-x,y,1/2-z
-x,-y,-z
x,y,-z
-x,y,1/2+z
x,-y,1/2+z
loop_
_atom_site_type_symbol
_atom_site_label
_atom_site_fract_x
_atom_site_fract_y
_atom_site_fract_z
Si Si1 0.651951 0.931849 0.821368
Si Si2 0.000000 0.500000 0.750000
Si Si3 0.651563 0.301238 0.820756
Si Si4 0.722407 0.563700 0.830854
Si Si5 0.153468 0.191929 0.820698
O O1 0.500000 0.916602 0.750000
O O2 0.759206 0.873783 0.792194
O O3 0.698718 0.000000 0.750000
O O4 0.636120 0.939430 0.000000
O O5 0.110349 0.453597 0.834729
O O6 0.500000 0.285521 0.750000
O O7 0.692395 0.373144 0.765782
O O8 0.763488 0.250949 0.755010
O O9 0.646047 0.298073 0.000000
O O10 0.661850 0.500000 0.750000
O O11 0.670351 0.572216 0.000000
O O12 0.000000 0.186976 0.750000
O O13 0.145670 0.201786 0.000000
#
# Coordination Sequence:
#
# PCOD9394510 Si02
#       5
#     8   2   8   8   8
#     4  10  21  38  64  94 126 165 208 254 306 368
#     4   8  22  36  64  88 126 160 202 248 310 364
#     4  12  26  44  66  91 124 165 210 261 316 375
#     4  10  21  38  62  90 123 160 205 253 308 369
#     4  11  25  43  64  93 127 166 210 258 314 371
#
# _framework density 19.410326999999999
#
# number of rings (size 3 to 8) (size 9 to 14) (size 15 to 20)
#    0.706    0.706    0.000    6.000    1.647    6.588 
#    0.000    4.706    0.000    0.000    0.000    0.000 
#    0.000    0.000    0.000    0.000    0.000    0.000 
#
# Total GULP energy -189923.480788 kJ/mol
# GULP energy per Si atom -5585.984729 kJ/mol
# Density = 1.936615 g / cm^3
# Si number density = 19.410327 Si / 1000 Ang^3
#
#
#
# Elastic Constant Matrix: (Units=GPa)
#
#
# Indices 1 2 3 4 5 6 
#
# 1 114.6747 89.2052 72.9975 0.0000 0.0000 0.0000
# 2 89.2052 167.3771 103.9152 0.0000 0.0000 0.0000
# 3 72.9975 103.9152 180.1665 0.0000 0.0000 0.0000
# 4 0.0000 0.0000 0.0000 26.9116 0.0000 0.0000
# 5 0.0000 0.0000 0.0000 0.0000 27.1844 0.0000
# 6 0.0000 0.0000 0.0000 0.0000 0.0000 29.3481
#
#
#
# Elastic Compliance Matrix: (Units=1/GPa)
#
#
# Indices 1 2 3 4 5 6 
#
# 1 0.015516 -0.006802 -0.002363 0.000000 0.000000 0.000000
# 2 -0.006802 0.012289 -0.004332 0.000000 0.000000 0.000000
# 3 -0.002363 -0.004332 0.009007 0.000000 0.000000 0.000000
# 4 0.000000 0.000000 0.000000 0.037159 0.000000 0.000000
# 5 0.000000 0.000000 0.000000 0.000000 0.036786 0.000000
# 6 0.000000 0.000000 0.000000 0.000000 0.000000 0.034074
#
#
# Mechanical properties :
#
#
# Convention : Reuss Voigt Hill
#
# Bulk Modulus (GPa) = 101.86600 110.49493 106.18046
# Shear Modulus (GPa) = 28.55542 29.76219 29.15881
#
# Velocity S-wave (km/s) = 3.83971 3.92001 3.88007
# Velocity P-wave (km/s) = 8.50012 8.80557 8.65419
#
# Compressibility (1/GPa) = 0.00981682
#
# Stress axis : x y z
#
# Youngs Moduli (GPa) = 64.44901 81.37042 111.02929
#
# Poissons Ratio (x) = 0.55350 0.26239
# Poissons Ratio (y) = 0.43840 0.48100
# Poissons Ratio (z) = 0.15231 0.35251
#
# Static dielectric constant tensor:
#      x y z
#    x 1.680330 0.000000 0.000000 
#    y 0.000000 1.652250 0.000000 
#    z 0.000000 0.000000 1.657440 
# 
# From -- ./inp_files/1545.got.cif
#   From: 2010.05.17/outbox.cif.g08.bks.cpg/sg49_1_cif.got.tgz:1545.got - 2010.06.03 21:02:19.
