data_PCOD9394234
_publ_section_title
;
Structure prediction by ZEFSAII (Michael W. Deem and Ramdas Pophale) SiO2 
 PCOD9394234
Probable space group: P C C M
;
_chemical_formula_sum "Si O2"
_cell_formula_units_Z 48
_cell_length_a 9.244018
_cell_length_b 9.619043
_cell_length_c 28.614702
_cell_angle_alpha 90.000000
_cell_angle_beta 90.000000
_cell_angle_gamma 90.000000
_cell_volume 2544.379431
_symmetry_space_group_name_H-M "P C C M"
_symmetry_group_IT_number 49
_symmetry_cell_setting 'orthorhombic'
loop_
_space_group_symop_operation_xyz
x,y,z
-x,-y,z
x,-y,1/2-z
-x,y,1/2-z
-x,-y,-z
x,y,-z
-x,y,1/2+z
x,-y,1/2+z
loop_
_atom_site_type_symbol
_atom_site_label
_atom_site_fract_x
_atom_site_fract_y
_atom_site_fract_z
Si Si1 0.706756 0.644639 0.054928
Si Si2 0.925316 0.848780 0.702733
Si Si3 0.019723 0.653217 0.618571
Si Si4 0.573395 0.846812 0.704461
Si Si5 0.245332 0.329246 0.445968
Si Si6 0.472385 0.164504 0.600870
O O1 0.676750 0.479207 0.060163
O O2 0.577092 0.747212 0.067686
O O3 0.826218 0.677209 0.094526
O O4 0.749359 0.662923 0.000000
O O5 0.971255 0.761784 0.657478
O O6 0.749169 0.855622 0.707293
O O7 0.000000 0.789736 0.750000
O O8 0.000000 0.000000 0.697743
O O9 0.912715 0.650737 0.574447
O O10 0.000000 0.500000 0.640227
O O11 0.500000 0.778024 0.750000
O O12 0.525394 0.785058 0.654682
O O13 0.500000 0.000000 0.703074
O O14 0.245452 0.296019 0.500000
O O15 0.315359 0.204518 0.417573
O O16 0.500000 0.000000 0.598600
#
# Coordination Sequence:
#
# PCOD9394234 Si02
#       6
#     8   8   8   8   8   8
#     4  10  22  38  61  85 115 161 201 236 288 348
#     4  11  23  38  65  92 115 155 197 236 293 358
#     4  10  22  39  61  88 119 151 196 248 292 340
#     4  10  21  38  60  86 119 153 191 236 289 348
#     4  10  20  40  61  83 116 157 199 239 287 355
#     4  11  23  36  59  89 119 152 194 244 294 344
#
# _framework density 18.865112
#
# number of rings (size 3 to 8) (size 9 to 14) (size 15 to 20)
#    0.000    1.667    1.667    3.500    7.000    5.000 
#    0.000    0.000    0.000    5.000    0.000    0.000 
#    0.000    0.000    0.000    0.000    0.000    0.000 
#
# Total GULP energy -267454.487264 kJ/mol
# GULP energy per Si atom -5571.968485 kJ/mol
# Density = 1.882217 g / cm^3
# Si number density = 18.865112 Si / 1000 Ang^3
#
#
#
# Elastic Constant Matrix: (Units=GPa)
#
#
# Indices 1 2 3 4 5 6 
#
# 1 78.2330 14.8662 15.3357 0.0000 0.0000 0.0000
# 2 14.8662 41.7144 33.7516 0.0000 0.0000 0.0000
# 3 15.3357 33.7516 130.6258 0.0000 0.0000 0.0000
# 4 0.0000 0.0000 0.0000 20.8821 0.0000 0.0000
# 5 0.0000 0.0000 0.0000 0.0000 11.2757 0.0000
# 6 0.0000 0.0000 0.0000 0.0000 0.0000 17.1694
#
#
#
# Elastic Compliance Matrix: (Units=1/GPa)
#
#
# Indices 1 2 3 4 5 6 
#
# 1 0.013731 -0.004538 -0.000440 0.000000 0.000000 0.000000
# 2 -0.004538 0.031809 -0.007686 0.000000 0.000000 0.000000
# 3 -0.000440 -0.007686 0.009693 0.000000 0.000000 0.000000
# 4 0.000000 0.000000 0.000000 0.047888 0.000000 0.000000
# 5 0.000000 0.000000 0.000000 0.000000 0.088686 0.000000
# 6 0.000000 0.000000 0.000000 0.000000 0.000000 0.058243
#
#
# Mechanical properties :
#
#
# Convention : Reuss Voigt Hill
#
# Bulk Modulus (GPa) = 33.43851 42.05335 37.74593
# Shear Modulus (GPa) = 17.52265 22.30676 19.91470
#
# Velocity S-wave (km/s) = 3.05099 3.44239 3.25258
# Velocity P-wave (km/s) = 5.49317 6.17576 5.84444
#
# Compressibility (1/GPa) = 0.02990564
#
# Stress axis : x y z
#
# Youngs Moduli (GPa) = 72.82905 31.43806 103.16710
#
# Poissons Ratio (x) = 0.14266 0.04535
# Poissons Ratio (y) = 0.33048 0.79295
# Poissons Ratio (z) = 0.03201 0.24164
#
# Static dielectric constant tensor:
#      x y z
#    x 1.457090 0.000000 0.000000 
#    y 0.000000 1.663220 0.000000 
#    z 0.000000 0.000000 1.662250 
# 
# From -- ./inp_files/26291.got.cif
#   From: 2010.05.17/outbox.cif.g08.bks.cpg/sg49_14_cif.got.tgz:26291.got - 2010.06.03 21:02:19.
