data_PCOD9394829
_publ_section_title
;
Structure prediction by ZEFSAII (Michael W. Deem and Ramdas Pophale) SiO2 
 PCOD9394829
Probable space group: P C C M
;
_chemical_formula_sum "Si O2"
_cell_formula_units_Z 30
_cell_length_a 5.174839
_cell_length_b 18.716204
_cell_length_c 14.079361
_cell_angle_alpha 90.000000
_cell_angle_beta 90.000000
_cell_angle_gamma 90.000000
_cell_volume 1363.633172
_symmetry_space_group_name_H-M "P C C M"
_symmetry_group_IT_number 49
_symmetry_cell_setting 'orthorhombic'
loop_
_space_group_symop_operation_xyz
x,y,z
-x,-y,z
x,-y,1/2-z
-x,y,1/2-z
-x,-y,-z
x,y,-z
-x,y,1/2+z
x,-y,1/2+z
loop_
_atom_site_type_symbol
_atom_site_label
_atom_site_fract_x
_atom_site_fract_y
_atom_site_fract_z
Si Si1 0.277964 0.299527 0.111970
Si Si2 0.247440 0.857859 0.310420
Si Si3 0.500000 0.500000 0.250000
Si Si4 0.749708 0.950168 0.000000
Si Si5 0.216303 0.608052 0.887647
O O1 0.239202 0.226856 0.168286
O O2 0.565667 0.330391 0.123727
O O3 0.063797 0.359403 0.136069
O O4 0.239930 0.284202 0.000000
O O5 0.500000 0.874019 0.250000
O O6 0.251839 0.900036 0.408254
O O7 0.000000 0.878791 0.250000
O O8 0.683148 0.453808 0.180710
O O9 0.500000 0.000000 0.000000
O O10 0.000000 0.000000 0.000000
O O11 0.215886 0.586811 0.000000
#
# Coordination Sequence:
#
# PCOD9394829 Si02
#       5
#     8   8   2   4   8
#     4  10  22  45  68  98 135 176 230 291 346 401
#     4  12  26  44  75 109 143 184 241 294 347 418
#     4  12  26  42  64  96 140 178 232 278 372 412
#     4  12  28  50  74 108 154 193 229 283 359 428
#     4  10  24  41  65  93 132 178 227 285 345 420
#
# _framework density 22.000053000000001
#
# number of rings (size 3 to 8) (size 9 to 14) (size 15 to 20)
#    0.000    1.067    1.333    3.600    5.600    5.333 
#    0.000    4.000    0.000    0.000    0.000    0.000 
#    0.000    0.000    0.000    0.000    0.000    0.000 
#
# Total GULP energy -168225.771431 kJ/mol
# GULP energy per Si atom -5607.525714 kJ/mol
# Density = 2.194998 g / cm^3
# Si number density = 22.000053 Si / 1000 Ang^3
#
#
#
# Elastic Constant Matrix: (Units=GPa)
#
#
# Indices 1 2 3 4 5 6 
#
# 1 129.2023 21.4062 35.0415 0.0000 0.0000 0.0000
# 2 21.4062 83.7269 62.3900 0.0000 0.0000 0.0000
# 3 35.0415 62.3900 148.8417 0.0000 0.0000 0.0000
# 4 0.0000 0.0000 0.0000 -276.2500 0.0000 0.0000
# 5 0.0000 0.0000 0.0000 0.0000 30.0382 0.0000
# 6 0.0000 0.0000 0.0000 0.0000 0.0000 38.6803
#
#
#
# Elastic Compliance Matrix: (Units=1/GPa)
#
#
# Indices 1 2 3 4 5 6 
#
# 1 0.008322 -0.000971 -0.001552 0.000000 0.000000 0.000000
# 2 -0.000971 0.017482 -0.007099 0.000000 0.000000 0.000000
# 3 -0.001552 -0.007099 0.010060 0.000000 0.000000 0.000000
# 4 0.000000 0.000000 0.000000 -0.003620 0.000000 0.000000
# 5 0.000000 0.000000 0.000000 0.000000 0.033291 0.000000
# 6 0.000000 0.000000 0.000000 0.000000 0.000000 0.025853
#
#
# Mechanical properties :
#
#
# Convention : Reuss Voigt Hill
#
# Bulk Modulus (GPa) = 60.17385 66.60516 63.38950
# Shear Modulus (GPa) = 43.03973 -25.31075 8.86449
#
# Velocity S-wave (km/s) = 4.42786 -3.39556 2.00949
# Velocity P-wave (km/s) = 7.31794 3.86880 5.85320
#
# Compressibility (1/GPa) = 0.01661851
#
# Stress axis : x y z
#
# Youngs Moduli (GPa) = 120.16866 57.20178 99.40559
#
# Poissons Ratio (x) = 0.05554 0.15429
# Poissons Ratio (y) = 0.11668 0.70571
# Poissons Ratio (z) = 0.18652 0.40609
#
# Static dielectric constant tensor:
#      x y z
#    x 1.749640 0.000000 0.000000 
#    y 0.000000 1.766910 0.000000 
#    z 0.000000 0.000000 1.807100 
# 
# From -- ./inp_files/10547.got.cif
#   From: 2010.05.17/outbox.cif.g08.bks.cpg/sg49_6_cif.got.tgz:10547.got - 2010.06.03 21:02:19.
