data_PCOD9394880
_publ_section_title
;
Structure prediction by ZEFSAII (Michael W. Deem and Ramdas Pophale) SiO2 
 PCOD9394880
Probable space group: P C C M
;
_chemical_formula_sum "Si O2"
_cell_formula_units_Z 58
_cell_length_a 19.422771
_cell_length_b 7.941481
_cell_length_c 19.671250
_cell_angle_alpha 90.000000
_cell_angle_beta 90.000000
_cell_angle_gamma 90.000000
_cell_volume 3034.203107
_symmetry_space_group_name_H-M "P C C M"
_symmetry_group_IT_number 49
_symmetry_cell_setting 'orthorhombic'
loop_
_space_group_symop_operation_xyz
x,y,z
-x,-y,z
x,-y,1/2-z
-x,y,1/2-z
-x,-y,-z
x,y,-z
-x,y,1/2+z
x,-y,1/2+z
loop_
_atom_site_type_symbol
_atom_site_label
_atom_site_fract_x
_atom_site_fract_y
_atom_site_fract_z
Si Si1 0.500000 0.500000 0.000000
Si Si2 0.326295 0.811654 0.172183
Si Si3 0.203575 0.698732 0.421700
Si Si4 0.575922 0.500000 0.859504
Si Si5 0.203575 0.698732 0.921700
Si Si6 0.326296 0.188346 0.172183
Si Si7 0.079371 0.796297 0.172515
Si Si8 0.920629 0.796297 0.827485
O O1 0.559128 0.500000 0.939693
O O2 0.381375 0.665462 0.159632
O O3 0.263478 0.789133 0.120451
O O4 0.300748 0.796002 0.250000
O O5 0.355812 1.000000 0.164289
O O6 0.199806 0.755206 0.500000
O O7 0.219447 0.500000 0.421102
O O8 0.263479 0.789133 0.379549
O O9 0.132287 0.727203 0.382214
O O10 0.500000 0.500000 0.827023
O O11 0.618625 0.665463 0.840368
O O12 0.132287 0.727202 0.882214
O O13 0.199806 0.755206 0.000000
O O14 0.097266 0.744424 0.250000
O O15 1.000000 0.747203 0.159802
O O16 0.082439 1.000000 0.170627
#
# Coordination Sequence:
#
# PCOD9394880 Si02
#       8
#     2   8   8   8   8   8   8   8
#     4   8  24  44  68  96 136 162 200 248 298 364
#     4  11  24  41  65  95 125 162 209 254 303 363
#     4  11  24  38  57  85 122 161 204 254 307 367
#     4  10  23  44  68  93 130 165 197 251 299 357
#     4  11  24  38  57  85 122 161 204 254 307 367
#     4  11  24  41  65  95 125 162 209 254 303 363
#     4   9  19  37  59  83 114 153 201 256 310 367
#     4   9  19  37  59  83 114 153 201 256 310 367
#
# _framework density 19.115397000000002
#
# number of rings (size 3 to 8) (size 9 to 14) (size 15 to 20)
#    0.414    1.379    1.379    2.897    1.931    8.828 
#    0.000    6.207    0.000    0.000    0.000    0.000 
#    0.000    0.000    0.000    0.000    0.000    0.000 
#
# Total GULP energy -323303.014219 kJ/mol
# GULP energy per Si atom -5574.189900 kJ/mol
# Density = 1.907189 g / cm^3
# Si number density = 19.115397 Si / 1000 Ang^3
#
#
#
# Elastic Constant Matrix: (Units=GPa)
#
#
# Indices 1 2 3 4 5 6 
#
# 1 104.7391 48.7805 72.7717 0.0000 0.0000 0.0000
# 2 48.7805 101.6451 52.5029 0.0000 0.0000 0.0000
# 3 72.7717 52.5029 165.5307 0.0000 0.0000 0.0000
# 4 0.0000 0.0000 0.0000 22.1411 0.0000 0.0000
# 5 0.0000 0.0000 0.0000 0.0000 44.3309 0.0000
# 6 0.0000 0.0000 0.0000 0.0000 0.0000 -67.5257
#
#
#
# Elastic Compliance Matrix: (Units=1/GPa)
#
#
# Indices 1 2 3 4 5 6 
#
# 1 0.015390 -0.004653 -0.005290 0.000000 0.000000 0.000000
# 2 -0.004653 0.013173 -0.002132 0.000000 0.000000 0.000000
# 3 -0.005290 -0.002132 0.009043 0.000000 0.000000 0.000000
# 4 0.000000 0.000000 0.000000 0.045165 0.000000 0.000000
# 5 0.000000 0.000000 0.000000 0.000000 0.022558 0.000000
# 6 0.000000 0.000000 0.000000 0.000000 0.000000 -0.014809
#
#
# Mechanical properties :
#
#
# Convention : Reuss Voigt Hill
#
# Bulk Modulus (GPa) = 74.32415 80.00278 77.16346
# Shear Modulus (GPa) = 41.96177 12.97990 27.47083
#
# Velocity S-wave (km/s) = 4.69036 2.60864 3.79503
# Velocity P-wave (km/s) = 8.26431 7.14260 7.72385
#
# Compressibility (1/GPa) = 0.01345458
#
# Stress axis : x y z
#
# Youngs Moduli (GPa) = 64.97631 75.91376 110.58134
#
# Poissons Ratio (x) = 0.35326 0.58497
# Poissons Ratio (y) = 0.30237 0.23580
# Poissons Ratio (z) = 0.34372 0.16187
#
# Static dielectric constant tensor:
#      x y z
#    x 1.645520 0.000000 0.000000 
#    y 0.000000 1.680420 0.000000 
#    z 0.000000 0.000000 1.651170 
# 
# From -- ./inp_files/18186.got.cif
#   From: 2010.05.17/outbox.cif.g08.bks.cpg/sg49_10_cif.got.tgz:18186.got - 2010.06.03 21:02:19.
