data_PCOD9394385
_publ_section_title
;
Structure prediction by ZEFSAII (Michael W. Deem and Ramdas Pophale) SiO2 
 PCOD9394385
Probable space group: P C C M
;
_chemical_formula_sum "Si O2"
_cell_formula_units_Z 32
_cell_length_a 13.706672
_cell_length_b 7.619461
_cell_length_c 16.929030
_cell_angle_alpha 90.000000
_cell_angle_beta 90.000000
_cell_angle_gamma 90.000000
_cell_volume 1768.024771
_symmetry_space_group_name_H-M "P C C M"
_symmetry_group_IT_number 49
_symmetry_cell_setting 'orthorhombic'
loop_
_space_group_symop_operation_xyz
x,y,z
-x,-y,z
x,-y,1/2-z
-x,y,1/2-z
-x,-y,-z
x,y,-z
-x,y,1/2+z
x,-y,1/2+z
loop_
_atom_site_type_symbol
_atom_site_label
_atom_site_fract_x
_atom_site_fract_y
_atom_site_fract_z
Si Si1 0.249620 0.258045 0.906916
Si Si2 0.607402 0.573818 0.404686
Si Si3 0.926159 0.136233 0.690122
Si Si4 0.388896 0.040428 0.343052
O O1 0.313456 0.426645 0.883798
O O2 0.148349 0.242530 0.860619
O O3 0.314293 0.086957 0.887400
O O4 0.231750 0.266424 0.000000
O O5 0.500000 0.500000 0.383892
O O6 0.608588 0.600141 0.500000
O O7 0.628622 0.756470 0.362163
O O8 0.000000 0.235768 0.750000
O O9 0.871316 0.000000 0.750000
O O10 0.000000 0.000000 0.645437
O O11 0.500000 0.000000 0.369416
O O12 0.383129 0.000000 0.250000
#
# Coordination Sequence:
#
# PCOD9394385 Si02
#       4
#     8   8   8   8
#     4  11  20  34  63  89 117 166 206 247 313 371
#     4  10  21  37  56  87 127 159 199 251 304 373
#     4   6  16  35  58  83 121 154 200 265 313 352
#     4  11  23  37  55  82 125 167 207 250 300 371
#
# _framework density 18.099292999999999
#
# number of rings (size 3 to 8) (size 9 to 14) (size 15 to 20)
#    1.500    1.000    2.500    1.500    0.000    2.500 
#    0.000    0.000    0.000    3.000    0.000    5.250 
#    0.000    0.000    0.000    0.000    0.000    0.000 
#
# Total GULP energy -178152.248783 kJ/mol
# GULP energy per Si atom -5567.257774 kJ/mol
# Density = 1.805810 g / cm^3
# Si number density = 18.099293 Si / 1000 Ang^3
#
#
#
# Elastic Constant Matrix: (Units=GPa)
#
#
# Indices 1 2 3 4 5 6 
#
# 1 139.1113 68.8648 58.7025 0.0000 0.0000 0.0000
# 2 68.8648 157.7292 56.6461 0.0000 0.0000 0.0000
# 3 58.7025 56.6461 52.9809 0.0000 0.0000 0.0000
# 4 0.0000 0.0000 0.0000 12.5865 0.0000 0.0000
# 5 0.0000 0.0000 0.0000 0.0000 -0.3538 0.0000
# 6 0.0000 0.0000 0.0000 0.0000 0.0000 18.3787
#
#
#
# Elastic Compliance Matrix: (Units=1/GPa)
#
#
# Indices 1 2 3 4 5 6 
#
# 1 0.013571 -0.000852 -0.014126 0.000000 0.000000 0.000000
# 2 -0.000852 0.010345 -0.010117 0.000000 0.000000 0.000000
# 3 -0.014126 -0.010117 0.045342 0.000000 0.000000 0.000000
# 4 0.000000 0.000000 0.000000 0.079451 0.000000 0.000000
# 5 0.000000 0.000000 0.000000 0.000000 -2.826208 0.000000
# 6 0.000000 0.000000 0.000000 0.000000 0.000000 0.054411
#
#
# Mechanical properties :
#
#
# Convention : Reuss Voigt Hill
#
# Bulk Modulus (GPa) = 52.43904 79.80537 66.12220
# Shear Modulus (GPa) = -1.94815 17.16281 7.60733
#
# Velocity S-wave (km/s) = -1.03861 3.08272 2.05237
# Velocity P-wave (km/s) = 5.25334 7.54054 6.49836
#
# Compressibility (1/GPa) = 0.01906976
#
# Stress axis : x y z
#
# Youngs Moduli (GPa) = 73.68619 96.66184 22.05441
#
# Poissons Ratio (x) = 0.08237 0.31153
# Poissons Ratio (y) = 0.06279 0.22312
# Poissons Ratio (z) = 1.04086 0.97791
#
# Static dielectric constant tensor:
#      x y z
#    x 1.627750 0.000000 0.000000 
#    y 0.000000 1.622280 0.000000 
#    z 0.000000 0.000000 1.628220 
# 
# From -- ./inp_files/17442.got.cif
#   From: 2010.05.17/outbox.cif.g08.bks.cpg/sg49_9_cif.got.tgz:17442.got - 2010.06.03 21:02:19.
