data_PCOD9394498
_publ_section_title
;
Structure prediction by ZEFSAII (Michael W. Deem and Ramdas Pophale) SiO2 
 PCOD9394498
Probable space group: P C C M
;
_chemical_formula_sum "Si O2"
_cell_formula_units_Z 64
_cell_length_a 17.995064
_cell_length_b 11.665843
_cell_length_c 14.794395
_cell_angle_alpha 90.000000
_cell_angle_beta 90.000000
_cell_angle_gamma 90.000000
_cell_volume 3105.751709
_symmetry_space_group_name_H-M "P C C M"
_symmetry_group_IT_number 49
_symmetry_cell_setting 'orthorhombic'
loop_
_space_group_symop_operation_xyz
x,y,z
-x,-y,z
x,-y,1/2-z
-x,y,1/2-z
-x,-y,-z
x,y,-z
-x,y,1/2+z
x,-y,1/2+z
loop_
_atom_site_type_symbol
_atom_site_label
_atom_site_fract_x
_atom_site_fract_y
_atom_site_fract_z
Si Si1 0.247312 0.483072 0.106682
Si Si2 0.911144 0.136026 0.749817
Si Si3 0.416723 0.235356 0.219298
Si Si4 0.833369 0.704577 0.396473
Si Si5 0.200465 0.229218 0.108094
Si Si6 0.416931 0.531033 0.355662
Si Si7 0.659429 0.932157 0.896682
Si Si8 0.333168 0.204862 0.400853
O O1 0.189517 0.578751 0.142222
O O2 0.230052 0.354273 0.139413
O O3 0.335394 0.513915 0.114625
O O4 0.233450 0.482342 0.000000
O O5 0.881219 0.211873 0.833757
O O6 0.872092 0.192078 0.662507
O O7 0.000000 0.142802 0.750000
O O8 0.890906 0.000000 0.750000
O O9 0.500000 0.244427 0.250000
O O10 0.405677 0.332108 0.143246
O O11 0.399132 0.115421 0.173848
O O12 0.370143 0.253297 0.310569
O O13 0.862781 0.695654 0.500000
O O14 0.752198 0.760921 0.402445
O O15 0.264233 0.134438 0.126091
O O16 0.188464 0.231933 0.000000
O O17 0.500000 0.500000 0.393075
O O18 0.421358 0.500000 0.250000
O O19 0.664592 0.067751 0.892444
O O20 0.640295 0.900907 0.000000
O O21 0.366384 0.236673 0.500000
#
# Coordination Sequence:
#
# PCOD9394498 Si02
#       8
#     8   8   8   8   8   8   8   8
#     4  10  22  40  65  95 122 164 214 260 316 373
#     4  11  25  43  66  98 130 166 209 249 306 379
#     4  12  23  37  56  81 116 160 204 257 319 374
#     4  10  22  41  66  96 129 162 206 260 312 368
#     4  10  21  40  65  96 128 162 206 260 312 368
#     4  11  22  37  56  85 122 158 207 260 315 372
#     4  10  21  38  61  87 115 154 209 262 311 371
#     4  10  22  39  59  85 117 158 209 260 310 369
#
# _framework density 20.606928
#
# number of rings (size 3 to 8) (size 9 to 14) (size 15 to 20)
#    0.000    1.500    2.500    2.625    1.750    3.750 
#    0.000    3.750    0.000    2.625    0.000    0.000 
#    0.000    0.000    0.000    0.000    0.000    0.000 
#
# Total GULP energy -357101.393103 kJ/mol
# GULP energy per Si atom -5579.709267 kJ/mol
# Density = 2.056003 g / cm^3
# Si number density = 20.606928 Si / 1000 Ang^3
#
#
#
# Elastic Constant Matrix: (Units=GPa)
#
#
# Indices 1 2 3 4 5 6 
#
# 1 73.8486 48.6747 24.8542 0.0000 0.0000 0.0000
# 2 48.6747 108.0353 33.2106 0.0000 0.0000 0.0000
# 3 24.8542 33.2106 54.0025 0.0000 0.0000 0.0000
# 4 0.0000 0.0000 0.0000 26.9543 0.0000 0.0000
# 5 0.0000 0.0000 0.0000 0.0000 134.0760 0.0000
# 6 0.0000 0.0000 0.0000 0.0000 0.0000 52.2432
#
#
#
# Elastic Compliance Matrix: (Units=1/GPa)
#
#
# Indices 1 2 3 4 5 6 
#
# 1 0.020127 -0.007671 -0.004546 0.000000 0.000000 0.000000
# 2 -0.007671 0.014337 -0.005287 0.000000 0.000000 0.000000
# 3 -0.004546 -0.005287 0.023861 0.000000 0.000000 0.000000
# 4 0.000000 0.000000 0.000000 0.037100 0.000000 0.000000
# 5 0.000000 0.000000 0.000000 0.000000 0.007458 0.000000
# 6 0.000000 0.000000 0.000000 0.000000 0.000000 0.019141
#
#
# Mechanical properties :
#
#
# Convention : Reuss Voigt Hill
#
# Bulk Modulus (GPa) = 42.88417 49.92948 46.40683
# Shear Modulus (GPa) = 30.33884 51.26449 40.80166
#
# Velocity S-wave (km/s) = 3.84117 4.99313 4.45454
# Velocity P-wave (km/s) = 6.36620 7.58445 7.00187
#
# Compressibility (1/GPa) = 0.02331863
#
# Stress axis : x y z
#
# Youngs Moduli (GPa) = 49.68447 69.74749 41.90896
#
# Poissons Ratio (x) = 0.53501 0.19052
# Poissons Ratio (y) = 0.38111 0.22157
# Poissons Ratio (z) = 0.22586 0.36875
#
# Static dielectric constant tensor:
#      x y z
#    x 1.689600 0.000000 0.000000 
#    y 0.000000 1.822500 0.000000 
#    z 0.000000 0.000000 1.774060 
# 
# From -- ./inp_files/14181.got.cif
#   From: 2010.05.17/outbox.cif.g08.bks.cpg/sg49_8_cif.got.tgz:14181.got - 2010.06.03 21:02:19.
