data_PCOD9394518
_publ_section_title
;
Structure prediction by ZEFSAII (Michael W. Deem and Ramdas Pophale) SiO2 
 PCOD9394518
Probable space group: P C C M
;
_chemical_formula_sum "Si O2"
_cell_formula_units_Z 48
_cell_length_a 9.042683
_cell_length_b 16.914989
_cell_length_c 15.002762
_cell_angle_alpha 90.000000
_cell_angle_beta 90.000000
_cell_angle_gamma 90.000000
_cell_volume 2294.775719
_symmetry_space_group_name_H-M "P C C M"
_symmetry_group_IT_number 49
_symmetry_cell_setting 'orthorhombic'
loop_
_space_group_symop_operation_xyz
x,y,z
-x,-y,z
x,-y,1/2-z
-x,y,1/2-z
-x,-y,-z
x,y,-z
-x,y,1/2+z
x,-y,1/2+z
loop_
_atom_site_type_symbol
_atom_site_label
_atom_site_fract_x
_atom_site_fract_y
_atom_site_fract_z
Si Si1 0.155197 0.331714 0.599089
Si Si2 0.114194 0.569365 0.603096
Si Si3 0.677132 0.167199 0.903586
Si Si4 0.670980 0.208550 0.395257
Si Si5 0.830215 0.905658 0.237161
Si Si6 0.330973 0.366120 0.773760
O O1 0.187001 0.366163 0.500000
O O2 0.213174 0.242481 0.595539
O O3 0.242467 0.366245 0.681812
O O4 0.982987 0.350381 0.615044
O O5 0.153925 0.563144 0.500000
O O6 0.257411 0.569614 0.662852
O O7 0.000000 0.500000 0.625647
O O8 0.505893 0.192098 0.895552
O O9 0.725254 0.120461 0.817700
O O10 0.694195 0.126191 0.000000
O O11 0.712288 0.222688 0.500000
O O12 0.761112 0.135320 0.351247
O O13 0.687941 0.283759 0.329274
O O14 0.000000 0.877211 0.250000
O O15 0.834015 0.000000 0.250000
O O16 0.500000 0.377133 0.750000
#
# Coordination Sequence:
#
# PCOD9394518 Si02
#       6
#     8   8   8   8   8   8
#     4  10  21  38  63  93 128 169 212 266 319 378
#     4  10  24  45  67  96 135 177 220 265 323 393
#     4  10  21  40  64  92 126 167 217 265 320 383
#     4  11  23  41  66  97 129 168 220 274 328 390
#     4  11  25  42  62  93 131 170 214 267 329 392
#     4  12  22  38  67  99 132 170 219 274 326 388
#
# _framework density 20.917076999999999
#
# number of rings (size 3 to 8) (size 9 to 14) (size 15 to 20)
#    0.000    1.333    3.333    1.500    2.333    4.667 
#    0.000    5.000    0.000    3.000    0.000    0.000 
#    0.000    0.000    0.000    0.000    0.000    0.000 
#
# Total GULP energy -267962.074435 kJ/mol
# GULP energy per Si atom -5582.543217 kJ/mol
# Density = 2.086947 g / cm^3
# Si number density = 20.917077 Si / 1000 Ang^3
#
#
#
# Elastic Constant Matrix: (Units=GPa)
#
#
# Indices 1 2 3 4 5 6 
#
# 1 107.4990 40.6721 70.1813 0.0000 0.0000 0.0000
# 2 40.6721 44.9166 37.5387 0.0000 0.0000 0.0000
# 3 70.1813 37.5387 143.2154 0.0000 0.0000 0.0000
# 4 0.0000 0.0000 0.0000 -0.3190 0.0000 0.0000
# 5 0.0000 0.0000 0.0000 0.0000 33.3686 0.0000
# 6 0.0000 0.0000 0.0000 0.0000 0.0000 12.5346
#
#
#
# Elastic Compliance Matrix: (Units=1/GPa)
#
#
# Indices 1 2 3 4 5 6 
#
# 1 0.016961 -0.010771 -0.005488 0.000000 0.000000 0.000000
# 2 -0.010771 0.035349 -0.003987 0.000000 0.000000 0.000000
# 3 -0.005488 -0.003987 0.010717 0.000000 0.000000 0.000000
# 4 0.000000 0.000000 0.000000 -3.134330 0.000000 0.000000
# 5 0.000000 0.000000 0.000000 0.000000 0.029968 0.000000
# 6 0.000000 0.000000 0.000000 0.000000 0.000000 0.079779
#
#
# Mechanical properties :
#
#
# Convention : Reuss Voigt Hill
#
# Bulk Modulus (GPa) = 44.37792 65.82391 55.10091
# Shear Modulus (GPa) = -1.71612 18.93277 8.60832
#
# Velocity S-wave (km/s) = -0.90676 3.01181 2.03086
# Velocity P-wave (km/s) = 4.49064 6.60545 5.64791
#
# Compressibility (1/GPa) = 0.02253373
#
# Stress axis : x y z
#
# Youngs Moduli (GPa) = 58.96005 28.28921 93.31004
#
# Poissons Ratio (x) = 0.30471 0.51209
# Poissons Ratio (y) = 0.63508 0.37204
# Poissons Ratio (z) = 0.32358 0.11279
#
# Static dielectric constant tensor:
#      x y z
#    x 1.721290 0.000000 0.000000 
#    y 0.000000 1.870160 0.000000 
#    z 0.000000 0.000000 1.752840 
# 
# From -- ./inp_files/11841.got.cif
#   From: 2010.05.17/outbox.cif.g08.bks.cpg/sg49_6_cif.got.tgz:11841.got - 2010.06.03 21:02:19.
