data_PCOD9394462
_publ_section_title
;
Structure prediction by ZEFSAII (Michael W. Deem and Ramdas Pophale) SiO2 
 PCOD9394462
Probable space group: P C C M
;
_chemical_formula_sum "Si O2"
_cell_formula_units_Z 36
_cell_length_a 13.585919
_cell_length_b 16.960756
_cell_length_c 8.077229
_cell_angle_alpha 90.000000
_cell_angle_beta 90.000000
_cell_angle_gamma 90.000000
_cell_volume 1861.215340
_symmetry_space_group_name_H-M "P C C M"
_symmetry_group_IT_number 49
_symmetry_cell_setting 'orthorhombic'
loop_
_space_group_symop_operation_xyz
x,y,z
-x,-y,z
x,-y,1/2-z
-x,y,1/2-z
-x,-y,-z
x,y,-z
-x,y,1/2+z
x,-y,1/2+z
loop_
_atom_site_type_symbol
_atom_site_label
_atom_site_fract_x
_atom_site_fract_y
_atom_site_fract_z
Si Si1 0.890709 0.108126 0.192037
Si Si2 0.112261 0.410573 0.304116
Si Si3 0.726484 0.000000 0.750000
Si Si4 0.389131 0.854061 0.698697
Si Si5 0.791684 0.255776 0.693895
O O1 0.810836 0.063352 0.306410
O O2 0.868056 0.200413 0.208789
O O3 0.000000 0.090784 0.250000
O O4 0.874167 0.085245 0.000000
O O5 0.133546 0.500000 0.250000
O O6 0.115631 0.406770 0.500000
O O7 0.187161 0.346070 0.233823
O O8 0.000000 0.392145 0.250000
O O9 0.649830 0.069031 0.799102
O O10 0.500000 0.836541 0.750000
O O11 0.384134 0.872956 0.500000
O O12 0.315682 0.780937 0.731482
O O13 0.809697 0.243553 0.500000
#
# Coordination Sequence:
#
# PCOD9394462 Si02
#       5
#     8   8   4   8   8
#     4  11  22  35  52  75 106 144 184 224 269 322
#     4  11  21  35  57  86 118 150 181 215 258 310
#     4  10  22  36  54  76 104 140 182 226 272 324
#     4  10  22  38  57  79 104 136 177 227 277 324
#     4  10  21  38  56  78 109 144 182 222 267 319
#
# _framework density 19.342199000000001
#
# number of rings (size 3 to 8) (size 9 to 14) (size 15 to 20)
#    0.000    1.556    0.000    6.000    0.000    9.778 
#    0.000    0.000    0.000    0.667    0.000    4.667 
#    0.000    0.000    0.000    0.000    0.000    0.000 
#
# Total GULP energy -200443.219769 kJ/mol
# GULP energy per Si atom -5567.867216 kJ/mol
# Density = 1.929818 g / cm^3
# Si number density = 19.342199 Si / 1000 Ang^3
#
#
#
# Elastic Constant Matrix: (Units=GPa)
#
#
# Indices 1 2 3 4 5 6 
#
# 1 133.4081 66.7539 29.7513 0.0000 0.0000 0.0000
# 2 66.7539 136.8405 24.6397 0.0000 0.0000 0.0000
# 3 29.7513 24.6397 100.7333 0.0000 0.0000 0.0000
# 4 0.0000 0.0000 0.0000 25.8248 0.0000 0.0000
# 5 0.0000 0.0000 0.0000 0.0000 4.7208 0.0000
# 6 0.0000 0.0000 0.0000 0.0000 0.0000 11.0694
#
#
#
# Elastic Compliance Matrix: (Units=1/GPa)
#
#
# Indices 1 2 3 4 5 6 
#
# 1 0.010248 -0.004659 -0.001887 0.000000 0.000000 0.000000
# 2 -0.004659 0.009763 -0.001012 0.000000 0.000000 0.000000
# 3 -0.001887 -0.001012 0.010732 0.000000 0.000000 0.000000
# 4 0.000000 0.000000 0.000000 0.038723 0.000000 0.000000
# 5 0.000000 0.000000 0.000000 0.000000 0.211828 0.000000
# 6 0.000000 0.000000 0.000000 0.000000 0.000000 0.090339
#
#
# Mechanical properties :
#
#
# Convention : Reuss Voigt Hill
#
# Bulk Modulus (GPa) = 63.99452 68.14129 66.06790
# Shear Modulus (GPa) = 12.75648 24.97880 18.86764
#
# Velocity S-wave (km/s) = 2.57089 3.59752 3.12663
# Velocity P-wave (km/s) = 6.47842 7.24997 6.87503
#
# Compressibility (1/GPa) = 0.01562634
#
# Stress axis : x y z
#
# Youngs Moduli (GPa) = 97.57912 102.42777 93.17884
#
# Poissons Ratio (x) = 0.47726 0.17583
# Poissons Ratio (y) = 0.45467 0.09429
# Poissons Ratio (z) = 0.18413 0.10365
#
# Static dielectric constant tensor:
#      x y z
#    x 7.038690 0.000000 0.000000 
#    y 0.000000 1.975300 0.000000 
#    z 0.000000 0.000000 1.781140 
# 
# From -- ./inp_files/3383.got.cif
#   From: 2010.05.17/outbox.cif.g08.bks.cpg/sg49_2_cif.got.tgz:3383.got - 2010.06.03 21:02:19.
