data_PCOD9394878
_publ_section_title
;
Structure prediction by ZEFSAII (Michael W. Deem and Ramdas Pophale) SiO2 
 PCOD9394878
Probable space group: P C C M
;
_chemical_formula_sum "Si O2"
_cell_formula_units_Z 58
_cell_length_a 11.824501
_cell_length_b 8.870466
_cell_length_c 26.008634
_cell_angle_alpha 90.000000
_cell_angle_beta 90.000000
_cell_angle_gamma 90.000000
_cell_volume 2728.015296
_symmetry_space_group_name_H-M "P C C M"
_symmetry_group_IT_number 49
_symmetry_cell_setting 'orthorhombic'
loop_
_space_group_symop_operation_xyz
x,y,z
-x,-y,z
x,-y,1/2-z
-x,y,1/2-z
-x,-y,-z
x,y,-z
-x,y,1/2+z
x,-y,1/2+z
loop_
_atom_site_type_symbol
_atom_site_label
_atom_site_fract_x
_atom_site_fract_y
_atom_site_fract_z
Si Si1 0.213772 0.656745 0.175682
Si Si2 0.000000 0.500000 0.500000
Si Si3 0.375448 0.923410 0.943226
Si Si4 0.978141 0.167258 0.139175
Si Si5 0.154750 0.832676 0.725707
Si Si6 0.551991 0.337259 0.124625
Si Si7 0.857087 0.589734 0.904011
Si Si8 0.681819 0.187231 0.371613
O O1 0.152133 0.791837 0.144623
O O2 0.183493 0.699935 0.234006
O O3 0.347282 0.648275 0.165945
O O4 0.157430 0.513189 0.147202
O O5 0.900322 0.493826 0.545553
O O6 0.392387 0.754569 0.922442
O O7 0.500000 0.000000 0.946644
O O8 0.314495 0.032308 0.902940
O O9 0.323938 0.925725 0.000000
O O10 0.035679 0.180366 0.195737
O O11 0.046879 0.285230 0.105743
O O12 0.000000 0.000000 0.120414
O O13 0.245833 0.824381 0.679875
O O14 0.162516 0.000000 0.750000
O O15 0.500000 0.500000 0.112427
O O16 0.446057 0.234459 0.141354
O O17 0.739887 0.682412 0.906478
#
# Coordination Sequence:
#
# PCOD9394878 Si02
#       8
#     8   2   8   8   8   8   8   8
#     4  12  23  43  68 101 139 185 233 289 353 440
#     4  12  24  48  70 100 138 192 230 300 374 430
#     4   9  20  40  65  92 128 176 237 290 343 413
#     4  11  23  43  71 101 136 172 231 299 350 434
#     4  11  23  40  73 101 137 187 233 289 363 424
#     4  11  23  43  66  96 145 181 234 295 353 425
#     4  11  25  45  70  97 137 184 231 291 369 428
#     4  10  23  44  66 101 134 186 233 291 355 430
#
# _framework density 21.260877000000001
#
# number of rings (size 3 to 8) (size 9 to 14) (size 15 to 20)
#    0.000    1.241    4.138    1.241    2.897    3.034 
#    1.241    4.483    0.000    0.000    0.000    0.000 
#    0.000    0.000    0.000    0.000    0.000    0.000 
#
# Total GULP energy -323222.284074 kJ/mol
# GULP energy per Si atom -5572.798001 kJ/mol
# Density = 2.121249 g / cm^3
# Si number density = 21.260877 Si / 1000 Ang^3
#
#
#
# Elastic Constant Matrix: (Units=GPa)
#
#
# Indices 1 2 3 4 5 6 
#
# 1 110.3583 31.9780 29.9632 0.0000 0.0000 0.0000
# 2 31.9780 127.6358 60.0607 0.0000 0.0000 0.0000
# 3 29.9632 60.0607 112.8571 0.0000 0.0000 0.0000
# 4 0.0000 0.0000 0.0000 3.4606 0.0000 0.0000
# 5 0.0000 0.0000 0.0000 0.0000 18.8744 0.0000
# 6 0.0000 0.0000 0.0000 0.0000 0.0000 32.8598
#
#
#
# Elastic Compliance Matrix: (Units=1/GPa)
#
#
# Indices 1 2 3 4 5 6 
#
# 1 0.010028 -0.001680 -0.001768 0.000000 0.000000 0.000000
# 2 -0.001680 0.010734 -0.005266 0.000000 0.000000 0.000000
# 3 -0.001768 -0.005266 0.012133 0.000000 0.000000 0.000000
# 4 0.000000 0.000000 0.000000 0.288969 0.000000 0.000000
# 5 0.000000 0.000000 0.000000 0.000000 0.052982 0.000000
# 6 0.000000 0.000000 0.000000 0.000000 0.000000 0.030432
#
#
# Mechanical properties :
#
#
# Convention : Reuss Voigt Hill
#
# Bulk Modulus (GPa) = 64.66085 66.09502 65.37794
# Shear Modulus (GPa) = 11.68597 26.29557 18.99077
#
# Velocity S-wave (km/s) = 2.34700 3.52064 2.99193
# Velocity P-wave (km/s) = 6.15009 6.90519 6.53855
#
# Compressibility (1/GPa) = 0.01546531
#
# Stress axis : x y z
#
# Youngs Moduli (GPa) = 99.71666 93.16254 82.42102
#
# Poissons Ratio (x) = 0.15656 0.14574
# Poissons Ratio (y) = 0.16757 0.43405
# Poissons Ratio (z) = 0.17632 0.49062
#
# Static dielectric constant tensor:
#      x y z
#    x 1.792340 0.000000 0.000000 
#    y 0.000000 1.812740 0.000000 
#    z 0.000000 0.000000 1.795750 
# 
# From -- ./inp_files/24850.got.cif
#   From: 2010.05.17/outbox.cif.g08.bks.cpg/sg49_13_cif.got.tgz:24850.got - 2010.06.03 21:02:19.
