data_PCOD9394640
_publ_section_title
;
Structure prediction by ZEFSAII (Michael W. Deem and Ramdas Pophale) SiO2 
 PCOD9394640
Probable space group: P C C M
;
_chemical_formula_sum "Si O2"
_cell_formula_units_Z 58
_cell_length_a 17.696599
_cell_length_b 18.821247
_cell_length_c 8.353955
_cell_angle_alpha 90.000000
_cell_angle_beta 90.000000
_cell_angle_gamma 90.000000
_cell_volume 2782.469008
_symmetry_space_group_name_H-M "P C C M"
_symmetry_group_IT_number 49
_symmetry_cell_setting 'orthorhombic'
loop_
_space_group_symop_operation_xyz
x,y,z
-x,-y,z
x,-y,1/2-z
-x,y,1/2-z
-x,-y,-z
x,y,-z
-x,y,1/2+z
x,-y,1/2+z
loop_
_atom_site_type_symbol
_atom_site_label
_atom_site_fract_x
_atom_site_fract_y
_atom_site_fract_z
Si Si1 0.778870 0.579451 0.692316
Si Si2 0.081886 0.919295 0.309504
Si Si3 0.611328 0.624078 0.692676
Si Si4 0.586388 0.924483 0.690934
Si Si5 0.500000 0.500000 0.750000
Si Si6 0.647960 0.773600 0.189132
Si Si7 0.815072 0.198946 0.808756
Si Si8 0.083570 0.327235 0.692320
O O1 0.779752 0.500000 0.750000
O O2 0.780746 0.583033 0.500000
O O3 0.698659 0.612347 0.738305
O O4 0.853008 0.618778 0.753964
O O5 0.082064 0.916635 0.500000
O O6 0.154117 0.877192 0.243248
O O7 0.000000 0.890815 0.250000
O O8 0.085835 0.000000 0.250000
O O9 0.599714 0.611328 0.500000
O O10 0.563048 0.563361 0.785321
O O11 0.601895 0.707929 0.730297
O O12 0.500000 0.924215 0.750000
O O13 0.589295 0.923533 0.500000
O O14 0.621600 0.851798 0.756419
O O15 0.620303 0.000000 0.750000
O O16 0.736877 0.774023 0.234509
O O17 0.638700 0.765915 0.000000
O O18 0.883410 0.250977 0.760509
O O19 0.805286 0.201953 0.000000
O O20 0.082807 0.330056 0.500000
O O21 0.000000 0.341162 0.750000
#
# Coordination Sequence:
#
# PCOD9394640 Si02
#       8
#     8   8   8   8   2   8   8   8
#     4  10  21  41  64  89 124 169 209 260 328 389
#     4  11  22  38  59  89 126 171 221 274 332 394
#     4  11  24  45  68  97 138 177 220 277 340 402
#     4  11  23  44  71 100 136 176 221 274 332 396
#     4  12  26  44  76 110 134 172 236 278 338 408
#     4  12  26  43  67  99 133 176 225 272 331 402
#     4  11  22  41  64  90 125 167 212 271 334 392
#     4  10  22  39  61  88 121 162 210 261 321 387
#
# _framework density 20.844794
#
# number of rings (size 3 to 8) (size 9 to 14) (size 15 to 20)
#    0.000    1.103    2.069    5.586    0.966    5.241 
#    0.000    4.138    0.000    0.000    0.000    0.000 
#    0.000    0.000    0.000    0.000    0.000    0.000 
#
# Total GULP energy -323573.225546 kJ/mol
# GULP energy per Si atom -5578.848716 kJ/mol
# Density = 2.079735 g / cm^3
# Si number density = 20.844794 Si / 1000 Ang^3
#
#
#
# Elastic Constant Matrix: (Units=GPa)
#
#
# Indices 1 2 3 4 5 6 
#
# 1 107.7336 49.1296 10.1006 0.0000 0.0000 0.0000
# 2 49.1296 139.2838 8.9421 0.0000 0.0000 0.0000
# 3 10.1006 8.9421 57.6414 0.0000 0.0000 0.0000
# 4 0.0000 0.0000 0.0000 19.7467 0.0000 0.0000
# 5 0.0000 0.0000 0.0000 0.0000 17.8521 0.0000
# 6 0.0000 0.0000 0.0000 0.0000 0.0000 46.7170
#
#
#
# Elastic Compliance Matrix: (Units=1/GPa)
#
#
# Indices 1 2 3 4 5 6 
#
# 1 0.011166 -0.003851 -0.001359 0.000000 0.000000 0.000000
# 2 -0.003851 0.008580 -0.000656 0.000000 0.000000 0.000000
# 3 -0.001359 -0.000656 0.017689 0.000000 0.000000 0.000000
# 4 0.000000 0.000000 0.000000 0.050641 0.000000 0.000000
# 5 0.000000 0.000000 0.000000 0.000000 0.056016 0.000000
# 6 0.000000 0.000000 0.000000 0.000000 0.000000 0.021405
#
#
# Mechanical properties :
#
#
# Convention : Reuss Voigt Hill
#
# Bulk Modulus (GPa) = 38.90843 49.00039 43.95441
# Shear Modulus (GPa) = 26.91098 32.62893 29.76995
#
# Velocity S-wave (km/s) = 3.59697 3.96071 3.78322
# Velocity P-wave (km/s) = 5.99643 6.66893 6.34160
#
# Compressibility (1/GPa) = 0.02570137
#
# Stress axis : x y z
#
# Youngs Moduli (GPa) = 89.55853 116.54769 56.53360
#
# Poissons Ratio (x) = 0.44886 0.07684
# Poissons Ratio (y) = 0.34492 0.03710
# Poissons Ratio (z) = 0.12172 0.07648
#
# Static dielectric constant tensor:
#      x y z
#    x 1.764500 0.000000 0.000000 
#    y 0.000000 1.767480 0.000000 
#    z 0.000000 0.000000 1.737330 
# 
# From -- ./inp_files/5089.got.cif
#   From: 2010.05.17/outbox.cif.g08.bks.cpg/sg49_3_cif.got.tgz:5089.got - 2010.06.03 21:02:19.
