data_PCOD9394982
_publ_section_title
;
Structure prediction by ZEFSAII (Michael W. Deem and Ramdas Pophale) SiO2 
 PCOD9394982
Probable space group: P C C M
;
_chemical_formula_sum "Si O2"
_cell_formula_units_Z 56
_cell_length_a 11.065580
_cell_length_b 12.242472
_cell_length_c 20.507607
_cell_angle_alpha 90.000000
_cell_angle_beta 90.000000
_cell_angle_gamma 90.000000
_cell_volume 2778.166614
_symmetry_space_group_name_H-M "P C C M"
_symmetry_group_IT_number 49
_symmetry_cell_setting 'orthorhombic'
loop_
_space_group_symop_operation_xyz
x,y,z
-x,-y,z
x,-y,1/2-z
-x,y,1/2-z
-x,-y,-z
x,y,-z
-x,y,1/2+z
x,-y,1/2+z
loop_
_atom_site_type_symbol
_atom_site_label
_atom_site_fract_x
_atom_site_fract_y
_atom_site_fract_z
Si Si1 0.582484 0.668857 0.929301
Si Si2 0.479690 0.225458 0.319350
Si Si3 0.140698 0.998084 0.639664
Si Si4 0.376391 0.928872 0.926340
Si Si5 0.283154 0.612439 0.210828
Si Si6 0.861811 0.818691 0.247496
Si Si7 0.690198 0.431323 0.929232
O O1 0.591356 0.745130 0.866282
O O2 0.661829 0.560318 0.924054
O O3 0.442824 0.625782 0.930501
O O4 0.606112 0.721722 0.000000
O O5 0.500000 0.166930 0.250000
O O6 0.394700 0.158041 0.368269
O O7 0.416986 0.339303 0.299338
O O8 0.158602 0.889408 0.682715
O O9 0.250267 0.010613 0.588916
O O10 0.152655 0.097478 0.691899
O O11 0.000000 0.000000 0.615967
O O12 0.500000 0.000000 0.923169
O O13 0.370540 0.882697 0.000000
O O14 0.279530 0.500000 0.250000
O O15 0.217186 0.711591 0.245842
O O16 0.239233 0.600320 0.135893
O O17 0.000000 0.782962 0.250000
O O18 0.746561 0.408144 0.000000
#
# Coordination Sequence:
#
# PCOD9394982 Si02
#       7
#     8   8   8   8   8   8   8
#     4   8  14  28  47  67 103 157 199 237 286 345
#     4  11  22  33  53  83 122 165 204 251 306 381
#     4   9  19  41  70  89 117 163 217 258 308 382
#     4  11  25  41  60  94 134 163 201 262 334 388
#     4  11  21  33  53  88 122 156 206 259 312 366
#     4   9  19  37  61  90 118 153 202 268 325 370
#     4   8  15  28  46  69 105 151 199 241 286 351
#
# _framework density 20.157178999999999
#
# number of rings (size 3 to 8) (size 9 to 14) (size 15 to 20)
#    0.000    2.429    1.429    3.000    2.000    2.857 
#    0.000    0.000    0.000    0.000    0.000    1.000 
#    0.000    0.000    0.000    0.000    0.000    0.000 
#
# Total GULP energy -312006.859711 kJ/mol
# GULP energy per Si atom -5571.551066 kJ/mol
# Density = 2.011130 g / cm^3
# Si number density = 20.157179 Si / 1000 Ang^3
#
#
#
# Elastic Constant Matrix: (Units=GPa)
#
#
# Indices 1 2 3 4 5 6 
#
# 1 64.2316 29.5441 48.0643 0.0000 0.0000 0.0000
# 2 29.5441 76.5403 46.7509 0.0000 0.0000 0.0000
# 3 48.0643 46.7509 157.6177 0.0000 0.0000 0.0000
# 4 0.0000 0.0000 0.0000 18.3738 0.0000 0.0000
# 5 0.0000 0.0000 0.0000 0.0000 8.5912 0.0000
# 6 0.0000 0.0000 0.0000 0.0000 0.0000 11.5651
#
#
#
# Elastic Compliance Matrix: (Units=1/GPa)
#
#
# Indices 1 2 3 4 5 6 
#
# 1 0.021812 -0.005321 -0.005073 0.000000 0.000000 0.000000
# 2 -0.005321 0.017254 -0.003495 0.000000 0.000000 0.000000
# 3 -0.005073 -0.003495 0.008928 0.000000 0.000000 0.000000
# 4 0.000000 0.000000 0.000000 0.054425 0.000000 0.000000
# 5 0.000000 0.000000 0.000000 0.000000 0.116399 0.000000
# 6 0.000000 0.000000 0.000000 0.000000 0.000000 0.086467
#
#
# Mechanical properties :
#
#
# Convention : Reuss Voigt Hill
#
# Bulk Modulus (GPa) = 49.46585 60.78981 55.12783
# Shear Modulus (GPa) = 14.71447 19.30803 17.01125
#
# Velocity S-wave (km/s) = 2.70476 3.09831 2.90820
# Velocity P-wave (km/s) = 5.86068 6.55917 6.21974
#
# Compressibility (1/GPa) = 0.02021597
#
# Stress axis : x y z
#
# Youngs Moduli (GPa) = 45.84567 57.95906 112.00437
#
# Poissons Ratio (x) = 0.30838 0.56824
# Poissons Ratio (y) = 0.24393 0.39147
# Poissons Ratio (z) = 0.23259 0.20257
#
# Static dielectric constant tensor:
#      x y z
#    x 1.720590 0.000000 0.000000 
#    y 0.000000 1.743460 0.000000 
#    z 0.000000 0.000000 1.818960 
# 
# From -- ./inp_files/20530.got.cif
#   From: 2010.05.17/outbox.cif.g08.bks.cpg/sg49_11_cif.got.tgz:20530.got - 2010.06.03 21:02:19.
