data_PCOD9394465
_publ_section_title
;
Structure prediction by ZEFSAII (Michael W. Deem and Ramdas Pophale) SiO2 
 PCOD9394465
Probable space group: P C C M
;
_chemical_formula_sum "Si O2"
_cell_formula_units_Z 54
_cell_length_a 14.209193
_cell_length_b 6.569727
_cell_length_c 32.585608
_cell_angle_alpha 90.000000
_cell_angle_beta 90.000000
_cell_angle_gamma 90.000000
_cell_volume 3041.883415
_symmetry_space_group_name_H-M "P C C M"
_symmetry_group_IT_number 49
_symmetry_cell_setting 'orthorhombic'
loop_
_space_group_symop_operation_xyz
x,y,z
-x,-y,z
x,-y,1/2-z
-x,y,1/2-z
-x,-y,-z
x,y,-z
-x,y,1/2+z
x,-y,1/2+z
loop_
_atom_site_type_symbol
_atom_site_label
_atom_site_fract_x
_atom_site_fract_y
_atom_site_fract_z
Si Si1 0.348792 0.916738 0.072381
Si Si2 0.159482 0.689976 0.045643
Si Si3 0.595358 0.624766 0.642906
Si Si4 0.000000 0.000000 0.567670
Si Si5 0.387847 0.030282 0.702244
Si Si6 0.500000 0.000000 0.500000
Si Si7 0.087220 0.623423 0.615552
Si Si8 0.280554 0.757048 0.362882
O O1 0.262250 0.779749 0.055938
O O2 0.408793 0.788444 0.106132
O O3 0.417541 0.982770 0.036079
O O4 0.300743 0.101198 0.097632
O O5 0.083462 0.874805 0.045609
O O6 0.128122 0.526747 0.079989
O O7 0.159561 0.597157 0.000000
O O8 0.500000 0.500000 0.649855
O O9 0.628383 0.746495 0.683198
O O10 0.669626 0.456676 0.630231
O O11 0.048156 0.825588 0.594496
O O12 0.500000 0.000000 0.696158
O O13 0.367297 0.000000 0.750000
O O14 0.329261 0.872130 0.675000
O O15 0.172012 0.701845 0.643426
O O16 0.000000 0.500000 0.634922
#
# Coordination Sequence:
#
# PCOD9394465 Si02
#       8
#     8   8   8   4   8   2   8   8
#     4  11  23  38  57  81 118 160 211 245 287 352
#     4  11  21  37  54  81 114 153 199 254 301 351
#     4  11  21  38  61  83 117 161 193 239 292 347
#     4  10  21  38  58  78 111 146 194 256 315 352
#     4  10  22  38  59  93 124 153 193 231 289 365
#     4  12  24  40  54  78 118 168 212 250 284 342
#     4  10  22  37  60  88 112 149 206 249 308 363
#     4  11  21  40  61  85 119 158 195 244 302 355
#
# _framework density 17.75216
#
# number of rings (size 3 to 8) (size 9 to 14) (size 15 to 20)
#    0.000    1.333    5.185    1.111    2.074    3.852 
#    1.333    3.333    0.000    0.000    0.000    7.778 
#    0.000    0.000    0.000    0.000    0.000    0.000 
#
# Total GULP energy -300623.434023 kJ/mol
# GULP energy per Si atom -5567.100630 kJ/mol
# Density = 1.771176 g / cm^3
# Si number density = 17.752160 Si / 1000 Ang^3
#
#
#
# Elastic Constant Matrix: (Units=GPa)
#
#
# Indices 1 2 3 4 5 6 
#
# 1 106.5521 28.6090 43.6323 0.0000 0.0000 0.0000
# 2 28.6090 81.0346 26.2219 0.0000 0.0000 0.0000
# 3 43.6323 26.2219 90.7119 0.0000 0.0000 0.0000
# 4 0.0000 0.0000 0.0000 -2.6225 0.0000 0.0000
# 5 0.0000 0.0000 0.0000 0.0000 22.7490 0.0000
# 6 0.0000 0.0000 0.0000 0.0000 0.0000 27.4713
#
#
#
# Elastic Compliance Matrix: (Units=1/GPa)
#
#
# Indices 1 2 3 4 5 6 
#
# 1 0.012183 -0.002653 -0.005093 0.000000 0.000000 0.000000
# 2 -0.002653 0.014192 -0.002826 0.000000 0.000000 0.000000
# 3 -0.005093 -0.002826 0.014291 0.000000 0.000000 0.000000
# 4 0.000000 0.000000 0.000000 -0.381313 0.000000 0.000000
# 5 0.000000 0.000000 0.000000 0.000000 0.043958 0.000000
# 6 0.000000 0.000000 0.000000 0.000000 0.000000 0.036402
#
#
# Mechanical properties :
#
#
# Convention : Reuss Voigt Hill
#
# Bulk Modulus (GPa) = 51.22823 52.80277 52.01550
# Shear Modulus (GPa) = -21.49273 21.50858 0.00793
#
# Velocity S-wave (km/s) = -3.48330 3.48459 0.06690
# Velocity P-wave (km/s) = 3.56963 6.78224 5.41946
#
# Compressibility (1/GPa) = 0.01952049
#
# Stress axis : x y z
#
# Youngs Moduli (GPa) = 82.08152 70.46424 69.97592
#
# Poissons Ratio (x) = 0.18695 0.35639
# Poissons Ratio (y) = 0.21777 0.19776
# Poissons Ratio (z) = 0.41805 0.19914
#
# Static dielectric constant tensor:
#      x y z
#    x 1.676090 0.000000 0.000000 
#    y 0.000000 1.615220 0.000000 
#    z 0.000000 0.000000 1.585830 
# 
# From -- ./inp_files/25848.got.cif
#   From: 2010.05.17/outbox.cif.g08.bks.cpg/sg49_13_cif.got.tgz:25848.got - 2010.06.03 21:02:19.
