data_PCOD9394307
_publ_section_title
;
Structure prediction by ZEFSAII (Michael W. Deem and Ramdas Pophale) SiO2 
 PCOD9394307
Probable space group: P C C M
;
_chemical_formula_sum "Si O2"
_cell_formula_units_Z 58
_cell_length_a 16.976010
_cell_length_b 12.258603
_cell_length_c 15.633540
_cell_angle_alpha 90.000000
_cell_angle_beta 90.000000
_cell_angle_gamma 90.000000
_cell_volume 3253.373554
_symmetry_space_group_name_H-M "P C C M"
_symmetry_group_IT_number 49
_symmetry_cell_setting 'orthorhombic'
loop_
_space_group_symop_operation_xyz
x,y,z
-x,-y,z
x,-y,1/2-z
-x,y,1/2-z
-x,-y,-z
x,y,-z
-x,y,1/2+z
x,-y,1/2+z
loop_
_atom_site_type_symbol
_atom_site_label
_atom_site_fract_x
_atom_site_fract_y
_atom_site_fract_z
Si Si1 0.650698 0.758390 0.370344
Si Si2 0.409648 0.001000 0.597992
Si Si3 0.799771 0.383392 0.905302
Si Si4 0.345128 0.207048 0.169687
Si Si5 0.489851 0.353137 0.850408
Si Si6 0.500000 0.500000 0.500000
Si Si7 0.089175 0.631789 0.748788
Si Si8 0.790349 0.637993 0.900386
O O1 0.726129 0.697799 0.406762
O O2 0.666201 0.771390 0.269581
O O3 0.575407 0.680649 0.384484
O O4 0.625276 0.877462 0.401576
O O5 0.414547 0.961173 0.500000
O O6 0.351181 0.919891 0.647391
O O7 0.500000 0.000000 0.632434
O O8 0.860214 0.343449 0.833314
O O9 0.772148 0.508380 0.885340
O O10 0.836312 0.387147 0.000000
O O11 0.432732 0.250239 0.150013
O O12 0.281521 0.281094 0.121103
O O13 0.500000 0.385501 0.750000
O O14 0.454958 0.433587 0.921644
O O15 0.084274 0.500000 0.750000
O O16 0.138543 0.663875 0.664816
O O17 0.000000 0.674643 0.750000
O O18 0.811469 0.649453 0.000000
#
# Coordination Sequence:
#
# PCOD9394307 Si02
#       8
#     8   8   8   8   8   2   8   8
#     4  11  22  38  56  77 112 150 195 241 286 331
#     4  11  23  37  57  79 107 146 201 249 289 333
#     4  10  21  35  56  86 118 151 188 233 281 336
#     4  11  22  38  56  77 112 150 195 241 286 331
#     4  10  25  38  52  79 108 151 198 238 277 332
#     4  12  26  36  56  72 112 152 200 232 290 338
#     4   9  18  36  58  84 117 152 184 222 280 348
#     4  10  21  35  56  86 118 151 188 233 281 336
#
# _framework density 17.827649000000001
#
# number of rings (size 3 to 8) (size 9 to 14) (size 15 to 20)
#    0.000    1.655    2.759    1.448    5.793    1.103 
#    0.000    2.759    0.000    0.000    0.000    1.931 
#    0.000    3.310    0.000    0.000    0.000    0.000 
#
# Total GULP energy -322891.904570 kJ/mol
# GULP energy per Si atom -5567.101803 kJ/mol
# Density = 1.778707 g / cm^3
# Si number density = 17.827649 Si / 1000 Ang^3
#
#
#
# Elastic Constant Matrix: (Units=GPa)
#
#
# Indices 1 2 3 4 5 6 
#
# 1 113.9595 34.7193 43.0701 0.0000 0.0000 0.0000
# 2 34.7193 77.0688 16.8428 0.0000 0.0000 0.0000
# 3 43.0701 16.8428 108.6186 0.0000 0.0000 0.0000
# 4 0.0000 0.0000 0.0000 20.2585 0.0000 0.0000
# 5 0.0000 0.0000 0.0000 0.0000 5.1248 0.0000
# 6 0.0000 0.0000 0.0000 0.0000 0.0000 8.1355
#
#
#
# Elastic Compliance Matrix: (Units=1/GPa)
#
#
# Indices 1 2 3 4 5 6 
#
# 1 0.011585 -0.004363 -0.003917 0.000000 0.000000 0.000000
# 2 -0.004363 0.015074 -0.000607 0.000000 0.000000 0.000000
# 3 -0.003917 -0.000607 0.010854 0.000000 0.000000 0.000000
# 4 0.000000 0.000000 0.000000 0.049362 0.000000 0.000000
# 5 0.000000 0.000000 0.000000 0.000000 0.195130 0.000000
# 6 0.000000 0.000000 0.000000 0.000000 0.000000 0.122917
#
#
# Mechanical properties :
#
#
# Convention : Reuss Voigt Hill
#
# Bulk Modulus (GPa) = 50.66480 54.32348 52.49414
# Shear Modulus (GPa) = 11.64754 20.37142 16.00948
#
# Velocity S-wave (km/s) = 2.55883 3.38403 2.99994
# Velocity P-wave (km/s) = 6.10009 6.76805 6.44273
#
# Compressibility (1/GPa) = 0.01973757
#
# Stress axis : x y z
#
# Youngs Moduli (GPa) = 86.32090 66.34119 92.13240
#
# Poissons Ratio (x) = 0.28943 0.36089
# Poissons Ratio (y) = 0.37660 0.05596
# Poissons Ratio (z) = 0.33813 0.04030
#
# Static dielectric constant tensor:
#      x y z
#    x 1.613340 0.000000 0.000000 
#    y 0.000000 1.650350 0.000000 
#    z 0.000000 0.000000 1.648850 
# 
# From -- ./inp_files/14138.got.cif
#   From: 2010.05.17/outbox.cif.g08.bks.cpg/sg49_8_cif.got.tgz:14138.got - 2010.06.03 21:02:19.
