data_PCOD9394892
_publ_section_title
;
Structure prediction by ZEFSAII (Michael W. Deem and Ramdas Pophale) SiO2 
 PCOD9394892
Probable space group: P C C M
;
_chemical_formula_sum "Si O2"
_cell_formula_units_Z 38
_cell_length_a 9.541034
_cell_length_b 22.520720
_cell_length_c 9.101128
_cell_angle_alpha 90.000000
_cell_angle_beta 90.000000
_cell_angle_gamma 90.000000
_cell_volume 1955.568067
_symmetry_space_group_name_H-M "P C C M"
_symmetry_group_IT_number 49
_symmetry_cell_setting 'orthorhombic'
loop_
_space_group_symop_operation_xyz
x,y,z
-x,-y,z
x,-y,1/2-z
-x,y,1/2-z
-x,-y,-z
x,y,-z
-x,y,1/2+z
x,-y,1/2+z
loop_
_atom_site_type_symbol
_atom_site_label
_atom_site_fract_x
_atom_site_fract_y
_atom_site_fract_z
Si Si1 0.647356 0.065260 0.179029
Si Si2 0.500000 0.500000 0.500000
Si Si3 0.854403 0.375751 0.674325
Si Si4 0.848842 0.160335 0.676247
Si Si5 0.648357 0.726268 0.173893
Si Si6 0.722390 0.500000 0.750000
O O1 0.500000 0.087089 0.250000
O O2 0.769523 0.107392 0.238914
O O3 0.667427 0.000000 0.250000
O O4 0.640310 0.063202 0.000000
O O5 0.616698 0.517623 0.623006
O O6 0.868423 0.366905 0.500000
O O7 0.728591 0.332995 0.725637
O O8 0.814689 0.443715 0.704307
O O9 0.000000 0.359962 0.750000
O O10 0.860194 0.148838 0.500000
O O11 0.753010 0.218654 0.695931
O O12 0.000000 0.169074 0.750000
O O13 0.500000 0.735210 0.250000
O O14 0.622923 0.720376 0.000000
#
# Coordination Sequence:
#
# PCOD9394892 Si02
#       6
#     8   2   8   8   8   4
#     4  11  22  39  64  94 128 165 209 255 305 359
#     4  10  24  38  62  94 120 158 198 258 298 370
#     4  11  25  42  62  90 124 160 203 250 308 368
#     4  11  23  41  63  90 126 163 206 253 308 365
#     4  10  24  42  64  91 120 158 204 253 304 365
#     4  11  23  40  64  88 126 156 204 250 312 360
#
# _framework density 19.431692999999999
#
# number of rings (size 3 to 8) (size 9 to 14) (size 15 to 20)
#    0.000    1.263    1.053    4.737    4.421    5.474 
#    0.000    2.105    0.000    0.000    0.000    0.000 
#    0.000    0.000    0.000    0.000    0.000    0.000 
#
# Total GULP energy -211730.041301 kJ/mol
# GULP energy per Si atom -5571.843192 kJ/mol
# Density = 1.938747 g / cm^3
# Si number density = 19.431693 Si / 1000 Ang^3
#
#
#
# Elastic Constant Matrix: (Units=GPa)
#
#
# Indices 1 2 3 4 5 6 
#
# 1 164.7999 51.1713 68.8015 0.0000 0.0000 0.0000
# 2 51.1713 74.4367 37.3852 0.0000 0.0000 0.0000
# 3 68.8015 37.3852 143.6640 0.0000 0.0000 0.0000
# 4 0.0000 0.0000 0.0000 26.9991 0.0000 0.0000
# 5 0.0000 0.0000 0.0000 0.0000 97.6162 0.0000
# 6 0.0000 0.0000 0.0000 0.0000 0.0000 -16.8915
#
#
#
# Elastic Compliance Matrix: (Units=1/GPa)
#
#
# Indices 1 2 3 4 5 6 
#
# 1 0.008715 -0.004480 -0.003008 0.000000 0.000000 0.000000
# 2 -0.004480 0.017757 -0.002475 0.000000 0.000000 0.000000
# 3 -0.003008 -0.002475 0.009045 0.000000 0.000000 0.000000
# 4 0.000000 0.000000 0.000000 0.037038 0.000000 0.000000
# 5 0.000000 0.000000 0.000000 0.000000 0.010244 0.000000
# 6 0.000000 0.000000 0.000000 0.000000 0.000000 -0.059201
#
#
# Mechanical properties :
#
#
# Convention : Reuss Voigt Hill
#
# Bulk Modulus (GPa) = 64.14035 77.51296 70.82666
# Shear Modulus (GPa) = 102.62256 36.58093 69.60174
#
# Velocity S-wave (km/s) = 7.27507 4.34353 5.99136
# Velocity P-wave (km/s) = 10.18079 8.07041 9.18641
#
# Compressibility (1/GPa) = 0.01559081
#
# Stress axis : x y z
#
# Youngs Moduli (GPa) = 114.74722 56.31441 110.55592
#
# Poissons Ratio (x) = 0.25231 0.33251
# Poissons Ratio (y) = 0.51411 0.27366
# Poissons Ratio (z) = 0.34512 0.13939
#
# Static dielectric constant tensor:
#      x y z
#    x 1.657520 0.000000 0.000000 
#    y 0.000000 1.535120 0.000000 
#    z 0.000000 0.000000 1.660470 
# 
# From -- ./inp_files/1785.got.cif
#   From: 2010.05.17/outbox.cif.g08.bks.cpg/sg49_1_cif.got.tgz:1785.got - 2010.06.03 21:02:19.
