data_PCOD9394537
_publ_section_title
;
Structure prediction by ZEFSAII (Michael W. Deem and Ramdas Pophale) SiO2 
 PCOD9394537
Probable space group: P C C M
;
_chemical_formula_sum "Si O2"
_cell_formula_units_Z 52
_cell_length_a 21.211164
_cell_length_b 9.593421
_cell_length_c 14.435178
_cell_angle_alpha 90.000000
_cell_angle_beta 90.000000
_cell_angle_gamma 90.000000
_cell_volume 2937.380104
_symmetry_space_group_name_H-M "P C C M"
_symmetry_group_IT_number 49
_symmetry_cell_setting 'orthorhombic'
loop_
_space_group_symop_operation_xyz
x,y,z
-x,-y,z
x,-y,1/2-z
-x,y,1/2-z
-x,-y,-z
x,y,-z
-x,y,1/2+z
x,-y,1/2+z
loop_
_atom_site_type_symbol
_atom_site_label
_atom_site_fract_x
_atom_site_fract_y
_atom_site_fract_z
Si Si1 0.563417 0.086208 0.888773
Si Si2 0.894449 0.669429 0.750957
Si Si3 0.248924 0.276358 0.246720
Si Si4 0.441563 0.592646 0.112155
Si Si5 0.700078 0.490754 0.110731
Si Si6 0.330883 0.000000 0.250000
Si Si7 0.998850 0.669187 0.395604
O O1 0.556858 0.246863 0.856336
O O2 0.500000 0.000000 0.868655
O O3 0.622584 0.019090 0.837245
O O4 0.572507 0.085547 0.000000
O O5 0.885668 0.500000 0.750000
O O6 0.826260 0.737269 0.755406
O O7 0.936109 0.707098 0.661159
O O8 0.939258 0.707711 0.837217
O O9 0.270869 0.376537 0.162643
O O10 0.267385 0.357709 0.341187
O O11 0.287136 0.134536 0.241309
O O12 0.500000 0.500000 0.144652
O O13 0.374299 0.523321 0.133075
O O14 0.445678 0.598677 0.000000
O O15 0.708167 0.494122 0.000000
O O16 0.999199 0.721416 0.500000
O O17 0.000000 0.500000 0.397370
#
# Coordination Sequence:
#
# PCOD9394537 Si02
#       7
#     8   8   8   8   8   4   8
#     4  10  22  40  59  80 111 149 190 238 288 341
#     4   9  16  31  49  77 117 141 178 233 274 325
#     4  11  23  38  55  85 117 151 192 232 280 344
#     4   9  18  35  59  82 103 137 187 240 290 333
#     4  10  21  39  59  80 110 149 191 241 291 334
#     4  12  25  40  58  83 118 156 196 230 284 355
#     4   8  15  27  50  80 109 144 179 221 278 328
#
# _framework density 17.702850999999999
#
# number of rings (size 3 to 8) (size 9 to 14) (size 15 to 20)
#    0.000    2.308    3.077    1.154    2.154    1.846 
#    0.000    1.538    0.000    1.846    0.000    1.077 
#    0.000    0.000    0.000    0.000    0.000    0.000 
#
# Total GULP energy -290139.500147 kJ/mol
# GULP energy per Si atom -5579.605772 kJ/mol
# Density = 1.766256 g / cm^3
# Si number density = 17.702851 Si / 1000 Ang^3
#
#
#
# Elastic Constant Matrix: (Units=GPa)
#
#
# Indices 1 2 3 4 5 6 
#
# 1 191.2135 66.2920 71.6615 0.0000 0.0000 0.0000
# 2 66.2920 87.7311 41.7105 0.0000 0.0000 0.0000
# 3 71.6615 41.7105 122.5592 0.0000 0.0000 0.0000
# 4 0.0000 0.0000 0.0000 6.4584 0.0000 0.0000
# 5 0.0000 0.0000 0.0000 0.0000 8.9319 0.0000
# 6 0.0000 0.0000 0.0000 0.0000 0.0000 17.8735
#
#
#
# Elastic Compliance Matrix: (Units=1/GPa)
#
#
# Indices 1 2 3 4 5 6 
#
# 1 0.007972 -0.004543 -0.003115 0.000000 0.000000 0.000000
# 2 -0.004543 0.016188 -0.002853 0.000000 0.000000 0.000000
# 3 -0.003115 -0.002853 0.010952 0.000000 0.000000 0.000000
# 4 0.000000 0.000000 0.000000 0.154837 0.000000 0.000000
# 5 0.000000 0.000000 0.000000 0.000000 0.111959 0.000000
# 6 0.000000 0.000000 0.000000 0.000000 0.000000 0.055949
#
#
# Mechanical properties :
#
#
# Convention : Reuss Voigt Hill
#
# Bulk Modulus (GPa) = 70.97522 84.53686 77.75604
# Shear Modulus (GPa) = 13.03527 21.44207 17.23867
#
# Velocity S-wave (km/s) = 2.71650 3.48404 3.12393
# Velocity P-wave (km/s) = 7.07239 8.00260 7.55183
#
# Compressibility (1/GPa) = 0.01408942
#
# Stress axis : x y z
#
# Youngs Moduli (GPa) = 125.43418 61.77586 91.30904
#
# Poissons Ratio (x) = 0.28064 0.28446
# Poissons Ratio (y) = 0.56984 0.26049
# Poissons Ratio (z) = 0.39078 0.17624
#
# Static dielectric constant tensor:
#      x y z
#    x 1.584910 0.000000 0.000000 
#    y 0.000000 1.583470 0.000000 
#    z 0.000000 0.000000 1.619840 
# 
# From -- ./inp_files/14347.got.cif
#   From: 2010.05.17/outbox.cif.g08.bks.cpg/sg49_8_cif.got.tgz:14347.got - 2010.06.03 21:02:19.
