data_PCOD9394800
_publ_section_title
;
Structure prediction by ZEFSAII (Michael W. Deem and Ramdas Pophale) SiO2 
 PCOD9394800
Probable space group: P C C M
;
_chemical_formula_sum "Si O2"
_cell_formula_units_Z 24
_cell_length_a 5.421487
_cell_length_b 8.308320
_cell_length_c 20.842514
_cell_angle_alpha 90.000000
_cell_angle_beta 90.000000
_cell_angle_gamma 90.000000
_cell_volume 938.818714
_symmetry_space_group_name_H-M "P C C M"
_symmetry_group_IT_number 49
_symmetry_cell_setting 'orthorhombic'
loop_
_space_group_symop_operation_xyz
x,y,z
-x,-y,z
x,-y,1/2-z
-x,y,1/2-z
-x,-y,-z
x,y,-z
-x,y,1/2+z
x,-y,1/2+z
loop_
_atom_site_type_symbol
_atom_site_label
_atom_site_fract_x
_atom_site_fract_y
_atom_site_fract_z
Si Si1 0.245570 0.394748 0.568238
Si Si2 0.494988 0.305310 0.821721
Si Si3 0.751682 0.103562 0.426951
O O1 0.500000 0.500000 0.565760
O O2 0.241248 0.306269 0.500000
O O3 0.269384 0.288337 0.631653
O O4 0.000000 0.500000 0.571168
O O5 0.500000 0.500000 0.813194
O O6 0.500000 0.236147 0.750000
O O7 0.286068 0.227667 0.867414
O O8 0.755040 0.174950 0.500000
O O9 0.500000 0.000000 0.424290
O O10 0.000000 0.000000 0.420868
#
# Coordination Sequence:
#
# PCOD9394800 Si02
#       3
#     8   8   8
#     4   9  18  34  58  89 126 170 220 275 337 403
#     4  10  22  42  67 103 144 183 230 291 360 431
#     4  10  23  45  71  99 134 181 238 293 348 419
#
# _framework density 25.564043000000002
#
# number of rings (size 3 to 8) (size 9 to 14) (size 15 to 20)
#    0.000    2.333    0.000    1.000    0.000    8.000 
#    0.000   43.333    0.000    0.000    0.000    0.000 
#    0.000    0.000    0.000    0.000    0.000    0.000 
#
# Total GULP energy -133763.762904 kJ/mol
# GULP energy per Si atom -5573.490121 kJ/mol
# Density = 2.550586 g / cm^3
# Si number density = 25.564043 Si / 1000 Ang^3
#
#
#
# Elastic Constant Matrix: (Units=GPa)
#
#
# Indices 1 2 3 4 5 6 
#
# 1 234.5339 76.5565 64.8363 0.0000 0.0000 0.0000
# 2 76.5565 86.0043 64.4507 0.0000 0.0000 0.0000
# 3 64.8363 64.4507 329.5050 0.0000 0.0000 0.0000
# 4 0.0000 0.0000 0.0000 -14.8410 0.0000 0.0000
# 5 0.0000 0.0000 0.0000 0.0000 3.5474 0.0000
# 6 0.0000 0.0000 0.0000 0.0000 0.0000 79.7040
#
#
#
# Elastic Compliance Matrix: (Units=1/GPa)
#
#
# Indices 1 2 3 4 5 6 
#
# 1 0.006017 -0.005237 -0.000160 0.000000 0.000000 0.000000
# 2 -0.005237 0.018181 -0.002526 0.000000 0.000000 0.000000
# 3 -0.000160 -0.002526 0.003560 0.000000 0.000000 0.000000
# 4 0.000000 0.000000 0.000000 -0.067381 0.000000 0.000000
# 5 0.000000 0.000000 0.000000 0.000000 0.281896 0.000000
# 6 0.000000 0.000000 0.000000 0.000000 0.000000 0.012546
#
#
# Mechanical properties :
#
#
# Convention : Reuss Voigt Hill
#
# Bulk Modulus (GPa) = 83.92952 117.97000 100.94976
# Shear Modulus (GPa) = 18.20587 43.29539 30.75063
#
# Velocity S-wave (km/s) = 2.67154 4.11981 3.47203
# Velocity P-wave (km/s) = 6.51295 8.29924 7.45976
#
# Compressibility (1/GPa) = 0.01191476
#
# Stress axis : x y z
#
# Youngs Moduli (GPa) = 166.18917 55.00105 280.87138
#
# Poissons Ratio (x) = 0.28801 0.04487
# Poissons Ratio (y) = 0.87025 0.70945
# Poissons Ratio (z) = 0.02655 0.13893
#
# Static dielectric constant tensor:
#      x y z
#    x 2.025390 0.000000 0.000000 
#    y 0.000000 3.111260 0.000000 
#    z 0.000000 0.000000 2.107610 
# 
# From -- ./inp_files/21432.got.cif
#   From: 2010.05.17/outbox.cif.g08.bks.cpg/sg49_11_cif.got.tgz:21432.got - 2010.06.03 21:02:19.
