data_PCOD9394124
_publ_section_title
;
Structure prediction by ZEFSAII (Michael W. Deem and Ramdas Pophale) SiO2 
 PCOD9394124
Probable space group: P C C M
;
_chemical_formula_sum "Si O2"
_cell_formula_units_Z 58
_cell_length_a 16.813296
_cell_length_b 19.961104
_cell_length_c 9.188849
_cell_angle_alpha 90.000000
_cell_angle_beta 90.000000
_cell_angle_gamma 90.000000
_cell_volume 3083.887532
_symmetry_space_group_name_H-M "P C C M"
_symmetry_group_IT_number 49
_symmetry_cell_setting 'orthorhombic'
loop_
_space_group_symop_operation_xyz
x,y,z
-x,-y,z
x,-y,1/2-z
-x,y,1/2-z
-x,-y,-z
x,y,-z
-x,y,1/2+z
x,-y,1/2+z
loop_
_atom_site_type_symbol
_atom_site_label
_atom_site_fract_x
_atom_site_fract_y
_atom_site_fract_z
Si Si1 0.500000 0.500000 0.750000
Si Si2 0.196185 0.204287 0.827865
Si Si3 0.246523 0.068658 0.327268
Si Si4 0.084726 0.308841 0.674523
Si Si5 0.202909 0.568249 0.173213
Si Si6 0.620489 0.386819 0.166185
Si Si7 0.424534 0.882790 0.829286
Si Si8 0.376053 0.252716 0.170390
O O1 0.441000 0.551649 0.830535
O O2 0.208382 0.132525 0.752355
O O3 0.128615 0.245404 0.745414
O O4 0.280342 0.243936 0.813429
O O5 0.180092 0.197552 0.000000
O O6 0.229605 0.068633 0.500000
O O7 0.341829 0.078336 0.309552
O O8 0.222279 0.000000 0.250000
O O9 0.077182 0.301510 0.500000
O O10 0.142115 0.372047 0.704375
O O11 0.000000 0.318565 0.750000
O O12 0.178862 0.500000 0.250000
O O13 0.292862 0.587709 0.217266
O O14 0.204698 0.557846 0.000000
O O15 0.597787 0.323989 0.265994
O O16 0.628556 0.362480 0.000000
O O17 0.500000 0.914438 0.750000
O O18 0.411495 0.809574 0.758508
O O19 0.440076 0.876348 0.000000
O O20 0.395761 0.247283 0.000000
#
# Coordination Sequence:
#
# PCOD9394124 Si02
#       8
#     2   8   8   8   8   8   8   8
#     4  12  26  40  56  82 112 152 206 258 310 364
#     4  10  20  37  62  91 120 154 197 243 292 354
#     4  10  21  37  59  87 120 161 204 249 297 357
#     4  11  23  40  63  93 124 157 198 247 303 362
#     4  10  22  40  62  85 116 160 201 245 305 369
#     4  11  23  40  58  79 111 151 198 251 305 360
#     4  10  21  36  54  79 114 153 197 248 303 355
#     4  10  21  36  58  82 107 146 193 242 297 355
#
# _framework density 18.807431999999999
#
# number of rings (size 3 to 8) (size 9 to 14) (size 15 to 20)
#    0.000    1.655    2.069    2.276    0.966    6.069 
#    0.000    2.759    0.000    0.414    0.000    2.897 
#    0.000    0.000    0.000    0.000    0.000    0.000 
#
# Total GULP energy -324062.975055 kJ/mol
# GULP energy per Si atom -5587.292673 kJ/mol
# Density = 1.876463 g / cm^3
# Si number density = 18.807432 Si / 1000 Ang^3
#
#
#
# Elastic Constant Matrix: (Units=GPa)
#
#
# Indices 1 2 3 4 5 6 
#
# 1 103.2382 39.6690 50.4806 0.0000 0.0000 0.0000
# 2 39.6690 131.9914 67.3073 0.0000 0.0000 0.0000
# 3 50.4806 67.3073 101.5979 0.0000 0.0000 0.0000
# 4 0.0000 0.0000 0.0000 27.3134 0.0000 0.0000
# 5 0.0000 0.0000 0.0000 0.0000 30.1442 0.0000
# 6 0.0000 0.0000 0.0000 0.0000 0.0000 10.2369
#
#
#
# Elastic Compliance Matrix: (Units=1/GPa)
#
#
# Indices 1 2 3 4 5 6 
#
# 1 0.012868 -0.000917 -0.005786 0.000000 0.000000 0.000000
# 2 -0.000917 0.011507 -0.007168 0.000000 0.000000 0.000000
# 3 -0.005786 -0.007168 0.017466 0.000000 0.000000 0.000000
# 4 0.000000 0.000000 0.000000 0.036612 0.000000 0.000000
# 5 0.000000 0.000000 0.000000 0.000000 0.033174 0.000000
# 6 0.000000 0.000000 0.000000 0.000000 0.000000 0.097686
#
#
# Mechanical properties :
#
#
# Convention : Reuss Voigt Hill
#
# Bulk Modulus (GPa) = 70.92389 72.41570 71.66980
# Shear Modulus (GPa) = 20.68216 25.49693 23.08955
#
# Velocity S-wave (km/s) = 3.31974 3.68596 3.50763
# Velocity P-wave (km/s) = 7.24477 7.53010 7.38881
#
# Compressibility (1/GPa) = 0.01409962
#
# Stress axis : x y z
#
# Youngs Moduli (GPa) = 77.71252 86.90509 57.25329
#
# Poissons Ratio (x) = 0.07966 0.33129
# Poissons Ratio (y) = 0.07124 0.41037
# Poissons Ratio (z) = 0.44967 0.62290
#
# Static dielectric constant tensor:
#      x y z
#    x 1.663100 0.000000 0.000000 
#    y 0.000000 1.625650 0.000000 
#    z 0.000000 0.000000 1.632870 
# 
# From -- ./inp_files/5115.got.cif
#   From: 2010.05.17/outbox.cif.g08.bks.cpg/sg49_3_cif.got.tgz:5115.got - 2010.06.03 21:02:19.
