data_PCOD9394523
_publ_section_title
;
Structure prediction by ZEFSAII (Michael W. Deem and Ramdas Pophale) SiO2 
 PCOD9394523
Probable space group: P C C M
;
_chemical_formula_sum "Si O2"
_cell_formula_units_Z 64
_cell_length_a 12.769418
_cell_length_b 14.310270
_cell_length_c 17.552826
_cell_angle_alpha 90.000000
_cell_angle_beta 90.000000
_cell_angle_gamma 90.000000
_cell_volume 3207.494935
_symmetry_space_group_name_H-M "P C C M"
_symmetry_group_IT_number 49
_symmetry_cell_setting 'orthorhombic'
loop_
_space_group_symop_operation_xyz
x,y,z
-x,-y,z
x,-y,1/2-z
-x,y,1/2-z
-x,-y,-z
x,y,-z
-x,y,1/2+z
x,-y,1/2+z
loop_
_atom_site_type_symbol
_atom_site_label
_atom_site_fract_x
_atom_site_fract_y
_atom_site_fract_z
Si Si1 0.859509 0.245002 0.411362
Si Si2 0.617190 0.526176 0.160261
Si Si3 0.536457 0.897924 0.407182
Si Si4 0.622719 0.266870 0.408158
Si Si5 0.759656 0.167530 0.090077
Si Si6 0.998314 0.605195 0.659418
Si Si7 0.776401 0.621947 0.411228
Si Si8 0.978848 0.110123 0.162911
O O1 0.870321 0.265704 0.500000
O O2 0.738485 0.224243 0.396309
O O3 0.903927 0.335089 0.368048
O O4 0.936323 0.162076 0.388668
O O5 0.500000 0.500000 0.133766
O O6 0.623718 0.500000 0.250000
O O7 0.625381 0.635376 0.137909
O O8 0.706110 0.461563 0.121641
O O9 0.532711 0.896675 0.500000
O O10 0.464159 0.809493 0.384112
O O11 0.657237 0.887748 0.384968
O O12 0.500000 0.000000 0.381433
O O13 0.610187 0.285693 0.500000
O O14 0.724831 0.276106 0.096336
O O15 0.862896 0.139060 0.136245
O O16 0.781888 0.151429 0.000000
O O17 0.000000 0.500000 0.629903
O O18 0.000000 0.604541 0.750000
O O19 0.886913 0.639867 0.629865
O O20 0.795750 0.603248 0.500000
O O21 0.000000 0.140418 0.250000
O O22 0.000000 0.000000 0.158042
#
# Coordination Sequence:
#
# PCOD9394523 Si02
#       8
#     8   8   8   8   8   8   8   8
#     4  11  23  40  63  94 129 165 210 263 320 385
#     4  11  25  41  62  92 125 171 221 267 327 390
#     4   9  19  37  63  96 128 162 207 259 320 383
#     4  10  22  39  62  95 132 169 209 265 328 385
#     4  10  21  38  64  94 122 157 208 262 313 377
#     4  11  24  38  60  91 125 171 209 257 318 382
#     4  11  23  39  63  92 124 166 215 266 319 384
#     4  11  25  42  62  91 123 169 211 260 327 389
#
# _framework density 19.953267
#
# number of rings (size 3 to 8) (size 9 to 14) (size 15 to 20)
#    0.000    1.500    1.250    3.000    5.250    5.000 
#    0.000    0.000    0.000    0.000    0.000    0.000 
#    0.000    0.000    0.000    0.000    0.000    0.125 
#
# Total GULP energy -357305.729524 kJ/mol
# GULP energy per Si atom -5582.902024 kJ/mol
# Density = 1.990785 g / cm^3
# Si number density = 19.953267 Si / 1000 Ang^3
#
#
#
# Elastic Constant Matrix: (Units=GPa)
#
#
# Indices 1 2 3 4 5 6 
#
# 1 130.0391 53.2936 46.5910 0.0000 0.0000 0.0000
# 2 53.2936 101.7637 32.3632 0.0000 0.0000 0.0000
# 3 46.5910 32.3632 48.3695 0.0000 0.0000 0.0000
# 4 0.0000 0.0000 0.0000 105.9011 0.0000 0.0000
# 5 0.0000 0.0000 0.0000 0.0000 21.7980 0.0000
# 6 0.0000 0.0000 0.0000 0.0000 0.0000 44.7907
#
#
#
# Elastic Compliance Matrix: (Units=1/GPa)
#
#
# Indices 1 2 3 4 5 6 
#
# 1 0.012650 -0.003493 -0.009848 0.000000 0.000000 0.000000
# 2 -0.003493 0.013447 -0.005633 0.000000 0.000000 0.000000
# 3 -0.009848 -0.005633 0.033928 0.000000 0.000000 0.000000
# 4 0.000000 0.000000 0.000000 0.009443 0.000000 0.000000
# 5 0.000000 0.000000 0.000000 0.000000 0.045876 0.000000
# 6 0.000000 0.000000 0.000000 0.000000 0.000000 0.022326
#
#
# Mechanical properties :
#
#
# Convention : Reuss Voigt Hill
#
# Bulk Modulus (GPa) = 45.29224 60.51866 52.90545
# Shear Modulus (GPa) = 27.32594 44.35958 35.84276
#
# Velocity S-wave (km/s) = 3.70469 4.72017 4.24292
# Velocity P-wave (km/s) = 6.40687 7.75259 7.11164
#
# Compressibility (1/GPa) = 0.02207884
#
# Stress axis : x y z
#
# Youngs Moduli (GPa) = 79.05321 74.36435 29.47377
#
# Poissons Ratio (x) = 0.25975 0.29024
# Poissons Ratio (y) = 0.27613 0.16602
# Poissons Ratio (z) = 0.77848 0.41889
#
# Static dielectric constant tensor:
#      x y z
#    x 1.633760 0.000000 0.000000 
#    y 0.000000 1.739340 0.000000 
#    z 0.000000 0.000000 1.694460 
# 
# From -- ./inp_files/17313.got.cif
#   From: 2010.05.17/outbox.cif.g08.bks.cpg/sg49_9_cif.got.tgz:17313.got - 2010.06.03 21:02:19.
