data_PCOD9394976
_publ_section_title
;
Structure prediction by ZEFSAII (Michael W. Deem and Ramdas Pophale) SiO2 
 PCOD9394976
Probable space group: P C C M
;
_chemical_formula_sum "Si O2"
_cell_formula_units_Z 32
_cell_length_a 10.906520
_cell_length_b 9.280660
_cell_length_c 14.541330
_cell_angle_alpha 90.000000
_cell_angle_beta 90.000000
_cell_angle_gamma 90.000000
_cell_volume 1471.869117
_symmetry_space_group_name_H-M "P C C M"
_symmetry_group_IT_number 49
_symmetry_cell_setting 'orthorhombic'
loop_
_space_group_symop_operation_xyz
x,y,z
-x,-y,z
x,-y,1/2-z
-x,y,1/2-z
-x,-y,-z
x,y,-z
-x,y,1/2+z
x,-y,1/2+z
loop_
_atom_site_type_symbol
_atom_site_label
_atom_site_fract_x
_atom_site_fract_y
_atom_site_fract_z
Si Si1 0.451992 0.237463 0.348742
Si Si2 0.360209 0.442047 0.500000
Si Si3 0.676086 0.944658 0.106898
Si Si4 0.066499 0.145120 0.845618
Si Si5 0.104096 0.618735 0.500000
O O1 0.500000 0.290917 0.250000
O O2 0.367325 0.343653 0.407933
O O3 0.577730 0.184699 0.396903
O O4 0.380667 0.085874 0.346607
O O5 0.500000 0.500000 0.500000
O O6 0.241582 0.547366 0.500000
O O7 0.792574 0.897595 0.163825
O O8 0.708239 0.978288 0.000000
O O9 0.000000 0.179042 0.750000
O O10 0.075820 0.278936 0.913447
O O11 0.000000 0.000000 0.882737
O O12 0.000000 0.500000 0.500000
#
# Coordination Sequence:
#
# PCOD9394976 Si02
#       5
#     8   4   8   8   4
#     4  11  24  40  74 114 150 190 252 313 387 444
#     4  12  26  49  72 101 150 215 247 297 375 471
#     4  11  20  42  74 110 145 190 248 327 376 445
#     4  11  27  46  76 107 144 197 266 320 378 448
#     4  12  29  48  74 109 157 211 253 312 399 473
#
# _framework density 21.741064000000001
#
# number of rings (size 3 to 8) (size 9 to 14) (size 15 to 20)
#    0.000    0.750    3.750    4.125   10.500    1.000 
#    0.000    2.500    0.000    0.000    0.000    0.000 
#    0.000    0.000    0.000    0.000    0.000    0.000 
#
# Total GULP energy -178655.352873 kJ/mol
# GULP energy per Si atom -5582.979777 kJ/mol
# Density = 2.169158 g / cm^3
# Si number density = 21.741064 Si / 1000 Ang^3
#
#
#
# Elastic Constant Matrix: (Units=GPa)
#
#
# Indices 1 2 3 4 5 6 
#
# 1 171.5510 80.7668 66.9642 0.0000 0.0000 0.0000
# 2 80.7668 136.3686 70.8546 0.0000 0.0000 0.0000
# 3 66.9642 70.8546 164.9105 0.0000 0.0000 0.0000
# 4 0.0000 0.0000 0.0000 17.2786 0.0000 0.0000
# 5 0.0000 0.0000 0.0000 0.0000 31.8562 0.0000
# 6 0.0000 0.0000 0.0000 0.0000 0.0000 36.2014
#
#
#
# Elastic Compliance Matrix: (Units=1/GPa)
#
#
# Indices 1 2 3 4 5 6 
#
# 1 0.008415 -0.004131 -0.001642 0.000000 0.000000 0.000000
# 2 -0.004131 0.011468 -0.003250 0.000000 0.000000 0.000000
# 3 -0.001642 -0.003250 0.008127 0.000000 0.000000 0.000000
# 4 0.000000 0.000000 0.000000 0.057875 0.000000 0.000000
# 5 0.000000 0.000000 0.000000 0.000000 0.031391 0.000000
# 6 0.000000 0.000000 0.000000 0.000000 0.000000 0.027623
#
#
# Mechanical properties :
#
#
# Convention : Reuss Voigt Hill
#
# Bulk Modulus (GPa) = 100.35736 101.11127 100.73431
# Shear Modulus (GPa) = 30.07216 34.01690 32.04453
#
# Velocity S-wave (km/s) = 3.72317 3.95984 3.84333
# Velocity P-wave (km/s) = 8.04631 8.21676 8.13198
#
# Compressibility (1/GPa) = 0.00996439
#
# Stress axis : x y z
#
# Youngs Moduli (GPa) = 118.83659 87.19793 123.04416
#
# Poissons Ratio (x) = 0.36018 0.20207
# Poissons Ratio (y) = 0.49087 0.39990
# Poissons Ratio (z) = 0.19516 0.28340
#
# Static dielectric constant tensor:
#      x y z
#    x 1.819280 0.000000 0.000000 
#    y 0.000000 1.825820 0.000000 
#    z 0.000000 0.000000 1.850560 
# 
# From -- ./inp_files/12464.got.cif
#   From: 2010.05.17/outbox.cif.g08.bks.cpg/sg49_7_cif.got.tgz:12464.got - 2010.06.03 21:02:19.
