data_PCOD9394958
_publ_section_title
;
Structure prediction by ZEFSAII (Michael W. Deem and Ramdas Pophale) SiO2 
 PCOD9394958
Probable space group: P C C M
;
_chemical_formula_sum "Si O2"
_cell_formula_units_Z 64
_cell_length_a 12.838316
_cell_length_b 11.800629
_cell_length_c 28.305462
_cell_angle_alpha 90.000000
_cell_angle_beta 90.000000
_cell_angle_gamma 90.000000
_cell_volume 4288.283270
_symmetry_space_group_name_H-M "P C C M"
_symmetry_group_IT_number 49
_symmetry_cell_setting 'orthorhombic'
loop_
_space_group_symop_operation_xyz
x,y,z
-x,-y,z
x,-y,1/2-z
-x,y,1/2-z
-x,-y,-z
x,y,-z
-x,y,1/2+z
x,-y,1/2+z
loop_
_atom_site_type_symbol
_atom_site_label
_atom_site_fract_x
_atom_site_fract_y
_atom_site_fract_z
Si Si1 0.374951 0.633534 0.695608
Si Si2 0.877442 0.133728 0.555724
Si Si3 0.374951 0.366466 0.695608
Si Si4 0.877442 0.866272 0.555724
Si Si5 0.693386 0.733751 0.899041
Si Si6 0.621939 0.500000 0.056542
Si Si7 0.500000 0.864231 0.444473
Si Si8 0.693386 0.733751 0.399041
O O1 0.351288 0.500000 0.687729
O O2 0.500000 0.645258 0.690120
O O3 0.348995 0.660485 0.750000
O O4 0.320722 0.710145 0.656453
O O5 0.855775 0.153896 0.500000
O O6 0.801818 0.210212 0.586561
O O7 1.000000 0.155210 0.563642
O O8 0.858389 1.000000 0.564394
O O9 0.320722 0.289855 0.656453
O O10 0.855775 0.846104 0.500000
O O11 0.801818 0.789788 0.586561
O O12 0.675561 0.612416 0.923817
O O13 0.601370 0.813225 0.919220
O O14 0.500000 0.500000 0.071807
O O15 0.675561 0.387584 0.076183
O O16 0.624184 0.500000 0.000000
O O17 0.500000 0.830476 0.500000
O O18 0.601370 0.813225 0.419220
O O19 0.500000 0.000000 0.442169
#
# Coordination Sequence:
#
# PCOD9394958 Si02
#       8
#     8   8   8   8   8   8   8   8
#     4   9  17  31  50  73 100 133 172 205 243 301
#     4   9  19  36  55  73  97 135 179 214 245 290
#     4   9  17  31  50  73 100 133 172 205 243 301
#     4   9  19  36  55  73  97 135 179 214 245 290
#     4  12  19  31  51  74 102 133 167 207 252 302
#     4  11  20  28  42  72 110 139 154 189 253 316
#     4  11  22  31  44  71 104 135 167 202 242 300
#     4  12  19  31  51  74 102 133 167 207 252 302
#
# _framework density 14.924388
#
# number of rings (size 3 to 8) (size 9 to 14) (size 15 to 20)
#    0.000    1.750    3.750    4.500    0.000    2.000 
#    0.000    0.625    0.000    6.750    0.000    3.500 
#    0.000    0.000    0.000    0.000    0.000    0.000 
#
# Total GULP energy -357173.581486 kJ/mol
# GULP energy per Si atom -5580.837211 kJ/mol
# Density = 1.489042 g / cm^3
# Si number density = 14.924388 Si / 1000 Ang^3
#
#
#
# Elastic Constant Matrix: (Units=GPa)
#
#
# Indices 1 2 3 4 5 6 
#
# 1 74.6210 52.9648 62.6626 0.0000 0.0000 0.0000
# 2 52.9648 79.7270 61.9906 0.0000 0.0000 0.0000
# 3 62.6626 61.9906 129.0227 0.0000 0.0000 0.0000
# 4 0.0000 0.0000 0.0000 12.6828 0.0000 0.0000
# 5 0.0000 0.0000 0.0000 0.0000 20.6055 0.0000
# 6 0.0000 0.0000 0.0000 0.0000 0.0000 26.0069
#
#
#
# Elastic Compliance Matrix: (Units=1/GPa)
#
#
# Indices 1 2 3 4 5 6 
#
# 1 0.029651 -0.013570 -0.007880 0.000000 0.000000 0.000000
# 2 -0.013570 0.026234 -0.006014 0.000000 0.000000 0.000000
# 3 -0.007880 -0.006014 0.014467 0.000000 0.000000 0.000000
# 4 0.000000 0.000000 0.000000 0.078847 0.000000 0.000000
# 5 0.000000 0.000000 0.000000 0.000000 0.048531 0.000000
# 6 0.000000 0.000000 0.000000 0.000000 0.000000 0.038451
#
#
# Mechanical properties :
#
#
# Convention : Reuss Voigt Hill
#
# Bulk Modulus (GPa) = 64.83916 70.95628 67.89772
# Shear Modulus (GPa) = 16.87763 18.90924 17.89343
#
# Velocity S-wave (km/s) = 3.36650 3.56336 3.46633
# Velocity P-wave (km/s) = 7.65836 8.03599 7.84945
#
# Compressibility (1/GPa) = 0.01542278
#
# Stress axis : x y z
#
# Youngs Moduli (GPa) = 33.72607 38.11878 69.12222
#
# Poissons Ratio (x) = 0.51729 0.54471
# Poissons Ratio (y) = 0.45768 0.41567
# Poissons Ratio (z) = 0.26577 0.22923
#
# Static dielectric constant tensor:
#      x y z
#    x 1.475550 0.000000 0.000000 
#    y 0.000000 1.484340 0.000000 
#    z 0.000000 0.000000 1.501370 
# 
# From -- ./inp_files/24925.got.cif
#   From: 2010.05.17/outbox.cif.g08.bks.cpg/sg49_13_cif.got.tgz:24925.got - 2010.06.03 21:02:19.
