data_PCOD9394538
_publ_section_title
;
Structure prediction by ZEFSAII (Michael W. Deem and Ramdas Pophale) SiO2 
 PCOD9394538
Probable space group: P C C M
;
_chemical_formula_sum "Si O2"
_cell_formula_units_Z 64
_cell_length_a 15.436359
_cell_length_b 24.351937
_cell_length_c 8.579395
_cell_angle_alpha 90.000000
_cell_angle_beta 90.000000
_cell_angle_gamma 90.000000
_cell_volume 3225.039553
_symmetry_space_group_name_H-M "P C C M"
_symmetry_group_IT_number 49
_symmetry_cell_setting 'orthorhombic'
loop_
_space_group_symop_operation_xyz
x,y,z
-x,-y,z
x,-y,1/2-z
-x,y,1/2-z
-x,-y,-z
x,y,-z
-x,y,1/2+z
x,-y,1/2+z
loop_
_atom_site_type_symbol
_atom_site_label
_atom_site_fract_x
_atom_site_fract_y
_atom_site_fract_z
Si Si1 0.597776 0.057155 0.685143
Si Si2 0.848544 0.830815 0.676544
Si Si3 0.908904 0.273318 0.680645
Si Si4 0.098293 0.057301 0.813439
Si Si5 0.646609 0.174404 0.178502
Si Si6 0.592984 0.294538 0.810872
Si Si7 0.770461 0.648393 0.315720
Si Si8 0.094400 0.561587 0.314172
O O1 0.500000 0.057926 0.750000
O O2 0.598126 0.053310 0.500000
O O3 0.634144 0.116649 0.734794
O O4 0.638247 0.000000 0.750000
O O5 0.883608 0.826542 0.500000
O O6 0.899969 0.791553 0.792519
O O7 0.852491 0.892206 0.738354
O O8 0.748675 0.813910 0.673678
O O9 0.901150 0.288068 0.500000
O O10 0.832691 0.300319 0.779635
O O11 0.000000 0.291413 0.750000
O O12 0.000000 0.061396 0.750000
O O13 0.133848 0.000000 0.750000
O O14 0.098897 0.058548 0.000000
O O15 0.605503 0.230841 0.242936
O O16 0.615215 0.166454 0.000000
O O17 0.500000 0.314063 0.750000
O O18 0.674323 0.332922 0.761871
O O19 0.594247 0.293197 0.000000
O O20 0.766198 0.637886 0.500000
O O21 0.824174 0.598816 0.237319
O O22 0.106116 0.500000 0.250000
O O23 0.088931 0.560857 0.500000
O O24 0.000000 0.580799 0.250000
#
# Coordination Sequence:
#
# PCOD9394538 Si02
#       8
#     8   8   8   8   8   8   8   8
#     4  11  22  37  57  80 106 139 180 234 296 369
#     4  11  22  39  58  79 111 146 186 239 296 357
#     4  12  24  38  58  86 120 160 202 247 301 363
#     4  11  22  38  57  78 102 137 185 235 292 354
#     4  10  21  39  59  82 112 149 190 243 304 367
#     4  10  22  40  63  90 122 163 207 258 317 373
#     4  11  22  41  63  91 129 170 213 261 311 362
#     4  11  22  39  64  99 138 182 223 264 310 364
#
# _framework density 19.844718
#
# number of rings (size 3 to 8) (size 9 to 14) (size 15 to 20)
#    0.000    1.125    1.250    7.500    0.000    4.000 
#    0.000    0.000    0.000    0.375    0.000    2.625 
#    0.000    0.000    0.000    0.000    0.000    0.000 
#
# Total GULP energy -357561.392950 kJ/mol
# GULP energy per Si atom -5586.896765 kJ/mol
# Density = 1.979955 g / cm^3
# Si number density = 19.844718 Si / 1000 Ang^3
#
#
#
# Elastic Constant Matrix: (Units=GPa)
#
#
# Indices 1 2 3 4 5 6 
#
# 1 122.3344 50.3001 25.2934 0.0000 0.0000 0.0000
# 2 50.3001 117.6848 29.4249 0.0000 0.0000 0.0000
# 3 25.2934 29.4249 105.3662 0.0000 0.0000 0.0000
# 4 0.0000 0.0000 0.0000 27.4345 0.0000 0.0000
# 5 0.0000 0.0000 0.0000 0.0000 23.2378 0.0000
# 6 0.0000 0.0000 0.0000 0.0000 0.0000 35.3157
#
#
#
# Elastic Compliance Matrix: (Units=1/GPa)
#
#
# Indices 1 2 3 4 5 6 
#
# 1 0.010082 -0.003982 -0.001308 0.000000 0.000000 0.000000
# 2 -0.003982 0.010708 -0.002034 0.000000 0.000000 0.000000
# 3 -0.001308 -0.002034 0.010373 0.000000 0.000000 0.000000
# 4 0.000000 0.000000 0.000000 0.036450 0.000000 0.000000
# 5 0.000000 0.000000 0.000000 0.000000 0.043033 0.000000
# 6 0.000000 0.000000 0.000000 0.000000 0.000000 0.028316
#
#
# Mechanical properties :
#
#
# Convention : Reuss Voigt Hill
#
# Bulk Modulus (GPa) = 60.55655 61.71358 61.13507
# Shear Modulus (GPa) = 31.42349 33.22208 32.32278
#
# Velocity S-wave (km/s) = 3.98360 4.09602 4.04020
# Velocity P-wave (km/s) = 7.19307 7.31680 7.25520
#
# Compressibility (1/GPa) = 0.01651349
#
# Stress axis : x y z
#
# Youngs Moduli (GPa) = 99.18545 93.38837 96.40531
#
# Poissons Ratio (x) = 0.37189 0.12611
# Poissons Ratio (y) = 0.39497 0.19613
# Poissons Ratio (z) = 0.12975 0.18999
#
# Static dielectric constant tensor:
#      x y z
#    x 1.691280 0.000000 0.000000 
#    y 0.000000 1.746350 0.000000 
#    z 0.000000 0.000000 1.673740 
# 
# From -- ./inp_files/4352.got.cif
#   From: 2010.05.17/outbox.cif.g08.bks.cpg/sg49_3_cif.got.tgz:4352.got - 2010.06.03 21:02:19.
