data_PCOD9394315
_publ_section_title
;
Structure prediction by ZEFSAII (Michael W. Deem and Ramdas Pophale) SiO2 
 PCOD9394315
Probable space group: P C C M
;
_chemical_formula_sum "Si O2"
_cell_formula_units_Z 48
_cell_length_a 8.229977
_cell_length_b 17.986725
_cell_length_c 16.448140
_cell_angle_alpha 90.000000
_cell_angle_beta 90.000000
_cell_angle_gamma 90.000000
_cell_volume 2434.823642
_symmetry_space_group_name_H-M "P C C M"
_symmetry_group_IT_number 49
_symmetry_cell_setting 'orthorhombic'
loop_
_space_group_symop_operation_xyz
x,y,z
-x,-y,z
x,-y,1/2-z
-x,y,1/2-z
-x,-y,-z
x,y,-z
-x,y,1/2+z
x,-y,1/2+z
loop_
_atom_site_type_symbol
_atom_site_label
_atom_site_fract_x
_atom_site_fract_y
_atom_site_fract_z
Si Si1 0.690946 0.842116 0.593243
Si Si2 0.871710 0.713354 0.176706
Si Si3 0.182113 0.685081 0.093700
Si Si4 0.693391 0.414921 0.237729
Si Si5 0.370710 0.148496 0.825980
Si Si6 0.302756 0.995596 0.405646
O O1 0.743522 0.842258 0.500000
O O2 0.747509 0.763632 0.627478
O O3 0.496623 0.841412 0.599949
O O4 0.750314 0.922467 0.625275
O O5 0.772196 0.639404 0.196383
O O6 0.751430 0.782990 0.175472
O O7 0.000000 0.723657 0.250000
O O8 0.988797 0.697388 0.100876
O O9 0.247718 0.619813 0.151761
O O10 0.230949 0.674648 0.000000
O O11 0.745411 0.500000 0.250000
O O12 0.500000 0.411197 0.250000
O O13 0.500000 0.144256 0.750000
O O14 0.273481 0.072676 0.845135
O O15 0.248570 0.984066 0.500000
O O16 0.500000 0.000000 0.408341
#
# Coordination Sequence:
#
# PCOD9394315 Si02
#       6
#     8   8   8   8   8   8
#     4   9  18  34  54  75 103 139 180 229 278 319
#     4  10  21  36  53  77 112 148 178 216 278 342
#     4  10  21  37  59  87 116 146 186 232 275 331
#     4  10  21  41  65  85 109 146 183 220 278 343
#     4  11  19  30  52  78 104 141 189 235 271 321
#     4   8  16  30  48  72 101 136 180 229 280 323
#
# _framework density 19.713953
#
# number of rings (size 3 to 8) (size 9 to 14) (size 15 to 20)
#    0.000    2.333    0.000    5.000    0.000    7.333 
#    0.000    5.000    0.000    6.000    0.000    0.000 
#    0.000    0.000    0.000    0.000    0.000    0.000 
#
# Total GULP energy -267303.523508 kJ/mol
# GULP energy per Si atom -5568.823406 kJ/mol
# Density = 1.966908 g / cm^3
# Si number density = 19.713953 Si / 1000 Ang^3
#
#
#
# Elastic Constant Matrix: (Units=GPa)
#
#
# Indices 1 2 3 4 5 6 
#
# 1 49.7094 60.1531 10.6133 0.0000 0.0000 0.0000
# 2 60.1531 225.4263 50.8240 0.0000 0.0000 0.0000
# 3 10.6133 50.8240 59.8898 0.0000 0.0000 0.0000
# 4 0.0000 0.0000 0.0000 27.1881 0.0000 0.0000
# 5 0.0000 0.0000 0.0000 0.0000 11.1820 0.0000
# 6 0.0000 0.0000 0.0000 0.0000 0.0000 -30.2624
#
#
#
# Elastic Compliance Matrix: (Units=1/GPa)
#
#
# Indices 1 2 3 4 5 6 
#
# 1 0.029870 -0.008381 0.001819 0.000000 0.000000 0.000000
# 2 -0.008381 0.007837 -0.005165 0.000000 0.000000 0.000000
# 3 0.001819 -0.005165 0.020759 0.000000 0.000000 0.000000
# 4 0.000000 0.000000 0.000000 0.036781 0.000000 0.000000
# 5 0.000000 0.000000 0.000000 0.000000 0.089429 0.000000
# 6 0.000000 0.000000 0.000000 0.000000 0.000000 -0.033044
#
#
# Mechanical properties :
#
#
# Convention : Reuss Voigt Hill
#
# Bulk Modulus (GPa) = 28.56274 64.24513 46.40394
# Shear Modulus (GPa) = 26.77290 15.85056 21.31173
#
# Velocity S-wave (km/s) = 3.68920 2.83861 3.29150
# Velocity P-wave (km/s) = 5.71550 6.58810 6.16725
#
# Compressibility (1/GPa) = 0.03501065
#
# Stress axis : x y z
#
# Youngs Moduli (GPa) = 33.47847 127.60122 48.17278
#
# Poissons Ratio (x) = 1.06937 -0.08761
# Poissons Ratio (y) = 0.28057 0.24883
# Poissons Ratio (z) = -0.06088 0.65912
#
# Static dielectric constant tensor:
#      x y z
#    x 1.705650 0.000000 0.000000 
#    y 0.000000 1.736920 0.000000 
#    z 0.000000 0.000000 1.767790 
# 
# From -- ./inp_files/16283.got.cif
#   From: 2010.05.17/outbox.cif.g08.bks.cpg/sg49_9_cif.got.tgz:16283.got - 2010.06.03 21:02:19.
