data_PCOD9394236
_publ_section_title
;
Structure prediction by ZEFSAII (Michael W. Deem and Ramdas Pophale) SiO2 
 PCOD9394236
Probable space group: P C C M
;
_chemical_formula_sum "Si O2"
_cell_formula_units_Z 48
_cell_length_a 10.260777
_cell_length_b 15.678875
_cell_length_c 15.076065
_cell_angle_alpha 90.000000
_cell_angle_beta 90.000000
_cell_angle_gamma 90.000000
_cell_volume 2425.398742
_symmetry_space_group_name_H-M "P C C M"
_symmetry_group_IT_number 49
_symmetry_cell_setting 'orthorhombic'
loop_
_space_group_symop_operation_xyz
x,y,z
-x,-y,z
x,-y,1/2-z
-x,y,1/2-z
-x,-y,-z
x,y,-z
-x,y,1/2+z
x,-y,1/2+z
loop_
_atom_site_type_symbol
_atom_site_label
_atom_site_fract_x
_atom_site_fract_y
_atom_site_fract_z
Si Si1 0.089903 0.917060 0.500000
Si Si2 0.514601 0.787871 0.143460
Si Si3 0.256074 0.662927 0.336907
Si Si4 0.398598 0.077954 0.000000
Si Si5 0.257966 0.695072 0.128176
Si Si6 0.352938 0.505508 0.899402
Si Si7 0.985735 0.223291 0.357777
O O1 0.243688 0.940559 0.500000
O O2 0.054867 0.859837 0.413389
O O3 0.000000 0.000000 0.500000
O O4 0.500000 0.803626 0.250000
O O5 0.613374 0.708799 0.128304
O O6 0.374690 0.759355 0.107190
O O7 0.570528 0.865903 0.087571
O O8 0.256208 0.684069 0.233765
O O9 0.263633 0.562291 0.349656
O O10 0.128436 0.707949 0.374196
O O11 0.500000 0.000000 0.000000
O O12 0.295583 0.600246 0.097619
O O13 0.119622 0.736056 0.106245
O O14 0.500000 0.500000 0.861508
O O15 0.362288 0.472942 0.000000
O O16 0.000000 0.208729 0.250000
#
# Coordination Sequence:
#
# PCOD9394236 Si02
#       7
#     4   8   8   4   8   8   8
#     4  12  28  48  72  99 132 172 208 270 341 403
#     4  10  22  41  69  97 130 175 219 267 324 385
#     4  10  20  40  62  89 129 179 216 267 318 382
#     4  12  28  46  72 103 133 167 211 271 336 402
#     4  10  22  38  63  92 129 173 223 266 317 374
#     4  11  23  33  54  93 132 170 219 274 320 370
#     4  10  24  45  69  97 131 175 220 264 327 395
#
# _framework density 19.790561
#
# number of rings (size 3 to 8) (size 9 to 14) (size 15 to 20)
#    0.000    1.500    3.333    0.500    7.000    2.000 
#    0.000    5.000    0.000    0.000    0.000    0.000 
#    0.000    0.000    0.000    0.000    0.000    0.000 
#
# Total GULP energy -267963.542355 kJ/mol
# GULP energy per Si atom -5582.573799 kJ/mol
# Density = 1.974552 g / cm^3
# Si number density = 19.790561 Si / 1000 Ang^3
#
#
#
# Elastic Constant Matrix: (Units=GPa)
#
#
# Indices 1 2 3 4 5 6 
#
# 1 179.6565 70.0536 40.4387 0.0000 0.0000 0.0000
# 2 70.0536 114.7204 31.2806 0.0000 0.0000 0.0000
# 3 40.4387 31.2806 66.5626 0.0000 0.0000 0.0000
# 4 0.0000 0.0000 0.0000 28.1814 0.0000 0.0000
# 5 0.0000 0.0000 0.0000 0.0000 7.9160 0.0000
# 6 0.0000 0.0000 0.0000 0.0000 0.0000 37.0473
#
#
#
# Elastic Compliance Matrix: (Units=1/GPa)
#
#
# Indices 1 2 3 4 5 6 
#
# 1 0.007750 -0.003956 -0.002849 0.000000 0.000000 0.000000
# 2 -0.003956 0.012017 -0.003244 0.000000 0.000000 0.000000
# 3 -0.002849 -0.003244 0.018279 0.000000 0.000000 0.000000
# 4 0.000000 0.000000 0.000000 0.035484 0.000000 0.000000
# 5 0.000000 0.000000 0.000000 0.000000 0.126327 0.000000
# 6 0.000000 0.000000 0.000000 0.000000 0.000000 0.026993
#
#
# Mechanical properties :
#
#
# Convention : Reuss Voigt Hill
#
# Bulk Modulus (GPa) = 55.71741 71.60946 63.66343
# Shear Modulus (GPa) = 19.76829 29.24003 24.50416
#
# Velocity S-wave (km/s) = 3.16393 3.84796 3.52259
# Velocity P-wave (km/s) = 6.44685 7.48362 6.98450
#
# Compressibility (1/GPa) = 0.01794771
#
# Stress axis : x y z
#
# Youngs Moduli (GPa) = 129.03338 83.21653 54.70723
#
# Poissons Ratio (x) = 0.32916 0.15588
# Poissons Ratio (y) = 0.51039 0.17748
# Poissons Ratio (z) = 0.36767 0.26997
#
# Static dielectric constant tensor:
#      x y z
#    x 1.715950 0.000000 0.000000 
#    y 0.000000 1.656960 0.000000 
#    z 0.000000 0.000000 1.747730 
# 
# From -- ./inp_files/16375.got.cif
#   From: 2010.05.17/outbox.cif.g08.bks.cpg/sg49_9_cif.got.tgz:16375.got - 2010.06.03 21:02:19.
