data_PCOD9394755
_publ_section_title
;
Structure prediction by ZEFSAII (Michael W. Deem and Ramdas Pophale) SiO2 
 PCOD9394755
Probable space group: P C C M
;
_chemical_formula_sum "Si O2"
_cell_formula_units_Z 48
_cell_length_a 15.206472
_cell_length_b 8.700651
_cell_length_c 15.487414
_cell_angle_alpha 90.000000
_cell_angle_beta 90.000000
_cell_angle_gamma 90.000000
_cell_volume 2049.080984
_symmetry_space_group_name_H-M "P C C M"
_symmetry_group_IT_number 49
_symmetry_cell_setting 'orthorhombic'
loop_
_space_group_symop_operation_xyz
x,y,z
-x,-y,z
x,-y,1/2-z
-x,y,1/2-z
-x,-y,-z
x,y,-z
-x,y,1/2+z
x,-y,1/2+z
loop_
_atom_site_type_symbol
_atom_site_label
_atom_site_fract_x
_atom_site_fract_y
_atom_site_fract_z
Si Si1 0.122236 0.622766 0.397463
Si Si2 0.202363 0.298262 0.394912
Si Si3 0.299592 0.271390 0.902006
Si Si4 0.970797 0.160409 0.849379
Si Si5 0.378757 0.584819 0.156549
Si Si6 0.479906 0.835178 0.350537
O O1 0.134886 0.614391 0.500000
O O2 0.149582 0.453914 0.366718
O O3 0.202268 0.728116 0.362977
O O4 0.027524 0.695461 0.383934
O O5 0.213498 0.294417 0.500000
O O6 0.132444 0.172676 0.365851
O O7 0.295838 0.298813 0.346829
O O8 0.338657 0.446160 0.900622
O O9 0.376024 0.181859 0.856330
O O10 0.295090 0.216278 0.000000
O O11 0.000000 0.158088 0.750000
O O12 0.000000 0.000000 0.890529
O O13 0.393573 0.500000 0.250000
O O14 0.462713 0.683258 0.123206
O O15 0.500000 0.842207 0.250000
O O16 0.500000 0.000000 0.392598
#
# Coordination Sequence:
#
# PCOD9394755 Si02
#       6
#     8   8   8   8   8   8
#     4   9  20  40  63  88 119 155 204 260 314 364
#     4  10  23  41  64  95 124 160 211 266 314 367
#     4  10  22  40  65  93 123 161 209 265 314 370
#     4  11  25  39  58  91 129 170 212 255 310 376
#     4  11  22  39  67  95 120 165 210 261 316 372
#     4  11  24  40  59  90 129 166 207 254 311 377
#
# _framework density 23.425135000000001
#
# number of rings (size 3 to 8) (size 9 to 14) (size 15 to 20)
#    0.000    1.667    1.667    3.000    4.667    7.000 
#    0.000    5.000    0.000    0.000    0.000    0.000 
#    0.000    0.000    0.000    0.000    0.000    0.000 
#
# Total GULP energy -267675.388100 kJ/mol
# GULP energy per Si atom -5576.570585 kJ/mol
# Density = 2.337182 g / cm^3
# Si number density = 23.425135 Si / 1000 Ang^3
#
#
#
# Elastic Constant Matrix: (Units=GPa)
#
#
# Indices 1 2 3 4 5 6 
#
# 1 126.9213 -1.3506 -1.4639 0.0000 0.0000 0.0000
# 2 -1.3506 40.6050 -12.1776 0.0000 0.0000 0.0000
# 3 -1.4639 -12.1776 49.4743 0.0000 0.0000 0.0000
# 4 0.0000 0.0000 0.0000-1008.5255 0.0000 0.0000
# 5 0.0000 0.0000 0.0000 0.0000 21.0987 0.0000
# 6 0.0000 0.0000 0.0000 0.0000 0.0000 -44.3140
#
#
#
# Elastic Compliance Matrix: (Units=1/GPa)
#
#
# Indices 1 2 3 4 5 6 
#
# 1 0.007886 0.000359 0.000322 0.000000 0.000000 0.000000
# 2 0.000359 0.026607 0.006560 0.000000 0.000000 0.000000
# 3 0.000322 0.006560 0.021837 0.000000 0.000000 0.000000
# 4 0.000000 0.000000 0.000000 -0.000992 0.000000 0.000000
# 5 0.000000 0.000000 0.000000 0.000000 0.047396 0.000000
# 6 0.000000 0.000000 0.000000 0.000000 0.000000 -0.022566
#
#
# Mechanical properties :
#
#
# Convention : Reuss Voigt Hill
#
# Bulk Modulus (GPa) = 14.12234 20.77960 17.45097
# Shear Modulus (GPa) = 55.99647 -190.88197 -67.44275
#
# Velocity S-wave (km/s) = 4.89452 -9.03675 -5.37152
# Velocity P-wave (km/s) = 6.16308 9.99970 5.56823
#
# Compressibility (1/GPa) = 0.07080978
#
# Stress axis : x y z
#
# Youngs Moduli (GPa) = 126.80019 37.58451 45.79472
#
# Poissons Ratio (x) = -0.01349 -0.01473
# Poissons Ratio (y) = -0.04550 -0.30039
# Poissons Ratio (z) = -0.04079 -0.24654
#
# Static dielectric constant tensor:
#      x y z
#    x 1.979560 0.000000 0.000000 
#    y 0.000000 2.004950 0.000000 
#    z 0.000000 0.000000 1.905390 
# 
# From -- ./inp_files/17699.got.cif
#   From: 2010.05.17/outbox.cif.g08.bks.cpg/sg49_9_cif.got.tgz:17699.got - 2010.06.03 21:02:19.
