data_PCOD9394881
_publ_section_title
;
Structure prediction by ZEFSAII (Michael W. Deem and Ramdas Pophale) SiO2 
 PCOD9394881
Probable space group: P C C M
;
_chemical_formula_sum "Si O2"
_cell_formula_units_Z 32
_cell_length_a 5.278633
_cell_length_b 9.104811
_cell_length_c 26.681107
_cell_angle_alpha 90.000000
_cell_angle_beta 90.000000
_cell_angle_gamma 90.000000
_cell_volume 1282.319504
_symmetry_space_group_name_H-M "P C C M"
_symmetry_group_IT_number 49
_symmetry_cell_setting 'orthorhombic'
loop_
_space_group_symop_operation_xyz
x,y,z
-x,-y,z
x,-y,1/2-z
-x,y,1/2-z
-x,-y,-z
x,y,-z
-x,y,1/2+z
x,-y,1/2+z
loop_
_atom_site_type_symbol
_atom_site_label
_atom_site_fract_x
_atom_site_fract_y
_atom_site_fract_z
Si Si1 0.761259 0.940588 0.057364
Si Si2 0.770374 0.398960 0.442789
Si Si3 0.015706 0.823446 0.691465
Si Si4 0.519048 0.665065 0.348334
O O1 0.838571 0.771803 0.052694
O O2 0.500000 0.000000 0.079981
O O3 0.752697 0.001228 0.000000
O O4 0.000000 0.000000 0.086601
O O5 0.733811 0.451187 0.500000
O O6 0.524521 0.365568 0.407776
O O7 0.000000 0.500000 0.421252
O O8 0.778648 0.745048 0.664420
O O9 0.000000 0.779442 0.750000
O O10 0.279353 0.761559 0.669264
O O11 0.000000 0.000000 0.690983
O O12 0.500000 0.500000 0.325749
#
# Coordination Sequence:
#
# PCOD9394881 Si02
#       4
#     8   8   8   8
#     4   9  19  36  58  86 121 170 238 304 355 407
#     4  10  23  44  68  98 146 204 254 300 355 425
#     4  11  26  50  79 109 143 186 237 301 382 462
#     4  12  26  45  72 110 150 190 244 304 366 438
#
# _framework density 24.954777
#
# number of rings (size 3 to 8) (size 9 to 14) (size 15 to 20)
#    0.000    1.500    0.000    3.750    0.000   12.500 
#    0.000    8.750    0.000    0.750    0.000    0.000 
#    0.000    0.000    0.000    0.000    0.000    0.000 
#
# Total GULP energy -178552.771650 kJ/mol
# GULP energy per Si atom -5579.774114 kJ/mol
# Density = 2.489798 g / cm^3
# Si number density = 24.954777 Si / 1000 Ang^3
#
#
#
# Elastic Constant Matrix: (Units=GPa)
#
#
# Indices 1 2 3 4 5 6 
#
# 1 226.9890 80.7594 31.1539 0.0000 0.0000 0.0000
# 2 80.7594 139.7342 -4.9212 0.0000 0.0000 0.0000
# 3 31.1539 -4.9212 142.0278 0.0000 0.0000 0.0000
# 4 0.0000 0.0000 0.0000 81.1034 0.0000 0.0000
# 5 0.0000 0.0000 0.0000 0.0000 37.9010 0.0000
# 6 0.0000 0.0000 0.0000 0.0000 0.0000 55.1534
#
#
#
# Elastic Compliance Matrix: (Units=1/GPa)
#
#
# Indices 1 2 3 4 5 6 
#
# 1 0.005808 -0.003406 -0.001392 0.000000 0.000000 0.000000
# 2 -0.003406 0.009162 0.001065 0.000000 0.000000 0.000000
# 3 -0.001392 0.001065 0.007383 0.000000 0.000000 0.000000
# 4 0.000000 0.000000 0.000000 0.012330 0.000000 0.000000
# 5 0.000000 0.000000 0.000000 0.000000 0.026385 0.000000
# 6 0.000000 0.000000 0.000000 0.000000 0.000000 0.018131
#
#
# Mechanical properties :
#
#
# Convention : Reuss Voigt Hill
#
# Bulk Modulus (GPa) = 67.17295 80.30390 73.73842
# Shear Modulus (GPa) = 54.56793 61.61547 58.09170
#
# Velocity S-wave (km/s) = 4.68126 4.97438 4.83004
# Velocity P-wave (km/s) = 7.49635 8.07727 7.79222
#
# Compressibility (1/GPa) = 0.01488694
#
# Stress axis : x y z
#
# Youngs Moduli (GPa) = 172.16577 109.14147 135.44419
#
# Poissons Ratio (x) = 0.37173 0.18855
# Poissons Ratio (y) = 0.58639 -0.14419
# Poissons Ratio (z) = 0.23967 -0.11619
#
# Static dielectric constant tensor:
#      x y z
#    x 2.124420 0.000000 0.000000 
#    y 0.000000 2.532000 0.000000 
#    z 0.000000 0.000000 2.032140 
# 
# From -- ./inp_files/25538.got.cif
#   From: 2010.05.17/outbox.cif.g08.bks.cpg/sg49_13_cif.got.tgz:25538.got - 2010.06.03 21:02:19.
