data_PCOD9394699
_publ_section_title
;
Structure prediction by ZEFSAII (Michael W. Deem and Ramdas Pophale) SiO2 
 PCOD9394699
Probable space group: P C C M
;
_chemical_formula_sum "Si O2"
_cell_formula_units_Z 54
_cell_length_a 33.061707
_cell_length_b 4.941378
_cell_length_c 13.303511
_cell_angle_alpha 90.000000
_cell_angle_beta 90.000000
_cell_angle_gamma 90.000000
_cell_volume 2173.399802
_symmetry_space_group_name_H-M "P C C M"
_symmetry_group_IT_number 49
_symmetry_cell_setting 'orthorhombic'
loop_
_space_group_symop_operation_xyz
x,y,z
-x,-y,z
x,-y,1/2-z
-x,y,1/2-z
-x,-y,-z
x,y,-z
-x,y,1/2+z
x,-y,1/2+z
loop_
_atom_site_type_symbol
_atom_site_label
_atom_site_fract_x
_atom_site_fract_y
_atom_site_fract_z
Si Si1 0.184854 0.213381 0.884771
Si Si2 0.043280 0.599566 0.113068
Si Si3 0.438621 0.331814 0.115075
Si Si4 0.240281 0.701563 0.883063
Si Si5 0.309360 0.000000 0.250000
Si Si6 0.382518 0.179692 0.384085
Si Si7 0.098384 0.075300 0.116022
Si Si8 0.500000 0.000000 0.750000
O O1 0.219824 0.419087 0.850597
O O2 0.140576 0.182854 0.838079
O O3 0.204082 0.917723 0.882823
O O4 0.178138 0.305736 0.000000
O O5 0.069924 0.332800 0.108749
O O6 0.000000 0.500000 0.151423
O O7 0.071803 0.829609 0.160911
O O8 0.034348 0.704766 0.000000
O O9 0.418615 0.616446 0.144823
O O10 0.401740 0.118240 0.115299
O O11 0.473212 0.196634 0.180731
O O12 0.453051 0.359575 0.000000
O O13 0.274934 0.832751 0.815381
O O14 0.254664 0.672631 0.000000
O O15 0.345167 0.824801 0.190632
O O16 0.370709 0.247167 0.500000
O O17 0.108873 0.984289 0.000000
#
# Coordination Sequence:
#
# PCOD9394699 Si02
#       8
#     8   8   8   8   4   8   8   2
#     4   9  18  34  52  74 108 150 199 251 313 390
#     4   9  15  21  32  57  91 129 183 243 293 351
#     4  10  24  45  69 101 142 184 227 279 332 394
#     4  10  22  38  58  87 119 152 201 266 325 387
#     4  12  25  42  70  97 124 168 217 272 342 405
#     4  10  24  46  68  96 137 181 225 273 335 411
#     4   9  15  24  40  58  87 139 187 230 298 370
#     4  12  24  42  76 112 144 186 238 286 336 390
#
# _framework density 24.845866999999998
#
# number of rings (size 3 to 8) (size 9 to 14) (size 15 to 20)
#    0.000    2.222    0.000    2.444    0.000   11.852 
#    0.000    6.667    0.000    2.667    0.000    0.000 
#    0.000    0.000    0.000   18.667    0.000   46.815 
#
# Total GULP energy -301018.444289 kJ/mol
# GULP energy per Si atom -5574.415635 kJ/mol
# Density = 2.478932 g / cm^3
# Si number density = 24.845867 Si / 1000 Ang^3
#
#
#
# Elastic Constant Matrix: (Units=GPa)
#
#
# Indices 1 2 3 4 5 6 
#
# 1 153.3856 25.2059 62.5033 0.0000 0.0000 0.0000
# 2 25.2059 112.4235 17.4901 0.0000 0.0000 0.0000
# 3 62.5033 17.4901 109.5777 0.0000 0.0000 0.0000
# 4 0.0000 0.0000 0.0000 25.9299 0.0000 0.0000
# 5 0.0000 0.0000 0.0000 0.0000 5.0880 0.0000
# 6 0.0000 0.0000 0.0000 0.0000 0.0000 22.1739
#
#
#
# Elastic Compliance Matrix: (Units=1/GPa)
#
#
# Indices 1 2 3 4 5 6 
#
# 1 0.008649 -0.001201 -0.004742 0.000000 0.000000 0.000000
# 2 -0.001201 0.009288 -0.000797 0.000000 0.000000 0.000000
# 3 -0.004742 -0.000797 0.011958 0.000000 0.000000 0.000000
# 4 0.000000 0.000000 0.000000 0.038565 0.000000 0.000000
# 5 0.000000 0.000000 0.000000 0.000000 0.196540 0.000000
# 6 0.000000 0.000000 0.000000 0.000000 0.000000 0.045098
#
#
# Mechanical properties :
#
#
# Convention : Reuss Voigt Hill
#
# Bulk Modulus (GPa) = 60.92166 65.08727 63.00447
# Shear Modulus (GPa) = 15.19521 28.65086 21.92304
#
# Velocity S-wave (km/s) = 2.47570 3.39948 2.97368
# Velocity P-wave (km/s) = 5.72234 6.45460 6.09947
#
# Compressibility (1/GPa) = 0.01641452
#
# Stress axis : x y z
#
# Youngs Moduli (GPa) = 115.61801 107.66179 83.62688
#
# Poissons Ratio (x) = 0.12936 0.39654
# Poissons Ratio (y) = 0.13891 0.06667
# Poissons Ratio (z) = 0.54823 0.08583
#
# Static dielectric constant tensor:
#      x y z
#    x 1.970190 0.000000 0.000000 
#    y 0.000000 1.915330 0.000000 
#    z 0.000000 0.000000 2.116570 
# 
# From -- ./inp_files/14649.got.cif
#   From: 2010.05.17/outbox.cif.g08.bks.cpg/sg49_8_cif.got.tgz:14649.got - 2010.06.03 21:02:19.
