data_PCOD9394931
_publ_section_title
;
Structure prediction by ZEFSAII (Michael W. Deem and Ramdas Pophale) SiO2 
 PCOD9394931
Probable space group: P C C M
;
_chemical_formula_sum "Si O2"
_cell_formula_units_Z 34
_cell_length_a 10.533065
_cell_length_b 11.613693
_cell_length_c 10.982143
_cell_angle_alpha 90.000000
_cell_angle_beta 90.000000
_cell_angle_gamma 90.000000
_cell_volume 1343.421209
_symmetry_space_group_name_H-M "P C C M"
_symmetry_group_IT_number 49
_symmetry_cell_setting 'orthorhombic'
loop_
_space_group_symop_operation_xyz
x,y,z
-x,-y,z
x,-y,1/2-z
-x,y,1/2-z
-x,-y,-z
x,y,-z
-x,y,1/2+z
x,-y,1/2+z
loop_
_atom_site_type_symbol
_atom_site_label
_atom_site_fract_x
_atom_site_fract_y
_atom_site_fract_z
Si Si1 0.954983 0.196390 0.628623
Si Si2 0.410054 0.692047 0.860207
Si Si3 0.305708 0.114682 0.197708
Si Si4 0.863147 0.577283 0.631494
Si Si5 0.500000 0.000000 0.500000
O O1 0.986128 0.140686 0.500000
O O2 0.801872 0.198568 0.640538
O O3 0.037954 0.315370 0.629775
O O4 0.000000 0.136361 0.750000
O O5 0.500000 0.649574 0.750000
O O6 0.365141 0.816422 0.811446
O O7 0.280102 0.622473 0.864269
O O8 0.461552 0.694991 0.000000
O O9 0.242308 0.000000 0.250000
O O10 0.410855 0.066684 0.105096
O O11 0.877218 0.500000 0.750000
O O12 0.873177 0.515965 0.500000
#
# Coordination Sequence:
#
# PCOD9394931 Si02
#       5
#     8   8   8   8   2
#     4  11  24  49  76 112 157 207 259 327 407 478
#     4  11  26  47  76 113 161 212 268 342 406 481
#     4  12  27  46  79 111 157 204 270 325 399 479
#     4  10  24  49  79 115 158 208 267 331 410 487
#     4  12  26  52  74 122 144 214 268 324 398 482
#
# _framework density 25.308516000000001
#
# number of rings (size 3 to 8) (size 9 to 14) (size 15 to 20)
#    0.000    0.941    3.529    1.765    6.588    3.294 
#    0.000    5.882    0.000    0.000    0.000    0.000 
#    0.000    0.000    0.000    0.000    0.000    0.000 
#
# Total GULP energy -189317.823688 kJ/mol
# GULP energy per Si atom -5568.171285 kJ/mol
# Density = 2.525091 g / cm^3
# Si number density = 25.308516 Si / 1000 Ang^3
#
#
#
# Elastic Constant Matrix: (Units=GPa)
#
#
# Indices 1 2 3 4 5 6 
#
# 1 183.0048 56.4923 82.4521 0.0000 0.0000 0.0000
# 2 56.4923 71.6633 58.3967 0.0000 0.0000 0.0000
# 3 82.4521 58.3967 294.7657 0.0000 0.0000 0.0000
# 4 0.0000 0.0000 0.0000 -5.0329 0.0000 0.0000
# 5 0.0000 0.0000 0.0000 0.0000 85.9874 0.0000
# 6 0.0000 0.0000 0.0000 0.0000 0.0000 55.6656
#
#
#
# Elastic Compliance Matrix: (Units=1/GPa)
#
#
# Indices 1 2 3 4 5 6 
#
# 1 0.007513 -0.005020 -0.001107 0.000000 0.000000 0.000000
# 2 -0.005020 0.019995 -0.002557 0.000000 0.000000 0.000000
# 3 -0.001107 -0.002557 0.004209 0.000000 0.000000 0.000000
# 4 0.000000 0.000000 0.000000 -0.198693 0.000000 0.000000
# 5 0.000000 0.000000 0.000000 0.000000 0.011630 0.000000
# 6 0.000000 0.000000 0.000000 0.000000 0.000000 0.017964
#
#
# Mechanical properties :
#
#
# Convention : Reuss Voigt Hill
#
# Bulk Modulus (GPa) = 69.69462 104.90176 87.29819
# Shear Modulus (GPa) = -43.39105 50.79686 3.70291
#
# Velocity S-wave (km/s) = -4.14512 4.48493 1.21090
# Velocity P-wave (km/s) = 2.16527 8.26793 6.04347
#
# Compressibility (1/GPa) = 0.01434831
#
# Stress axis : x y z
#
# Youngs Moduli (GPa) = 133.10623 50.01162 237.60184
#
# Poissons Ratio (x) = 0.25108 0.26300
# Poissons Ratio (y) = 0.66824 0.60755
# Poissons Ratio (z) = 0.14733 0.12788
#
# Static dielectric constant tensor:
#      x y z
#    x 2.055390 0.000000 0.000000 
#    y 0.000000 2.033750 0.000000 
#    z 0.000000 0.000000 2.045560 
# 
# From -- ./inp_files/8611.got.cif
#   From: 2010.05.17/outbox.cif.g08.bks.cpg/sg49_5_cif.got.tgz:8611.got - 2010.06.03 21:02:19.
