data_PCOD9394889
_publ_section_title
;
Structure prediction by ZEFSAII (Michael W. Deem and Ramdas Pophale) SiO2 
 PCOD9394889
Probable space group: P C C M
;
_chemical_formula_sum "Si O2"
_cell_formula_units_Z 48
_cell_length_a 17.350602
_cell_length_b 8.603748
_cell_length_c 15.057176
_cell_angle_alpha 90.000000
_cell_angle_beta 90.000000
_cell_angle_gamma 90.000000
_cell_volume 2247.738354
_symmetry_space_group_name_H-M "P C C M"
_symmetry_group_IT_number 49
_symmetry_cell_setting 'orthorhombic'
loop_
_space_group_symop_operation_xyz
x,y,z
-x,-y,z
x,-y,1/2-z
-x,y,1/2-z
-x,-y,-z
x,y,-z
-x,y,1/2+z
x,-y,1/2+z
loop_
_atom_site_type_symbol
_atom_site_label
_atom_site_fract_x
_atom_site_fract_y
_atom_site_fract_z
Si Si1 0.453143 0.337657 0.173868
Si Si2 0.504342 0.182151 0.000000
Si Si3 0.276878 0.398273 0.827889
Si Si4 0.922282 0.077928 0.856331
Si Si5 0.324786 0.887193 0.000000
Si Si6 0.760269 0.421531 0.000000
Si Si7 0.065592 0.360201 0.500000
Si Si8 0.757652 0.947661 0.149313
O O1 0.500000 0.500000 0.162482
O O2 0.500000 0.250148 0.250000
O O3 0.461688 0.250004 0.083546
O O4 0.364551 0.358352 0.198662
O O5 0.500000 0.000000 0.000000
O O6 0.596100 0.209218 0.000000
O O7 0.239784 0.500000 0.750000
O O8 0.277610 0.502464 0.914398
O O9 0.235402 0.237566 0.848646
O O10 0.932172 0.249362 0.908450
O O11 0.920146 0.000000 0.750000
O O12 0.837956 0.020835 0.883831
O O13 0.000000 0.000000 0.889920
O O14 0.258603 0.758689 0.000000
O O15 0.310593 0.993723 0.914126
O O16 0.851609 0.445189 0.000000
O O17 0.000000 0.500000 0.500000
O O18 0.742476 0.000000 0.250000
#
# Coordination Sequence:
#
# PCOD9394889 Si02
#       8
#     8   4   8   8   4   4   4   8
#     4  11  23  45  66  96 137 188 242 299 378 442
#     4  12  26  41  66  98 134 180 239 306 365 432
#     4  12  25  43  70 103 140 190 249 306 368 439
#     4  10  23  47  74 102 147 199 236 290 375 446
#     4  12  23  44  68 100 138 188 237 295 372 443
#     4  12  26  44  70 105 145 182 241 308 360 437
#     4  12  27  47  78 118 153 190 254 314 368 446
#     4  11  24  42  70 100 143 187 238 292 364 442
#
# _framework density 21.354799
#
# number of rings (size 3 to 8) (size 9 to 14) (size 15 to 20)
#    0.000    0.667    3.333    4.500    7.000    0.333 
#    0.000    1.667    0.000    0.000    0.000    0.000 
#    0.000    0.000    0.000    0.000    0.000    0.000 
#
# Total GULP energy -267261.678355 kJ/mol
# GULP energy per Si atom -5567.951632 kJ/mol
# Density = 2.130619 g / cm^3
# Si number density = 21.354799 Si / 1000 Ang^3
#
#
#
# Elastic Constant Matrix: (Units=GPa)
#
#
# Indices 1 2 3 4 5 6 
#
# 1 82.6590 -2.5326 -16.0366 0.0000 0.0000 0.0000
# 2 -2.5326 107.1509 34.6784 0.0000 0.0000 0.0000
# 3 -16.0366 34.6784 121.6046 0.0000 0.0000 0.0000
# 4 0.0000 0.0000 0.0000 51.6234 0.0000 0.0000
# 5 0.0000 0.0000 0.0000 0.0000 7.1781 0.0000
# 6 0.0000 0.0000 0.0000 0.0000 0.0000 1194.7246
#
#
#
# Elastic Compliance Matrix: (Units=1/GPa)
#
#
# Indices 1 2 3 4 5 6 
#
# 1 0.012422 -0.000261 0.001712 0.000000 0.000000 0.000000
# 2 -0.000261 0.010287 -0.002968 0.000000 0.000000 0.000000
# 3 0.001712 -0.002968 0.009296 0.000000 0.000000 0.000000
# 4 0.000000 0.000000 0.000000 0.019371 0.000000 0.000000
# 5 0.000000 0.000000 0.000000 0.000000 0.139313 0.000000
# 6 0.000000 0.000000 0.000000 0.000000 0.000000 0.000837
#
#
# Mechanical properties :
#
#
# Convention : Reuss Voigt Hill
#
# Bulk Modulus (GPa) = 34.51539 38.18143 36.34841
# Shear Modulus (GPa) = 24.48395 270.39224 147.43809
#
# Velocity S-wave (km/s) = 3.38972 11.26472 8.31817
# Velocity P-wave (km/s) = 5.61411 13.67882 10.45534
#
# Compressibility (1/GPa) = 0.02897258
#
# Stress axis : x y z
#
# Youngs Moduli (GPa) = 80.50141 97.20979 107.57785
#
# Poissons Ratio (x) = 0.02534 -0.18423
# Poissons Ratio (y) = 0.02098 0.31929
# Poissons Ratio (z) = -0.13786 0.28851
#
# Static dielectric constant tensor:
#      x y z
#    x 2.972910 0.000000 0.000000 
#    y 0.000000 1.832950 0.000000 
#    z 0.000000 0.000000 1.951350 
# 
# From -- ./inp_files/14083.got.cif
#   From: 2010.05.17/outbox.cif.g08.bks.cpg/sg49_8_cif.got.tgz:14083.got - 2010.06.03 21:02:19.
