data_PCOD9394749
_publ_section_title
;
Structure prediction by ZEFSAII (Michael W. Deem and Ramdas Pophale) SiO2 
 PCOD9394749
Probable space group: P C C M
;
_chemical_formula_sum "Si O2"
_cell_formula_units_Z 40
_cell_length_a 7.346936
_cell_length_b 26.669723
_cell_length_c 9.711672
_cell_angle_alpha 90.000000
_cell_angle_beta 90.000000
_cell_angle_gamma 90.000000
_cell_volume 1902.912276
_symmetry_space_group_name_H-M "P C C M"
_symmetry_group_IT_number 49
_symmetry_cell_setting 'orthorhombic'
loop_
_space_group_symop_operation_xyz
x,y,z
-x,-y,z
x,-y,1/2-z
-x,y,1/2-z
-x,-y,-z
x,y,-z
-x,y,1/2+z
x,-y,1/2+z
loop_
_atom_site_type_symbol
_atom_site_label
_atom_site_fract_x
_atom_site_fract_y
_atom_site_fract_z
Si Si1 0.713391 0.655206 0.725220
Si Si2 0.000000 0.126942 0.750000
Si Si3 0.683877 0.051103 0.832583
Si Si4 0.758967 0.703836 0.000000
Si Si5 0.998991 0.197784 0.000000
Si Si6 0.323341 0.733664 0.000000
Si Si7 0.185536 0.456438 0.661431
O O1 0.500000 0.656874 0.750000
O O2 0.751083 0.702075 0.628288
O O3 0.745258 0.600291 0.666440
O O4 0.799335 0.668120 0.870809
O O5 0.838796 0.091832 0.805640
O O6 0.946361 0.164160 0.628741
O O7 0.500000 0.066431 0.750000
O O8 0.736613 0.000000 0.750000
O O9 0.659486 0.044056 0.000000
O O10 0.887443 0.751432 0.000000
O O11 0.546180 0.725612 0.000000
O O12 0.782544 0.213264 0.000000
O O13 0.286547 0.500000 0.750000
O O14 0.170881 0.470696 0.500000
O O15 0.000000 0.451915 0.750000
#
# Coordination Sequence:
#
# PCOD9394749 Si02
#       7
#     8   4   8   4   4   4   8
#     4  10  22  40  63  91 120 163 210 270 330 391
#     4  12  27  44  68 106 150 180 239 290 346 412
#     4  11  25  45  76 109 145 193 239 286 346 408
#     4  10  24  40  67  92 129 171 225 282 335 394
#     4  12  26  42  67 100 131 190 230 276 352 402
#     4  10  22  44  61  92 131 167 231 282 325 396
#     4  11  24  40  60  91 125 157 201 257 327 403
#
# _framework density 21.020413000000001
#
# number of rings (size 3 to 8) (size 9 to 14) (size 15 to 20)
#    0.000    1.200    2.000    3.900    8.400    2.800 
#    0.000    1.000    0.000    0.000    0.000    0.000 
#    0.000    0.000    0.000    0.000    0.000    0.000 
#
# Total GULP energy -222987.152598 kJ/mol
# GULP energy per Si atom -5574.678815 kJ/mol
# Density = 2.097257 g / cm^3
# Si number density = 21.020413 Si / 1000 Ang^3
#
#
#
# Elastic Constant Matrix: (Units=GPa)
#
#
# Indices 1 2 3 4 5 6 
#
# 1 47.9858 34.4528 23.1198 0.0000 0.0000 0.0000
# 2 34.4528 94.0542 49.1974 0.0000 0.0000 0.0000
# 3 23.1198 49.1974 204.3236 0.0000 0.0000 0.0000
# 4 0.0000 0.0000 0.0000 204.4527 0.0000 0.0000
# 5 0.0000 0.0000 0.0000 0.0000 42.2114 0.0000
# 6 0.0000 0.0000 0.0000 0.0000 0.0000 -4.7765
#
#
#
# Elastic Compliance Matrix: (Units=1/GPa)
#
#
# Indices 1 2 3 4 5 6 
#
# 1 0.028393 -0.009977 -0.000811 0.000000 0.000000 0.000000
# 2 -0.009977 0.015670 -0.002644 0.000000 0.000000 0.000000
# 3 -0.000811 -0.002644 0.005623 0.000000 0.000000 0.000000
# 4 0.000000 0.000000 0.000000 0.004891 0.000000 0.000000
# 5 0.000000 0.000000 0.000000 0.000000 0.023690 0.000000
# 6 0.000000 0.000000 0.000000 0.000000 0.000000 -0.209359
#
#
# Mechanical properties :
#
#
# Convention : Reuss Voigt Hill
#
# Bulk Modulus (GPa) = 43.81589 62.21152 53.01371
# Shear Modulus (GPa) = -51.74773 64.35043 6.30135
#
# Velocity S-wave (km/s) = -4.96702 5.53893 1.73327
# Velocity P-wave (km/s) = 3.46487 8.40038 5.41115
#
# Compressibility (1/GPa) = 0.02282277
#
# Stress axis : x y z
#
# Youngs Moduli (GPa) = 35.21999 63.81732 177.85467
#
# Poissons Ratio (x) = 0.63668 0.14416
# Poissons Ratio (y) = 0.35137 0.47027
# Poissons Ratio (z) = 0.02855 0.16874
#
# Static dielectric constant tensor:
#      x y z
#    x 1.812880 0.000000 0.000000 
#    y 0.000000 1.795410 0.000000 
#    z 0.000000 0.000000 1.818520 
# 
# From -- ./inp_files/1823.got.cif
#   From: 2010.05.17/outbox.cif.g08.bks.cpg/sg49_1_cif.got.tgz:1823.got - 2010.06.03 21:02:19.
