data_PCOD9394675
_publ_section_title
;
Structure prediction by ZEFSAII (Michael W. Deem and Ramdas Pophale) SiO2 
 PCOD9394675
Probable space group: P C C M
;
_chemical_formula_sum "Si O2"
_cell_formula_units_Z 64
_cell_length_a 15.475950
_cell_length_b 9.201456
_cell_length_c 24.080749
_cell_angle_alpha 90.000000
_cell_angle_beta 90.000000
_cell_angle_gamma 90.000000
_cell_volume 3429.129312
_symmetry_space_group_name_H-M "P C C M"
_symmetry_group_IT_number 49
_symmetry_cell_setting 'orthorhombic'
loop_
_space_group_symop_operation_xyz
x,y,z
-x,-y,z
x,-y,1/2-z
-x,y,1/2-z
-x,-y,-z
x,y,-z
-x,y,1/2+z
x,-y,1/2+z
loop_
_atom_site_type_symbol
_atom_site_label
_atom_site_fract_x
_atom_site_fract_y
_atom_site_fract_z
Si Si1 0.629022 0.863709 0.853512
Si Si2 0.814480 0.326971 0.833834
Si Si3 0.083322 0.410866 0.122507
Si Si4 0.695047 0.636646 0.564608
Si Si5 0.982418 0.839948 0.315342
Si Si6 0.645782 0.329175 0.242015
Si Si7 0.254853 0.689685 0.564112
Si Si8 0.568849 0.810169 0.361336
O O1 0.643616 0.774073 0.796150
O O2 0.701889 0.807249 0.895654
O O3 0.531772 0.828754 0.873763
O O4 0.621574 0.039029 0.850785
O O5 0.866642 0.479361 0.835719
O O6 0.772335 0.315013 0.894802
O O7 0.739017 0.321998 0.788674
O O8 0.883689 0.203153 0.824415
O O9 0.042955 0.276662 0.155028
O O10 0.156823 0.353563 0.080828
O O11 0.000000 0.500000 0.098996
O O12 0.708727 0.668893 0.500000
O O13 0.691964 0.461775 0.570967
O O14 0.613092 0.717599 0.590215
O O15 0.000000 0.835640 0.250000
O O16 0.000000 0.000000 0.337069
O O17 0.629430 0.500000 0.250000
O O18 0.577794 0.272493 0.196910
O O19 0.258608 0.733916 0.500000
#
# Coordination Sequence:
#
# PCOD9394675 Si02
#       8
#     8   8   8   8   8   8   8   8
#     4  11  23  39  58  81 122 157 191 240 286 355
#     4   9  20  36  56  87 110 148 190 231 290 345
#     4   9  19  37  60  82 114 152 186 238 290 350
#     4   9  19  39  62  85 114 147 193 246 287 337
#     4  10  22  36  52  81 117 152 189 228 278 344
#     4  11  22  36  60  88 115 147 194 243 292 346
#     4  10  22  39  61  89 114 148 200 246 290 341
#     4  10  23  40  56  85 117 158 196 229 296 351
#
# _framework density 18.663630000000001
#
# number of rings (size 3 to 8) (size 9 to 14) (size 15 to 20)
#    0.000    2.125    0.000    3.000    3.500    8.500 
#    4.500    4.375    0.000    0.750    0.000    0.000 
#    0.000    0.000    0.000    0.000    0.000    0.000 
#
# Total GULP energy -357004.785479 kJ/mol
# GULP energy per Si atom -5578.199773 kJ/mol
# Density = 1.862115 g / cm^3
# Si number density = 18.663630 Si / 1000 Ang^3
#
#
#
# Elastic Constant Matrix: (Units=GPa)
#
#
# Indices 1 2 3 4 5 6 
#
# 1 73.3030 30.8412 26.0894 0.0000 0.0000 0.0000
# 2 30.8412 75.6860 40.9165 0.0000 0.0000 0.0000
# 3 26.0894 40.9165 85.7170 0.0000 0.0000 0.0000
# 4 0.0000 0.0000 0.0000 20.2189 0.0000 0.0000
# 5 0.0000 0.0000 0.0000 0.0000 7.9610 0.0000
# 6 0.0000 0.0000 0.0000 0.0000 0.0000 42.5765
#
#
#
# Elastic Compliance Matrix: (Units=1/GPa)
#
#
# Indices 1 2 3 4 5 6 
#
# 1 0.016852 -0.005518 -0.002495 0.000000 0.000000 0.000000
# 2 -0.005518 0.019615 -0.007684 0.000000 0.000000 0.000000
# 3 -0.002495 -0.007684 0.016093 0.000000 0.000000 0.000000
# 4 0.000000 0.000000 0.000000 0.049459 0.000000 0.000000
# 5 0.000000 0.000000 0.000000 0.000000 0.125613 0.000000
# 6 0.000000 0.000000 0.000000 0.000000 0.000000 0.023487
#
#
# Mechanical properties :
#
#
# Convention : Reuss Voigt Hill
#
# Bulk Modulus (GPa) = 47.24417 47.82226 47.53322
# Shear Modulus (GPa) = 17.26715 23.27519 20.27117
#
# Velocity S-wave (km/s) = 3.04497 3.53524 3.29923
# Velocity P-wave (km/s) = 6.14255 6.50713 6.32747
#
# Compressibility (1/GPa) = 0.02116663
#
# Stress axis : x y z
#
# Youngs Moduli (GPa) = 59.34128 50.98199 62.13729
#
# Poissons Ratio (x) = 0.28132 0.15504
# Poissons Ratio (y) = 0.32745 0.47743
# Poissons Ratio (z) = 0.14806 0.39172
#
# Static dielectric constant tensor:
#      x y z
#    x 1.647880 0.000000 0.000000 
#    y 0.000000 1.661220 0.000000 
#    z 0.000000 0.000000 1.617610 
# 
# From -- ./inp_files/23208.got.cif
#   From: 2010.05.17/outbox.cif.g08.bks.cpg/sg49_12_cif.got.tgz:23208.got - 2010.06.03 21:02:19.
