data_PCOD9394154
_publ_section_title
;
Structure prediction by ZEFSAII (Michael W. Deem and Ramdas Pophale) SiO2 
 PCOD9394154
Probable space group: P C C M
;
_chemical_formula_sum "Si O2"
_cell_formula_units_Z 38
_cell_length_a 10.358131
_cell_length_b 21.657353
_cell_length_c 9.096244
_cell_angle_alpha 90.000000
_cell_angle_beta 90.000000
_cell_angle_gamma 90.000000
_cell_volume 2040.557683
_symmetry_space_group_name_H-M "P C C M"
_symmetry_group_IT_number 49
_symmetry_cell_setting 'orthorhombic'
loop_
_space_group_symop_operation_xyz
x,y,z
-x,-y,z
x,-y,1/2-z
-x,y,1/2-z
-x,-y,-z
x,y,-z
-x,y,1/2+z
x,-y,1/2+z
loop_
_atom_site_type_symbol
_atom_site_label
_atom_site_fract_x
_atom_site_fract_y
_atom_site_fract_z
Si Si1 0.137855 0.877871 0.173818
Si Si2 0.864716 0.432214 0.678605
Si Si3 0.635969 0.356395 0.174744
Si Si4 0.367057 0.208529 0.327218
Si Si5 0.500000 0.000000 0.000000
Si Si6 0.295140 0.000000 0.250000
O O1 0.241401 0.827188 0.228577
O O2 0.205368 0.943671 0.199584
O O3 0.000000 0.874016 0.250000
O O4 0.119876 0.868510 0.000000
O O5 0.844073 0.500000 0.750000
O O6 0.871260 0.435108 0.500000
O O7 0.750001 0.389344 0.736863
O O8 0.000000 0.410221 0.750000
O O9 0.500000 0.373767 0.250000
O O10 0.648535 0.282184 0.187914
O O11 0.638089 0.371661 0.000000
O O12 0.500000 0.189630 0.250000
O O13 0.380251 0.193695 0.500000
O O14 0.607196 0.980766 0.123629
#
# Coordination Sequence:
#
# PCOD9394154 Si02
#       6
#     8   8   8   8   2   4
#     4  11  25  41  59  85 120 155 193 239 294 347
#     4  11  22  38  60  87 119 156 198 240 290 345
#     4  10  20  38  60  87 120 153 194 242 294 343
#     4   9  21  39  61  86 114 150 194 241 286 346
#     4  10  24  38  62  94 112 150 190 242 286 358
#     4  11  23  40  62  88 120 146 196 238 296 346
#
# _framework density 18.62236
#
# number of rings (size 3 to 8) (size 9 to 14) (size 15 to 20)
#    0.000    1.684    1.053    3.474    4.421    3.789 
#    0.000    4.211    0.000    0.000    0.000    0.000 
#    0.000    0.000    0.000    0.000    0.000    0.000 
#
# Total GULP energy -211577.188363 kJ/mol
# GULP energy per Si atom -5567.820746 kJ/mol
# Density = 1.857997 g / cm^3
# Si number density = 18.622360 Si / 1000 Ang^3
#
#
#
# Elastic Constant Matrix: (Units=GPa)
#
#
# Indices 1 2 3 4 5 6 
#
# 1 170.3406 53.4701 55.4702 0.0000 0.0000 0.0000
# 2 53.4701 30.8617 28.0590 0.0000 0.0000 0.0000
# 3 55.4702 28.0590 125.1984 0.0000 0.0000 0.0000
# 4 0.0000 0.0000 0.0000 26.6038 0.0000 0.0000
# 5 0.0000 0.0000 0.0000 0.0000 66.1105 0.0000
# 6 0.0000 0.0000 0.0000 0.0000 0.0000 -21.3205
#
#
#
# Elastic Compliance Matrix: (Units=1/GPa)
#
#
# Indices 1 2 3 4 5 6 
#
# 1 0.012949 -0.021625 -0.000891 0.000000 0.000000 0.000000
# 2 -0.021625 0.076809 -0.007633 0.000000 0.000000 0.000000
# 3 -0.000891 -0.007633 0.010093 0.000000 0.000000 0.000000
# 4 0.000000 0.000000 0.000000 0.037589 0.000000 0.000000
# 5 0.000000 0.000000 0.000000 0.000000 0.015126 0.000000
# 6 0.000000 0.000000 0.000000 0.000000 0.000000 -0.046903
#
#
# Mechanical properties :
#
#
# Convention : Reuss Voigt Hill
#
# Bulk Modulus (GPa) = 25.28231 66.71104 45.99667
# Shear Modulus (GPa) = 27.91066 26.90552 27.40809
#
# Velocity S-wave (km/s) = 3.87560 3.80517 3.84055
# Velocity P-wave (km/s) = 5.79938 7.43012 6.66481
#
# Compressibility (1/GPa) = 0.03955335
#
# Stress axis : x y z
#
# Youngs Moduli (GPa) = 77.22826 13.01932 99.08271
#
# Poissons Ratio (x) = 0.28154 0.08824
# Poissons Ratio (y) = 1.67004 0.75631
# Poissons Ratio (z) = 0.06877 0.09938
#
# Static dielectric constant tensor:
#      x y z
#    x 1.626340 0.000000 0.000000 
#    y 0.000000 1.662250 0.000000 
#    z 0.000000 0.000000 1.635870 
# 
# From -- ./inp_files/1778.got.cif
#   From: 2010.05.17/outbox.cif.g08.bks.cpg/sg49_1_cif.got.tgz:1778.got - 2010.06.03 21:02:19.
