data_PCOD9394828
_publ_section_title
;
Structure prediction by ZEFSAII (Michael W. Deem and Ramdas Pophale) SiO2 
 PCOD9394828
Probable space group: P C C M
;
_chemical_formula_sum "Si O2"
_cell_formula_units_Z 64
_cell_length_a 11.912545
_cell_length_b 16.018517
_cell_length_c 17.463167
_cell_angle_alpha 90.000000
_cell_angle_beta 90.000000
_cell_angle_gamma 90.000000
_cell_volume 3332.344309
_symmetry_space_group_name_H-M "P C C M"
_symmetry_group_IT_number 49
_symmetry_cell_setting 'orthorhombic'
loop_
_space_group_symop_operation_xyz
x,y,z
-x,-y,z
x,-y,1/2-z
-x,y,1/2-z
-x,-y,-z
x,y,-z
-x,y,1/2+z
x,-y,1/2+z
loop_
_atom_site_type_symbol
_atom_site_label
_atom_site_fract_x
_atom_site_fract_y
_atom_site_fract_z
Si Si1 0.735476 0.138947 0.409691
Si Si2 0.500617 0.401570 0.157928
Si Si3 0.501010 0.902897 0.342554
Si Si4 0.710687 0.285669 0.314911
Si Si5 0.729878 0.181500 0.154423
Si Si6 0.122346 0.403767 0.730204
Si Si7 0.741918 0.646726 0.412054
Si Si8 0.126806 0.014895 0.340599
O O1 0.740559 0.137680 0.500000
O O2 0.608165 0.137269 0.378733
O O3 0.775364 0.226872 0.374994
O O4 0.795791 0.056817 0.377101
O O5 0.500000 0.500000 0.131964
O O6 0.500000 0.405630 0.250000
O O7 0.399058 0.332901 0.148426
O O8 0.617273 0.368122 0.123197
O O9 0.500000 0.897615 0.250000
O O10 0.613427 0.859764 0.370174
O O11 0.500000 0.000000 0.362802
O O12 0.704030 0.225489 0.237944
O O13 0.786728 0.359856 0.283578
O O14 0.763518 0.255043 0.098030
O O15 0.821157 0.107485 0.152599
O O16 0.119933 0.500000 0.750000
O O17 0.166315 0.394613 0.643587
O O18 0.000000 0.367260 0.750000
O O19 0.745910 0.620106 0.500000
O O20 0.126524 0.000000 0.250000
O O21 0.000000 0.000000 0.369447
#
# Coordination Sequence:
#
# PCOD9394828 Si02
#       8
#     8   8   8   8   8   8   8   8
#     4  12  26  40  59  95 133 165 211 270 326 373
#     4  11  21  38  67 101 137 175 212 254 325 417
#     4  11  20  35  62  84 119 163 210 256 306 375
#     4  11  22  38  64  96 131 172 210 264 317 397
#     4  11  21  38  63  90 123 171 216 259 318 387
#     4  10  22  44  72  98 122 173 228 262 319 407
#     4  11  25  41  65 102 139 168 214 280 334 381
#     4  11  23  43  67  88 118 172 230 271 318 385
#
# _framework density 19.205698000000002
#
# number of rings (size 3 to 8) (size 9 to 14) (size 15 to 20)
#    0.000    1.000    6.250    1.500    0.000    5.250 
#    0.000    5.000    0.000    0.000    0.000    0.000 
#    0.000    0.000    0.000    0.000    0.000    0.000 
#
# Total GULP energy -356757.342825 kJ/mol
# GULP energy per Si atom -5574.333482 kJ/mol
# Density = 1.916198 g / cm^3
# Si number density = 19.205698 Si / 1000 Ang^3
#
#
#
# Elastic Constant Matrix: (Units=GPa)
#
#
# Indices 1 2 3 4 5 6 
#
# 1 117.7275 41.9698 37.2072 0.0000 0.0000 0.0000
# 2 41.9698 121.2125 23.9071 0.0000 0.0000 0.0000
# 3 37.2072 23.9071 102.3874 0.0000 0.0000 0.0000
# 4 0.0000 0.0000 0.0000 10.1536 0.0000 0.0000
# 5 0.0000 0.0000 0.0000 0.0000 20.7061 0.0000
# 6 0.0000 0.0000 0.0000 0.0000 0.0000 -32.2941
#
#
#
# Elastic Compliance Matrix: (Units=1/GPa)
#
#
# Indices 1 2 3 4 5 6 
#
# 1 0.010568 -0.003042 -0.003130 0.000000 0.000000 0.000000
# 2 -0.003042 0.009524 -0.001118 0.000000 0.000000 0.000000
# 3 -0.003130 -0.001118 0.011165 0.000000 0.000000 0.000000
# 4 0.000000 0.000000 0.000000 0.098487 0.000000 0.000000
# 5 0.000000 0.000000 0.000000 0.000000 0.048295 0.000000
# 6 0.000000 0.000000 0.000000 0.000000 0.000000 -0.030965
#
#
# Mechanical properties :
#
#
# Convention : Reuss Voigt Hill
#
# Bulk Modulus (GPa) = 59.96441 60.83286 60.39864
# Shear Modulus (GPa) = 29.90205 15.59603 22.74904
#
# Velocity S-wave (km/s) = 3.95008 2.85274 3.44538
# Velocity P-wave (km/s) = 7.21763 6.52641 6.88071
#
# Compressibility (1/GPa) = 0.01667656
#
# Stress axis : x y z
#
# Youngs Moduli (GPa) = 94.62685 105.00052 89.56223
#
# Poissons Ratio (x) = 0.31939 0.28034
# Poissons Ratio (y) = 0.28783 0.10017
# Poissons Ratio (z) = 0.29619 0.11743
#
# Static dielectric constant tensor:
#      x y z
#    x 1.653000 0.000000 0.000000 
#    y 0.000000 1.752550 0.000000 
#    z 0.000000 0.000000 1.694890 
# 
# From -- ./inp_files/17316.got.cif
#   From: 2010.05.17/outbox.cif.g08.bks.cpg/sg49_9_cif.got.tgz:17316.got - 2010.06.03 21:02:19.
