data_PCOD9394571
_publ_section_title
;
Structure prediction by ZEFSAII (Michael W. Deem and Ramdas Pophale) SiO2 
 PCOD9394571
Probable space group: P C C M
;
_chemical_formula_sum "Si O2"
_cell_formula_units_Z 64
_cell_length_a 9.251489
_cell_length_b 24.426642
_cell_length_c 14.885431
_cell_angle_alpha 90.000000
_cell_angle_beta 90.000000
_cell_angle_gamma 90.000000
_cell_volume 3363.851522
_symmetry_space_group_name_H-M "P C C M"
_symmetry_group_IT_number 49
_symmetry_cell_setting 'orthorhombic'
loop_
_space_group_symop_operation_xyz
x,y,z
-x,-y,z
x,-y,1/2-z
-x,y,1/2-z
-x,-y,-z
x,y,-z
-x,y,1/2+z
x,-y,1/2+z
loop_
_atom_site_type_symbol
_atom_site_label
_atom_site_fract_x
_atom_site_fract_y
_atom_site_fract_z
Si Si1 0.829189 0.861629 0.606857
Si Si2 0.328798 0.065326 0.750000
Si Si3 0.500000 0.565331 0.900311
Si Si4 0.161058 0.320720 0.750000
Si Si5 0.736547 0.435373 0.250000
Si Si6 0.329582 0.253360 0.393479
Si Si7 0.829189 0.861629 0.106857
Si Si8 0.329582 0.746640 0.606521
O O1 0.816166 0.871588 0.500000
O O2 0.749840 0.907849 0.664365
O O3 0.748772 0.804314 0.626489
O O4 1.000000 0.858246 0.628548
O O5 0.500000 0.078574 0.750000
O O6 0.250160 0.092151 0.835635
O O7 0.313483 0.000000 0.750000
O O8 0.500000 0.500000 0.910969
O O9 0.362236 0.575712 0.837754
O O10 0.637765 0.575712 0.837755
O O11 0.499999 0.590725 0.000000
O O12 0.152382 0.386244 0.750000
O O13 0.249441 0.298880 0.664563
O O14 0.249441 0.298880 0.835436
O O15 0.000000 0.297131 0.750000
O O16 0.778635 0.500000 0.250000
O O17 0.315817 0.263475 0.500000
O O18 0.500000 0.250769 0.371574
O O19 0.748772 0.804314 0.126489
O O20 0.816166 0.871588 0.000000
O O21 0.315817 0.736524 0.500000
#
# Coordination Sequence:
#
# PCOD9394571 Si02
#       8
#     8   8   8   8   8   8   8   8
#     4  10  21  39  63  88 117 153 192 239 295 350
#     4  11  24  39  57  85 121 161 202 243 285 335
#     4   8  15  31  56  81 105 136 177 229 278 321
#     4  12  25  38  56  83 119 156 188 234 290 345
#     4   9  20  36  54  81 112 146 191 232 278 345
#     4  10  22  40  63  88 114 148 193 242 289 343
#     4  10  21  39  63  88 117 153 192 239 295 350
#     4  10  22  40  63  88 114 148 193 242 289 343
#
# _framework density 19.025808999999999
#
# number of rings (size 3 to 8) (size 9 to 14) (size 15 to 20)
#    0.000    2.000    0.000    3.750    3.500    5.750 
#    0.000    2.500    0.000    0.000    0.000    5.250 
#    0.000    0.000    0.000    0.000    0.000    0.000 
#
# Total GULP energy -357241.289864 kJ/mol
# GULP energy per Si atom -5581.895154 kJ/mol
# Density = 1.898251 g / cm^3
# Si number density = 19.025809 Si / 1000 Ang^3
#
#
#
# Elastic Constant Matrix: (Units=GPa)
#
#
# Indices 1 2 3 4 5 6 
#
# 1 169.2655 78.8411 62.2236 0.0000 0.0000 0.0000
# 2 78.8411 120.7797 52.3737 0.0000 0.0000 0.0000
# 3 62.2236 52.3737 99.4707 0.0000 0.0000 0.0000
# 4 0.0000 0.0000 0.0000 1156.8001 0.0000 0.0000
# 5 0.0000 0.0000 0.0000 0.0000 3.2057 0.0000
# 6 0.0000 0.0000 0.0000 0.0000 0.0000 16.9695
#
#
#
# Elastic Compliance Matrix: (Units=1/GPa)
#
#
# Indices 1 2 3 4 5 6 
#
# 1 0.009297 -0.004596 -0.003396 0.000000 0.000000 0.000000
# 2 -0.004596 0.013002 -0.003970 0.000000 0.000000 0.000000
# 3 -0.003396 -0.003970 0.014268 0.000000 0.000000 0.000000
# 4 0.000000 0.000000 0.000000 0.000864 0.000000 0.000000
# 5 0.000000 0.000000 0.000000 0.000000 0.311940 0.000000
# 6 0.000000 0.000000 0.000000 0.000000 0.000000 0.058929
#
#
# Mechanical properties :
#
#
# Convention : Reuss Voigt Hill
#
# Bulk Modulus (GPa) = 79.10348 86.26587 82.68468
# Shear Modulus (GPa) = 11.45636 248.46691 129.96164
#
# Velocity S-wave (km/s) = 2.45653 11.44020 8.27384
# Velocity P-wave (km/s) = 7.05076 14.83051 11.61158
#
# Compressibility (1/GPa) = 0.01264167
#
# Stress axis : x y z
#
# Youngs Moduli (GPa) = 107.56079 76.91377 70.08757
#
# Poissons Ratio (x) = 0.35352 0.23799
# Poissons Ratio (y) = 0.49439 0.27828
# Poissons Ratio (z) = 0.36524 0.30538
#
# Static dielectric constant tensor:
#      x y z
#    x 1.634760 0.000000 0.000000 
#    y 0.000000 1.646210 0.000000 
#    z 0.000000 0.000000 1.677750 
# 
# From -- ./inp_files/12138.got.cif
#   From: 2010.05.17/outbox.cif.g08.bks.cpg/sg49_7_cif.got.tgz:12138.got - 2010.06.03 21:02:19.
