data_PCOD9394105
_publ_section_title
;
Structure prediction by ZEFSAII (Michael W. Deem and Ramdas Pophale) SiO2 
 PCOD9394105
Probable space group: P C C M
;
_chemical_formula_sum "Si O2"
_cell_formula_units_Z 58
_cell_length_a 10.102220
_cell_length_b 19.143843
_cell_length_c 15.776264
_cell_angle_alpha 90.000000
_cell_angle_beta 90.000000
_cell_angle_gamma 90.000000
_cell_volume 3051.055524
_symmetry_space_group_name_H-M "P C C M"
_symmetry_group_IT_number 49
_symmetry_cell_setting 'orthorhombic'
loop_
_space_group_symop_operation_xyz
x,y,z
-x,-y,z
x,-y,1/2-z
-x,y,1/2-z
-x,-y,-z
x,y,-z
-x,y,1/2+z
x,-y,1/2+z
loop_
_atom_site_type_symbol
_atom_site_label
_atom_site_fract_x
_atom_site_fract_y
_atom_site_fract_z
Si Si1 0.159956 0.918958 0.743507
Si Si2 0.928375 0.278650 0.098550
Si Si3 0.684942 0.208056 0.818872
Si Si4 0.648995 0.411281 0.397890
Si Si5 0.500000 0.500000 0.250000
Si Si6 0.586599 0.252704 0.366765
Si Si7 0.158642 0.175875 0.908321
Si Si8 0.958358 0.422902 0.349696
O O1 0.244729 0.867291 0.804389
O O2 0.187281 0.888863 0.650906
O O3 0.000000 0.912352 0.750000
O O4 0.195238 0.000000 0.750000
O O5 0.798126 0.258513 0.147927
O O6 0.049425 0.229225 0.129126
O O7 0.964407 0.359029 0.108740
O O8 0.909096 0.263304 0.000000
O O9 0.635258 0.238710 0.729464
O O10 0.554071 0.214133 0.876517
O O11 0.635462 0.432068 0.500000
O O12 0.585560 0.455677 0.319390
O O13 0.584633 0.334325 0.388763
O O14 0.804812 0.410393 0.373453
O O15 0.707036 0.218577 0.415980
O O16 0.110909 0.152430 0.000000
O O17 0.000000 0.500000 0.379676
O O18 0.000000 0.419821 0.250000
#
# Coordination Sequence:
#
# PCOD9394105 Si02
#       8
#     8   8   8   8   2   8   8   8
#     4  10  20  37  63  93 123 163 204 247 316 384
#     4  11  22  36  59  89 120 156 209 268 317 370
#     4  10  21  38  60  93 123 160 208 268 307 375
#     4  12  25  44  66  90 127 173 220 274 334 405
#     4  12  26  44  62  90 124 168 220 266 336 402
#     4  10  21  38  63  88 120 163 212 254 320 379
#     4  10  20  37  61  89 119 159 204 252 306 370
#     4  11  24  41  63  92 126 166 213 273 335 391
#
# _framework density 19.009815
#
# number of rings (size 3 to 8) (size 9 to 14) (size 15 to 20)
#    0.000    1.379    2.759    3.517    1.931    3.310 
#    0.000    7.586    0.000    0.828    0.000    0.000 
#    0.000    0.000    0.000    0.000    0.000    0.000 
#
# Total GULP energy -323122.627788 kJ/mol
# GULP energy per Si atom -5571.079789 kJ/mol
# Density = 1.896655 g / cm^3
# Si number density = 19.009815 Si / 1000 Ang^3
#
#
#
# Elastic Constant Matrix: (Units=GPa)
#
#
# Indices 1 2 3 4 5 6 
#
# 1 141.3793 52.7446 31.8771 0.0000 0.0000 0.0000
# 2 52.7446 127.2702 35.2830 0.0000 0.0000 0.0000
# 3 31.8771 35.2830 80.4750 0.0000 0.0000 0.0000
# 4 0.0000 0.0000 0.0000 -21.2856 0.0000 0.0000
# 5 0.0000 0.0000 0.0000 0.0000 -246.0220 0.0000
# 6 0.0000 0.0000 0.0000 0.0000 0.0000 23.3948
#
#
#
# Elastic Compliance Matrix: (Units=1/GPa)
#
#
# Indices 1 2 3 4 5 6 
#
# 1 0.008672 -0.003007 -0.002117 0.000000 0.000000 0.000000
# 2 -0.003007 0.009987 -0.003188 0.000000 0.000000 0.000000
# 3 -0.002117 -0.003188 0.014662 0.000000 0.000000 0.000000
# 4 0.000000 0.000000 0.000000 -0.046980 0.000000 0.000000
# 5 0.000000 0.000000 0.000000 0.000000 -0.004065 0.000000
# 6 0.000000 0.000000 0.000000 0.000000 0.000000 0.042744
#
#
# Mechanical properties :
#
#
# Convention : Reuss Voigt Hill
#
# Bulk Modulus (GPa) = 59.88472 65.43709 62.66090
# Shear Modulus (GPa) = 105.90765 -33.50124 36.20321
#
# Velocity S-wave (km/s) = 7.47215 -4.20254 4.36873
# Velocity P-wave (km/s) = 10.29633 3.30893 7.64733
#
# Compressibility (1/GPa) = 0.01669875
#
# Stress axis : x y z
#
# Youngs Moduli (GPa) = 115.30890 100.12729 68.20247
#
# Poissons Ratio (x) = 0.30111 0.14437
# Poissons Ratio (y) = 0.34676 0.21740
# Poissons Ratio (z) = 0.24408 0.31916
#
# Static dielectric constant tensor:
#      x y z
#    x 1.702250 0.000000 0.000000 
#    y 0.000000 1.644850 0.000000 
#    z 0.000000 0.000000 0.988220 
# 
# From -- ./inp_files/16503.got.cif
#   From: 2010.05.17/outbox.cif.g08.bks.cpg/sg49_9_cif.got.tgz:16503.got - 2010.06.03 21:02:19.
