data_PCOD9394525
_publ_section_title
;
Structure prediction by ZEFSAII (Michael W. Deem and Ramdas Pophale) SiO2 
 PCOD9394525
Probable space group: P C C M
;
_chemical_formula_sum "Si O2"
_cell_formula_units_Z 56
_cell_length_a 16.290561
_cell_length_b 9.861824
_cell_length_c 16.572431
_cell_angle_alpha 90.000000
_cell_angle_beta 90.000000
_cell_angle_gamma 90.000000
_cell_volume 2662.438026
_symmetry_space_group_name_H-M "P C C M"
_symmetry_group_IT_number 49
_symmetry_cell_setting 'orthorhombic'
loop_
_space_group_symop_operation_xyz
x,y,z
-x,-y,z
x,-y,1/2-z
-x,y,1/2-z
-x,-y,-z
x,y,-z
-x,y,1/2+z
x,-y,1/2+z
loop_
_atom_site_type_symbol
_atom_site_label
_atom_site_fract_x
_atom_site_fract_y
_atom_site_fract_z
Si Si1 0.239773 0.554921 0.098341
Si Si2 0.686443 0.189955 0.167921
Si Si3 0.352150 0.673058 0.590422
Si Si4 0.920871 0.091911 0.402148
Si Si5 0.073497 0.593586 0.402066
Si Si6 0.515249 0.346584 0.155992
Si Si7 0.740876 0.905194 0.152303
O O1 0.247356 0.704666 0.133172
O O2 0.315529 0.462580 0.130477
O O3 0.158584 0.474808 0.123425
O O4 0.242201 0.560601 0.000000
O O5 0.600088 0.264957 0.148783
O O6 0.710191 0.155162 0.261214
O O7 0.691328 0.040670 0.130332
O O8 0.371036 0.634637 0.500000
O O9 0.435336 0.733131 0.625366
O O10 0.280239 0.782866 0.592972
O O11 0.907503 0.080859 0.500000
O O12 0.936649 0.249384 0.381220
O O13 0.836541 0.057094 0.355628
O O14 0.000000 0.000000 0.382705
O O15 0.073224 0.589177 0.500000
O O16 0.000000 0.500000 0.372164
O O17 0.500000 0.500000 0.121071
O O18 0.500000 0.360637 0.250000
#
# Coordination Sequence:
#
# PCOD9394525 Si02
#       7
#     8   8   8   8   8   8   8
#     4  10  21  38  64  95 129 166 215 277 334 393
#     4  11  25  42  63  92 127 174 218 263 326 396
#     4  11  22  40  66  94 128 166 210 277 334 380
#     4  10  21  39  66  96 130 173 216 265 328 394
#     4   9  18  34  59  93 125 159 209 268 324 381
#     4  11  22  40  66  92 120 166 221 261 316 395
#     4  11  24  43  62  93 132 174 216 266 324 404
#
# _framework density 21.033353000000002
#
# number of rings (size 3 to 8) (size 9 to 14) (size 15 to 20)
#    0.000    1.571    4.286    0.429    2.000    3.143 
#    0.000    2.143    0.000    0.857    0.000    0.000 
#    0.000    0.000    0.000    0.000    0.000    0.000 
#
# Total GULP energy -312133.807899 kJ/mol
# GULP energy per Si atom -5573.817998 kJ/mol
# Density = 2.098548 g / cm^3
# Si number density = 21.033353 Si / 1000 Ang^3
#
#
#
# Elastic Constant Matrix: (Units=GPa)
#
#
# Indices 1 2 3 4 5 6 
#
# 1 153.4041 63.1294 17.0254 0.0000 0.0000 0.0000
# 2 63.1294 150.0950 16.3668 0.0000 0.0000 0.0000
# 3 17.0254 16.3668 16.3040 0.0000 0.0000 0.0000
# 4 0.0000 0.0000 0.0000 7.1702 0.0000 0.0000
# 5 0.0000 0.0000 0.0000 0.0000 19.6218 0.0000
# 6 0.0000 0.0000 0.0000 0.0000 0.0000 68.6245
#
#
#
# Elastic Compliance Matrix: (Units=1/GPa)
#
#
# Indices 1 2 3 4 5 6 
#
# 1 0.008349 -0.002876 -0.005832 0.000000 0.000000 0.000000
# 2 -0.002876 0.008472 -0.005501 0.000000 0.000000 0.000000
# 3 -0.005832 -0.005501 0.072947 0.000000 0.000000 0.000000
# 4 0.000000 0.000000 0.000000 0.139466 0.000000 0.000000
# 5 0.000000 0.000000 0.000000 0.000000 0.050964 0.000000
# 6 0.000000 0.000000 0.000000 0.000000 0.000000 0.014572
#
#
# Mechanical properties :
#
#
# Convention : Reuss Voigt Hill
#
# Bulk Modulus (GPa) = 16.29991 56.98294 36.64142
# Shear Modulus (GPa) = 14.55016 33.96874 24.25945
#
# Velocity S-wave (km/s) = 2.63300 4.02306 3.39983
# Velocity P-wave (km/s) = 4.12431 6.98072 5.73326
#
# Compressibility (1/GPa) = 0.06135003
#
# Stress axis : x y z
#
# Youngs Moduli (GPa) = 119.76832 118.03736 13.70855
#
# Poissons Ratio (x) = 0.33945 0.07995
# Poissons Ratio (y) = 0.34443 0.07542
# Poissons Ratio (z) = 0.69849 0.64938
#
# Static dielectric constant tensor:
#      x y z
#    x 1.865450 0.000000 0.000000 
#    y 0.000000 1.761140 0.000000 
#    z 0.000000 0.000000 1.752710 
# 
# From -- ./inp_files/20880.got.cif
#   From: 2010.05.17/outbox.cif.g08.bks.cpg/sg49_11_cif.got.tgz:20880.got - 2010.06.03 21:02:19.
