data_PCOD9394938
_publ_section_title
;
Structure prediction by ZEFSAII (Michael W. Deem and Ramdas Pophale) SiO2 
 PCOD9394938
Probable space group: P C C M
;
_chemical_formula_sum "Si O2"
_cell_formula_units_Z 40
_cell_length_a 9.041624
_cell_length_b 12.839474
_cell_length_c 14.930404
_cell_angle_alpha 90.000000
_cell_angle_beta 90.000000
_cell_angle_gamma 90.000000
_cell_volume 1733.266065
_symmetry_space_group_name_H-M "P C C M"
_symmetry_group_IT_number 49
_symmetry_cell_setting 'orthorhombic'
loop_
_space_group_symop_operation_xyz
x,y,z
-x,-y,z
x,-y,1/2-z
-x,y,1/2-z
-x,-y,-z
x,y,-z
-x,y,1/2+z
x,-y,1/2+z
loop_
_atom_site_type_symbol
_atom_site_label
_atom_site_fract_x
_atom_site_fract_y
_atom_site_fract_z
Si Si1 0.718719 0.044301 0.150029
Si Si2 0.113632 0.404827 0.101064
Si Si3 0.410385 0.158428 0.900173
Si Si4 0.142932 0.249717 0.604964
Si Si5 0.335618 0.342522 0.763746
O O1 0.566701 0.108962 0.131787
O O2 0.844656 0.127207 0.126579
O O3 0.725625 0.000000 0.250000
O O4 0.701862 0.938457 0.095076
O O5 0.235385 0.416549 0.176149
O O6 0.000000 0.500000 0.104367
O O7 0.017710 0.300693 0.118922
O O8 0.174145 0.399564 0.000000
O O9 0.357062 0.240537 0.827290
O O10 0.429179 0.202801 0.000000
O O11 0.180529 0.266246 0.500000
O O12 0.253954 0.308464 0.672767
O O13 0.500000 0.382095 0.750000
#
# Coordination Sequence:
#
# PCOD9394938 Si02
#       5
#     8   8   8   8   8
#     4  11  19  35  58  93 141 191 238 289 351 417
#     4  10  25  51  78 102 139 188 233 290 369 438
#     4  11  20  33  60  96 141 189 236 296 358 418
#     4  11  23  41  66  97 139 190 237 286 353 428
#     4  12  23  40  70 106 141 177 238 300 353 419
#
# _framework density 23.077819000000002
#
# number of rings (size 3 to 8) (size 9 to 14) (size 15 to 20)
#    0.000    1.000    4.000    4.800    0.000    2.400 
#    0.000    3.000    0.000    7.200    0.000    0.000 
#    0.000    0.000    0.000    0.000    0.000    0.000 
#
# Total GULP energy -223882.084842 kJ/mol
# GULP energy per Si atom -5597.052121 kJ/mol
# Density = 2.302529 g / cm^3
# Si number density = 23.077819 Si / 1000 Ang^3
#
#
#
# Elastic Constant Matrix: (Units=GPa)
#
#
# Indices 1 2 3 4 5 6 
#
# 1 85.9085 27.6852 74.6507 0.0000 0.0000 0.0000
# 2 27.6852 80.7767 22.2982 0.0000 0.0000 0.0000
# 3 74.6507 22.2982 197.7870 0.0000 0.0000 0.0000
# 4 0.0000 0.0000 0.0000 27.6379 0.0000 0.0000
# 5 0.0000 0.0000 0.0000 0.0000 55.8493 0.0000
# 6 0.0000 0.0000 0.0000 0.0000 0.0000 28.1760
#
#
#
# Elastic Compliance Matrix: (Units=1/GPa)
#
#
# Indices 1 2 3 4 5 6 
#
# 1 0.018872 -0.004646 -0.006599 0.000000 0.000000 0.000000
# 2 -0.004646 0.013921 0.000184 0.000000 0.000000 0.000000
# 3 -0.006599 0.000184 0.007526 0.000000 0.000000 0.000000
# 4 0.000000 0.000000 0.000000 0.036182 0.000000 0.000000
# 5 0.000000 0.000000 0.000000 0.000000 0.017905 0.000000
# 6 0.000000 0.000000 0.000000 0.000000 0.000000 0.035491
#
#
# Mechanical properties :
#
#
# Convention : Reuss Voigt Hill
#
# Bulk Modulus (GPa) = 54.95486 68.19338 61.57412
# Shear Modulus (GPa) = 31.62837 38.32185 34.97511
#
# Velocity S-wave (km/s) = 3.70606 4.07940 3.89720
# Velocity P-wave (km/s) = 6.49443 7.19737 6.85492
#
# Compressibility (1/GPa) = 0.01819675
#
# Stress axis : x y z
#
# Youngs Moduli (GPa) = 52.98882 71.83155 132.87577
#
# Poissons Ratio (x) = 0.33376 0.87685
# Poissons Ratio (y) = 0.24621 -0.02448
# Poissons Ratio (z) = 0.34967 -0.01323
#
# Static dielectric constant tensor:
#      x y z
#    x 1.872040 0.000000 0.000000 
#    y 0.000000 1.897810 0.000000 
#    z 0.000000 0.000000 1.865960 
# 
# From -- ./inp_files/11537.got.cif
#   From: 2010.05.17/outbox.cif.g08.bks.cpg/sg49_6_cif.got.tgz:11537.got - 2010.06.03 21:02:19.
