data_PCOD9394450
_publ_section_title
;
Structure prediction by ZEFSAII (Michael W. Deem and Ramdas Pophale) SiO2 
 PCOD9394450
Probable space group: P C C M
;
_chemical_formula_sum "Si O2"
_cell_formula_units_Z 38
_cell_length_a 9.837091
_cell_length_b 22.356095
_cell_length_c 9.028356
_cell_angle_alpha 90.000000
_cell_angle_beta 90.000000
_cell_angle_gamma 90.000000
_cell_volume 1985.506490
_symmetry_space_group_name_H-M "P C C M"
_symmetry_group_IT_number 49
_symmetry_cell_setting 'orthorhombic'
loop_
_space_group_symop_operation_xyz
x,y,z
-x,-y,z
x,-y,1/2-z
-x,y,1/2-z
-x,-y,-z
x,y,-z
-x,y,1/2+z
x,-y,1/2+z
loop_
_atom_site_type_symbol
_atom_site_label
_atom_site_fract_x
_atom_site_fract_y
_atom_site_fract_z
Si Si1 0.150147 0.266907 0.821380
Si Si2 0.138739 0.389990 0.329865
Si Si3 0.500000 0.500000 0.500000
Si Si4 0.316516 0.500000 0.750000
Si Si5 0.140053 0.064568 0.323677
Si Si6 0.350815 0.170251 0.677578
O O1 0.189486 0.333187 0.763386
O O2 0.259086 0.220916 0.755372
O O3 0.000000 0.255697 0.750000
O O4 0.143533 0.263911 0.000000
O O5 0.114787 0.371385 0.500000
O O6 0.233355 0.447721 0.328003
O O7 0.000000 0.408500 0.250000
O O8 0.407340 0.530847 0.627208
O O9 0.119124 0.058174 0.500000
O O10 0.265463 0.109090 0.299692
O O11 0.000000 0.088214 0.250000
O O12 0.164730 0.000000 0.250000
O O13 0.500000 0.167640 0.750000
O O14 0.360504 0.180708 0.500000
#
# Coordination Sequence:
#
# PCOD9394450 Si02
#       6
#     8   8   2   4   8   8
#     4  11  23  41  65  91 121 158 202 251 303 360
#     4  11  23  39  64  91 119 151 197 253 302 351
#     4  10  24  42  58  86 120 162 196 232 290 370
#     4  11  23  42  62  86 119 157 200 240 296 357
#     4  10  21  37  62  92 122 159 202 250 299 356
#     4  11  24  42  61  89 124 163 206 249 304 359
#
# _framework density 19.138694000000001
#
# number of rings (size 3 to 8) (size 9 to 14) (size 15 to 20)
#    0.000    1.263    1.053    6.632    2.947    6.316 
#    3.789    2.105    0.000    0.000    0.000    0.000 
#    0.000    0.000    0.000    0.000    0.000    0.000 
#
# Total GULP energy -211539.817675 kJ/mol
# GULP energy per Si atom -5566.837307 kJ/mol
# Density = 1.909513 g / cm^3
# Si number density = 19.138694 Si / 1000 Ang^3
#
#
#
# Elastic Constant Matrix: (Units=GPa)
#
#
# Indices 1 2 3 4 5 6 
#
# 1 105.6240 61.0800 68.5793 0.0000 0.0000 0.0000
# 2 61.0800 67.9681 51.0619 0.0000 0.0000 0.0000
# 3 68.5793 51.0619 195.7643 0.0000 0.0000 0.0000
# 4 0.0000 0.0000 0.0000 26.0915 0.0000 0.0000
# 5 0.0000 0.0000 0.0000 0.0000 25.6992 0.0000
# 6 0.0000 0.0000 0.0000 0.0000 0.0000 -17.6135
#
#
#
# Elastic Compliance Matrix: (Units=1/GPa)
#
#
# Indices 1 2 3 4 5 6 
#
# 1 0.021069 -0.016652 -0.003037 0.000000 0.000000 0.000000
# 2 -0.016652 0.031459 -0.002372 0.000000 0.000000 0.000000
# 3 -0.003037 -0.002372 0.006791 0.000000 0.000000 0.000000
# 4 0.000000 0.000000 0.000000 0.038327 0.000000 0.000000
# 5 0.000000 0.000000 0.000000 0.000000 0.038912 0.000000
# 6 0.000000 0.000000 0.000000 0.000000 0.000000 -0.056775
#
#
# Mechanical properties :
#
#
# Convention : Reuss Voigt Hill
#
# Bulk Modulus (GPa) = 65.80595 81.19984 73.50289
# Shear Modulus (GPa) = 38.76807 19.41112 29.08960
#
# Velocity S-wave (km/s) = 4.50559 3.18816 3.90287
# Velocity P-wave (km/s) = 7.84382 7.48810 7.66802
#
# Compressibility (1/GPa) = 0.01519619
#
# Stress axis : x y z
#
# Youngs Moduli (GPa) = 47.46264 31.78705 147.25375
#
# Poissons Ratio (x) = 0.52932 0.44728
# Poissons Ratio (y) = 0.79035 0.34931
# Poissons Ratio (z) = 0.14417 0.07540
#
# Static dielectric constant tensor:
#      x y z
#    x 1.730220 0.000000 0.000000 
#    y 0.000000 1.703290 0.000000 
#    z 0.000000 0.000000 1.714020 
# 
# From -- ./inp_files/1730.got.cif
#   From: 2010.05.17/outbox.cif.g08.bks.cpg/sg49_1_cif.got.tgz:1730.got - 2010.06.03 21:02:19.
