data_PCOD9394454
_publ_section_title
;
Structure prediction by ZEFSAII (Michael W. Deem and Ramdas Pophale) SiO2 
 PCOD9394454
Probable space group: P C C M
;
_chemical_formula_sum "Si O2"
_cell_formula_units_Z 32
_cell_length_a 8.984391
_cell_length_b 10.209371
_cell_length_c 15.021746
_cell_angle_alpha 90.000000
_cell_angle_beta 90.000000
_cell_angle_gamma 90.000000
_cell_volume 1377.869365
_symmetry_space_group_name_H-M "P C C M"
_symmetry_group_IT_number 49
_symmetry_cell_setting 'orthorhombic'
loop_
_space_group_symop_operation_xyz
x,y,z
-x,-y,z
x,-y,1/2-z
-x,y,1/2-z
-x,-y,-z
x,y,-z
-x,y,1/2+z
x,-y,1/2+z
loop_
_atom_site_type_symbol
_atom_site_label
_atom_site_fract_x
_atom_site_fract_y
_atom_site_fract_z
Si Si1 0.840529 0.700904 0.601447
Si Si2 0.332001 0.813927 0.729132
Si Si3 0.888584 0.122061 0.400770
Si Si4 0.338242 0.539386 0.646137
O O1 0.808380 0.745514 0.500000
O O2 0.742214 0.765563 0.679205
O O3 0.794888 0.547129 0.605689
O O4 0.008631 0.749887 0.620059
O O5 0.500000 0.849437 0.750000
O O6 0.230345 0.911530 0.674240
O O7 0.330428 0.694523 0.656031
O O8 0.825382 0.137577 0.500000
O O9 0.000000 0.000000 0.402937
O O10 0.500000 0.500000 0.607644
O O11 0.340880 0.500000 0.750000
#
# Coordination Sequence:
#
# PCOD9394454 Si02
#       4
#     8   8   8   8
#     4  10  21  37  62  94 132 177 219 267 334 401
#     4  11  21  39  67  96 132 171 222 277 340 404
#     4  10  24  46  67  92 132 177 227 283 335 393
#     4   9  16  35  58  88 133 168 214 272 329 390
#
# _framework density 23.224263000000001
#
# number of rings (size 3 to 8) (size 9 to 14) (size 15 to 20)
#    0.000    2.000    5.000    0.750    0.000    5.500 
#    0.000    8.750    0.000    4.500    0.000    0.000 
#    0.000    0.000    0.000    0.000    0.000    0.000 
#
# Total GULP energy -178562.785294 kJ/mol
# GULP energy per Si atom -5580.087040 kJ/mol
# Density = 2.317140 g / cm^3
# Si number density = 23.224263 Si / 1000 Ang^3
#
#
#
# Elastic Constant Matrix: (Units=GPa)
#
#
# Indices 1 2 3 4 5 6 
#
# 1 138.0142 21.2877 87.9803 0.0000 0.0000 0.0000
# 2 21.2877 74.5390 14.6756 0.0000 0.0000 0.0000
# 3 87.9803 14.6756 149.8178 0.0000 0.0000 0.0000
# 4 0.0000 0.0000 0.0000 19.6315 0.0000 0.0000
# 5 0.0000 0.0000 0.0000 0.0000 1096.8245 0.0000
# 6 0.0000 0.0000 0.0000 0.0000 0.0000 15.7330
#
#
#
# Elastic Compliance Matrix: (Units=1/GPa)
#
#
# Indices 1 2 3 4 5 6 
#
# 1 0.011883 -0.002060 -0.006777 0.000000 0.000000 0.000000
# 2 -0.002060 0.014037 -0.000166 0.000000 0.000000 0.000000
# 3 -0.006777 -0.000166 0.010671 0.000000 0.000000 0.000000
# 4 0.000000 0.000000 0.000000 0.050939 0.000000 0.000000
# 5 0.000000 0.000000 0.000000 0.000000 0.000912 0.000000
# 6 0.000000 0.000000 0.000000 0.000000 0.000000 0.063561
#
#
# Mechanical properties :
#
#
# Convention : Reuss Voigt Hill
#
# Bulk Modulus (GPa) = 53.80119 67.80647 60.80383
# Shear Modulus (GPa) = 28.37676 242.33295 135.35486
#
# Velocity S-wave (km/s) = 3.49930 10.22601 7.64252
# Velocity P-wave (km/s) = 6.28833 12.98800 10.20370
#
# Compressibility (1/GPa) = 0.01858695
#
# Stress axis : x y z
#
# Youngs Moduli (GPa) = 84.15211 71.24252 93.71558
#
# Poissons Ratio (x) = 0.14673 0.63508
# Poissons Ratio (y) = 0.17331 0.01551
# Poissons Ratio (z) = 0.57027 0.01179
#
# Static dielectric constant tensor:
#      x y z
#    x 1.891420 0.000000 0.000000 
#    y 0.000000 2.174760 0.000000 
#    z 0.000000 0.000000 1.806680 
# 
# From -- ./inp_files/11194.got.cif
#   From: 2010.05.17/outbox.cif.g08.bks.cpg/sg49_6_cif.got.tgz:11194.got - 2010.06.03 21:02:19.
