data_PCOD9394327
_publ_section_title
;
Structure prediction by ZEFSAII (Michael W. Deem and Ramdas Pophale) SiO2 
 PCOD9394327
Probable space group: P C C M
;
_chemical_formula_sum "Si O2"
_cell_formula_units_Z 56
_cell_length_a 22.933146
_cell_length_b 15.174906
_cell_length_c 8.772640
_cell_angle_alpha 90.000000
_cell_angle_beta 90.000000
_cell_angle_gamma 90.000000
_cell_volume 3052.951839
_symmetry_space_group_name_H-M "P C C M"
_symmetry_group_IT_number 49
_symmetry_cell_setting 'orthorhombic'
loop_
_space_group_symop_operation_xyz
x,y,z
-x,-y,z
x,-y,1/2-z
-x,y,1/2-z
-x,-y,-z
x,y,-z
-x,y,1/2+z
x,-y,1/2+z
loop_
_atom_site_type_symbol
_atom_site_label
_atom_site_fract_x
_atom_site_fract_y
_atom_site_fract_z
Si Si1 0.668581 0.725153 0.182534
Si Si2 0.436164 0.405546 0.817641
Si Si3 0.295399 0.904255 0.182557
Si Si4 0.107761 0.408887 0.182321
Si Si5 0.237475 0.406330 0.317397
Si Si6 0.938874 0.219646 0.318512
Si Si7 0.158976 0.904466 0.182189
O O1 0.610304 0.670083 0.219229
O O2 0.668820 0.823903 0.246468
O O3 0.721822 0.671548 0.257627
O O4 0.675857 0.726296 0.000000
O O5 0.417162 0.500000 0.750000
O O6 0.500000 0.386735 0.750000
O O7 0.440255 0.413648 0.000000
O O8 0.226888 0.887392 0.220519
O O9 0.310477 0.000000 0.250000
O O10 0.300952 0.905617 0.000000
O O11 0.083946 0.500000 0.250000
O O12 0.171775 0.395529 0.255396
O O13 0.070216 0.322876 0.217326
O O14 0.114124 0.417011 0.000000
O O15 0.258780 0.500000 0.250000
O O16 0.237293 0.409329 0.500000
O O17 0.939246 0.209197 0.500000
O O18 0.884497 0.166978 0.250321
O O19 0.000000 0.188425 0.250000
O O20 0.144066 0.000000 0.250000
O O21 0.153867 0.906040 0.000000
#
# Coordination Sequence:
#
# PCOD9394327 Si02
#       7
#     8   8   8   8   8   8   8
#     4  11  22  35  54  82 114 148 186 228 273 324
#     4  10  21  36  56  81 113 153 193 233 274 318
#     4  10  21  37  59  86 114 146 180 222 273 326
#     4  10  21  37  56  77 104 139 176 219 269 322
#     4  11  21  33  52  79 110 143 178 220 271 326
#     4  11  24  39  56  78 104 136 176 221 267 317
#     4  10  21  38  60  84 110 139 173 214 266 325
#
# _framework density 18.342903
#
# number of rings (size 3 to 8) (size 9 to 14) (size 15 to 20)
#    0.000    1.571    0.000    6.429    0.000   10.286 
#    0.000    2.857    0.000    0.429    0.000    3.000 
#    0.000    0.000    0.000    0.000    0.000    0.000 
#
# Total GULP energy -313057.594571 kJ/mol
# GULP energy per Si atom -5590.314189 kJ/mol
# Density = 1.830115 g / cm^3
# Si number density = 18.342903 Si / 1000 Ang^3
#
#
#
# Elastic Constant Matrix: (Units=GPa)
#
#
# Indices 1 2 3 4 5 6 
#
# 1 59.2880 57.8622 37.7679 0.0000 0.0000 0.0000
# 2 57.8622 136.8377 59.1234 0.0000 0.0000 0.0000
# 3 37.7679 59.1234 74.8244 0.0000 0.0000 0.0000
# 4 0.0000 0.0000 0.0000 36.2625 0.0000 0.0000
# 5 0.0000 0.0000 0.0000 0.0000 -129.4341 0.0000
# 6 0.0000 0.0000 0.0000 0.0000 0.0000 9.3090
#
#
#
# Elastic Compliance Matrix: (Units=1/GPa)
#
#
# Indices 1 2 3 4 5 6 
#
# 1 0.031733 -0.009866 -0.008222 0.000000 0.000000 0.000000
# 2 -0.009866 0.014164 -0.006212 0.000000 0.000000 0.000000
# 3 -0.008222 -0.006212 0.022423 0.000000 0.000000 0.000000
# 4 0.000000 0.000000 0.000000 0.027577 0.000000 0.000000
# 5 0.000000 0.000000 0.000000 0.000000 -0.007726 0.000000
# 6 0.000000 0.000000 0.000000 0.000000 0.000000 0.107423
#
#
# Mechanical properties :
#
#
# Convention : Reuss Voigt Hill
#
# Bulk Modulus (GPa) = 50.70792 64.49524 57.60158
# Shear Modulus (GPa) = 19.93893 -9.02610 5.45641
#
# Velocity S-wave (km/s) = 3.30056 -2.22069 1.72660
# Velocity P-wave (km/s) = 6.49841 5.35368 5.95363
#
# Compressibility (1/GPa) = 0.01972079
#
# Stress axis : x y z
#
# Youngs Moduli (GPa) = 31.51293 70.60288 44.59761
#
# Poissons Ratio (x) = 0.69658 0.36666
# Poissons Ratio (y) = 0.31091 0.27703
# Poissons Ratio (z) = 0.25908 0.43856
#
# Static dielectric constant tensor:
#      x y z
#    x 1.611400 0.000000 0.000000 
#    y 0.000000 1.630150 0.000000 
#    z 0.000000 0.000000 1.611640 
# 
# From -- ./inp_files/5811.got.cif
#   From: 2010.05.17/outbox.cif.g08.bks.cpg/sg49_3_cif.got.tgz:5811.got - 2010.06.03 21:02:19.
