data_PCOD9394016
_publ_section_title
;
Structure prediction by ZEFSAII (Michael W. Deem and Ramdas Pophale) SiO2 
 PCOD9394016
Probable space group: P C C M
;
_chemical_formula_sum "Si O2"
_cell_formula_units_Z 48
_cell_length_a 9.421663
_cell_length_b 10.534127
_cell_length_c 25.615340
_cell_angle_alpha 90.000000
_cell_angle_beta 90.000000
_cell_angle_gamma 90.000000
_cell_volume 2542.296741
_symmetry_space_group_name_H-M "P C C M"
_symmetry_group_IT_number 49
_symmetry_cell_setting 'orthorhombic'
loop_
_space_group_symop_operation_xyz
x,y,z
-x,-y,z
x,-y,1/2-z
-x,y,1/2-z
-x,-y,-z
x,y,-z
-x,y,1/2+z
x,-y,1/2+z
loop_
_atom_site_type_symbol
_atom_site_label
_atom_site_fract_x
_atom_site_fract_y
_atom_site_fract_z
Si Si1 0.907755 0.124568 0.562774
Si Si2 0.162175 0.151850 0.246867
Si Si3 0.586947 0.278334 0.804005
Si Si4 0.689077 0.223761 0.360944
Si Si5 0.913280 0.626551 0.437564
Si Si6 0.653700 0.514570 0.617473
O O1 0.885141 0.126414 0.500000
O O2 0.759795 0.139542 0.593681
O O3 0.002805 0.247042 0.577911
O O4 0.000000 0.000000 0.575807
O O5 0.268674 0.204801 0.290878
O O6 0.225505 0.192896 0.191463
O O7 0.000000 0.197062 0.250000
O O8 0.163016 0.000000 0.250000
O O9 0.500000 0.289338 0.750000
O O10 0.477678 0.212568 0.845104
O O11 0.625514 0.414615 0.827832
O O12 0.708876 0.372123 0.375285
O O13 0.900701 0.629812 0.500000
O O14 0.760122 0.605308 0.412914
O O15 0.000000 0.500000 0.423235
O O16 0.500000 0.500000 0.590818
#
# Coordination Sequence:
#
# PCOD9394016 Si02
#       6
#     8   8   8   8   8   8
#     4  10  22  39  63  93 125 162 207 261 316 369
#     4  10  23  38  57  87 120 160 209 251 298 367
#     4   9  21  39  57  83 123 162 200 250 310 363
#     4  10  21  37  59  86 118 161 200 252 308 362
#     4  10  20  36  60  88 120 155 199 256 307 364
#     4  10  21  36  59  88 119 160 203 253 310 373
#
# _framework density 18.880565000000001
#
# number of rings (size 3 to 8) (size 9 to 14) (size 15 to 20)
#    0.000    2.167    1.667    0.000    4.667   11.000 
#    0.000    5.000    0.000    0.000    0.000   16.333 
#    0.000    0.000    0.000    0.000    0.000    0.000 
#
# Total GULP energy -267656.391213 kJ/mol
# GULP energy per Si atom -5576.174817 kJ/mol
# Density = 1.883759 g / cm^3
# Si number density = 18.880565 Si / 1000 Ang^3
#
#
#
# Elastic Constant Matrix: (Units=GPa)
#
#
# Indices 1 2 3 4 5 6 
#
# 1 126.9931 45.0664 44.0144 0.0000 0.0000 0.0000
# 2 45.0664 91.9401 27.6403 0.0000 0.0000 0.0000
# 3 44.0144 27.6403 29.5249 0.0000 0.0000 0.0000
# 4 0.0000 0.0000 0.0000 19.9205 0.0000 0.0000
# 5 0.0000 0.0000 0.0000 0.0000 32.5642 0.0000
# 6 0.0000 0.0000 0.0000 0.0000 0.0000 30.0828
#
#
#
# Elastic Compliance Matrix: (Units=1/GPa)
#
#
# Indices 1 2 3 4 5 6 
#
# 1 0.016352 -0.000956 -0.023483 0.000000 0.000000 0.000000
# 2 -0.000956 0.015193 -0.012798 0.000000 0.000000 0.000000
# 3 -0.023483 -0.012798 0.080858 0.000000 0.000000 0.000000
# 4 0.000000 0.000000 0.000000 0.050200 0.000000 0.000000
# 5 0.000000 0.000000 0.000000 0.000000 0.030709 0.000000
# 6 0.000000 0.000000 0.000000 0.000000 0.000000 0.033242
#
#
# Mechanical properties :
#
#
# Convention : Reuss Voigt Hill
#
# Bulk Modulus (GPa) = 26.36452 53.54448 39.95450
# Shear Modulus (GPa) = 15.94038 25.29597 20.61818
#
# Velocity S-wave (km/s) = 2.90879 3.66428 3.30818
# Velocity P-wave (km/s) = 5.02748 6.80616 5.98328
#
# Compressibility (1/GPa) = 0.03792976
#
# Stress axis : x y z
#
# Youngs Moduli (GPa) = 61.15279 65.82117 12.36741
#
# Poissons Ratio (x) = 0.06291 0.29042
# Poissons Ratio (y) = 0.05845 0.15828
# Poissons Ratio (z) = 1.43603 0.84238
#
# Static dielectric constant tensor:
#      x y z
#    x 1.695820 0.000000 0.000000 
#    y 0.000000 1.648870 0.000000 
#    z 0.000000 0.000000 1.654330 
# 
# From -- ./inp_files/22397.got.cif
#   From: 2010.05.17/outbox.cif.g08.bks.cpg/sg49_12_cif.got.tgz:22397.got - 2010.06.03 21:02:19.
