data_PCOD9394555
_publ_section_title
;
Structure prediction by ZEFSAII (Michael W. Deem and Ramdas Pophale) SiO2 
 PCOD9394555
Probable space group: P C C M
;
_chemical_formula_sum "Si O2"
_cell_formula_units_Z 32
_cell_length_a 9.051419
_cell_length_b 19.500317
_cell_length_c 9.863291
_cell_angle_alpha 90.000000
_cell_angle_beta 90.000000
_cell_angle_gamma 90.000000
_cell_volume 1740.925502
_symmetry_space_group_name_H-M "P C C M"
_symmetry_group_IT_number 49
_symmetry_cell_setting 'orthorhombic'
loop_
_space_group_symop_operation_xyz
x,y,z
-x,-y,z
x,-y,1/2-z
-x,y,1/2-z
-x,-y,-z
x,y,-z
-x,y,1/2+z
x,-y,1/2+z
loop_
_atom_site_type_symbol
_atom_site_label
_atom_site_fract_x
_atom_site_fract_y
_atom_site_fract_z
Si Si1 0.686721 0.068955 0.500000
Si Si2 0.348608 0.436497 0.835961
Si Si3 0.660839 0.905657 0.500000
Si Si4 0.857029 0.304306 0.342509
Si Si5 0.177824 0.846741 0.739775
O O1 0.517165 0.095209 0.500000
O O2 0.768494 0.100196 0.628064
O O3 0.694211 0.986959 0.500000
O O4 0.279060 0.500000 0.750000
O O5 0.500000 0.425418 0.750000
O O6 0.251907 0.368202 0.826894
O O7 0.368134 0.450446 0.000000
O O8 0.735544 0.868828 0.626940
O O9 0.901548 0.299076 0.500000
O O10 0.786448 0.231479 0.301368
O O11 0.000000 0.314696 0.250000
O O12 0.000000 0.850045 0.750000
#
# Coordination Sequence:
#
# PCOD9394555 Si02
#       5
#     4   8   4   8   8
#     4  11  23  43  61  87 128 153 208 253 309 378
#     4  10  21  39  61  92 125 161 204 248 298 355
#     4  11  25  39  63  91 118 167 196 259 315 362
#     4  10  23  41  62  88 122 159 200 249 300 358
#     4  11  23  41  62  90 122 160 208 253 307 366
#
# _framework density 18.381029000000002
#
# number of rings (size 3 to 8) (size 9 to 14) (size 15 to 20)
#    0.000    1.500    1.250    3.750    5.250    9.500 
#    0.000    2.500    0.000    0.000    0.000    0.000 
#    0.000    0.000    0.000    0.000    0.000    0.000 
#
# Total GULP energy -178544.368193 kJ/mol
# GULP energy per Si atom -5579.511506 kJ/mol
# Density = 1.833919 g / cm^3
# Si number density = 18.381029 Si / 1000 Ang^3
#
#
#
# Elastic Constant Matrix: (Units=GPa)
#
#
# Indices 1 2 3 4 5 6 
#
# 1 58.8840 63.0345 45.3600 0.0000 0.0000 0.0000
# 2 63.0345 130.8270 68.5212 0.0000 0.0000 0.0000
# 3 45.3600 68.5212 176.6017 0.0000 0.0000 0.0000
# 4 0.0000 0.0000 0.0000 35.9929 0.0000 0.0000
# 5 0.0000 0.0000 0.0000 0.0000 10.7255 0.0000
# 6 0.0000 0.0000 0.0000 0.0000 0.0000 39.0332
#
#
#
# Elastic Compliance Matrix: (Units=1/GPa)
#
#
# Indices 1 2 3 4 5 6 
#
# 1 0.036457 -0.015890 -0.003199 0.000000 0.000000 0.000000
# 2 -0.015890 0.016519 -0.002328 0.000000 0.000000 0.000000
# 3 -0.003199 -0.002328 0.007387 0.000000 0.000000 0.000000
# 4 0.000000 0.000000 0.000000 0.027783 0.000000 0.000000
# 5 0.000000 0.000000 0.000000 0.000000 0.093236 0.000000
# 6 0.000000 0.000000 0.000000 0.000000 0.000000 0.025619
#
#
# Mechanical properties :
#
#
# Convention : Reuss Voigt Hill
#
# Bulk Modulus (GPa) = 57.04615 80.01604 68.53109
# Shear Modulus (GPa) = 19.55587 29.77679 24.66633
#
# Velocity S-wave (km/s) = 3.26531 4.02926 3.66723
# Velocity P-wave (km/s) = 6.73194 8.07916 7.43613
#
# Compressibility (1/GPa) = 0.01752967
#
# Stress axis : x y z
#
# Youngs Moduli (GPa) = 27.42982 60.53587 135.36807
#
# Poissons Ratio (x) = 0.96193 0.43298
# Poissons Ratio (y) = 0.43586 0.31514
# Poissons Ratio (z) = 0.08773 0.14093
#
# Static dielectric constant tensor:
#      x y z
#    x 1.611170 0.000000 0.000000 
#    y 0.000000 1.624490 0.000000 
#    z 0.000000 0.000000 1.592360 
# 
# From -- ./inp_files/1453.got.cif
#   From: 2010.05.17/outbox.cif.g08.bks.cpg/sg49_1_cif.got.tgz:1453.got - 2010.06.03 21:02:19.
