data_PCOD9394088
_publ_section_title
;
Structure prediction by ZEFSAII (Michael W. Deem and Ramdas Pophale) SiO2 
 PCOD9394088
Probable space group: P C C M
;
_chemical_formula_sum "Si O2"
_cell_formula_units_Z 48
_cell_length_a 30.698275
_cell_length_b 9.774652
_cell_length_c 8.644855
_cell_angle_alpha 90.000000
_cell_angle_beta 90.000000
_cell_angle_gamma 90.000000
_cell_volume 2594.018028
_symmetry_space_group_name_H-M "P C C M"
_symmetry_group_IT_number 49
_symmetry_cell_setting 'orthorhombic'
loop_
_space_group_symop_operation_xyz
x,y,z
-x,-y,z
x,-y,1/2-z
-x,y,1/2-z
-x,-y,-z
x,y,-z
-x,y,1/2+z
x,-y,1/2+z
loop_
_atom_site_type_symbol
_atom_site_label
_atom_site_fract_x
_atom_site_fract_y
_atom_site_fract_z
Si Si1 0.373195 0.847233 0.185510
Si Si2 0.547911 0.649801 0.314408
Si Si3 0.877898 0.152995 0.686387
Si Si4 0.299961 0.649718 0.314201
Si Si5 0.951425 0.648812 0.685457
Si Si6 0.800445 0.351695 0.685910
O O1 0.416243 0.761379 0.230898
O O2 0.331879 0.764067 0.248901
O O3 0.374471 0.000000 0.250000
O O4 0.371246 0.851017 0.000000
O O5 0.560038 0.500000 0.250000
O O6 0.500000 0.682838 0.250000
O O7 0.545894 0.642063 0.500000
O O8 0.880398 0.151612 0.500000
O O9 0.918511 0.237057 0.753867
O O10 0.834267 0.235338 0.733772
O O11 0.877295 0.000000 0.750000
O O12 0.312364 0.500000 0.250000
O O13 0.302270 0.647540 0.500000
O O14 0.249603 0.674785 0.266734
O O15 0.937644 0.500000 0.750000
O O16 0.952324 0.644947 0.500000
O O17 0.000000 0.673716 0.750000
O O18 0.813502 0.500000 0.750000
O O19 0.801098 0.359083 0.500000
#
# Coordination Sequence:
#
# PCOD9394088 Si02
#       6
#     8   8   8   8   8   8
#     4  11  24  39  56  82 114 151 188 230 282 337
#     4  10  21  37  59  84 110 142 184 229 278 330
#     4  11  23  39  57  83 117 153 190 232 282 336
#     4  10  20  37  60  86 114 148 189 234 279 331
#     4  11  22  39  62  88 115 148 189 234 281 333
#     4   9  20  37  59  85 113 146 188 233 280 331
#
# _framework density 18.504111999999999
#
# number of rings (size 3 to 8) (size 9 to 14) (size 15 to 20)
#    0.000    1.667    0.000    5.500    0.000    8.667 
#    0.000    5.000    0.000    0.000    0.000    0.000 
#    0.000    0.000    0.000    0.000    0.000    0.000 
#
# Total GULP energy -268307.023075 kJ/mol
# GULP energy per Si atom -5589.729647 kJ/mol
# Density = 1.846200 g / cm^3
# Si number density = 18.504112 Si / 1000 Ang^3
#
#
#
# Elastic Constant Matrix: (Units=GPa)
#
#
# Indices 1 2 3 4 5 6 
#
# 1 121.3247 127.3890 51.3319 0.0000 0.0000 0.0000
# 2 127.3890 200.9443 62.6856 0.0000 0.0000 0.0000
# 3 51.3319 62.6856 82.2936 0.0000 0.0000 0.0000
# 4 0.0000 0.0000 0.0000 36.0025 0.0000 0.0000
# 5 0.0000 0.0000 0.0000 0.0000 21.6580 0.0000
# 6 0.0000 0.0000 0.0000 0.0000 0.0000 -27.5977
#
#
#
# Elastic Compliance Matrix: (Units=1/GPa)
#
#
# Indices 1 2 3 4 5 6 
#
# 1 0.026025 -0.014999 -0.004809 0.000000 0.000000 0.000000
# 2 -0.014999 0.015172 -0.002201 0.000000 0.000000 0.000000
# 3 -0.004809 -0.002201 0.016828 0.000000 0.000000 0.000000
# 4 0.000000 0.000000 0.000000 0.027776 0.000000 0.000000
# 5 0.000000 0.000000 0.000000 0.000000 0.046172 0.000000
# 6 0.000000 0.000000 0.000000 0.000000 0.000000 -0.036235
#
#
# Mechanical properties :
#
#
# Convention : Reuss Voigt Hill
#
# Bulk Modulus (GPa) = 71.38897 98.59728 84.99313
# Shear Modulus (GPa) = 34.62039 16.88963 25.75501
#
# Velocity S-wave (km/s) = 4.33015 3.02445 3.73480
# Velocity P-wave (km/s) = 7.97898 8.09914 8.03928
#
# Compressibility (1/GPa) = 0.01400777
#
# Stress axis : x y z
#
# Youngs Moduli (GPa) = 38.42431 65.91297 59.42590
#
# Poissons Ratio (x) = 0.98860 0.28576
# Poissons Ratio (y) = 0.57631 0.13080
# Poissons Ratio (z) = 0.18477 0.14507
#
# Static dielectric constant tensor:
#      x y z
#    x 1.638180 0.000000 0.000000 
#    y 0.000000 1.596020 0.000000 
#    z 0.000000 0.000000 1.622440 
# 
# From -- ./inp_files/2055.got.cif
#   From: 2010.05.17/outbox.cif.g08.bks.cpg/sg49_2_cif.got.tgz:2055.got - 2010.06.03 21:02:19.
