data_PCOD9394530
_publ_section_title
;
Structure prediction by ZEFSAII (Michael W. Deem and Ramdas Pophale) SiO2 
 PCOD9394530
Probable space group: P C C M
;
_chemical_formula_sum "Si O2"
_cell_formula_units_Z 48
_cell_length_a 5.039683
_cell_length_b 18.295312
_cell_length_c 26.259100
_cell_angle_alpha 90.000000
_cell_angle_beta 90.000000
_cell_angle_gamma 90.000000
_cell_volume 2421.156581
_symmetry_space_group_name_H-M "P C C M"
_symmetry_group_IT_number 49
_symmetry_cell_setting 'orthorhombic'
loop_
_space_group_symop_operation_xyz
x,y,z
-x,-y,z
x,-y,1/2-z
-x,y,1/2-z
-x,-y,-z
x,y,-z
-x,y,1/2+z
x,-y,1/2+z
loop_
_atom_site_type_symbol
_atom_site_label
_atom_site_fract_x
_atom_site_fract_y
_atom_site_fract_z
Si Si1 0.732361 0.452480 0.648158
Si Si2 0.760935 0.690147 0.215443
Si Si3 0.930017 0.166742 0.652663
Si Si4 0.544058 0.363650 0.557961
Si Si5 0.060564 0.262810 0.558869
Si Si6 0.555685 0.913717 0.691093
O O1 0.500000 0.500000 0.672799
O O2 0.727314 0.374017 0.674993
O O3 0.642633 0.430699 0.591367
O O4 0.000000 0.500000 0.649380
O O5 0.500000 0.702910 0.250000
O O6 0.866801 0.762731 0.187600
O O7 0.000000 0.663344 0.250000
O O8 0.652012 0.124618 0.653254
O O9 0.031606 0.196886 0.598524
O O10 0.151880 0.114281 0.677167
O O11 0.488614 0.385891 0.500000
O O12 0.282996 0.320879 0.577368
O O13 0.781309 0.304809 0.558125
O O14 0.126242 0.242364 0.500000
O O15 0.500000 0.892365 0.750000
O O16 0.500000 0.000000 0.687873
#
# Coordination Sequence:
#
# PCOD9394530 Si02
#       6
#     8   8   8   8   8   8
#     4  12  26  41  61  85 123 167 205 259 321 371
#     4  12  26  41  62  90 121 160 218 262 301 362
#     4  12  22  40  69  92 124 163 207 256 303 362
#     4  10  21  40  62  88 121 155 202 263 319 371
#     4  10  21  38  65  94 122 156 202 259 315 365
#     4  11  24  41  62  96 134 166 200 245 308 371
#
# _framework density 19.825237000000001
#
# number of rings (size 3 to 8) (size 9 to 14) (size 15 to 20)
#    0.000    0.833    1.667    6.500    2.333    4.000 
#    0.000    0.000    0.000    3.000    0.000    0.000 
#    0.000    0.000    0.000    0.000    0.000    0.000 
#
# Total GULP energy -268263.468868 kJ/mol
# GULP energy per Si atom -5588.822268 kJ/mol
# Density = 1.978011 g / cm^3
# Si number density = 19.825237 Si / 1000 Ang^3
#
#
#
# Elastic Constant Matrix: (Units=GPa)
#
#
# Indices 1 2 3 4 5 6 
#
# 1 103.2855 20.3956 16.9213 0.0000 0.0000 0.0000
# 2 20.3956 92.9098 30.4402 0.0000 0.0000 0.0000
# 3 16.9213 30.4402 68.5380 0.0000 0.0000 0.0000
# 4 0.0000 0.0000 0.0000 140.8026 0.0000 0.0000
# 5 0.0000 0.0000 0.0000 0.0000 16.4605 0.0000
# 6 0.0000 0.0000 0.0000 0.0000 0.0000 51.7044
#
#
#
# Elastic Compliance Matrix: (Units=1/GPa)
#
#
# Indices 1 2 3 4 5 6 
#
# 1 0.010307 -0.001672 -0.001802 0.000000 0.000000 0.000000
# 2 -0.001672 0.012867 -0.005302 0.000000 0.000000 0.000000
# 3 -0.001802 -0.005302 0.017390 0.000000 0.000000 0.000000
# 4 0.000000 0.000000 0.000000 0.007102 0.000000 0.000000
# 5 0.000000 0.000000 0.000000 0.000000 0.060751 0.000000
# 6 0.000000 0.000000 0.000000 0.000000 0.000000 0.019341
#
#
# Mechanical properties :
#
#
# Convention : Reuss Voigt Hill
#
# Bulk Modulus (GPa) = 43.45517 44.47194 43.96356
# Shear Modulus (GPa) = 32.68350 54.92527 43.80438
#
# Velocity S-wave (km/s) = 4.06468 5.26924 4.70566
# Velocity P-wave (km/s) = 6.63291 7.71366 7.19361
#
# Compressibility (1/GPa) = 0.02301222
#
# Stress axis : x y z
#
# Youngs Moduli (GPa) = 97.01817 77.71630 57.50378
#
# Poissons Ratio (x) = 0.12996 0.10363
# Poissons Ratio (y) = 0.16224 0.30488
# Poissons Ratio (z) = 0.17483 0.41205
#
# Static dielectric constant tensor:
#      x y z
#    x 1.727050 0.000000 0.000000 
#    y 0.000000 1.807460 0.000000 
#    z 0.000000 0.000000 1.735440 
# 
# From -- ./inp_files/23954.got.cif
#   From: 2010.05.17/outbox.cif.g08.bks.cpg/sg49_12_cif.got.tgz:23954.got - 2010.06.03 21:02:19.
