data_PCOD9394725
_publ_section_title
;
Structure prediction by ZEFSAII (Michael W. Deem and Ramdas Pophale) SiO2 
 PCOD9394725
Probable space group: P C C M
;
_chemical_formula_sum "Si O2"
_cell_formula_units_Z 58
_cell_length_a 9.376716
_cell_length_b 18.096115
_cell_length_c 15.796726
_cell_angle_alpha 90.000000
_cell_angle_beta 90.000000
_cell_angle_gamma 90.000000
_cell_volume 2680.422131
_symmetry_space_group_name_H-M "P C C M"
_symmetry_group_IT_number 49
_symmetry_cell_setting 'orthorhombic'
loop_
_space_group_symop_operation_xyz
x,y,z
-x,-y,z
x,-y,1/2-z
-x,y,1/2-z
-x,-y,-z
x,y,-z
-x,y,1/2+z
x,-y,1/2+z
loop_
_atom_site_type_symbol
_atom_site_label
_atom_site_fract_x
_atom_site_fract_y
_atom_site_fract_z
Si Si1 0.836163 0.510161 0.648395
Si Si2 0.354474 0.724036 0.670172
Si Si3 0.780829 0.322342 0.848210
Si Si4 0.128277 0.098117 0.399742
Si Si5 0.597914 0.805843 0.406600
Si Si6 0.000000 0.000000 0.750000
Si Si7 0.048093 0.751222 0.403341
Si Si8 0.575038 0.571933 0.903245
O O1 0.825583 0.500000 0.750000
O O2 0.775574 0.591739 0.629661
O O3 0.740930 0.449205 0.603127
O O4 0.000000 0.500000 0.624332
O O5 0.291456 0.700153 0.759959
O O6 0.469009 0.789079 0.657105
O O7 0.213642 0.744174 0.617526
O O8 0.437240 0.650965 0.638680
O O9 0.700393 0.266220 0.909702
O O10 0.947462 0.300779 0.847110
O O11 0.119638 0.071636 0.500000
O O12 0.288229 0.130077 0.387630
O O13 0.092135 0.046973 0.318903
O O14 0.015695 0.166255 0.393816
O O15 0.535529 0.817476 0.500000
O O16 0.025126 0.728222 0.500000
O O17 0.500000 0.500000 0.862775
O O18 0.527367 0.577482 0.000000
#
# Coordination Sequence:
#
# PCOD9394725 Si02
#       8
#     8   8   8   8   8   2   8   8
#     4  11  23  38  53  75 112 159 206 266 336 390
#     4  12  22  37  63  93 122 165 219 273 328 389
#     4  11  22  37  60  86 120 162 217 277 334 390
#     4   9  22  42  67 105 140 173 212 255 308 374
#     4  10  22  41  63  91 130 167 208 264 323 377
#     4  12  22  40  80 108 136 184 210 248 296 386
#     4  10  22  39  64  97 131 164 212 272 326 381
#     4  11  24  39  56  80 114 157 212 267 327 400
#
# _framework density 21.638383000000001
#
# number of rings (size 3 to 8) (size 9 to 14) (size 15 to 20)
#    0.000    1.379    1.379    5.172    5.793    2.759 
#    0.000    0.000    0.000    1.655    0.000    3.862 
#    0.000    0.000    0.000    0.000    0.000    0.000 
#
# Total GULP energy -323868.587259 kJ/mol
# GULP energy per Si atom -5583.941160 kJ/mol
# Density = 2.158913 g / cm^3
# Si number density = 21.638383 Si / 1000 Ang^3
#
#
#
# Elastic Constant Matrix: (Units=GPa)
#
#
# Indices 1 2 3 4 5 6 
#
# 1 120.8582 29.0697 37.1114 0.0000 0.0000 0.0000
# 2 29.0697 64.8719 49.1625 0.0000 0.0000 0.0000
# 3 37.1114 49.1625 121.6120 0.0000 0.0000 0.0000
# 4 0.0000 0.0000 0.0000 20.9238 0.0000 0.0000
# 5 0.0000 0.0000 0.0000 0.0000 38.4929 0.0000
# 6 0.0000 0.0000 0.0000 0.0000 0.0000 19.9504
#
#
#
# Elastic Compliance Matrix: (Units=1/GPa)
#
#
# Indices 1 2 3 4 5 6 
#
# 1 0.009512 -0.002973 -0.001701 0.000000 0.000000 0.000000
# 2 -0.002973 0.023153 -0.008452 0.000000 0.000000 0.000000
# 3 -0.001701 -0.008452 0.012159 0.000000 0.000000 0.000000
# 4 0.000000 0.000000 0.000000 0.047792 0.000000 0.000000
# 5 0.000000 0.000000 0.000000 0.000000 0.025979 0.000000
# 6 0.000000 0.000000 0.000000 0.000000 0.000000 0.050124
#
#
# Mechanical properties :
#
#
# Convention : Reuss Voigt Hill
#
# Bulk Modulus (GPa) = 53.84880 59.78104 56.81492
# Shear Modulus (GPa) = 24.85563 28.67333 26.76448
#
# Velocity S-wave (km/s) = 3.39290 3.64416 3.52077
# Velocity P-wave (km/s) = 6.34735 6.73749 6.54533
#
# Compressibility (1/GPa) = 0.01857052
#
# Stress axis : x y z
#
# Youngs Moduli (GPa) = 105.13556 43.19104 82.24553
#
# Poissons Ratio (x) = 0.12843 0.13986
# Poissons Ratio (y) = 0.31262 0.69517
# Poissons Ratio (z) = 0.17878 0.36507
#
# Static dielectric constant tensor:
#      x y z
#    x 1.816790 0.000000 0.000000 
#    y 0.000000 1.778280 0.000000 
#    z 0.000000 0.000000 1.825990 
# 
# From -- ./inp_files/16497.got.cif
#   From: 2010.05.17/outbox.cif.g08.bks.cpg/sg49_9_cif.got.tgz:16497.got - 2010.06.03 21:02:19.
