data_PCOD9394256
_publ_section_title
;
Structure prediction by ZEFSAII (Michael W. Deem and Ramdas Pophale) SiO2 
 PCOD9394256
Probable space group: P C C M
;
_chemical_formula_sum "Si O2"
_cell_formula_units_Z 48
_cell_length_a 16.690179
_cell_length_b 14.391134
_cell_length_c 9.722588
_cell_angle_alpha 90.000000
_cell_angle_beta 90.000000
_cell_angle_gamma 90.000000
_cell_volume 2335.274269
_symmetry_space_group_name_H-M "P C C M"
_symmetry_group_IT_number 49
_symmetry_cell_setting 'orthorhombic'
loop_
_space_group_symop_operation_xyz
x,y,z
-x,-y,z
x,-y,1/2-z
-x,y,1/2-z
-x,-y,-z
x,y,-z
-x,y,1/2+z
x,-y,1/2+z
loop_
_atom_site_type_symbol
_atom_site_label
_atom_site_fract_x
_atom_site_fract_y
_atom_site_fract_z
Si Si1 0.329670 0.626097 0.000000
Si Si2 0.926350 0.735576 0.835401
Si Si3 0.431279 0.810232 0.000000
Si Si4 0.218821 0.397143 0.238384
Si Si5 0.616591 0.789273 0.000000
Si Si6 0.859560 0.095282 0.837117
Si Si7 0.677620 0.110706 0.767710
Si Si8 0.346383 0.581722 0.500000
O O1 0.267741 0.632719 0.873168
O O2 0.374244 0.525316 0.000000
O O3 0.396734 0.705232 0.000000
O O4 0.847316 0.673779 0.813772
O O5 0.909076 0.829905 0.750282
O O6 0.000000 0.691362 0.750000
O O7 0.941005 0.747941 0.000000
O O8 0.525743 0.824489 0.000000
O O9 0.391568 0.857314 0.131310
O O10 0.181057 0.500000 0.250000
O O11 0.288947 0.409850 0.129554
O O12 0.664765 0.829668 0.130012
O O13 0.605127 0.677513 0.000000
O O14 0.766178 0.125735 0.829022
O O15 0.866089 0.000000 0.750000
O O16 0.881381 0.087080 0.000000
O O17 0.670833 0.000000 0.750000
#
# Coordination Sequence:
#
# PCOD9394256 Si02
#       8
#     4   8   4   8   4   8   8   4
#     4  10  22  38  68  90 127 161 219 280 326 392
#     4  12  26  43  66  99 138 173 211 261 326 386
#     4  12  23  41  58  96 125 173 212 269 340 397
#     4  10  22  41  66  93 124 166 219 267 321 387
#     4  12  25  37  64  88 133 171 216 267 334 407
#     4  11  24  44  71  98 128 170 223 272 321 380
#     4  11  25  41  63  91 126 169 222 272 323 386
#     4  10  20  42  62  96 119 167 217 274 330 388
#
# _framework density 20.554331999999999
#
# number of rings (size 3 to 8) (size 9 to 14) (size 15 to 20)
#    0.000    1.000    1.667    5.000    7.000    3.000 
#    0.000    2.500    0.000    5.000    0.000    0.000 
#    0.000    0.000    0.000    0.000    0.000    0.000 
#
# Total GULP energy -268039.385168 kJ/mol
# GULP energy per Si atom -5584.153858 kJ/mol
# Density = 2.050755 g / cm^3
# Si number density = 20.554332 Si / 1000 Ang^3
#
#
#
# Elastic Constant Matrix: (Units=GPa)
#
#
# Indices 1 2 3 4 5 6 
#
# 1 33.1024 12.3582 7.3050 0.0000 0.0000 0.0000
# 2 12.3582 82.3203 18.2981 0.0000 0.0000 0.0000
# 3 7.3050 18.2981 168.2968 0.0000 0.0000 0.0000
# 4 0.0000 0.0000 0.0000 23.3734 0.0000 0.0000
# 5 0.0000 0.0000 0.0000 0.0000 20.7454 0.0000
# 6 0.0000 0.0000 0.0000 0.0000 0.0000 -0.8575
#
#
#
# Elastic Compliance Matrix: (Units=1/GPa)
#
#
# Indices 1 2 3 4 5 6 
#
# 1 0.032133 -0.004626 -0.000892 0.000000 0.000000 0.000000
# 2 -0.004626 0.013114 -0.001225 0.000000 0.000000 0.000000
# 3 -0.000892 -0.001225 0.006114 0.000000 0.000000 0.000000
# 4 0.000000 0.000000 0.000000 0.042784 0.000000 0.000000
# 5 0.000000 0.000000 0.000000 0.000000 0.048204 0.000000
# 6 0.000000 0.000000 0.000000 0.000000 0.000000 -1.166116
#
#
# Mechanical properties :
#
#
# Convention : Reuss Voigt Hill
#
# Bulk Modulus (GPa) = 26.40191 39.96023 33.18107
# Shear Modulus (GPa) = -5.01174 25.03612 10.01219
#
# Velocity S-wave (km/s) = -1.56320 3.49384 2.20945
# Velocity P-wave (km/s) = 3.10076 5.97991 4.76309
#
# Compressibility (1/GPa) = 0.03787604
#
# Stress axis : x y z
#
# Youngs Moduli (GPa) = 31.12065 76.25206 163.56469
#
# Poissons Ratio (x) = 0.35272 0.14587
# Poissons Ratio (y) = 0.14395 0.20038
# Poissons Ratio (z) = 0.02775 0.09342
#
# Static dielectric constant tensor:
#      x y z
#    x 1.698460 0.000000 0.000000 
#    y 0.000000 1.833470 0.000000 
#    z 0.000000 0.000000 1.617470 
# 
# From -- ./inp_files/4919.got.cif
#   From: 2010.05.17/outbox.cif.g08.bks.cpg/sg49_3_cif.got.tgz:4919.got - 2010.06.03 21:02:19.
