data_PCOD9394380
_publ_section_title
;
Structure prediction by ZEFSAII (Michael W. Deem and Ramdas Pophale) SiO2 
 PCOD9394380
Probable space group: P C C M
;
_chemical_formula_sum "Si O2"
_cell_formula_units_Z 48
_cell_length_a 16.179408
_cell_length_b 9.095679
_cell_length_c 15.932243
_cell_angle_alpha 90.000000
_cell_angle_beta 90.000000
_cell_angle_gamma 90.000000
_cell_volume 2344.631922
_symmetry_space_group_name_H-M "P C C M"
_symmetry_group_IT_number 49
_symmetry_cell_setting 'orthorhombic'
loop_
_space_group_symop_operation_xyz
x,y,z
-x,-y,z
x,-y,1/2-z
-x,y,1/2-z
-x,-y,-z
x,y,-z
-x,y,1/2+z
x,-y,1/2+z
loop_
_atom_site_type_symbol
_atom_site_label
_atom_site_fract_x
_atom_site_fract_y
_atom_site_fract_z
Si Si1 0.916721 0.580837 0.101184
Si Si2 0.761609 0.926644 0.658329
Si Si3 0.249684 0.425281 0.660394
Si Si4 0.921721 0.912887 0.099301
Si Si5 0.426738 0.388223 0.597886
Si Si6 0.581310 0.067008 0.844089
O O1 0.833292 0.496305 0.124116
O O2 0.913173 0.748152 0.134159
O O3 0.000000 0.500000 0.131547
O O4 0.920964 0.584098 0.000000
O O5 0.763994 0.750340 0.665361
O O6 0.671925 0.964068 0.618688
O O7 0.764595 0.000000 0.750000
O O8 0.839298 0.992699 0.610571
O O9 0.263553 0.500000 0.750000
O O10 0.334276 0.451487 0.608967
O O11 0.936706 0.895210 0.000000
O O12 0.000000 0.000000 0.135710
O O13 0.500000 0.500000 0.620017
O O14 0.437610 0.346422 0.500000
O O15 0.429894 0.242223 0.654377
O O16 0.500000 0.000000 0.886210
O O17 0.584338 0.000000 0.750000
#
# Coordination Sequence:
#
# PCOD9394380 Si02
#       6
#     8   8   8   8   8   8
#     4  10  21  38  60  86 118 155 196 244 299 361
#     4  10  21  37  56  82 115 148 189 236 286 343
#     4  11  23  38  60  87 118 155 198 248 303 362
#     4  10  21  37  58  83 111 148 191 235 288 348
#     4  10  23  41  62  90 123 160 204 254 306 364
#     4   9  20  38  60  87 120 158 198 243 298 360
#
# _framework density 20.472297999999999
#
# number of rings (size 3 to 8) (size 9 to 14) (size 15 to 20)
#    0.000    2.000    0.000    2.500    0.000   14.000 
#    0.000    5.000    0.000    0.000    0.000    0.000 
#    0.000    0.000    0.000    0.000    0.000    0.000 
#
# Total GULP energy -267888.724163 kJ/mol
# GULP energy per Si atom -5581.015087 kJ/mol
# Density = 2.042570 g / cm^3
# Si number density = 20.472298 Si / 1000 Ang^3
#
#
#
# Elastic Constant Matrix: (Units=GPa)
#
#
# Indices 1 2 3 4 5 6 
#
# 1 198.7359 97.9403 10.7427 0.0000 0.0000 0.0000
# 2 97.9403 144.3922 25.6678 0.0000 0.0000 0.0000
# 3 10.7427 25.6678 33.7321 0.0000 0.0000 0.0000
# 4 0.0000 0.0000 0.0000 18.4303 0.0000 0.0000
# 5 0.0000 0.0000 0.0000 0.0000 -225.9016 0.0000
# 6 0.0000 0.0000 0.0000 0.0000 0.0000 98.6175
#
#
#
# Elastic Compliance Matrix: (Units=1/GPa)
#
#
# Indices 1 2 3 4 5 6 
#
# 1 0.007646 -0.005497 0.001748 0.000000 0.000000 0.000000
# 2 -0.005497 0.011961 -0.007351 0.000000 0.000000 0.000000
# 3 0.001748 -0.007351 0.034682 0.000000 0.000000 0.000000
# 4 0.000000 0.000000 0.000000 0.054259 0.000000 0.000000
# 5 0.000000 0.000000 0.000000 0.000000 -0.004427 0.000000
# 6 0.000000 0.000000 0.000000 0.000000 0.000000 0.010140
#
#
# Mechanical properties :
#
#
# Convention : Reuss Voigt Hill
#
# Bulk Modulus (GPa) = 31.16310 71.72908 51.44609
# Shear Modulus (GPa) = 33.97697 -5.60346 14.18676
#
# Velocity S-wave (km/s) = 4.07831 -1.65621 2.63529
# Velocity P-wave (km/s) = 6.11816 5.60855 5.86889
#
# Compressibility (1/GPa) = 0.03208924
#
# Stress axis : x y z
#
# Youngs Moduli (GPa) = 130.77953 83.60474 28.83329
#
# Poissons Ratio (x) = 0.45960 -0.05040
# Poissons Ratio (y) = 0.71893 0.21195
# Poissons Ratio (z) = -0.22858 0.61456
#
# Static dielectric constant tensor:
#      x y z
#    x 1.744820 0.000000 0.000000 
#    y 0.000000 1.718960 0.000000 
#    z 0.000000 0.000000 1.736140 
# 
# From -- ./inp_files/16267.got.cif
#   From: 2010.05.17/outbox.cif.g08.bks.cpg/sg49_9_cif.got.tgz:16267.got - 2010.06.03 21:02:19.
