data_PCOD9394312
_publ_section_title
;
Structure prediction by ZEFSAII (Michael W. Deem and Ramdas Pophale) SiO2 
 PCOD9394312
Probable space group: P C C M
;
_chemical_formula_sum "Si O2"
_cell_formula_units_Z 48
_cell_length_a 19.446564
_cell_length_b 7.724982
_cell_length_c 15.681829
_cell_angle_alpha 90.000000
_cell_angle_beta 90.000000
_cell_angle_gamma 90.000000
_cell_volume 2355.792676
_symmetry_space_group_name_H-M "P C C M"
_symmetry_group_IT_number 49
_symmetry_cell_setting 'orthorhombic'
loop_
_space_group_symop_operation_xyz
x,y,z
-x,-y,z
x,-y,1/2-z
-x,y,1/2-z
-x,-y,-z
x,y,-z
-x,y,1/2+z
x,-y,1/2+z
loop_
_atom_site_type_symbol
_atom_site_label
_atom_site_fract_x
_atom_site_fract_y
_atom_site_fract_z
Si Si1 0.650970 0.793496 0.407933
Si Si2 0.000000 0.288661 0.100329
Si Si3 0.898454 0.292973 0.250000
Si Si4 0.500000 0.707240 0.347501
Si Si5 0.738476 0.791129 0.750000
Si Si6 0.349030 0.206504 0.092067
O O1 0.669142 0.720268 0.500000
O O2 0.570423 0.765623 0.390501
O O3 0.697823 0.723208 0.332328
O O4 0.661666 0.000000 0.410086
O O5 0.063886 0.234063 0.162068
O O6 0.000000 0.500000 0.096386
O O7 0.936114 0.234063 0.162068
O O8 0.000000 0.231103 0.000000
O O9 0.906584 0.500000 0.250000
O O10 0.818532 0.250025 0.250000
O O11 0.500000 0.500000 0.347014
O O12 0.500000 0.771185 0.250000
O O13 0.429577 0.765623 0.390501
O O14 0.697823 0.723208 0.832328
O O15 0.732048 0.000000 0.750000
O O16 0.330858 0.279732 0.000000
#
# Coordination Sequence:
#
# PCOD9394312 Si02
#       6
#     8   8   8   8   8   8
#     4  10  21  37  56  75  98 137 182 215 255 315
#     4   8  15  31  54  78 104 134 168 206 248 296
#     4   9  18  32  53  79 103 132 172 209 244 300
#     4  11  22  35  54  79 105 132 169 222 273 311
#     4  10  21  36  52  74 108 140 167 210 260 304
#     4  10  21  37  56  75  98 137 182 215 255 315
#
# _framework density 20.375306999999999
#
# number of rings (size 3 to 8) (size 9 to 14) (size 15 to 20)
#    0.000    2.333    1.667    2.000    0.000    6.000 
#    0.000    1.667    0.000    1.000    0.000    0.000 
#    0.000    0.000    0.000    0.000    0.000    0.000 
#
# Total GULP energy -267764.662982 kJ/mol
# GULP energy per Si atom -5578.430479 kJ/mol
# Density = 2.032893 g / cm^3
# Si number density = 20.375307 Si / 1000 Ang^3
#
#
#
# Elastic Constant Matrix: (Units=GPa)
#
#
# Indices 1 2 3 4 5 6 
#
# 1 169.8324 -7.9779 115.2691 0.0000 0.0000 0.0000
# 2 -7.9779 29.1833 14.0570 0.0000 0.0000 0.0000
# 3 115.2691 14.0570 249.8138 0.0000 0.0000 0.0000
# 4 0.0000 0.0000 0.0000 2.8442 0.0000 0.0000
# 5 0.0000 0.0000 0.0000 0.0000 4.6037 0.0000
# 6 0.0000 0.0000 0.0000 0.0000 0.0000 29.3407
#
#
#
# Elastic Compliance Matrix: (Units=1/GPa)
#
#
# Indices 1 2 3 4 5 6 
#
# 1 0.009151 0.004662 -0.004485 0.000000 0.000000 0.000000
# 2 0.004662 0.037596 -0.004267 0.000000 0.000000 0.000000
# 3 -0.004485 -0.004267 0.006312 0.000000 0.000000 0.000000
# 4 0.000000 0.000000 0.000000 0.351589 0.000000 0.000000
# 5 0.000000 0.000000 0.000000 0.000000 0.217218 0.000000
# 6 0.000000 0.000000 0.000000 0.000000 0.000000 0.034082
#
#
# Mechanical properties :
#
#
# Convention : Reuss Voigt Hill
#
# Bulk Modulus (GPa) = 22.28150 76.83621 49.55886
# Shear Modulus (GPa) = 7.36282 29.18981 18.27632
#
# Velocity S-wave (km/s) = 1.90301 3.78909 2.99822
# Velocity P-wave (km/s) = 3.97340 7.54554 6.03005
#
# Compressibility (1/GPa) = 0.04488027
#
# Stress axis : x y z
#
# Youngs Moduli (GPa) = 109.27638 26.59874 158.41703
#
# Poissons Ratio (x) = -0.12400 0.71047
# Poissons Ratio (y) = -0.50944 0.67590
# Poissons Ratio (z) = 0.49009 0.11349
#
# Static dielectric constant tensor:
#      x y z
#    x 1.683230 0.000000 0.000000 
#    y 0.000000 1.737140 0.000000 
#    z 0.000000 0.000000 1.762470 
# 
# From -- ./inp_files/11787.got.cif
#   From: 2010.05.17/outbox.cif.g08.bks.cpg/sg49_6_cif.got.tgz:11787.got - 2010.06.03 21:02:19.
