data_PCOD9394752
_publ_section_title
;
Structure prediction by ZEFSAII (Michael W. Deem and Ramdas Pophale) SiO2 
 PCOD9394752
Probable space group: P C C M
;
_chemical_formula_sum "Si O2"
_cell_formula_units_Z 64
_cell_length_a 15.763119
_cell_length_b 12.429493
_cell_length_c 17.130677
_cell_angle_alpha 90.000000
_cell_angle_beta 90.000000
_cell_angle_gamma 90.000000
_cell_volume 3356.372042
_symmetry_space_group_name_H-M "P C C M"
_symmetry_group_IT_number 49
_symmetry_cell_setting 'orthorhombic'
loop_
_space_group_symop_operation_xyz
x,y,z
-x,-y,z
x,-y,1/2-z
-x,y,1/2-z
-x,-y,-z
x,y,-z
-x,y,1/2+z
x,-y,1/2+z
loop_
_atom_site_type_symbol
_atom_site_label
_atom_site_fract_x
_atom_site_fract_y
_atom_site_fract_z
Si Si1 0.497538 0.874699 0.407174
Si Si2 0.158762 0.235194 0.839396
Si Si3 0.646895 0.274689 0.331457
Si Si4 0.846343 0.768427 0.349839
Si Si5 0.600887 0.506725 0.087709
Si Si6 0.347079 0.272258 0.644909
Si Si7 0.097591 0.002336 0.155136
Si Si8 0.004832 0.625285 0.593587
O O1 0.483268 0.872905 0.500000
O O2 0.421326 0.808031 0.367226
O O3 0.585954 0.812917 0.389955
O O4 0.500000 0.000000 0.381565
O O5 0.256431 0.257598 0.858886
O O6 0.150857 0.237856 0.744883
O O7 0.137836 0.114965 0.868373
O O8 0.088603 0.316791 0.872451
O O9 0.623395 0.395055 0.356571
O O10 0.645016 0.263262 0.238300
O O11 0.751321 0.742682 0.376378
O O12 0.920970 0.691221 0.380426
O O13 0.862220 0.891961 0.373158
O O14 0.500000 0.500000 0.083391
O O15 0.630289 0.391939 0.118289
O O16 0.634191 0.527091 0.000000
O O17 0.101118 0.000000 0.250000
O O18 0.000000 0.000000 0.131739
O O19 0.009534 0.627762 0.500000
O O20 0.000000 0.500000 0.618679
#
# Coordination Sequence:
#
# PCOD9394752 Si02
#       8
#     8   8   8   8   8   8   8   8
#     4  11  25  44  63  88 129 173 207 245 308 379
#     4  10  22  40  64  92 121 157 201 252 306 361
#     4  11  24  40  65  96 123 157 210 263 306 359
#     4  10  22  40  64  92 121 157 201 252 306 361
#     4  11  23  41  65  88 122 165 202 250 317 377
#     4  11  24  40  65  96 123 157 210 263 306 359
#     4   9  16  34  64  89 116 151 193 244 300 356
#     4  11  25  42  59  86 124 165 206 249 302 365
#
# _framework density 19.068207999999998
#
# number of rings (size 3 to 8) (size 9 to 14) (size 15 to 20)
#    0.000    1.500    2.500    1.875    3.500    4.500 
#    0.000    1.250    0.000    0.000    0.000    0.000 
#    0.000    0.000    0.000    0.000    0.000    0.000 
#
# Total GULP energy -357437.818363 kJ/mol
# GULP energy per Si atom -5584.965912 kJ/mol
# Density = 1.902481 g / cm^3
# Si number density = 19.068208 Si / 1000 Ang^3
#
#
#
# Elastic Constant Matrix: (Units=GPa)
#
#
# Indices 1 2 3 4 5 6 
#
# 1 117.5475 47.7444 4.3326 0.0000 0.0000 0.0000
# 2 47.7444 136.0699 -4.8115 0.0000 0.0000 0.0000
# 3 4.3326 -4.8115 14.3138 0.0000 0.0000 0.0000
# 4 0.0000 0.0000 0.0000 42.8593 0.0000 0.0000
# 5 0.0000 0.0000 0.0000 0.0000 -7.8256 0.0000
# 6 0.0000 0.0000 0.0000 0.0000 0.0000 31.4073
#
#
#
# Elastic Compliance Matrix: (Units=1/GPa)
#
#
# Indices 1 2 3 4 5 6 
#
# 1 0.010180 -0.003725 -0.004334 0.000000 0.000000 0.000000
# 2 -0.003725 0.008801 0.004086 0.000000 0.000000 0.000000
# 3 -0.004334 0.004086 0.072548 0.000000 0.000000 0.000000
# 4 0.000000 0.000000 0.000000 0.023332 0.000000 0.000000
# 5 0.000000 0.000000 0.000000 0.000000 -0.127785 0.000000
# 6 0.000000 0.000000 0.000000 0.000000 0.000000 0.031840
#
#
# Mechanical properties :
#
#
# Convention : Reuss Voigt Hill
#
# Bulk Modulus (GPa) = 11.96417 40.27358 26.11887
# Shear Modulus (GPa) = 91.37089 27.99925 59.68507
#
# Velocity S-wave (km/s) = 6.92979 3.83609 5.60078
# Velocity P-wave (km/s) = 8.38554 6.38651 7.45335
#
# Compressibility (1/GPa) = 0.08358293
#
# Stress axis : x y z
#
# Youngs Moduli (GPa) = 98.23191 113.62674 13.78399
#
# Poissons Ratio (x) = 0.42328 0.05973
# Poissons Ratio (y) = 0.36593 -0.05632
# Poissons Ratio (z) = 0.42569 -0.46426
#
# Static dielectric constant tensor:
#      x y z
#    x 1.666290 0.000000 0.000000 
#    y 0.000000 1.595520 0.000000 
#    z 0.000000 0.000000 1.659480 
# 
# From -- ./inp_files/17941.got.cif
#   From: 2010.05.17/outbox.cif.g08.bks.cpg/sg49_9_cif.got.tgz:17941.got - 2010.06.03 21:02:19.
