data_PCOD9394345
_publ_section_title
;
Structure prediction by ZEFSAII (Michael W. Deem and Ramdas Pophale) SiO2 
 PCOD9394345
Probable space group: P C C M
;
_chemical_formula_sum "Si O2"
_cell_formula_units_Z 48
_cell_length_a 14.665981
_cell_length_b 20.988048
_cell_length_c 8.672726
_cell_angle_alpha 90.000000
_cell_angle_beta 90.000000
_cell_angle_gamma 90.000000
_cell_volume 2669.554506
_symmetry_space_group_name_H-M "P C C M"
_symmetry_group_IT_number 49
_symmetry_cell_setting 'orthorhombic'
loop_
_space_group_symop_operation_xyz
x,y,z
-x,-y,z
x,-y,1/2-z
-x,y,1/2-z
-x,-y,-z
x,y,-z
-x,y,1/2+z
x,-y,1/2+z
loop_
_atom_site_type_symbol
_atom_site_label
_atom_site_fract_x
_atom_site_fract_y
_atom_site_fract_z
Si Si1 0.220203 0.809156 0.184971
Si Si2 0.101961 0.692433 0.314734
Si Si3 0.596240 0.759156 0.184198
Si Si4 0.783637 0.433992 0.684357
Si Si5 0.100411 0.069132 0.684679
Si Si6 0.403046 0.384283 0.315685
O O1 0.157849 0.750958 0.243204
O O2 0.318628 0.800714 0.261612
O O3 0.170506 0.875134 0.226099
O O4 0.228854 0.805596 0.000000
O O5 0.100746 0.698922 0.500000
O O6 0.153930 0.626702 0.275985
O O7 0.000000 0.691909 0.250000
O O8 0.500000 0.783160 0.250000
O O9 0.608635 0.688051 0.253523
O O10 0.592849 0.754270 0.000000
O O11 0.821560 0.500000 0.750000
O O12 0.775969 0.437274 0.500000
O O13 0.683714 0.422782 0.755836
O O14 0.094265 0.065437 0.500000
O O15 0.000000 0.084501 0.750000
O O16 0.126508 0.000000 0.750000
O O17 0.500000 0.407691 0.250000
O O18 0.405950 0.383789 0.500000
#
# Coordination Sequence:
#
# PCOD9394345 Si02
#       6
#     8   8   8   8   8   8
#     4  11  22  37  60  89 119 153 194 237 287 339
#     4  11  24  40  60  84 113 147 191 240 289 343
#     4  11  21  35  57  86 118 152 190 234 286 340
#     4  11  24  41  59  82 111 148 192 237 292 348
#     4  10  21  36  57  86 121 159 197 237 283 339
#     4  11  21  36  59  84 114 148 185 234 287 344
#
# _framework density 17.980526999999999
#
# number of rings (size 3 to 8) (size 9 to 14) (size 15 to 20)
#    0.000    1.167    1.667    7.000    0.000    6.667 
#    0.000    3.333    0.000    0.500    0.000    3.500 
#    0.000    0.000    0.000    0.000    0.000    0.000 
#
# Total GULP energy -268430.408783 kJ/mol
# GULP energy per Si atom -5592.300183 kJ/mol
# Density = 1.793960 g / cm^3
# Si number density = 17.980527 Si / 1000 Ang^3
#
#
#
# Elastic Constant Matrix: (Units=GPa)
#
#
# Indices 1 2 3 4 5 6 
#
# 1 133.6871 72.0473 54.2943 0.0000 0.0000 0.0000
# 2 72.0473 107.5133 51.7551 0.0000 0.0000 0.0000
# 3 54.2943 51.7551 103.5022 0.0000 0.0000 0.0000
# 4 0.0000 0.0000 0.0000 42.7025 0.0000 0.0000
# 5 0.0000 0.0000 0.0000 0.0000 19.3262 0.0000
# 6 0.0000 0.0000 0.0000 0.0000 0.0000 -11.1432
#
#
#
# Elastic Compliance Matrix: (Units=1/GPa)
#
#
# Indices 1 2 3 4 5 6 
#
# 1 0.012420 -0.006831 -0.003100 0.000000 0.000000 0.000000
# 2 -0.006831 0.016007 -0.004421 0.000000 0.000000 0.000000
# 3 -0.003100 -0.004421 0.013498 0.000000 0.000000 0.000000
# 4 0.000000 0.000000 0.000000 0.023418 0.000000 0.000000
# 5 0.000000 0.000000 0.000000 0.000000 0.051743 0.000000
# 6 0.000000 0.000000 0.000000 0.000000 0.000000 -0.089741
#
#
# Mechanical properties :
#
#
# Convention : Reuss Voigt Hill
#
# Bulk Modulus (GPa) = 75.62761 77.87736 76.75249
# Shear Modulus (GPa) = 82.70504 21.28418 51.99461
#
# Velocity S-wave (km/s) = 6.78947 3.44428 5.38330
# Velocity P-wave (km/s) = 10.17913 7.69568 9.02325
#
# Compressibility (1/GPa) = 0.01322268
#
# Stress axis : x y z
#
# Youngs Moduli (GPa) = 80.51225 62.47291 74.08467
#
# Poissons Ratio (x) = 0.42676 0.22963
# Poissons Ratio (y) = 0.54999 0.32750
# Poissons Ratio (z) = 0.24955 0.27617
#
# Static dielectric constant tensor:
#      x y z
#    x 1.605110 0.000000 0.000000 
#    y 0.000000 1.608510 0.000000 
#    z 0.000000 0.000000 1.598120 
# 
# From -- ./inp_files/3694.got.cif
#   From: 2010.05.17/outbox.cif.g08.bks.cpg/sg49_2_cif.got.tgz:3694.got - 2010.06.03 21:02:19.
