data_PCOD9394208
_publ_section_title
;
Structure prediction by ZEFSAII (Michael W. Deem and Ramdas Pophale) SiO2 
 PCOD9394208
Probable space group: P C C M
;
_chemical_formula_sum "Si O2"
_cell_formula_units_Z 34
_cell_length_a 7.373440
_cell_length_b 12.123267
_cell_length_c 18.654667
_cell_angle_alpha 90.000000
_cell_angle_beta 90.000000
_cell_angle_gamma 90.000000
_cell_volume 1667.544075
_symmetry_space_group_name_H-M "P C C M"
_symmetry_group_IT_number 49
_symmetry_cell_setting 'orthorhombic'
loop_
_space_group_symop_operation_xyz
x,y,z
-x,-y,z
x,-y,1/2-z
-x,y,1/2-z
-x,-y,-z
x,y,-z
-x,y,1/2+z
x,-y,1/2+z
loop_
_atom_site_type_symbol
_atom_site_label
_atom_site_fract_x
_atom_site_fract_y
_atom_site_fract_z
Si Si1 0.888194 0.726956 0.915523
Si Si2 0.546362 0.870734 0.919892
Si Si3 0.000000 0.000000 0.750000
Si Si4 0.205161 0.611830 0.280509
Si Si5 0.225595 0.194092 0.322295
O O1 0.753248 0.832636 0.908083
O O2 0.801999 0.630299 0.865829
O O3 0.078825 0.754718 0.877821
O O4 0.904765 0.701891 0.000000
O O5 0.412469 0.821076 0.862593
O O6 0.500000 0.000000 0.918769
O O7 0.500690 0.829899 0.000000
O O8 0.131132 0.081877 0.705446
O O9 0.291747 0.500000 0.250000
O O10 0.266846 0.724530 0.243492
O O11 0.000000 0.608014 0.250000
#
# Coordination Sequence:
#
# PCOD9394208 Si02
#       5
#     8   8   2   8   8
#     4  10  20  39  61  86 116 154 198 242 293 349
#     4  10  22  37  56  86 121 155 194 238 292 355
#     4  12  20  36  58  88 120 150 202 238 294 348
#     4   9  19  39  60  84 118 152 194 245 290 348
#     4  11  21  38  58  86 119 155 193 244 293 347
#
# _framework density 20.389265999999999
#
# number of rings (size 3 to 8) (size 9 to 14) (size 15 to 20)
#    0.000    1.882    3.529    2.118    0.000    0.941 
#    0.000   17.647    0.000    2.824    0.000    0.000 
#    0.000    0.000    0.000    0.000    0.000    0.000 
#
# Total GULP energy -189576.306199 kJ/mol
# GULP energy per Si atom -5575.773712 kJ/mol
# Density = 2.034286 g / cm^3
# Si number density = 20.389266 Si / 1000 Ang^3
#
#
#
# Elastic Constant Matrix: (Units=GPa)
#
#
# Indices 1 2 3 4 5 6 
#
# 1 62.6151 -2.7404 27.9730 0.0000 0.0000 0.0000
# 2 -2.7404 80.6266 50.8817 0.0000 0.0000 0.0000
# 3 27.9730 50.8817 159.6175 0.0000 0.0000 0.0000
# 4 0.0000 0.0000 0.0000 25.3385 0.0000 0.0000
# 5 0.0000 0.0000 0.0000 0.0000 27.6394 0.0000
# 6 0.0000 0.0000 0.0000 0.0000 0.0000 -5.8577
#
#
#
# Elastic Compliance Matrix: (Units=1/GPa)
#
#
# Indices 1 2 3 4 5 6 
#
# 1 0.017985 0.003255 -0.004189 0.000000 0.000000 0.000000
# 2 0.003255 0.016115 -0.005708 0.000000 0.000000 0.000000
# 3 -0.004189 -0.005708 0.008819 0.000000 0.000000 0.000000
# 4 0.000000 0.000000 0.000000 0.039466 0.000000 0.000000
# 5 0.000000 0.000000 0.000000 0.000000 0.036180 0.000000
# 6 0.000000 0.000000 0.000000 0.000000 0.000000 -0.170717
#
#
# Mechanical properties :
#
#
# Convention : Reuss Voigt Hill
#
# Bulk Modulus (GPa) = 33.74405 50.56533 42.15469
# Shear Modulus (GPa) = -172.47404 24.54037 -73.96684
#
# Velocity S-wave (km/s) = -9.20729 3.47305 -6.02960
# Velocity P-wave (km/s) = 9.82072 6.39817 5.26830
#
# Compressibility (1/GPa) = 0.02963486
#
# Stress axis : x y z
#
# Youngs Moduli (GPa) = 55.60288 62.05217 113.39627
#
# Poissons Ratio (x) = -0.20199 0.47507
# Poissons Ratio (y) = -0.18100 0.64723
# Poissons Ratio (z) = 0.23295 0.35417
#
# Static dielectric constant tensor:
#      x y z
#    x 1.751590 0.000000 0.000000 
#    y 0.000000 1.830030 0.000000 
#    z 0.000000 0.000000 1.743380 
# 
# From -- ./inp_files/15891.got.cif
#   From: 2010.05.17/outbox.cif.g08.bks.cpg/sg49_8_cif.got.tgz:15891.got - 2010.06.03 21:02:19.
