data_PCOD9394761
_publ_section_title
;
Structure prediction by ZEFSAII (Michael W. Deem and Ramdas Pophale) SiO2 
 PCOD9394761
Probable space group: P C C M
;
_chemical_formula_sum "Si O2"
_cell_formula_units_Z 40
_cell_length_a 13.353192
_cell_length_b 9.688868
_cell_length_c 14.106584
_cell_angle_alpha 90.000000
_cell_angle_beta 90.000000
_cell_angle_gamma 90.000000
_cell_volume 1825.071957
_symmetry_space_group_name_H-M "P C C M"
_symmetry_group_IT_number 49
_symmetry_cell_setting 'orthorhombic'
loop_
_space_group_symop_operation_xyz
x,y,z
-x,-y,z
x,-y,1/2-z
-x,y,1/2-z
-x,-y,-z
x,y,-z
-x,y,1/2+z
x,-y,1/2+z
loop_
_atom_site_type_symbol
_atom_site_label
_atom_site_fract_x
_atom_site_fract_y
_atom_site_fract_z
Si Si1 0.036410 0.147883 0.142014
Si Si2 0.371386 0.386710 0.169550
Si Si3 0.734410 0.114223 0.329686
Si Si4 0.944188 0.643704 0.500000
Si Si5 0.406674 0.019451 0.000000
Si Si6 0.717847 0.442927 0.000000
Si Si7 0.513515 0.674568 0.500000
O O1 0.156187 0.152399 0.131235
O O2 0.000000 0.154347 0.250000
O O3 0.000000 0.000000 0.105431
O O4 0.981443 0.269128 0.088752
O O5 0.394630 0.500000 0.250000
O O6 0.314707 0.253352 0.211002
O O7 0.458280 0.317418 0.104593
O O8 0.300148 0.461839 0.092357
O O9 0.660547 0.049978 0.410074
O O10 0.748731 0.000000 0.250000
O O11 0.826609 0.621122 0.500000
O O12 0.000000 0.500000 0.500000
O O13 0.365495 0.676907 0.000000
O O14 0.513497 0.111277 0.000000
O O15 0.500000 0.500000 0.500000
#
# Coordination Sequence:
#
# PCOD9394761 Si02
#       7
#     8   8   8   4   4   4   4
#     4  11  24  46  70 100 135 180 233 275 334 412
#     4  10  22  40  68  97 136 176 221 275 335 399
#     4  11  23  45  70  96 135 179 223 278 339 396
#     4  12  27  45  71 104 139 171 223 288 348 392
#     4  10  24  43  66  97 137 177 219 282 337 393
#     4  11  24  42  67 103 132 176 225 275 341 406
#     4   9  22  44  63  94 138 176 225 267 326 417
#
# _framework density 21.916944999999998
#
# number of rings (size 3 to 8) (size 9 to 14) (size 15 to 20)
#    0.000    1.400    2.000    3.900    2.800    5.600 
#    0.000    7.000    0.000    0.000    0.000    0.000 
#    0.000    0.000    0.000    0.000    0.000    0.000 
#
# Total GULP energy -223172.386933 kJ/mol
# GULP energy per Si atom -5579.309673 kJ/mol
# Density = 2.186706 g / cm^3
# Si number density = 21.916945 Si / 1000 Ang^3
#
#
#
# Elastic Constant Matrix: (Units=GPa)
#
#
# Indices 1 2 3 4 5 6 
#
# 1 204.7556 54.8456 46.4236 0.0000 0.0000 0.0000
# 2 54.8456 116.0435 53.0296 0.0000 0.0000 0.0000
# 3 46.4236 53.0296 115.1566 0.0000 0.0000 0.0000
# 4 0.0000 0.0000 0.0000 -5.1646 0.0000 0.0000
# 5 0.0000 0.0000 0.0000 0.0000 2.3067 0.0000
# 6 0.0000 0.0000 0.0000 0.0000 0.0000 44.4530
#
#
#
# Elastic Compliance Matrix: (Units=1/GPa)
#
#
# Indices 1 2 3 4 5 6 
#
# 1 0.005753 -0.002101 -0.001352 0.000000 0.000000 0.000000
# 2 -0.002101 0.011682 -0.004532 0.000000 0.000000 0.000000
# 3 -0.001352 -0.004532 0.011316 0.000000 0.000000 0.000000
# 4 0.000000 0.000000 0.000000 -0.193625 0.000000 0.000000
# 5 0.000000 0.000000 0.000000 0.000000 0.433522 0.000000
# 6 0.000000 0.000000 0.000000 0.000000 0.000000 0.022496
#
#
# Mechanical properties :
#
#
# Convention : Reuss Voigt Hill
#
# Bulk Modulus (GPa) = 78.24648 82.72815 80.48731
# Shear Modulus (GPa) = 16.05787 27.09614 21.57701
#
# Velocity S-wave (km/s) = 2.70972 3.51993 3.14106
# Velocity P-wave (km/s) = 6.75048 7.37211 7.06813
#
# Compressibility (1/GPa) = 0.01278013
#
# Stress axis : x y z
#
# Youngs Moduli (GPa) = 173.81584 85.60271 88.37174
#
# Poissons Ratio (x) = 0.17989 0.11944
# Poissons Ratio (y) = 0.36527 0.40053
# Poissons Ratio (z) = 0.23493 0.38798
#
# Static dielectric constant tensor:
#      x y z
#    x 2.080260 0.000000 0.000000 
#    y 0.000000 3.570910 0.000000 
#    z 0.000000 0.000000 1.839160 
# 
# From -- ./inp_files/11632.got.cif
#   From: 2010.05.17/outbox.cif.g08.bks.cpg/sg49_6_cif.got.tgz:11632.got - 2010.06.03 21:02:19.
