data_PCOD9394915
_publ_section_title
;
Structure prediction by ZEFSAII (Michael W. Deem and Ramdas Pophale) SiO2 
 PCOD9394915
Probable space group: P C C M
;
_chemical_formula_sum "Si O2"
_cell_formula_units_Z 30
_cell_length_a 5.612110
_cell_length_b 9.130169
_cell_length_c 28.274664
_cell_angle_alpha 90.000000
_cell_angle_beta 90.000000
_cell_angle_gamma 90.000000
_cell_volume 1448.780006
_symmetry_space_group_name_H-M "P C C M"
_symmetry_group_IT_number 49
_symmetry_cell_setting 'orthorhombic'
loop_
_space_group_symop_operation_xyz
x,y,z
-x,-y,z
x,-y,1/2-z
-x,y,1/2-z
-x,-y,-z
x,y,-z
-x,y,1/2+z
x,-y,1/2+z
loop_
_atom_site_type_symbol
_atom_site_label
_atom_site_fract_x
_atom_site_fract_y
_atom_site_fract_z
Si Si1 0.680779 0.759623 0.293076
Si Si2 0.000000 0.000000 0.750000
Si Si3 0.623805 0.346535 0.621589
Si Si4 0.752161 0.082723 0.556730
Si Si5 0.000000 0.500000 0.687809
O O1 0.500000 0.769382 0.250000
O O2 0.555409 0.742500 0.343795
O O3 0.824801 0.610052 0.286320
O O4 0.847808 0.897860 0.284758
O O5 0.500000 0.500000 0.605712
O O6 0.722419 0.239972 0.581549
O O7 0.838766 0.396663 0.655042
O O8 0.766550 0.098655 0.500000
O O9 0.500000 0.000000 0.566927
O O10 0.000000 0.000000 0.571466
#
# Coordination Sequence:
#
# PCOD9394915 Si02
#       5
#     8   2   8   8   4
#     4  11  25  43  61  93 129 173 226 274 338 401
#     4  12  26  42  60  90 134 178 230 284 330 406
#     4  10  24  43  67  98 131 178 230 281 346 412
#     4  10  24  46  72 104 141 181 228 286 356 420
#     4  10  24  43  65  90 128 174 219 282 334 407
#
# _framework density 20.707077999999999
#
# number of rings (size 3 to 8) (size 9 to 14) (size 15 to 20)
#    0.000    1.600    0.000    2.000    7.467   17.600 
#    2.400    0.667    0.000    0.000    0.000    0.000 
#    0.000    0.000    0.000    0.000    0.000    0.000 
#
# Total GULP energy -167653.348627 kJ/mol
# GULP energy per Si atom -5588.444954 kJ/mol
# Density = 2.065995 g / cm^3
# Si number density = 20.707078 Si / 1000 Ang^3
#
#
#
# Elastic Constant Matrix: (Units=GPa)
#
#
# Indices 1 2 3 4 5 6 
#
# 1 136.0784 81.8321 41.2751 0.0000 0.0000 0.0000
# 2 81.8321 163.1132 65.1476 0.0000 0.0000 0.0000
# 3 41.2751 65.1476 48.8470 0.0000 0.0000 0.0000
# 4 0.0000 0.0000 0.0000 45.2560 0.0000 0.0000
# 5 0.0000 0.0000 0.0000 0.0000 56.3629 0.0000
# 6 0.0000 0.0000 0.0000 0.0000 0.0000 43.2439
#
#
#
# Elastic Compliance Matrix: (Units=1/GPa)
#
#
# Indices 1 2 3 4 5 6 
#
# 1 0.010894 -0.003828 -0.004100 0.000000 0.000000 0.000000
# 2 -0.003828 0.014464 -0.016056 0.000000 0.000000 0.000000
# 3 -0.004100 -0.016056 0.045351 0.000000 0.000000 0.000000
# 4 0.000000 0.000000 0.000000 0.022097 0.000000 0.000000
# 5 0.000000 0.000000 0.000000 0.000000 0.017742 0.000000
# 6 0.000000 0.000000 0.000000 0.000000 0.000000 0.023125
#
#
# Mechanical properties :
#
#
# Convention : Reuss Voigt Hill
#
# Bulk Modulus (GPa) = 43.97412 80.50535 62.23973
# Shear Modulus (GPa) = 26.42401 39.62481 33.02441
#
# Velocity S-wave (km/s) = 3.57611 4.37920 3.99787
# Velocity P-wave (km/s) = 6.19143 8.03321 7.17169
#
# Compressibility (1/GPa) = 0.02274065
#
# Stress axis : x y z
#
# Youngs Moduli (GPa) = 91.79067 69.13699 22.05019
#
# Poissons Ratio (x) = 0.26465 0.09041
# Poissons Ratio (y) = 0.35137 0.35404
# Poissons Ratio (z) = 0.37636 1.11008
#
# Static dielectric constant tensor:
#      x y z
#    x 1.797650 0.000000 0.000000 
#    y 0.000000 1.685780 0.000000 
#    z 0.000000 0.000000 1.731680 
# 
# From -- ./inp_files/25472.got.cif
#   From: 2010.05.17/outbox.cif.g08.bks.cpg/sg49_13_cif.got.tgz:25472.got - 2010.06.03 21:02:19.
