data_PCOD9394918
_publ_section_title
;
Structure prediction by ZEFSAII (Michael W. Deem and Ramdas Pophale) SiO2 
 PCOD9394918
Probable space group: P C C M
;
_chemical_formula_sum "Si O2"
_cell_formula_units_Z 32
_cell_length_a 5.427086
_cell_length_b 18.488049
_cell_length_c 14.338909
_cell_angle_alpha 90.000000
_cell_angle_beta 90.000000
_cell_angle_gamma 90.000000
_cell_volume 1438.712099
_symmetry_space_group_name_H-M "P C C M"
_symmetry_group_IT_number 49
_symmetry_cell_setting 'orthorhombic'
loop_
_space_group_symop_operation_xyz
x,y,z
-x,-y,z
x,-y,1/2-z
-x,y,1/2-z
-x,-y,-z
x,y,-z
-x,y,1/2+z
x,-y,1/2+z
loop_
_atom_site_type_symbol
_atom_site_label
_atom_site_fract_x
_atom_site_fract_y
_atom_site_fract_z
Si Si1 0.665211 0.428679 0.099165
Si Si2 0.703910 0.705244 0.106901
Si Si3 0.000000 0.387127 0.250000
Si Si4 0.247875 0.046846 0.000000
Si Si5 0.261331 0.137729 0.808482
O O1 0.500000 0.500000 0.094314
O O2 0.518574 0.352617 0.104232
O O3 0.805784 0.433384 0.194870
O O4 0.809212 0.427482 0.000000
O O5 0.667392 0.780922 0.158784
O O6 0.901880 0.663425 0.167968
O O7 0.777592 0.719106 0.000000
O O8 0.239132 0.093349 0.095345
O O9 0.500000 0.000000 0.000000
O O10 0.000000 0.000000 0.000000
O O11 0.500000 0.110727 0.750000
O O12 0.000000 0.136605 0.750000
#
# Coordination Sequence:
#
# PCOD9394918 Si02
#       5
#     8   8   4   4   8
#     4  10  24  44  65  96 140 186 239 302 372 438
#     4  11  24  43  66 101 141 187 240 301 364 431
#     4  12  22  41  68 100 129 182 246 296 365 426
#     4  12  28  52  78 118 157 197 239 303 374 450
#     4  12  26  48  78 113 151 200 252 305 367 447
#
# _framework density 22.242114999999998
#
# number of rings (size 3 to 8) (size 9 to 14) (size 15 to 20)
#    0.000    0.750    2.500    4.500    0.000    7.000 
#    0.000    3.750    0.000    2.250    0.000    0.000 
#    0.000    0.000    0.000    0.000    0.000    0.000 
#
# Total GULP energy -178802.929494 kJ/mol
# GULP energy per Si atom -5587.591547 kJ/mol
# Density = 2.219149 g / cm^3
# Si number density = 22.242115 Si / 1000 Ang^3
#
#
#
# Elastic Constant Matrix: (Units=GPa)
#
#
# Indices 1 2 3 4 5 6 
#
# 1 102.6539 52.7605 80.2420 0.0000 0.0000 0.0000
# 2 52.7605 129.6497 71.9413 0.0000 0.0000 0.0000
# 3 80.2420 71.9413 202.7794 0.0000 0.0000 0.0000
# 4 0.0000 0.0000 0.0000 17.9207 0.0000 0.0000
# 5 0.0000 0.0000 0.0000 0.0000 38.1450 0.0000
# 6 0.0000 0.0000 0.0000 0.0000 0.0000 23.0913
#
#
#
# Elastic Compliance Matrix: (Units=1/GPa)
#
#
# Indices 1 2 3 4 5 6 
#
# 1 0.015329 -0.003576 -0.004797 0.000000 0.000000 0.000000
# 2 -0.003576 0.010438 -0.002288 0.000000 0.000000 0.000000
# 3 -0.004797 -0.002288 0.007642 0.000000 0.000000 0.000000
# 4 0.000000 0.000000 0.000000 0.055801 0.000000 0.000000
# 5 0.000000 0.000000 0.000000 0.000000 0.026216 0.000000
# 6 0.000000 0.000000 0.000000 0.000000 0.000000 0.043306
#
#
# Mechanical properties :
#
#
# Convention : Reuss Voigt Hill
#
# Bulk Modulus (GPa) = 82.74092 93.88561 88.31327
# Shear Modulus (GPa) = 27.16146 31.17400 29.16773
#
# Velocity S-wave (km/s) = 3.49832 3.74782 3.62522
# Velocity P-wave (km/s) = 7.32110 7.81221 7.57064
#
# Compressibility (1/GPa) = 0.01208592
#
# Stress axis : x y z
#
# Youngs Moduli (GPa) = 65.23388 95.80338 130.86433
#
# Poissons Ratio (x) = 0.34263 0.62779
# Poissons Ratio (y) = 0.23330 0.29941
# Poissons Ratio (z) = 0.31294 0.21920
#
# Static dielectric constant tensor:
#      x y z
#    x 1.884960 0.000000 0.000000 
#    y 0.000000 1.862870 0.000000 
#    z 0.000000 0.000000 1.958520 
# 
# From -- ./inp_files/10624.got.cif
#   From: 2010.05.17/outbox.cif.g08.bks.cpg/sg49_6_cif.got.tgz:10624.got - 2010.06.03 21:02:19.
