data_PCOD9394894
_publ_section_title
;
Structure prediction by ZEFSAII (Michael W. Deem and Ramdas Pophale) SiO2 
 PCOD9394894
Probable space group: P C C M
;
_chemical_formula_sum "Si O2"
_cell_formula_units_Z 28
_cell_length_a 4.593981
_cell_length_b 24.757675
_cell_length_c 8.960437
_cell_angle_alpha 90.000000
_cell_angle_beta 90.000000
_cell_angle_gamma 90.000000
_cell_volume 1019.126848
_symmetry_space_group_name_H-M "P C C M"
_symmetry_group_IT_number 49
_symmetry_cell_setting 'orthorhombic'
loop_
_space_group_symop_operation_xyz
x,y,z
-x,-y,z
x,-y,1/2-z
-x,y,1/2-z
-x,-y,-z
x,y,-z
-x,y,1/2+z
x,-y,1/2+z
loop_
_atom_site_type_symbol
_atom_site_label
_atom_site_fract_x
_atom_site_fract_y
_atom_site_fract_z
Si Si1 0.500000 0.500000 0.250000
Si Si2 0.302079 0.357412 0.000000
Si Si3 0.000000 0.712245 0.250000
Si Si4 0.500000 0.000000 0.000000
Si Si5 0.185506 0.854661 0.500000
Si Si6 0.310507 0.219050 0.500000
Si Si7 0.500000 0.922206 0.750000
Si Si8 0.802308 0.569513 0.500000
O O1 0.698832 0.537216 0.355628
O O2 0.639193 0.372466 0.000000
O O3 0.198300 0.325011 0.855886
O O4 0.139421 0.415460 0.000000
O O5 0.202568 0.748979 0.144500
O O6 0.646324 0.038687 0.129069
O O7 0.352773 0.796720 0.500000
O O8 0.286807 0.886625 0.646725
O O9 0.850233 0.838969 0.500000
#
# Coordination Sequence:
#
# PCOD9394894 Si02
#       8
#     2   4   4   2   4   4   4   4
#     4  10  24  40  64  90 120 154 192 244 292 344
#     4  11  24  41  62  87 118 157 196 239 292 349
#     4  10  24  40  62  87 120 157 196 244 292 344
#     4   8  16  34  60  90 120 154 200 244 292 354
#     4  11  22  38  62  87 118 157 196 242 296 349
#     4  11  24  40  60  90 120 154 200 244 292 349
#     4   9  18  34  62  87 120 157 196 244 296 349
#     4  11  24  41  62  90 120 154 196 239 292 349
#
# _framework density 27.474498000000001
#
# number of rings (size 3 to 8) (size 9 to 14) (size 15 to 20)
#    0.000    1.714    0.000    3.429    0.000   10.286 
#    0.000    0.000    0.000   60.000    0.000    0.000 
#    0.000    0.000    0.000    0.000    0.000    0.000 
#
# Total GULP energy -156895.113484 kJ/mol
# GULP energy per Si atom -5603.396910 kJ/mol
# Density = 2.741196 g / cm^3
# Si number density = 27.474498 Si / 1000 Ang^3
#
#
#
# Elastic Constant Matrix: (Units=GPa)
#
#
# Indices 1 2 3 4 5 6 
#
# 1 94.6336 27.2206 28.8199 0.0000 0.0000 0.0000
# 2 27.2206 120.2868 68.5067 0.0000 0.0000 0.0000
# 3 28.8199 68.5067 240.5034 0.0000 0.0000 0.0000
# 4 0.0000 0.0000 0.0000 76.7004 0.0000 0.0000
# 5 0.0000 0.0000 0.0000 0.0000 20.1571 0.0000
# 6 0.0000 0.0000 0.0000 0.0000 0.0000 33.6812
#
#
#
# Elastic Compliance Matrix: (Units=1/GPa)
#
#
# Indices 1 2 3 4 5 6 
#
# 1 0.011416 -0.002154 -0.000755 0.000000 0.000000 0.000000
# 2 -0.002154 0.010330 -0.002684 0.000000 0.000000 0.000000
# 3 -0.000755 -0.002684 0.005013 0.000000 0.000000 0.000000
# 4 0.000000 0.000000 0.000000 0.013038 0.000000 0.000000
# 5 0.000000 0.000000 0.000000 0.000000 0.049610 0.000000
# 6 0.000000 0.000000 0.000000 0.000000 0.000000 0.029690
#
#
# Mechanical properties :
#
#
# Convention : Reuss Voigt Hill
#
# Bulk Modulus (GPa) = 64.21040 78.27981 71.24511
# Shear Modulus (GPa) = 36.90755 48.16618 42.53687
#
# Velocity S-wave (km/s) = 3.66913 4.19157 3.93903
# Velocity P-wave (km/s) = 6.43208 7.20967 6.83195
#
# Compressibility (1/GPa) = 0.01557380
#
# Stress axis : x y z
#
# Youngs Moduli (GPa) = 87.59353 96.80894 199.48236
#
# Poissons Ratio (x) = 0.20850 0.15052
# Poissons Ratio (y) = 0.18865 0.53547
# Poissons Ratio (z) = 0.06609 0.25986
#
# Static dielectric constant tensor:
#      x y z
#    x 2.073160 0.000000 0.000000 
#    y 0.000000 2.181240 0.000000 
#    z 0.000000 0.000000 2.024010 
# 
# From -- ./inp_files/838.got.cif
#   From: 2010.05.17/outbox.cif.g08.bks.cpg/sg49_1_cif.got.tgz:838.got - 2010.06.03 21:02:19.
