data_PCOD9394264
_publ_section_title
;
Structure prediction by ZEFSAII (Michael W. Deem and Ramdas Pophale) SiO2 
 PCOD9394264
Probable space group: P C C M
;
_chemical_formula_sum "Si O2"
_cell_formula_units_Z 58
_cell_length_a 19.576979
_cell_length_b 19.576982
_cell_length_c 9.074059
_cell_angle_alpha 90.000000
_cell_angle_beta 90.000000
_cell_angle_gamma 90.000000
_cell_volume 3477.707206
_symmetry_space_group_name_H-M "P C C M"
_symmetry_group_IT_number 49
_symmetry_cell_setting 'orthorhombic'
loop_
_space_group_symop_operation_xyz
x,y,z
-x,-y,z
x,-y,1/2-z
-x,y,1/2-z
-x,-y,-z
x,y,-z
-x,y,1/2+z
x,-y,1/2+z
loop_
_atom_site_type_symbol
_atom_site_label
_atom_site_fract_x
_atom_site_fract_y
_atom_site_fract_z
Si Si1 0.798437 0.816835 0.825335
Si Si2 0.260713 0.570379 0.176963
Si Si3 0.070379 0.239287 0.323037
Si Si4 0.316835 0.701563 0.674665
Si Si5 0.314530 0.073697 0.177394
Si Si6 0.573697 0.185470 0.322607
Si Si7 0.000000 0.500000 0.250000
Si Si8 0.110513 0.389487 0.669622
O O1 0.865711 0.805046 0.730699
O O2 0.747757 0.752243 0.804086
O O3 0.753595 0.883124 0.785543
O O4 0.814681 0.819902 0.000000
O O5 0.283746 0.500000 0.250000
O O6 0.305046 0.634289 0.230699
O O7 0.182550 0.584798 0.232695
O O8 0.261023 0.564362 0.000000
O O9 0.064362 0.238977 0.500000
O O10 0.084798 0.317450 0.267305
O O11 0.000000 0.216254 0.250000
O O12 0.319901 0.685319 0.500000
O O13 0.383124 0.746405 0.714457
O O14 0.378936 0.121064 0.221223
O O15 0.316185 0.000000 0.250000
O O16 0.316226 0.067704 0.000000
O O17 0.500000 0.183815 0.250000
O O18 0.567703 0.183774 0.500000
O O19 0.947501 0.552499 0.326674
O O20 0.125916 0.374084 0.500000
#
# Coordination Sequence:
#
# PCOD9394264 Si02
#       8
#     8   8   8   8   8   8   2   8
#     4   9  18  34  54  75 101 137 176 218 264 311
#     4  11  21  34  49  72  99 130 175 223 268 316
#     4  11  21  34  49  72  99 130 175 223 268 316
#     4   9  18  34  54  75 101 137 176 218 264 311
#     4   9  19  35  55  82 115 146 178 210 250 306
#     4   9  19  35  55  82 115 146 178 210 250 306
#     4  12  18  36  44  58 100 140 170 208 266 320
#     4  10  21  31  43  64  93 129 169 211 258 313
#
# _framework density 16.677655999999999
#
# number of rings (size 3 to 8) (size 9 to 14) (size 15 to 20)
#    0.000    2.207    2.759    2.690    0.000    1.931 
#    0.000    4.138    0.000    0.828    0.000    5.793 
#    0.000    0.000    0.000    0.000    0.000    0.000 
#
# Total GULP energy -323305.655672 kJ/mol
# GULP energy per Si atom -5574.235443 kJ/mol
# Density = 1.663970 g / cm^3
# Si number density = 16.677656 Si / 1000 Ang^3
#
#
#
# Elastic Constant Matrix: (Units=GPa)
#
#
# Indices 1 2 3 4 5 6 
#
# 1 122.5183 69.1382 49.2597 0.0000 0.0000 0.0000
# 2 69.1382 122.5182 49.2597 0.0000 0.0000 0.0000
# 3 49.2597 49.2597 50.6078 0.0000 0.0000 0.0000
# 4 0.0000 0.0000 0.0000 25.2409 0.0000 0.0000
# 5 0.0000 0.0000 0.0000 0.0000 25.2409 0.0000
# 6 0.0000 0.0000 0.0000 0.0000 0.0000 13.3322
#
#
#
# Elastic Compliance Matrix: (Units=1/GPa)
#
#
# Indices 1 2 3 4 5 6 
#
# 1 0.014588 -0.004145 -0.010164 0.000000 0.000000 0.000000
# 2 -0.004145 0.014588 -0.010164 0.000000 0.000000 0.000000
# 3 -0.010164 -0.010164 0.039547 0.000000 0.000000 0.000000
# 4 0.000000 0.000000 0.000000 0.039618 0.000000 0.000000
# 5 0.000000 0.000000 0.000000 0.000000 0.039618 0.000000
# 6 0.000000 0.000000 0.000000 0.000000 0.000000 0.075006
#
#
# Mechanical properties :
#
#
# Convention : Reuss Voigt Hill
#
# Bulk Modulus (GPa) = 50.56990 70.10663 60.33827
# Shear Modulus (GPa) = 17.95292 21.29526 19.62409
#
# Velocity S-wave (km/s) = 3.28451 3.57721 3.43398
# Velocity P-wave (km/s) = 6.69117 7.69347 7.20976
#
# Compressibility (1/GPa) = 0.01977461
#
# Stress axis : x y z
#
# Youngs Moduli (GPa) = 68.54908 68.54892 25.28629
#
# Poissons Ratio (x) = 0.28417 0.25702
# Poissons Ratio (y) = 0.28417 0.25702
# Poissons Ratio (z) = 0.69676 0.69676
#
# Static dielectric constant tensor:
#      x y z
#    x 1.555480 0.000000 0.000000 
#    y 0.000000 1.555480 0.000000 
#    z 0.000000 0.000000 1.560460 
# 
# From -- ./inp_files/5107.got.cif
#   From: 2010.05.17/outbox.cif.g08.bks.cpg/sg49_3_cif.got.tgz:5107.got - 2010.06.03 21:02:19.
