data_PCOD9394324
_publ_section_title
;
Structure prediction by ZEFSAII (Michael W. Deem and Ramdas Pophale) SiO2 
 PCOD9394324
Probable space group: P C C M
;
_chemical_formula_sum "Si O2"
_cell_formula_units_Z 56
_cell_length_a 9.914408
_cell_length_b 16.382724
_cell_length_c 18.507645
_cell_angle_alpha 90.000000
_cell_angle_beta 90.000000
_cell_angle_gamma 90.000000
_cell_volume 3006.104422
_symmetry_space_group_name_H-M "P C C M"
_symmetry_group_IT_number 49
_symmetry_cell_setting 'orthorhombic'
loop_
_space_group_symop_operation_xyz
x,y,z
-x,-y,z
x,-y,1/2-z
-x,y,1/2-z
-x,-y,-z
x,y,-z
-x,y,1/2+z
x,-y,1/2+z
loop_
_atom_site_type_symbol
_atom_site_label
_atom_site_fract_x
_atom_site_fract_y
_atom_site_fract_z
Si Si1 0.715703 0.946263 0.415681
Si Si2 0.398635 0.730110 0.684219
Si Si3 0.972212 0.907646 0.663812
Si Si4 0.406900 0.885239 0.416872
Si Si5 0.911834 0.262768 0.678355
Si Si6 0.087612 0.576715 0.414679
Si Si7 0.405498 0.422665 0.915929
O O1 0.761577 0.942664 0.500000
O O2 0.817130 0.899181 0.362645
O O3 0.563009 0.913137 0.414699
O O4 0.691488 0.040841 0.393707
O O5 0.500000 0.739964 0.750000
O O6 0.399586 0.807837 0.632682
O O7 0.241639 0.725838 0.704456
O O8 0.437351 0.650912 0.637672
O O9 0.000000 0.912036 0.750000
O O10 0.055585 0.826118 0.642391
O O11 0.000000 0.000000 0.634832
O O12 0.373440 0.866548 0.500000
O O13 0.941200 0.338321 0.625444
O O14 0.000000 0.267526 0.750000
O O15 0.060140 0.587038 0.500000
O O16 0.246882 0.557723 0.406735
O O17 0.000000 0.500000 0.388080
O O18 0.500000 0.500000 0.902089
O O19 0.424345 0.397949 0.000000
#
# Coordination Sequence:
#
# PCOD9394324 Si02
#       7
#     8   8   8   8   8   8   8
#     4   9  19  37  59  85 113 150 197 247 290 345
#     4  11  23  36  59  87 116 155 199 237 292 361
#     4  10  21  36  56  79 120 159 197 237 295 348
#     4   9  19  38  61  84 116 148 191 248 299 342
#     4  10  23  39  56  82 124 158 192 245 292 351
#     4   9  19  38  62  86 111 148 196 240 293 359
#     4   9  19  38  60  84 114 148 191 245 298 349
#
# _framework density 18.62876
#
# number of rings (size 3 to 8) (size 9 to 14) (size 15 to 20)
#    0.000    2.429    0.000    2.143    4.000    3.143 
#    0.000    3.571    0.000    0.000    0.000    0.000 
#    0.000    0.000    0.000    0.000    0.000    0.000 
#
# Total GULP energy -312082.154066 kJ/mol
# GULP energy per Si atom -5572.895608 kJ/mol
# Density = 1.858636 g / cm^3
# Si number density = 18.628760 Si / 1000 Ang^3
#
#
#
# Elastic Constant Matrix: (Units=GPa)
#
#
# Indices 1 2 3 4 5 6 
#
# 1 66.2641 46.6662 43.7347 0.0000 0.0000 0.0000
# 2 46.6662 117.0554 45.4452 0.0000 0.0000 0.0000
# 3 43.7347 45.4452 53.8286 0.0000 0.0000 0.0000
# 4 0.0000 0.0000 0.0000 -95.1420 0.0000 0.0000
# 5 0.0000 0.0000 0.0000 0.0000 47.9146 0.0000
# 6 0.0000 0.0000 0.0000 0.0000 0.0000 31.6824
#
#
#
# Elastic Compliance Matrix: (Units=1/GPa)
#
#
# Indices 1 2 3 4 5 6 
#
# 1 0.033870 -0.004194 -0.023979 0.000000 0.000000 0.000000
# 2 -0.004194 0.013228 -0.007760 0.000000 0.000000 0.000000
# 3 -0.023979 -0.007760 0.044611 0.000000 0.000000 0.000000
# 4 0.000000 0.000000 0.000000 -0.010511 0.000000 0.000000
# 5 0.000000 0.000000 0.000000 0.000000 0.020870 0.000000
# 6 0.000000 0.000000 0.000000 0.000000 0.000000 0.031563
#
#
# Mechanical properties :
#
#
# Convention : Reuss Voigt Hill
#
# Bulk Modulus (GPa) = 50.39209 56.53781 53.46495
# Shear Modulus (GPa) = 23.57242 3.64446 13.60844
#
# Velocity S-wave (km/s) = 3.56107 1.40022 2.70572
# Velocity P-wave (km/s) = 6.63459 5.74715 6.20675
#
# Compressibility (1/GPa) = 0.01984439
#
# Stress axis : x y z
#
# Youngs Moduli (GPa) = 29.52424 75.59900 22.41589
#
# Poissons Ratio (x) = 0.31704 0.53750
# Poissons Ratio (y) = 0.12382 0.17395
# Poissons Ratio (z) = 0.70795 0.58667
#
# Static dielectric constant tensor:
#      x y z
#    x 1.644790 0.000000 0.000000 
#    y 0.000000 1.659690 0.000000 
#    z 0.000000 0.000000 1.625930 
# 
# From -- ./inp_files/19855.got.cif
#   From: 2010.05.17/outbox.cif.g08.bks.cpg/sg49_10_cif.got.tgz:19855.got - 2010.06.03 21:02:19.
