data_PCOD9394730
_publ_section_title
;
Structure prediction by ZEFSAII (Michael W. Deem and Ramdas Pophale) SiO2 
 PCOD9394730
Probable space group: P C C M
;
_chemical_formula_sum "Si O2"
_cell_formula_units_Z 48
_cell_length_a 17.511769
_cell_length_b 9.414959
_cell_length_c 15.856129
_cell_angle_alpha 90.000000
_cell_angle_beta 90.000000
_cell_angle_gamma 90.000000
_cell_volume 2614.241010
_symmetry_space_group_name_H-M "P C C M"
_symmetry_group_IT_number 49
_symmetry_cell_setting 'orthorhombic'
loop_
_space_group_symop_operation_xyz
x,y,z
-x,-y,z
x,-y,1/2-z
-x,y,1/2-z
-x,-y,-z
x,y,-z
-x,y,1/2+z
x,-y,1/2+z
loop_
_atom_site_type_symbol
_atom_site_label
_atom_site_fract_x
_atom_site_fract_y
_atom_site_fract_z
Si Si1 0.908874 0.666666 0.743336
Si Si2 0.355291 0.169724 0.397981
Si Si3 0.818357 0.812545 0.403705
Si Si4 0.189535 0.104781 0.168827
Si Si5 0.502687 0.662703 0.103293
Si Si6 0.649164 0.158326 0.601869
O O1 0.887823 0.500000 0.750000
O O2 0.876412 0.730433 0.656066
O O3 0.870937 0.772387 0.811964
O O4 0.000000 0.677062 0.750000
O O5 0.354178 0.179862 0.500000
O O6 0.269331 0.210608 0.372122
O O7 0.425704 0.261302 0.366312
O O8 0.370312 0.005335 0.378227
O O9 0.824026 0.765151 0.500000
O O10 0.830126 0.983738 0.399770
O O11 0.269136 0.178760 0.145016
O O12 0.196905 0.000000 0.250000
O O13 0.500000 0.500000 0.128710
O O14 0.580244 0.741225 0.129346
O O15 0.502141 0.668837 0.000000
O O16 0.657718 0.170331 0.500000
#
# Coordination Sequence:
#
# PCOD9394730 Si02
#       6
#     8   8   8   8   8   8
#     4  10  22  40  57  77 110 147 172 202 266 338
#     4   8  14  26  45  69  97 130 168 214 261 298
#     4   9  18  35  59  84 106 134 181 229 262 302
#     4   9  18  33  55  78 101 133 173 219 268 315
#     4   9  16  24  38  66 102 135 168 207 251 299
#     4   9  16  28  47  72 100 130 169 213 256 303
#
# _framework density 18.360969999999998
#
# number of rings (size 3 to 8) (size 9 to 14) (size 15 to 20)
#    0.000    3.000    0.000    2.000    0.000    6.333 
#    0.000    7.500    0.000   17.000    0.000   11.667 
#    0.000    0.000    0.000    0.000    0.000    0.000 
#
# Total GULP energy -267419.404509 kJ/mol
# GULP energy per Si atom -5571.237594 kJ/mol
# Density = 1.831918 g / cm^3
# Si number density = 18.360970 Si / 1000 Ang^3
#
#
#
# Elastic Constant Matrix: (Units=GPa)
#
#
# Indices 1 2 3 4 5 6 
#
# 1 138.7924 99.9208 31.1514 0.0000 0.0000 0.0000
# 2 99.9208 103.8421 25.1445 0.0000 0.0000 0.0000
# 3 31.1514 25.1445 31.9397 0.0000 0.0000 0.0000
# 4 0.0000 0.0000 0.0000 10.5634 0.0000 0.0000
# 5 0.0000 0.0000 0.0000 0.0000 19.8153 0.0000
# 6 0.0000 0.0000 0.0000 0.0000 0.0000 -106.0208
#
#
#
# Elastic Compliance Matrix: (Units=1/GPa)
#
#
# Indices 1 2 3 4 5 6 
#
# 1 0.024526 -0.022002 -0.006600 0.000000 0.000000 0.000000
# 2 -0.022002 0.031635 -0.003446 0.000000 0.000000 0.000000
# 3 -0.006600 -0.003446 0.040459 0.000000 0.000000 0.000000
# 4 0.000000 0.000000 0.000000 0.094667 0.000000 0.000000
# 5 0.000000 0.000000 0.000000 0.000000 0.050466 0.000000
# 6 0.000000 0.000000 0.000000 0.000000 0.000000 -0.009432
#
#
# Mechanical properties :
#
#
# Convention : Reuss Voigt Hill
#
# Bulk Modulus (GPa) = 30.74578 65.22306 47.98442
# Shear Modulus (GPa) = 16.27294 -7.23793 4.51751
#
# Velocity S-wave (km/s) = 2.98027 -1.98761 1.57026
# Velocity P-wave (km/s) = 5.35016 5.50748 5.42939
#
# Compressibility (1/GPa) = 0.03252479
#
# Stress axis : x y z
#
# Youngs Moduli (GPa) = 40.77296 31.61010 24.71639
#
# Poissons Ratio (x) = 0.69548 0.16312
# Poissons Ratio (y) = 0.89708 0.08518
# Poissons Ratio (z) = 0.26909 0.10894
#
# Static dielectric constant tensor:
#      x y z
#    x 1.624230 0.000000 0.000000 
#    y 0.000000 1.611840 0.000000 
#    z 0.000000 0.000000 1.690330 
# 
# From -- ./inp_files/14038.got.cif
#   From: 2010.05.17/outbox.cif.g08.bks.cpg/sg49_8_cif.got.tgz:14038.got - 2010.06.03 21:02:19.
