data_PCOD9394770
_publ_section_title
;
Structure prediction by ZEFSAII (Michael W. Deem and Ramdas Pophale) SiO2 
 PCOD9394770
Probable space group: P C C M
;
_chemical_formula_sum "Si O2"
_cell_formula_units_Z 64
_cell_length_a 11.846912
_cell_length_b 15.011918
_cell_length_c 15.880271
_cell_angle_alpha 90.000000
_cell_angle_beta 90.000000
_cell_angle_gamma 90.000000
_cell_volume 2824.224755
_symmetry_space_group_name_H-M "P C C M"
_symmetry_group_IT_number 49
_symmetry_cell_setting 'orthorhombic'
loop_
_space_group_symop_operation_xyz
x,y,z
-x,-y,z
x,-y,1/2-z
-x,y,1/2-z
-x,-y,-z
x,y,-z
-x,y,1/2+z
x,-y,1/2+z
loop_
_atom_site_type_symbol
_atom_site_label
_atom_site_fract_x
_atom_site_fract_y
_atom_site_fract_z
Si Si1 0.756530 0.294866 0.598773
Si Si2 0.261318 0.113604 0.824114
Si Si3 0.380667 0.952244 0.909526
Si Si4 0.015453 0.290626 0.399948
Si Si5 0.248541 0.632306 0.100811
Si Si6 0.393236 0.218940 0.688370
Si Si7 0.037643 0.899287 0.404503
Si Si8 0.384086 0.543005 0.399398
O O1 0.764125 0.314696 0.500000
O O2 0.714202 0.193954 0.609931
O O3 0.886290 0.303257 0.632349
O O4 0.666387 0.364825 0.635954
O O5 0.303794 0.159921 0.740638
O O6 0.128514 0.104180 0.831144
O O7 0.313370 0.018507 0.847488
O O8 0.414021 0.851984 0.885458
O O9 0.500000 0.000000 0.915125
O O10 0.320025 0.952702 0.000000
O O11 0.009782 0.309815 0.500000
O O12 0.043568 0.185013 0.390863
O O13 0.121544 0.346908 0.368143
O O14 0.337143 0.693636 0.150568
O O15 0.286792 0.530700 0.110061
O O16 0.254913 0.653080 0.000000
O O17 0.500000 0.231783 0.750000
O O18 0.085208 0.881417 0.500000
O O19 0.000000 0.000000 0.406812
O O20 0.500000 0.500000 0.365092
O O21 0.405329 0.557090 0.500000
#
# Coordination Sequence:
#
# PCOD9394770 Si02
#       8
#     8   8   8   8   8   8   8   8
#     4   9  18  36  62  93 128 165 207 261 316 372
#     4  11  22  38  62  88 123 164 203 250 318 373
#     4  11  23  40  62  85 112 159 210 250 298 371
#     4   8  16  33  58  90 123 158 206 258 306 363
#     4  10  22  41  64  90 121 165 213 258 315 379
#     4  12  26  42  58  86 129 163 199 260 317 372
#     4   9  18  34  58  91 125 161 209 257 300 362
#     4   9  19  34  59  95 129 159 208 267 311 367
#
# _framework density 22.661086000000001
#
# number of rings (size 3 to 8) (size 9 to 14) (size 15 to 20)
#    0.000    2.125    1.250    2.625    3.500    0.500 
#    0.000    5.625    0.000    0.000    0.000    3.500 
#    0.000    0.000    0.000    0.000    0.000    0.000 
#
# Total GULP energy -356806.387679 kJ/mol
# GULP energy per Si atom -5575.099807 kJ/mol
# Density = 2.260951 g / cm^3
# Si number density = 22.661086 Si / 1000 Ang^3
#
#
#
# Elastic Constant Matrix: (Units=GPa)
#
#
# Indices 1 2 3 4 5 6 
#
# 1 69.3061 28.3794 2.5816 0.0000 0.0000 0.0000
# 2 28.3794 81.8025 3.8092 0.0000 0.0000 0.0000
# 3 2.5816 3.8092 32.9448 0.0000 0.0000 0.0000
# 4 0.0000 0.0000 0.0000 11.3621 0.0000 0.0000
# 5 0.0000 0.0000 0.0000 0.0000 12.6126 0.0000
# 6 0.0000 0.0000 0.0000 0.0000 0.0000 31.3215
#
#
#
# Elastic Compliance Matrix: (Units=1/GPa)
#
#
# Indices 1 2 3 4 5 6 
#
# 1 0.016832 -0.005809 -0.000647 0.000000 0.000000 0.000000
# 2 -0.005809 0.014296 -0.001198 0.000000 0.000000 0.000000
# 3 -0.000647 -0.001198 0.030543 0.000000 0.000000 0.000000
# 4 0.000000 0.000000 0.000000 0.088012 0.000000 0.000000
# 5 0.000000 0.000000 0.000000 0.000000 0.079286 0.000000
# 6 0.000000 0.000000 0.000000 0.000000 0.000000 0.031927
#
#
# Mechanical properties :
#
#
# Convention : Reuss Voigt Hill
#
# Bulk Modulus (GPa) = 21.56940 28.17710 24.87325
# Shear Modulus (GPa) = 17.14341 21.01145 19.07743
#
# Velocity S-wave (km/s) = 2.75346 3.04831 2.90463
# Velocity P-wave (km/s) = 4.43257 4.98505 4.71690
#
# Compressibility (1/GPa) = 0.04636197
#
# Stress axis : x y z
#
# Youngs Moduli (GPa) = 59.41208 69.95109 32.74075
#
# Poissons Ratio (x) = 0.40636 0.02119
# Poissons Ratio (y) = 0.34514 0.03921
# Poissons Ratio (z) = 0.03845 0.08378
#
# Static dielectric constant tensor:
#      x y z
#    x 1.897030 0.000000 0.000000 
#    y 0.000000 1.984950 0.000000 
#    z 0.000000 0.000000 1.998790 
# 
# From -- ./inp_files/17256.got.cif
#   From: 2010.05.17/outbox.cif.g08.bks.cpg/sg49_9_cif.got.tgz:17256.got - 2010.06.03 21:02:19.
