data_PCOD9394632
_publ_section_title
;
Structure prediction by ZEFSAII (Michael W. Deem and Ramdas Pophale) SiO2 
 PCOD9394632
Probable space group: P C C M
;
_chemical_formula_sum "Si O2"
_cell_formula_units_Z 48
_cell_length_a 19.998535
_cell_length_b 8.629892
_cell_length_c 14.661059
_cell_angle_alpha 90.000000
_cell_angle_beta 90.000000
_cell_angle_gamma 90.000000
_cell_volume 2530.281759
_symmetry_space_group_name_H-M "P C C M"
_symmetry_group_IT_number 49
_symmetry_cell_setting 'orthorhombic'
loop_
_space_group_symop_operation_xyz
x,y,z
-x,-y,z
x,-y,1/2-z
-x,y,1/2-z
-x,-y,-z
x,y,-z
-x,y,1/2+z
x,-y,1/2+z
loop_
_atom_site_type_symbol
_atom_site_label
_atom_site_fract_x
_atom_site_fract_y
_atom_site_fract_z
Si Si1 0.853565 0.186599 0.108200
Si Si2 0.249480 0.682955 0.250001
Si Si3 0.146433 0.186603 0.108200
Si Si4 0.499999 0.686213 0.106027
Si Si5 0.397556 0.184292 0.750002
Si Si6 0.999999 0.180878 0.110708
O O1 0.794955 0.265478 0.163819
O O2 0.927670 0.244411 0.138192
O O3 0.851545 0.999998 0.122937
O O4 0.847071 0.212515 0.000000
O O5 0.260059 0.500000 0.250000
O O6 0.205042 0.734516 0.336182
O O7 0.320733 0.766467 0.250004
O O8 0.072328 0.244413 0.138192
O O9 0.152926 0.212518 0.000000
O O10 0.500000 0.500000 0.110531
O O11 0.563780 0.748768 0.161823
O O12 0.436218 0.748764 0.161826
O O13 0.499997 0.733079 0.000000
O O14 0.404164 0.000000 0.750000
O O15 0.999999 0.183082 0.000000
O O16 0.000000 0.000000 0.137704
#
# Coordination Sequence:
#
# PCOD9394632 Si02
#       6
#     8   8   8   8   8   8
#     4   9  18  35  58  81 106 141 189 240 286 335
#     4  12  25  38  53  78 117 156 187 226 281 340
#     4   9  18  35  58  81 106 141 189 240 286 335
#     4  10  21  40  67  95 122 150 177 213 270 333
#     4  11  23  40  62  87 117 150 190 235 267 310
#     4   7  12  27  53  80 103 133 180 238 289 331
#
# _framework density 18.970220000000001
#
# number of rings (size 3 to 8) (size 9 to 14) (size 15 to 20)
#    0.000    2.333    0.000    6.500    0.000    4.000 
#    0.000    4.167    0.000    3.000    0.000    0.000 
#    0.000    0.000    0.000    0.000    0.000    0.000 
#
# Total GULP energy -267918.143505 kJ/mol
# GULP energy per Si atom -5581.627990 kJ/mol
# Density = 1.892704 g / cm^3
# Si number density = 18.970220 Si / 1000 Ang^3
#
#
#
# Elastic Constant Matrix: (Units=GPa)
#
#
# Indices 1 2 3 4 5 6 
#
# 1 166.8344 38.4143 61.8824 0.0000 0.0000 0.0000
# 2 38.4143 70.8164 44.7623 0.0000 0.0000 0.0000
# 3 61.8824 44.7623 120.3212 0.0000 0.0000 0.0000
# 4 0.0000 0.0000 0.0000 27.7504 0.0000 0.0000
# 5 0.0000 0.0000 0.0000 0.0000 11.9104 0.0000
# 6 0.0000 0.0000 0.0000 0.0000 0.0000 107.0231
#
#
#
# Elastic Compliance Matrix: (Units=1/GPa)
#
#
# Indices 1 2 3 4 5 6 
#
# 1 0.007655 -0.002175 -0.003128 0.000000 0.000000 0.000000
# 2 -0.002175 0.019081 -0.005980 0.000000 0.000000 0.000000
# 3 -0.003128 -0.005980 0.012144 0.000000 0.000000 0.000000
# 4 0.000000 0.000000 0.000000 0.036036 0.000000 0.000000
# 5 0.000000 0.000000 0.000000 0.000000 0.083960 0.000000
# 6 0.000000 0.000000 0.000000 0.000000 0.000000 0.009344
#
#
# Mechanical properties :
#
#
# Convention : Reuss Voigt Hill
#
# Bulk Modulus (GPa) = 61.29549 72.01001 66.65275
# Shear Modulus (GPa) = 25.48118 43.53099 34.50608
#
# Velocity S-wave (km/s) = 3.66897 4.79550 4.26955
# Velocity P-wave (km/s) = 7.09437 8.28881 7.71474
#
# Compressibility (1/GPa) = 0.01631441
#
# Stress axis : x y z
#
# Youngs Moduli (GPa) = 130.63326 52.40888 82.34336
#
# Poissons Ratio (x) = 0.11401 0.25755
# Poissons Ratio (y) = 0.28419 0.49238
# Poissons Ratio (z) = 0.40859 0.31338
#
# Static dielectric constant tensor:
#      x y z
#    x 1.651000 0.000000 0.000000 
#    y 0.000000 1.637970 0.000000 
#    z 0.000000 0.000000 1.670220 
# 
# From -- ./inp_files/14016.got.cif
#   From: 2010.05.17/outbox.cif.g08.bks.cpg/sg49_8_cif.got.tgz:14016.got - 2010.06.03 21:02:19.
