data_PCOD9394514
_publ_section_title
;
Structure prediction by ZEFSAII (Michael W. Deem and Ramdas Pophale) SiO2 
 PCOD9394514
Probable space group: P C C M
;
_chemical_formula_sum "Si O2"
_cell_formula_units_Z 38
_cell_length_a 9.320073
_cell_length_b 8.374290
_cell_length_c 25.762012
_cell_angle_alpha 90.000000
_cell_angle_beta 90.000000
_cell_angle_gamma 90.000000
_cell_volume 2010.699123
_symmetry_space_group_name_H-M "P C C M"
_symmetry_group_IT_number 49
_symmetry_cell_setting 'orthorhombic'
loop_
_space_group_symop_operation_xyz
x,y,z
-x,-y,z
x,-y,1/2-z
-x,y,1/2-z
-x,-y,-z
x,y,-z
-x,y,1/2+z
x,-y,1/2+z
loop_
_atom_site_type_symbol
_atom_site_label
_atom_site_fract_x
_atom_site_fract_y
_atom_site_fract_z
Si Si1 0.075242 0.336966 0.060925
Si Si2 0.581719 0.332344 0.557310
Si Si3 0.000000 0.000000 0.115117
Si Si4 0.500000 0.500000 0.750000
Si Si5 0.257150 0.956717 0.806147
Si Si6 0.479641 0.238051 0.172027
O O1 0.247606 0.354062 0.065126
O O2 0.000000 0.500000 0.081983
O O3 0.031763 0.165190 0.084542
O O4 0.037761 0.329488 0.000000
O O5 0.500000 0.500000 0.554568
O O6 0.561668 0.253469 0.500000
O O7 0.522147 0.255429 0.609943
O O8 0.863478 0.038352 0.150807
O O9 0.575048 0.615927 0.792331
O O10 0.358271 0.800705 0.809433
O O11 0.195009 0.000000 0.750000
O O12 0.372585 0.095151 0.816226
#
# Coordination Sequence:
#
# PCOD9394514 Si02
#       6
#     8   8   4   2   8   8
#     4  10  23  43  64  91 129 172 215 260 321 391
#     4  10  21  38  62  94 127 160 208 270 322 371
#     4  12  24  40  66  92 128 172 208 264 322 392
#     4  12  20  34  70  90 116 162 220 256 312 398
#     4  11  23  42  59  88 125 165 203 261 323 378
#     4  11  21  39  64  90 121 161 213 258 314 384
#
# _framework density 18.898899
#
# number of rings (size 3 to 8) (size 9 to 14) (size 15 to 20)
#    0.000    1.263    5.263    1.263    2.947    0.000 
#    0.000    3.158    0.000    2.526    0.000    0.000 
#    0.000    0.000    0.000    0.000    0.000    0.000 
#
# Total GULP energy -211552.836099 kJ/mol
# GULP energy per Si atom -5567.179897 kJ/mol
# Density = 1.885588 g / cm^3
# Si number density = 18.898899 Si / 1000 Ang^3
#
#
#
# Elastic Constant Matrix: (Units=GPa)
#
#
# Indices 1 2 3 4 5 6 
#
# 1 88.1465 44.2517 28.4791 0.0000 0.0000 0.0000
# 2 44.2517 102.8954 47.2891 0.0000 0.0000 0.0000
# 3 28.4791 47.2891 128.2395 0.0000 0.0000 0.0000
# 4 0.0000 0.0000 0.0000 27.9228 0.0000 0.0000
# 5 0.0000 0.0000 0.0000 0.0000 16.2958 0.0000
# 6 0.0000 0.0000 0.0000 0.0000 0.0000 18.2679
#
#
#
# Elastic Compliance Matrix: (Units=1/GPa)
#
#
# Indices 1 2 3 4 5 6 
#
# 1 0.014600 -0.005766 -0.001116 0.000000 0.000000 0.000000
# 2 -0.005766 0.013979 -0.003874 0.000000 0.000000 0.000000
# 3 -0.001116 -0.003874 0.009474 0.000000 0.000000 0.000000
# 4 0.000000 0.000000 0.000000 0.035813 0.000000 0.000000
# 5 0.000000 0.000000 0.000000 0.000000 0.061366 0.000000
# 6 0.000000 0.000000 0.000000 0.000000 0.000000 0.054741
#
#
# Mechanical properties :
#
#
# Convention : Reuss Voigt Hill
#
# Bulk Modulus (GPa) = 60.45739 62.14679 61.30209
# Shear Modulus (GPa) = 23.04156 25.78141 24.41148
#
# Velocity S-wave (km/s) = 3.49549 3.69748 3.59791
# Velocity P-wave (km/s) = 6.95346 7.15428 7.05459
#
# Compressibility (1/GPa) = 0.01654058
#
# Stress axis : x y z
#
# Youngs Moduli (GPa) = 68.49300 71.53617 105.54715
#
# Poissons Ratio (x) = 0.41248 0.11780
# Poissons Ratio (y) = 0.39493 0.40892
# Poissons Ratio (z) = 0.07644 0.27715
#
# Static dielectric constant tensor:
#      x y z
#    x 1.636160 0.000000 0.000000 
#    y 0.000000 1.625160 0.000000 
#    z 0.000000 0.000000 1.723160 
# 
# From -- ./inp_files/22239.got.cif
#   From: 2010.05.17/outbox.cif.g08.bks.cpg/sg49_12_cif.got.tgz:22239.got - 2010.06.03 21:02:19.
