data_PCOD9394666
_publ_section_title
;
Structure prediction by ZEFSAII (Michael W. Deem and Ramdas Pophale) SiO2 
 PCOD9394666
Probable space group: P C C M
;
_chemical_formula_sum "Si O2"
_cell_formula_units_Z 30
_cell_length_a 5.634326
_cell_length_b 21.614799
_cell_length_c 11.460327
_cell_angle_alpha 90.000000
_cell_angle_beta 90.000000
_cell_angle_gamma 90.000000
_cell_volume 1395.693907
_symmetry_space_group_name_H-M "P C C M"
_symmetry_group_IT_number 49
_symmetry_cell_setting 'orthorhombic'
loop_
_space_group_symop_operation_xyz
x,y,z
-x,-y,z
x,-y,1/2-z
-x,y,1/2-z
-x,-y,-z
x,y,-z
-x,y,1/2+z
x,-y,1/2+z
loop_
_atom_site_type_symbol
_atom_site_label
_atom_site_fract_x
_atom_site_fract_y
_atom_site_fract_z
Si Si1 0.500000 0.500000 0.750000
Si Si2 0.633505 0.281819 0.874116
Si Si3 0.749713 0.962475 0.500000
Si Si4 0.248134 0.146379 0.316613
Si Si5 0.861450 0.413344 0.869853
O O1 0.632282 0.454104 0.840171
O O2 0.500000 0.285904 0.750000
O O3 0.751446 0.214271 0.874976
O O4 0.806330 0.340400 0.872502
O O5 0.497851 0.286915 0.000000
O O6 0.748345 0.915085 0.392986
O O7 0.500000 0.000000 0.500000
O O8 0.000000 0.000000 0.500000
O O9 0.500000 0.145478 0.250000
O O10 0.000000 0.143786 0.250000
O O11 0.000000 0.425708 0.750000
O O12 0.957411 0.428729 0.000000
#
# Coordination Sequence:
#
# PCOD9394666 Si02
#       5
#     2   8   4   8   8
#     4  12  24  44  68  96 142 180 236 282 370 418
#     4  10  21  43  71 104 138 182 237 296 356 420
#     4  12  26  44  68 104 144 185 239 291 363 434
#     4  11  24  44  70 101 140 187 238 297 360 428
#     4  11  25  43  68 101 137 182 235 293 358 429
#
# _framework density 21.494682999999998
#
# number of rings (size 3 to 8) (size 9 to 14) (size 15 to 20)
#    0.000    1.067    2.667    3.200    0.000    7.467 
#    2.400    0.000    0.000    0.000    0.000    0.000 
#    0.000    0.000    0.000    0.000    0.000    0.000 
#
# Total GULP energy -167023.311646 kJ/mol
# GULP energy per Si atom -5567.443722 kJ/mol
# Density = 2.144576 g / cm^3
# Si number density = 21.494683 Si / 1000 Ang^3
#
#
#
# Elastic Constant Matrix: (Units=GPa)
#
#
# Indices 1 2 3 4 5 6 
#
# 1 109.5085 53.3762 59.5658 0.0000 0.0000 0.0000
# 2 53.3762 167.4862 32.6189 0.0000 0.0000 0.0000
# 3 59.5658 32.6189 189.1876 0.0000 0.0000 0.0000
# 4 0.0000 0.0000 0.0000 72.1684 0.0000 0.0000
# 5 0.0000 0.0000 0.0000 0.0000 21.9818 0.0000
# 6 0.0000 0.0000 0.0000 0.0000 0.0000 -51.6526
#
#
#
# Elastic Compliance Matrix: (Units=1/GPa)
#
#
# Indices 1 2 3 4 5 6 
#
# 1 0.012614 -0.003359 -0.003392 0.000000 0.000000 0.000000
# 2 -0.003359 0.007073 -0.000162 0.000000 0.000000 0.000000
# 3 -0.003392 -0.000162 0.006382 0.000000 0.000000 0.000000
# 4 0.000000 0.000000 0.000000 0.013856 0.000000 0.000000
# 5 0.000000 0.000000 0.000000 0.000000 0.045492 0.000000
# 6 0.000000 0.000000 0.000000 0.000000 0.000000 -0.019360
#
#
# Mechanical properties :
#
#
# Convention : Reuss Voigt Hill
#
# Bulk Modulus (GPa) = 81.68763 84.14491 82.91627
# Shear Modulus (GPa) = 59.54848 29.87428 44.71138
#
# Velocity S-wave (km/s) = 5.26915 3.73211 4.56577
# Velocity P-wave (km/s) = 8.66630 7.60285 8.15194
#
# Compressibility (1/GPa) = 0.01224176
#
# Stress axis : x y z
#
# Youngs Moduli (GPa) = 79.27448 141.38775 156.69670
#
# Poissons Ratio (x) = 0.47498 0.53158
# Poissons Ratio (y) = 0.26631 0.02535
# Poissons Ratio (z) = 0.26893 0.02287
#
# Static dielectric constant tensor:
#      x y z
#    x 1.846280 0.000000 0.000000 
#    y 0.000000 1.738050 0.000000 
#    z 0.000000 0.000000 1.877900 
# 
# From -- ./inp_files/7411.got.cif
#   From: 2010.05.17/outbox.cif.g08.bks.cpg/sg49_4_cif.got.tgz:7411.got - 2010.06.03 21:02:19.
