data_PCOD9394092
_publ_section_title
;
Structure prediction by ZEFSAII (Michael W. Deem and Ramdas Pophale) SiO2 
 PCOD9394092
Probable space group: P C C M
;
_chemical_formula_sum "Si O2"
_cell_formula_units_Z 64
_cell_length_a 14.361702
_cell_length_b 25.041225
_cell_length_c 8.503079
_cell_angle_alpha 90.000000
_cell_angle_beta 90.000000
_cell_angle_gamma 90.000000
_cell_volume 3058.001510
_symmetry_space_group_name_H-M "P C C M"
_symmetry_group_IT_number 49
_symmetry_cell_setting 'orthorhombic'
loop_
_space_group_symop_operation_xyz
x,y,z
-x,-y,z
x,-y,1/2-z
-x,y,1/2-z
-x,-y,-z
x,y,-z
-x,y,1/2+z
x,-y,1/2+z
loop_
_atom_site_type_symbol
_atom_site_label
_atom_site_fract_x
_atom_site_fract_y
_atom_site_fract_z
Si Si1 0.394987 0.609044 0.688840
Si Si2 0.104966 0.110285 0.186601
Si Si3 0.393512 0.726779 0.689893
Si Si4 0.279938 0.943268 0.186109
Si Si5 0.893083 0.776287 0.310557
Si Si6 0.105806 0.659862 0.809768
Si Si7 0.781345 0.443501 0.812304
Si Si8 0.393881 0.157409 0.189245
O O1 0.500000 0.602302 0.750000
O O2 0.395392 0.607113 0.500000
O O3 0.359354 0.668356 0.741773
O O4 0.323878 0.566172 0.755750
O O5 0.174616 0.067076 0.256875
O O6 0.142944 0.168934 0.236638
O O7 0.000000 0.105068 0.250000
O O8 0.103898 0.107007 0.000000
O O9 0.500000 0.727579 0.750000
O O10 0.392393 0.726492 0.500000
O O11 0.354142 0.784254 0.742029
O O12 0.338889 0.893407 0.248947
O O13 0.314077 0.000000 0.250000
O O14 0.283181 0.943640 0.000000
O O15 0.891302 0.781084 0.500000
O O16 0.853623 0.718233 0.262732
O O17 0.000000 0.774262 0.250000
O O18 0.160758 0.607858 0.753577
O O19 0.000000 0.656878 0.750000
O O20 0.104873 0.659606 0.000000
O O21 0.817025 0.500000 0.750000
O O22 0.784387 0.443872 0.000000
O O23 0.500000 0.154504 0.250000
O O24 0.393371 0.156404 0.000000
#
# Coordination Sequence:
#
# PCOD9394092 Si02
#       8
#     8   8   8   8   8   8   8   8
#     4  10  20  37  60  87 116 150 186 230 283 338
#     4  11  22  39  62  90 121 155 191 235 287 344
#     4   8  16  31  55  86 119 149 184 225 277 339
#     4  12  26  44  62  85 115 153 200 248 291 341
#     4   9  16  31  55  86 118 150 186 229 281 341
#     4   9  20  37  59  85 116 150 188 233 286 340
#     4  11  24  41  57  80 111 148 194 242 284 336
#     4  10  20  38  62  91 123 157 193 236 287 343
#
# _framework density 20.928702000000001
#
# number of rings (size 3 to 8) (size 9 to 14) (size 15 to 20)
#    0.000    2.000    0.000    4.500    0.000    4.500 
#    0.000    7.500    0.000    0.000    0.000    0.000 
#    0.000    0.000    0.000    0.000    0.000    0.000 
#
# Total GULP energy -357419.541545 kJ/mol
# GULP energy per Si atom -5584.680337 kJ/mol
# Density = 2.088107 g / cm^3
# Si number density = 20.928702 Si / 1000 Ang^3
#
#
#
# Elastic Constant Matrix: (Units=GPa)
#
#
# Indices 1 2 3 4 5 6 
#
# 1 42.1761 13.3308 -2.6790 0.0000 0.0000 0.0000
# 2 13.3308 115.9701 23.3105 0.0000 0.0000 0.0000
# 3 -2.6790 23.3105 75.1366 0.0000 0.0000 0.0000
# 4 0.0000 0.0000 0.0000 33.0718 0.0000 0.0000
# 5 0.0000 0.0000 0.0000 0.0000 18.7738 0.0000
# 6 0.0000 0.0000 0.0000 0.0000 0.0000 33.8637
#
#
#
# Elastic Compliance Matrix: (Units=1/GPa)
#
#
# Indices 1 2 3 4 5 6 
#
# 1 0.024853 -0.003237 0.001890 0.000000 0.000000 0.000000
# 2 -0.003237 0.009618 -0.003099 0.000000 0.000000 0.000000
# 3 0.001890 -0.003099 0.014338 0.000000 0.000000 0.000000
# 4 0.000000 0.000000 0.000000 0.030237 0.000000 0.000000
# 5 0.000000 0.000000 0.000000 0.000000 0.053266 0.000000
# 6 0.000000 0.000000 0.000000 0.000000 0.000000 0.029530
#
#
# Mechanical properties :
#
#
# Convention : Reuss Voigt Hill
#
# Bulk Modulus (GPa) = 25.05159 33.46751 29.25955
# Shear Modulus (GPa) = 27.16805 30.42991 28.79898
#
# Velocity S-wave (km/s) = 3.60686 3.81725 3.71354
# Velocity P-wave (km/s) = 5.41681 5.95436 5.69193
#
# Compressibility (1/GPa) = 0.03991762
#
# Stress axis : x y z
#
# Youngs Moduli (GPa) = 40.23617 103.97211 69.74458
#
# Poissons Ratio (x) = 0.33654 -0.13184
# Poissons Ratio (y) = 0.13024 0.21616
# Poissons Ratio (z) = -0.07606 0.32224
#
# Static dielectric constant tensor:
#      x y z
#    x 1.684510 0.000000 0.000000 
#    y 0.000000 1.792500 0.000000 
#    z 0.000000 0.000000 1.728130 
# 
# From -- ./inp_files/4353.got.cif
#   From: 2010.05.17/outbox.cif.g08.bks.cpg/sg49_3_cif.got.tgz:4353.got - 2010.06.03 21:02:19.
