data_PCOD9394679
_publ_section_title
;
Structure prediction by ZEFSAII (Michael W. Deem and Ramdas Pophale) SiO2 
 PCOD9394679
Probable space group: P C C M
;
_chemical_formula_sum "Si O2"
_cell_formula_units_Z 34
_cell_length_a 5.032271
_cell_length_b 17.458148
_cell_length_c 19.721580
_cell_angle_alpha 90.000000
_cell_angle_beta 90.000000
_cell_angle_gamma 90.000000
_cell_volume 1732.622290
_symmetry_space_group_name_H-M "P C C M"
_symmetry_group_IT_number 49
_symmetry_cell_setting 'orthorhombic'
loop_
_space_group_symop_operation_xyz
x,y,z
-x,-y,z
x,-y,1/2-z
-x,y,1/2-z
-x,-y,-z
x,y,-z
-x,y,1/2+z
x,-y,1/2+z
loop_
_atom_site_type_symbol
_atom_site_label
_atom_site_fract_x
_atom_site_fract_y
_atom_site_fract_z
Si Si1 0.356974 0.166129 0.420316
Si Si2 0.000000 0.000000 0.750000
Si Si3 0.860397 0.924423 0.879720
Si Si4 0.604981 0.673980 0.082456
Si Si5 0.896373 0.582484 0.582565
O O1 0.297215 0.175282 0.500000
O O2 0.584017 0.101967 0.410496
O O3 0.488343 0.244923 0.394605
O O4 0.083465 0.141002 0.385936
O O5 0.171469 0.051140 0.801330
O O6 0.000000 0.000000 0.911968
O O7 0.897338 0.648596 0.103876
O O8 0.398602 0.607263 0.101913
O O9 0.611368 0.678079 0.000000
O O10 0.898495 0.580169 0.500000
O O11 0.000000 0.500000 0.605846
#
# Coordination Sequence:
#
# PCOD9394679 Si02
#       5
#     8   2   8   8   8
#     4  11  21  33  51  77 103 133 162 202 256 297
#     4   8  24  42  54  74  92 126 174 204 264 282
#     4  10  22  37  55  70  97 130 167 207 252 296
#     4   9  17  27  39  61  95 125 158 196 234 281
#     4   9  15  24  39  58  85 129 171 194 217 266
#
# _framework density 19.623436000000002
#
# number of rings (size 3 to 8) (size 9 to 14) (size 15 to 20)
#    0.706    1.647    0.000    3.529    0.000   11.294 
#    0.000    0.000    0.000    0.000    0.000    0.000 
#    0.000    0.000    0.000   74.118    0.000   32.941 
#
# Total GULP energy -189507.525560 kJ/mol
# GULP energy per Si atom -5573.750752 kJ/mol
# Density = 1.957877 g / cm^3
# Si number density = 19.623436 Si / 1000 Ang^3
#
#
#
# Elastic Constant Matrix: (Units=GPa)
#
#
# Indices 1 2 3 4 5 6 
#
# 1 72.1496 -11.8955 0.2812 0.0000 0.0000 0.0000
# 2 -11.8955 51.3413 4.9114 0.0000 0.0000 0.0000
# 3 0.2812 4.9114 27.4036 0.0000 0.0000 0.0000
# 4 0.0000 0.0000 0.0000 30.5316 0.0000 0.0000
# 5 0.0000 0.0000 0.0000 0.0000 -6.3211 0.0000
# 6 0.0000 0.0000 0.0000 0.0000 0.0000 29.6446
#
#
#
# Elastic Compliance Matrix: (Units=1/GPa)
#
#
# Indices 1 2 3 4 5 6 
#
# 1 0.014426 0.003415 -0.000760 0.000000 0.000000 0.000000
# 2 0.003415 0.020626 -0.003732 0.000000 0.000000 0.000000
# 3 -0.000760 -0.003732 0.037168 0.000000 0.000000 0.000000
# 4 0.000000 0.000000 0.000000 0.032753 0.000000 0.000000
# 5 0.000000 0.000000 0.000000 0.000000 -0.158201 0.000000
# 6 0.000000 0.000000 0.000000 0.000000 0.000000 0.033733
#
#
# Mechanical properties :
#
#
# Convention : Reuss Voigt Hill
#
# Bulk Modulus (GPa) = 14.27208 15.27650 14.77429
# Shear Modulus (GPa) = 831.47190 21.27752 426.37471
#
# Velocity S-wave (km/s) = 20.60664 3.29643 14.75635
# Velocity P-wave (km/s) = 23.94717 4.72126 17.25916
#
# Compressibility (1/GPa) = 0.07006686
#
# Stress axis : x y z
#
# Youngs Moduli (GPa) = 69.31867 48.48305 26.90478
#
# Poissons Ratio (x) = -0.16558 0.02045
# Poissons Ratio (y) = -0.23674 0.10040
# Poissons Ratio (z) = 0.05269 0.18092
#
# Static dielectric constant tensor:
#      x y z
#    x 1.678090 0.000000 0.000000 
#    y 0.000000 1.752020 0.000000 
#    z 0.000000 0.000000 1.661650 
# 
# From -- ./inp_files/18867.got.cif
#   From: 2010.05.17/outbox.cif.g08.bks.cpg/sg49_10_cif.got.tgz:18867.got - 2010.06.03 21:02:19.
