data_PCOD9394539
_publ_section_title
;
Structure prediction by ZEFSAII (Michael W. Deem and Ramdas Pophale) SiO2 
 PCOD9394539
Probable space group: P C C M
;
_chemical_formula_sum "Si O2"
_cell_formula_units_Z 56
_cell_length_a 22.079840
_cell_length_b 8.561584
_cell_length_c 14.228386
_cell_angle_alpha 90.000000
_cell_angle_beta 90.000000
_cell_angle_gamma 90.000000
_cell_volume 2689.711393
_symmetry_space_group_name_H-M "P C C M"
_symmetry_group_IT_number 49
_symmetry_cell_setting 'orthorhombic'
loop_
_space_group_symop_operation_xyz
x,y,z
-x,-y,z
x,-y,1/2-z
-x,y,1/2-z
-x,-y,-z
x,y,-z
-x,y,1/2+z
x,-y,1/2+z
loop_
_atom_site_type_symbol
_atom_site_label
_atom_site_fract_x
_atom_site_fract_y
_atom_site_fract_z
Si Si1 0.094724 0.111721 0.110740
Si Si2 0.131103 0.781652 0.205439
Si Si3 0.743027 0.798035 0.611311
Si Si4 0.365287 0.676584 0.225441
Si Si5 0.557830 0.105215 0.107070
Si Si6 0.976056 0.675468 0.604576
Si Si7 0.677487 0.110237 0.393794
O O1 0.137120 0.206026 0.182620
O O2 0.028782 0.195061 0.122192
O O3 0.103623 0.939189 0.154634
O O4 0.108854 0.113333 0.000000
O O5 0.195241 0.749547 0.160140
O O6 0.077174 0.667857 0.179431
O O7 0.748509 0.787494 0.500000
O O8 0.686604 0.696440 0.646563
O O9 0.727816 0.980779 0.633031
O O10 0.379112 0.500000 0.250000
O O11 0.423540 0.766745 0.183754
O O12 0.335608 0.761645 0.315694
O O13 0.500000 0.000000 0.130269
O O14 0.615898 0.991621 0.103689
O O15 0.549465 0.168269 0.000000
O O16 0.951469 0.714540 0.500000
O O17 0.000000 0.500000 0.599986
O O18 0.689354 0.167905 0.500000
#
# Coordination Sequence:
#
# PCOD9394539 Si02
#       7
#     8   8   8   8   8   8   8
#     4  10  22  37  57  85 114 148 198 256 317 384
#     4  11  22  37  62  86 113 153 206 267 317 371
#     4  10  21  40  63  87 117 162 217 268 312 373
#     4  11  23  38  60  93 134 169 204 257 323 375
#     4   9  18  37  66  94 123 167 218 261 300 356
#     4  10  21  39  59  84 119 156 195 250 329 403
#     4   9  20  37  60  87 122 166 213 257 301 359
#
# _framework density 20.820077000000001
#
# number of rings (size 3 to 8) (size 9 to 14) (size 15 to 20)
#    0.000    2.000    0.000    5.143    4.000    5.714 
#    2.571    1.429    0.000    2.571    0.000    0.000 
#    0.000    0.000    0.000    0.000    0.000    0.000 
#
# Total GULP energy -312518.773997 kJ/mol
# GULP energy per Si atom -5580.692393 kJ/mol
# Density = 2.077269 g / cm^3
# Si number density = 20.820077 Si / 1000 Ang^3
#
#
#
# Elastic Constant Matrix: (Units=GPa)
#
#
# Indices 1 2 3 4 5 6 
#
# 1 65.1847 16.2034 34.5070 0.0000 0.0000 0.0000
# 2 16.2034 43.6246 25.0012 0.0000 0.0000 0.0000
# 3 34.5070 25.0012 142.1870 0.0000 0.0000 0.0000
# 4 0.0000 0.0000 0.0000 16.6547 0.0000 0.0000
# 5 0.0000 0.0000 0.0000 0.0000 27.3823 0.0000
# 6 0.0000 0.0000 0.0000 0.0000 0.0000 8.7893
#
#
#
# Elastic Compliance Matrix: (Units=1/GPa)
#
#
# Indices 1 2 3 4 5 6 
#
# 1 0.018453 -0.004768 -0.003640 0.000000 0.000000 0.000000
# 2 -0.004768 0.026724 -0.003542 0.000000 0.000000 0.000000
# 3 -0.003640 -0.003542 0.008539 0.000000 0.000000 0.000000
# 4 0.000000 0.000000 0.000000 0.060043 0.000000 0.000000
# 5 0.000000 0.000000 0.000000 0.000000 0.036520 0.000000
# 6 0.000000 0.000000 0.000000 0.000000 0.000000 0.113775
#
#
# Mechanical properties :
#
#
# Convention : Reuss Voigt Hill
#
# Bulk Modulus (GPa) = 33.53855 44.71327 39.12591
# Shear Modulus (GPa) = 16.78462 22.25091 19.51776
#
# Velocity S-wave (km/s) = 2.84240 3.27268 3.06510
# Velocity P-wave (km/s) = 5.18807 5.98358 5.59997
#
# Compressibility (1/GPa) = 0.02981644
#
# Stress axis : x y z
#
# Youngs Moduli (GPa) = 54.19132 37.42017 117.10795
#
# Poissons Ratio (x) = 0.17842 0.42627
# Poissons Ratio (y) = 0.25838 0.41477
# Poissons Ratio (z) = 0.19726 0.13253
#
# Static dielectric constant tensor:
#      x y z
#    x 1.743830 0.000000 0.000000 
#    y 0.000000 1.796000 0.000000 
#    z 0.000000 0.000000 1.811710 
# 
# From -- ./inp_files/14394.got.cif
#   From: 2010.05.17/outbox.cif.g08.bks.cpg/sg49_8_cif.got.tgz:14394.got - 2010.06.03 21:02:19.
