data_PCOD9394500
_publ_section_title
;
Structure prediction by ZEFSAII (Michael W. Deem and Ramdas Pophale) SiO2 
 PCOD9394500
Probable space group: P C C M
;
_chemical_formula_sum "Si O2"
_cell_formula_units_Z 48
_cell_length_a 18.104631
_cell_length_b 15.379417
_cell_length_c 8.722158
_cell_angle_alpha 90.000000
_cell_angle_beta 90.000000
_cell_angle_gamma 90.000000
_cell_volume 2428.586071
_symmetry_space_group_name_H-M "P C C M"
_symmetry_group_IT_number 49
_symmetry_cell_setting 'orthorhombic'
loop_
_space_group_symop_operation_xyz
x,y,z
-x,-y,z
x,-y,1/2-z
-x,y,1/2-z
-x,-y,-z
x,y,-z
-x,y,1/2+z
x,-y,1/2+z
loop_
_atom_site_type_symbol
_atom_site_label
_atom_site_fract_x
_atom_site_fract_y
_atom_site_fract_z
Si Si1 0.304307 0.406844 0.683968
Si Si2 0.371049 0.905929 0.183107
Si Si3 0.139239 0.408864 0.184070
Si Si4 0.922210 0.224164 0.682777
Si Si5 0.195793 0.906323 0.182112
Si Si6 0.578023 0.273499 0.683000
O O1 0.330120 0.500000 0.750000
O O2 0.303782 0.408259 0.500000
O O3 0.221040 0.395432 0.746195
O O4 0.356509 0.330942 0.745731
O O5 0.283059 0.893989 0.212906
O O6 0.411033 0.825963 0.263900
O O7 0.392283 0.000000 0.250000
O O8 0.383016 0.903740 0.000000
O O9 0.110509 0.500000 0.250000
O O10 0.091464 0.324859 0.225337
O O11 0.145232 0.414794 0.000000
O O12 0.923750 0.217927 0.500000
O O13 0.854503 0.167670 0.745105
O O14 0.000000 0.193654 0.750000
O O15 0.174776 0.000000 0.250000
O O16 0.185726 0.906664 0.000000
O O17 0.500000 0.304881 0.750000
O O18 0.578983 0.279421 0.500000
#
# Coordination Sequence:
#
# PCOD9394500 Si02
#       6
#     8   8   8   8   8   8
#     4  11  22  39  63  90 118 152 194 240 289 344
#     4  10  21  39  63  91 119 153 194 240 290 343
#     4  10  21  38  61  88 116 151 193 240 288 340
#     4  11  24  39  57  83 117 154 194 237 288 344
#     4  10  21  38  62  88 116 149 190 237 286 340
#     4  12  25  41  60  86 120 157 196 240 290 347
#
# _framework density 19.764585
#
# number of rings (size 3 to 8) (size 9 to 14) (size 15 to 20)
#    0.000    1.333    0.000    7.000    0.000    8.667 
#    0.000    6.667    0.000    0.000    0.000    0.000 
#    0.000    0.000    0.000    0.000    0.000    0.000 
#
# Total GULP energy -268529.924315 kJ/mol
# GULP energy per Si atom -5594.373423 kJ/mol
# Density = 1.971960 g / cm^3
# Si number density = 19.764585 Si / 1000 Ang^3
#
#
#
# Elastic Constant Matrix: (Units=GPa)
#
#
# Indices 1 2 3 4 5 6 
#
# 1 25.8217 13.2501 19.1999 0.0000 0.0000 0.0000
# 2 13.2501 71.3147 25.5260 0.0000 0.0000 0.0000
# 3 19.1999 25.5260 88.8292 0.0000 0.0000 0.0000
# 4 0.0000 0.0000 0.0000 39.0288 0.0000 0.0000
# 5 0.0000 0.0000 0.0000 0.0000 8640.6378 0.0000
# 6 0.0000 0.0000 0.0000 0.0000 0.0000 -22.0902
#
#
#
# Elastic Compliance Matrix: (Units=1/GPa)
#
#
# Indices 1 2 3 4 5 6 
#
# 1 0.048223 -0.005828 -0.008748 0.000000 0.000000 0.000000
# 2 -0.005828 0.016334 -0.003434 0.000000 0.000000 0.000000
# 3 -0.008748 -0.003434 0.014135 0.000000 0.000000 0.000000
# 4 0.000000 0.000000 0.000000 0.025622 0.000000 0.000000
# 5 0.000000 0.000000 0.000000 0.000000 0.000116 0.000000
# 6 0.000000 0.000000 0.000000 0.000000 0.000000 -0.045269
#
#
# Mechanical properties :
#
#
# Convention : Reuss Voigt Hill
#
# Bulk Modulus (GPa) = 23.43509 33.54640 28.49075
# Shear Modulus (GPa) = 45.70112 1740.04791 892.87451
#
# Velocity S-wave (km/s) = 4.81383 29.70350 21.27758
# Velocity P-wave (km/s) = 6.54065 34.54573 24.86149
#
# Compressibility (1/GPa) = 0.04267106
#
# Stress axis : x y z
#
# Youngs Moduli (GPa) = 20.73709 61.22036 70.74506
#
# Poissons Ratio (x) = 0.35681 0.61889
# Poissons Ratio (y) = 0.12086 0.24295
# Poissons Ratio (z) = 0.18141 0.21024
#
# Static dielectric constant tensor:
#      x y z
#    x 1.678090 0.000000 0.000000 
#    y 0.000000 1.687670 0.000000 
#    z 0.000000 0.000000 1.653470 
# 
# From -- ./inp_files/3703.got.cif
#   From: 2010.05.17/outbox.cif.g08.bks.cpg/sg49_2_cif.got.tgz:3703.got - 2010.06.03 21:02:19.
