data_PCOD9394126
_publ_section_title
;
Structure prediction by ZEFSAII (Michael W. Deem and Ramdas Pophale) SiO2 
 PCOD9394126
Probable space group: P C C M
;
_chemical_formula_sum "Si O2"
_cell_formula_units_Z 64
_cell_length_a 9.869877
_cell_length_b 23.614535
_cell_length_c 13.950370
_cell_angle_alpha 90.000000
_cell_angle_beta 90.000000
_cell_angle_gamma 90.000000
_cell_volume 3251.448391
_symmetry_space_group_name_H-M "P C C M"
_symmetry_group_IT_number 49
_symmetry_cell_setting 'orthorhombic'
loop_
_space_group_symop_operation_xyz
x,y,z
-x,-y,z
x,-y,1/2-z
-x,y,1/2-z
-x,-y,-z
x,y,-z
-x,y,1/2+z
x,-y,1/2+z
loop_
_atom_site_type_symbol
_atom_site_label
_atom_site_fract_x
_atom_site_fract_y
_atom_site_fract_z
Si Si1 0.624976 0.332106 0.614554
Si Si2 0.356759 0.265139 0.384631
Si Si3 0.412047 0.056463 0.113306
Si Si4 0.389711 0.457059 0.115368
Si Si5 0.844251 0.932548 0.246933
Si Si6 0.155760 0.653563 0.226337
Si Si7 0.339603 0.863685 0.113950
Si Si8 0.140283 0.466755 0.384804
O O1 0.650076 0.328212 0.500000
O O2 0.507830 0.287693 0.640012
O O3 0.568699 0.394098 0.640823
O O4 0.762769 0.334765 0.674699
O O5 0.351156 0.265953 0.500000
O O6 0.239483 0.305781 0.345051
O O7 0.335740 0.200828 0.350924
O O8 0.269223 0.071948 0.162563
O O9 0.514278 0.108199 0.130618
O O10 0.500000 0.000000 0.143475
O O11 0.388464 0.048991 0.000000
O O12 0.500000 0.500000 0.149282
O O13 0.248442 0.484936 0.141995
O O14 0.388613 0.456599 0.000000
O O15 0.769706 0.903453 0.335880
O O16 0.000000 0.910700 0.250000
O O17 0.855867 0.000000 0.250000
O O18 0.156305 0.590443 0.178015
O O19 0.000000 0.667029 0.250000
O O20 0.317064 0.863861 0.000000
O O21 0.155167 0.452821 0.500000
O O22 0.000000 0.500000 0.372443
#
# Coordination Sequence:
#
# PCOD9394126 Si02
#       8
#     8   8   8   8   8   8   8   8
#     4  10  22  40  60  84 117 155 201 256 312 372
#     4  10  23  45  67  88 118 161 213 266 320 379
#     4  10  20  37  62  91 125 167 214 257 303 364
#     4   9  17  31  53  79 107 143 187 241 302 360
#     4  11  23  36  58  95 135 170 203 250 311 368
#     4  12  25  38  60  91 123 161 207 260 319 384
#     4  10  22  41  67  93 122 165 214 262 313 378
#     4  10  21  38  59  84 120 163 206 254 315 386
#
# _framework density 19.683534999999999
#
# number of rings (size 3 to 8) (size 9 to 14) (size 15 to 20)
#    0.000    1.750    1.250    2.625    0.000    8.750 
#    0.000    1.875    0.000    3.375    0.000    0.000 
#    0.000    0.000    0.000    0.000    0.000    0.000 
#
# Total GULP energy -356804.229979 kJ/mol
# GULP energy per Si atom -5575.066093 kJ/mol
# Density = 1.963873 g / cm^3
# Si number density = 19.683535 Si / 1000 Ang^3
#
#
#
# Elastic Constant Matrix: (Units=GPa)
#
#
# Indices 1 2 3 4 5 6 
#
# 1 109.8068 43.7860 46.1587 0.0000 0.0000 0.0000
# 2 43.7860 114.7587 33.4665 0.0000 0.0000 0.0000
# 3 46.1587 33.4665 99.0035 0.0000 0.0000 0.0000
# 4 0.0000 0.0000 0.0000 22.2786 0.0000 0.0000
# 5 0.0000 0.0000 0.0000 0.0000 72.0663 0.0000
# 6 0.0000 0.0000 0.0000 0.0000 0.0000 -25.3778
#
#
#
# Elastic Compliance Matrix: (Units=1/GPa)
#
#
# Indices 1 2 3 4 5 6 
#
# 1 0.012406 -0.003380 -0.004641 0.000000 0.000000 0.000000
# 2 -0.003380 0.010588 -0.002003 0.000000 0.000000 0.000000
# 3 -0.004641 -0.002003 0.012942 0.000000 0.000000 0.000000
# 4 0.000000 0.000000 0.000000 0.044886 0.000000 0.000000
# 5 0.000000 0.000000 0.000000 0.000000 0.013876 0.000000
# 6 0.000000 0.000000 0.000000 0.000000 0.000000 -0.039404
#
#
# Mechanical properties :
#
#
# Convention : Reuss Voigt Hill
#
# Bulk Modulus (GPa) = 62.94758 63.37681 63.16220
# Shear Modulus (GPa) = 62.00597 27.13726 44.57161
#
# Velocity S-wave (km/s) = 5.61870 3.71708 4.76375
# Velocity P-wave (km/s) = 8.61059 7.11970 7.90039
#
# Compressibility (1/GPa) = 0.01588623
#
# Stress axis : x y z
#
# Youngs Moduli (GPa) = 80.60793 94.44937 77.26895
#
# Poissons Ratio (x) = 0.31922 0.35864
# Poissons Ratio (y) = 0.27244 0.15479
# Poissons Ratio (z) = 0.37414 0.18920
#
# Static dielectric constant tensor:
#      x y z
#    x 1.786860 0.000000 0.000000 
#    y 0.000000 1.673690 0.000000 
#    z 0.000000 0.000000 1.758430 
# 
# From -- ./inp_files/12143.got.cif
#   From: 2010.05.17/outbox.cif.g08.bks.cpg/sg49_7_cif.got.tgz:12143.got - 2010.06.03 21:02:19.
