data_PCOD9394946
_publ_section_title
;
Structure prediction by ZEFSAII (Michael W. Deem and Ramdas Pophale) SiO2 
 PCOD9394946
Probable space group: P C C M
;
_chemical_formula_sum "Si O2"
_cell_formula_units_Z 18
_cell_length_a 5.209017
_cell_length_b 5.088173
_cell_length_c 26.843224
_cell_angle_alpha 90.000000
_cell_angle_beta 90.000000
_cell_angle_gamma 90.000000
_cell_volume 711.463000
_symmetry_space_group_name_H-M "P C C M"
_symmetry_group_IT_number 49
_symmetry_cell_setting 'orthorhombic'
loop_
_space_group_symop_operation_xyz
x,y,z
-x,-y,z
x,-y,1/2-z
-x,y,1/2-z
-x,-y,-z
x,y,-z
-x,y,1/2+z
x,-y,1/2+z
loop_
_atom_site_type_symbol
_atom_site_label
_atom_site_fract_x
_atom_site_fract_y
_atom_site_fract_z
Si Si1 0.681007 0.748891 0.336221
Si Si2 0.000000 0.500000 0.916878
Si Si3 0.000000 0.500000 0.250000
Si Si4 0.251427 0.183958 0.000000
O O1 0.500000 0.500000 0.343433
O O2 0.881332 0.723109 0.381329
O O3 0.831644 0.687592 0.285308
O O4 0.500000 0.000000 0.335001
O O5 0.214793 0.370995 0.952210
O O6 0.500000 0.000000 0.000000
O O7 0.000000 0.000000 0.000000
#
# Coordination Sequence:
#
# PCOD9394946 Si02
#       4
#     8   4   2   4
#     4  11  27  48  82 113 162 211 270 339 413 490
#     4  10  28  48  76 122 160 210 280 336 414 494
#     4  10  26  52  76 122 152 212 270 340 406 496
#     4  11  28  49  83 116 168 218 278 342 418 490
#
# _framework density 25.299985
#
# number of rings (size 3 to 8) (size 9 to 14) (size 15 to 20)
#    0.000    1.333    0.000    0.667   12.444   12.444 
#    0.000   10.000    0.000    0.000    0.000    0.000 
#    0.000    0.000    0.000    0.000    0.000    0.000 
#
# Total GULP energy -101085.321768 kJ/mol
# GULP energy per Si atom -5615.851209 kJ/mol
# Density = 2.524240 g / cm^3
# Si number density = 25.299985 Si / 1000 Ang^3
#
#
#
# Elastic Constant Matrix: (Units=GPa)
#
#
# Indices 1 2 3 4 5 6 
#
# 1 180.2501 104.9755 101.2817 0.0000 0.0000 0.0000
# 2 104.9755 217.1255 93.1823 0.0000 0.0000 0.0000
# 3 101.2817 93.1823 227.0258 0.0000 0.0000 0.0000
# 4 0.0000 0.0000 0.0000 -0.5803 0.0000 0.0000
# 5 0.0000 0.0000 0.0000 0.0000 19.3377 0.0000
# 6 0.0000 0.0000 0.0000 0.0000 0.0000 81.4664
#
#
#
# Elastic Compliance Matrix: (Units=1/GPa)
#
#
# Indices 1 2 3 4 5 6 
#
# 1 0.008882 -0.003148 -0.002670 0.000000 0.000000 0.000000
# 2 -0.003148 0.006706 -0.001348 0.000000 0.000000 0.000000
# 3 -0.002670 -0.001348 0.006149 0.000000 0.000000 0.000000
# 4 0.000000 0.000000 0.000000 -1.723110 0.000000 0.000000
# 5 0.000000 0.000000 0.000000 0.000000 0.051712 0.000000
# 6 0.000000 0.000000 0.000000 0.000000 0.000000 0.012275
#
#
# Mechanical properties :
#
#
# Convention : Reuss Voigt Hill
#
# Bulk Modulus (GPa) = 135.05481 135.92004 135.48742
# Shear Modulus (GPa) = -3.08531 41.70887 19.31178
#
# Velocity S-wave (km/s) = -1.10550 4.06467 2.76581
# Velocity P-wave (km/s) = 7.20193 8.71026 7.99176
#
# Compressibility (1/GPa) = 0.00740440
#
# Stress axis : x y z
#
# Youngs Moduli (GPa) = 112.59170 149.11461 162.61914
#
# Poissons Ratio (x) = 0.46944 0.43422
# Poissons Ratio (y) = 0.35446 0.21923
# Poissons Ratio (z) = 0.30064 0.20102
#
# Static dielectric constant tensor:
#      x y z
#    x 1.898830 0.000000 0.000000 
#    y 0.000000 1.967040 0.000000 
#    z 0.000000 0.000000 2.014530 
# 
# From -- ./inp_files/23520.got.cif
#   From: 2010.05.17/outbox.cif.g08.bks.cpg/sg49_12_cif.got.tgz:23520.got - 2010.06.03 21:02:19.
