data_PCOD9394583
_publ_section_title
;
Structure prediction by ZEFSAII (Michael W. Deem and Ramdas Pophale) SiO2 
 PCOD9394583
Probable space group: P C C M
;
_chemical_formula_sum "Si O2"
_cell_formula_units_Z 56
_cell_length_a 30.835945
_cell_length_b 5.048612
_cell_length_c 17.256679
_cell_angle_alpha 90.000000
_cell_angle_beta 90.000000
_cell_angle_gamma 90.000000
_cell_volume 2686.497732
_symmetry_space_group_name_H-M "P C C M"
_symmetry_group_IT_number 49
_symmetry_cell_setting 'orthorhombic'
loop_
_space_group_symop_operation_xyz
x,y,z
-x,-y,z
x,-y,1/2-z
-x,y,1/2-z
-x,-y,-z
x,y,-z
-x,y,1/2+z
x,-y,1/2+z
loop_
_atom_site_type_symbol
_atom_site_label
_atom_site_fract_x
_atom_site_fract_y
_atom_site_fract_z
Si Si1 0.449980 0.548161 0.158330
Si Si2 0.029645 0.741324 0.088956
Si Si3 0.834871 0.409516 0.409972
Si Si4 0.879441 0.899511 0.662238
Si Si5 0.689708 0.973851 0.158201
Si Si6 0.594834 0.955372 0.091588
Si Si7 0.266110 0.472661 0.591065
O O1 0.500000 0.500000 0.136825
O O2 0.445304 0.500000 0.250000
O O3 0.436664 0.843409 0.135916
O O4 0.418868 0.341043 0.114847
O O5 0.072232 0.819551 0.135885
O O6 0.000000 0.500000 0.119552
O O7 0.042260 0.670043 0.000000
O O8 0.000000 0.000000 0.086470
O O9 0.845028 0.474534 0.500000
O O10 0.852577 0.634239 0.353104
O O11 0.783007 0.421436 0.402020
O O12 0.857632 0.132713 0.388753
O O13 0.879082 0.000000 0.750000
O O14 0.643421 0.022001 0.118643
O O15 0.724860 0.183335 0.125848
O O16 0.685976 0.000000 0.250000
O O17 0.704036 0.680021 0.135445
O O18 0.590967 0.990806 0.000000
O O19 0.276922 0.467262 0.500000
#
# Coordination Sequence:
#
# PCOD9394583 Si02
#       7
#     8   8   8   8   8   8   8
#     4  11  24  43  66  93 127 165 207 258 318 382
#     4  10  21  39  64  90 119 160 206 249 300 368
#     4  11  24  43  67  92 127 173 215 258 314 384
#     4  12  25  41  64  97 133 166 210 268 322 373
#     4  12  25  42  65  93 128 167 209 260 320 381
#     4  12  25  42  65  93 127 166 211 262 313 374
#     4  11  24  43  66  94 126 165 214 264 315 373
#
# _framework density 20.844981000000001
#
# number of rings (size 3 to 8) (size 9 to 14) (size 15 to 20)
#    0.000    0.714    0.000    8.143    0.000   10.000 
#    0.000    0.714    0.000    0.000    0.000    0.000 
#    0.000    0.000    0.000    0.000    0.000    0.000 
#
# Total GULP energy -313477.791005 kJ/mol
# GULP energy per Si atom -5597.817697 kJ/mol
# Density = 2.079754 g / cm^3
# Si number density = 20.844981 Si / 1000 Ang^3
#
#
#
# Elastic Constant Matrix: (Units=GPa)
#
#
# Indices 1 2 3 4 5 6 
#
# 1 68.5992 -8.6301 13.8896 0.0000 0.0000 0.0000
# 2 -8.6301 72.7357 -14.8604 0.0000 0.0000 0.0000
# 3 13.8896 -14.8604 77.6036 0.0000 0.0000 0.0000
# 4 0.0000 0.0000 0.0000 66.0726 0.0000 0.0000
# 5 0.0000 0.0000 0.0000 0.0000 11.7380 0.0000
# 6 0.0000 0.0000 0.0000 0.0000 0.0000 31.4007
#
#
#
# Elastic Compliance Matrix: (Units=1/GPa)
#
#
# Indices 1 2 3 4 5 6 
#
# 1 0.015243 0.001302 -0.002479 0.000000 0.000000 0.000000
# 2 0.001302 0.014419 0.002528 0.000000 0.000000 0.000000
# 3 -0.002479 0.002528 0.013814 0.000000 0.000000 0.000000
# 4 0.000000 0.000000 0.000000 0.015135 0.000000 0.000000
# 5 0.000000 0.000000 0.000000 0.000000 0.085194 0.000000
# 6 0.000000 0.000000 0.000000 0.000000 0.000000 0.031846
#
#
# Mechanical properties :
#
#
# Convention : Reuss Voigt Hill
#
# Bulk Modulus (GPa) = 21.65481 22.19298 21.92389
# Shear Modulus (GPa) = 26.54752 37.07821 31.81287
#
# Velocity S-wave (km/s) = 3.57258 4.22211 3.91085
# Velocity P-wave (km/s) = 5.23725 5.86840 5.56179
#
# Compressibility (1/GPa) = 0.04617912
#
# Stress axis : x y z
#
# Youngs Moduli (GPa) = 65.60321 69.35089 72.39138
#
# Poissons Ratio (x) = -0.09030 0.17945
# Poissons Ratio (y) = -0.08542 -0.18301
# Poissons Ratio (z) = 0.16262 -0.17533
#
# Static dielectric constant tensor:
#      x y z
#    x 1.738510 0.000000 0.000000 
#    y 0.000000 1.699790 0.000000 
#    z 0.000000 0.000000 1.724280 
# 
# From -- ./inp_files/14604.got.cif
#   From: 2010.05.17/outbox.cif.g08.bks.cpg/sg49_8_cif.got.tgz:14604.got - 2010.06.03 21:02:19.
