data_PCOD9394186
_publ_section_title
;
Structure prediction by ZEFSAII (Michael W. Deem and Ramdas Pophale) SiO2 
 PCOD9394186
Probable space group: P C C M
;
_chemical_formula_sum "Si O2"
_cell_formula_units_Z 64
_cell_length_a 17.558878
_cell_length_b 11.602443
_cell_length_c 14.934096
_cell_angle_alpha 90.000000
_cell_angle_beta 90.000000
_cell_angle_gamma 90.000000
_cell_volume 3042.461867
_symmetry_space_group_name_H-M "P C C M"
_symmetry_group_IT_number 49
_symmetry_cell_setting 'orthorhombic'
loop_
_space_group_symop_operation_xyz
x,y,z
-x,-y,z
x,-y,1/2-z
-x,y,1/2-z
-x,-y,-z
x,y,-z
-x,y,1/2+z
x,-y,1/2+z
loop_
_atom_site_type_symbol
_atom_site_label
_atom_site_fract_x
_atom_site_fract_y
_atom_site_fract_z
Si Si1 0.372263 0.450071 0.400823
Si Si2 0.087071 0.982355 0.391130
Si Si3 0.178251 0.201639 0.398547
Si Si4 0.462524 0.877297 0.899897
Si Si5 0.772686 0.188707 0.603573
Si Si6 0.755565 0.368805 0.233720
Si Si7 0.307221 0.034082 0.348542
Si Si8 0.471843 0.347779 0.150235
O O1 0.336709 0.446574 0.500000
O O2 0.322432 0.387453 0.324763
O O3 0.396716 0.581045 0.374376
O O4 0.454887 0.391284 0.404626
O O5 0.086628 0.980589 0.500000
O O6 0.147521 0.878917 0.370386
O O7 0.123441 0.103030 0.362427
O O8 0.000000 0.000000 0.361521
O O9 0.158891 0.233170 0.500000
O O10 0.186575 0.307863 0.333704
O O11 0.257469 0.131600 0.395874
O O12 0.524878 0.787896 0.864512
O O13 0.500000 0.000000 0.907129
O O14 0.388834 0.904417 0.840783
O O15 0.436955 0.842551 0.000000
O O16 0.779432 0.230994 0.500000
O O17 0.753614 0.286797 0.677923
O O18 0.707798 0.087843 0.602808
O O19 0.779371 0.500000 0.250000
O O20 0.279769 0.000000 0.250000
O O21 0.500000 0.372705 0.250000
#
# Coordination Sequence:
#
# PCOD9394186 Si02
#       8
#     8   8   8   8   8   8   8   8
#     4  11  23  42  65  84 108 148 204 268 323 373
#     4   8  16  35  68 106 138 171 210 256 319 391
#     4  10  20  38  64  94 129 165 211 264 315 379
#     4  11  25  39  55  81 114 155 202 248 315 399
#     4  10  22  41  64  97 137 169 209 268 327 388
#     4  12  25  40  59  88 123 170 225 267 312 377
#     4  11  21  37  64  90 124 161 202 258 334 400
#     4  11  23  40  61  84 112 145 195 259 330 392
#
# _framework density 21.035596000000002
#
# number of rings (size 3 to 8) (size 9 to 14) (size 15 to 20)
#    0.000    1.500    1.250    6.000    1.750    2.000 
#    0.000    1.250    0.000    1.500    0.000    3.500 
#    0.000    0.000    0.000    0.000    0.000    0.000 
#
# Total GULP energy -356808.796568 kJ/mol
# GULP energy per Si atom -5575.137446 kJ/mol
# Density = 2.098772 g / cm^3
# Si number density = 21.035596 Si / 1000 Ang^3
#
#
#
# Elastic Constant Matrix: (Units=GPa)
#
#
# Indices 1 2 3 4 5 6 
#
# 1 88.0005 34.5749 19.6338 0.0000 0.0000 0.0000
# 2 34.5749 154.0503 52.6934 0.0000 0.0000 0.0000
# 3 19.6338 52.6934 135.5847 0.0000 0.0000 0.0000
# 4 0.0000 0.0000 0.0000 -899.1467 0.0000 0.0000
# 5 0.0000 0.0000 0.0000 0.0000 -74.7803 0.0000
# 6 0.0000 0.0000 0.0000 0.0000 0.0000 17.8324
#
#
#
# Elastic Compliance Matrix: (Units=1/GPa)
#
#
# Indices 1 2 3 4 5 6 
#
# 1 0.012544 -0.002530 -0.000833 0.000000 0.000000 0.000000
# 2 -0.002530 0.007997 -0.002742 0.000000 0.000000 0.000000
# 3 -0.000833 -0.002742 0.008562 0.000000 0.000000 0.000000
# 4 0.000000 0.000000 0.000000 -0.001112 0.000000 0.000000
# 5 0.000000 0.000000 0.000000 0.000000 -0.013373 0.000000
# 6 0.000000 0.000000 0.000000 0.000000 0.000000 0.056078
#
#
# Mechanical properties :
#
#
# Convention : Reuss Voigt Hill
#
# Bulk Modulus (GPa) = 59.19831 65.71553 62.45692
# Shear Modulus (GPa) = 56.47443 -173.17000 -58.34779
#
# Velocity S-wave (km/s) = 5.18704 -9.08301 -5.27237
# Velocity P-wave (km/s) = 8.00480 8.87093 2.70339
#
# Compressibility (1/GPa) = 0.01689237
#
# Stress axis : x y z
#
# Youngs Moduli (GPa) = 79.72211 125.04629 116.80114
#
# Poissons Ratio (x) = 0.31641 0.09730
# Poissons Ratio (y) = 0.20172 0.32022
# Poissons Ratio (z) = 0.06641 0.34282
#
# Static dielectric constant tensor:
#      x y z
#    x 1.886060 0.000000 0.000000 
#    y 0.000000 1.712800 0.000000 
#    z 0.000000 0.000000 1.859190 
# 
# From -- ./inp_files/14187.got.cif
#   From: 2010.05.17/outbox.cif.g08.bks.cpg/sg49_8_cif.got.tgz:14187.got - 2010.06.03 21:02:19.
