data_PCOD9394177
_publ_section_title
;
Structure prediction by ZEFSAII (Michael W. Deem and Ramdas Pophale) SiO2 
 PCOD9394177
Probable space group: P C C M
;
_chemical_formula_sum "Si O2"
_cell_formula_units_Z 64
_cell_length_a 12.576506
_cell_length_b 14.840797
_cell_length_c 16.705206
_cell_angle_alpha 90.000000
_cell_angle_beta 90.000000
_cell_angle_gamma 90.000000
_cell_volume 3117.949397
_symmetry_space_group_name_H-M "P C C M"
_symmetry_group_IT_number 49
_symmetry_cell_setting 'orthorhombic'
loop_
_space_group_symop_operation_xyz
x,y,z
-x,-y,z
x,-y,1/2-z
-x,y,1/2-z
-x,-y,-z
x,y,-z
-x,y,1/2+z
x,-y,1/2+z
loop_
_atom_site_type_symbol
_atom_site_label
_atom_site_fract_x
_atom_site_fract_y
_atom_site_fract_z
Si Si1 0.825722 0.500408 0.154079
Si Si2 0.603153 0.552974 0.904391
Si Si3 0.349412 0.756433 0.402992
Si Si4 0.190492 0.111185 0.170147
Si Si5 0.014732 0.845789 0.910928
Si Si6 0.471456 0.100309 0.403701
Si Si7 0.762572 0.085892 0.856593
Si Si8 0.001336 0.647337 0.653398
O O1 0.813096 0.500000 0.250000
O O2 0.711371 0.500254 0.114336
O O3 0.901432 0.416690 0.133808
O O4 0.893135 0.590133 0.133297
O O5 0.500000 0.500000 0.872407
O O6 0.621938 0.655574 0.875337
O O7 0.590065 0.560050 0.000000
O O8 0.340581 0.756504 0.500000
O O9 0.242621 0.799116 0.366365
O O10 0.442992 0.825421 0.378228
O O11 0.213720 0.105659 0.263776
O O12 0.065564 0.108340 0.151366
O O13 0.241375 0.022020 0.131058
O O14 0.135863 0.876498 0.902741
O O15 0.007562 0.740168 0.892356
O O16 0.975159 0.866312 0.000000
O O17 0.475487 0.096928 0.500000
O O18 0.351697 0.124238 0.379403
O O19 0.500000 0.000000 0.372724
O O20 0.000000 0.662676 0.750000
#
# Coordination Sequence:
#
# PCOD9394177 Si02
#       8
#     8   8   8   8   8   8   8   8
#     4   9  19  37  62  87 114 151 194 242 298 363
#     4  10  22  39  58  84 121 159 199 251 305 356
#     4  10  21  39  64  90 118 161 208 250 305 366
#     4  11  23  40  60  86 118 158 200 249 303 364
#     4  12  25  38  58  87 121 159 202 246 297 366
#     4  10  20  38  63  88 119 155 200 254 299 353
#     4  11  24  40  59  88 121 157 196 250 307 358
#     4   9  19  38  61  87 118 152 190 242 305 361
#
# _framework density 20.526309999999999
#
# number of rings (size 3 to 8) (size 9 to 14) (size 15 to 20)
#    0.000    1.750    1.250    3.750    0.000    7.750 
#    0.000    3.750    0.000    0.000    0.000    0.000 
#    0.000    0.000    0.000    0.000    0.000    0.000 
#
# Total GULP energy -357679.725120 kJ/mol
# GULP energy per Si atom -5588.745705 kJ/mol
# Density = 2.047959 g / cm^3
# Si number density = 20.526310 Si / 1000 Ang^3
#
#
#
# Elastic Constant Matrix: (Units=GPa)
#
#
# Indices 1 2 3 4 5 6 
#
# 1 126.4183 25.4392 7.3962 0.0000 0.0000 0.0000
# 2 25.4392 76.8350 15.7808 0.0000 0.0000 0.0000
# 3 7.3962 15.7808 7.6930 0.0000 0.0000 0.0000
# 4 0.0000 0.0000 0.0000 15.3461 0.0000 0.0000
# 5 0.0000 0.0000 0.0000 0.0000 32.1630 0.0000
# 6 0.0000 0.0000 0.0000 0.0000 0.0000 32.1609
#
#
#
# Elastic Compliance Matrix: (Units=1/GPa)
#
#
# Indices 1 2 3 4 5 6 
#
# 1 0.008552 -0.001975 -0.004171 0.000000 0.000000 0.000000
# 2 -0.001975 0.022946 -0.045172 0.000000 0.000000 0.000000
# 3 -0.004171 -0.045172 0.226660 0.000000 0.000000 0.000000
# 4 0.000000 0.000000 0.000000 0.065163 0.000000 0.000000
# 5 0.000000 0.000000 0.000000 0.000000 0.031092 0.000000
# 6 0.000000 0.000000 0.000000 0.000000 0.000000 0.031094
#
#
# Mechanical properties :
#
#
# Convention : Reuss Voigt Hill
#
# Bulk Modulus (GPa) = 6.42991 34.24209 20.33600
# Shear Modulus (GPa) = 9.25956 26.75601 18.00778
#
# Velocity S-wave (km/s) = 2.12623 3.61432 2.96514
# Velocity P-wave (km/s) = 3.02773 5.84260 4.65312
#
# Compressibility (1/GPa) = 0.15552328
#
# Stress axis : x y z
#
# Youngs Moduli (GPa) = 116.93666 43.57991 4.41189
#
# Poissons Ratio (x) = 0.08606 0.01840
# Poissons Ratio (y) = 0.23091 0.19929
# Poissons Ratio (z) = 0.48774 1.96858
#
# Static dielectric constant tensor:
#      x y z
#    x 1.717760 0.000000 0.000000 
#    y 0.000000 1.734120 0.000000 
#    z 0.000000 0.000000 1.718030 
# 
# From -- ./inp_files/17335.got.cif
#   From: 2010.05.17/outbox.cif.g08.bks.cpg/sg49_9_cif.got.tgz:17335.got - 2010.06.03 21:02:19.
