data_PCOD9394026
_publ_section_title
;
Structure prediction by ZEFSAII (Michael W. Deem and Ramdas Pophale) SiO2 
 PCOD9394026
Probable space group: P C C M
;
_chemical_formula_sum "Si O2"
_cell_formula_units_Z 64
_cell_length_a 14.728751
_cell_length_b 24.976832
_cell_length_c 9.165939
_cell_angle_alpha 90.000000
_cell_angle_beta 90.000000
_cell_angle_gamma 90.000000
_cell_volume 3371.943085
_symmetry_space_group_name_H-M "P C C M"
_symmetry_group_IT_number 49
_symmetry_cell_setting 'orthorhombic'
loop_
_space_group_symop_operation_xyz
x,y,z
-x,-y,z
x,-y,1/2-z
-x,y,1/2-z
-x,-y,-z
x,y,-z
-x,y,1/2+z
x,-y,1/2+z
loop_
_atom_site_type_symbol
_atom_site_label
_atom_site_fract_x
_atom_site_fract_y
_atom_site_fract_z
Si Si1 0.859504 0.667641 0.826659
Si Si2 0.364922 0.554322 0.669635
Si Si3 0.903543 0.942180 0.677685
Si Si4 0.642456 0.327759 0.673788
Si Si5 0.755510 0.852194 0.332275
Si Si6 0.856768 0.447819 0.668249
Si Si7 0.079619 0.228439 0.664917
Si Si8 0.593550 0.792890 0.823795
O O1 0.751010 0.672832 0.807529
O O2 0.887316 0.609193 0.770659
O O3 0.904043 0.715659 0.742680
O O4 0.876782 0.670507 0.000000
O O5 0.394785 0.500000 0.750000
O O6 0.392394 0.551453 0.500000
O O7 0.390270 0.613687 0.731017
O O8 0.254096 0.553386 0.672403
O O9 0.913377 0.944713 0.500000
O O10 0.818391 0.903004 0.709283
O O11 0.000000 0.925105 0.750000
O O12 0.885441 0.000000 0.750000
O O13 0.624289 0.329502 0.500000
O O14 0.608707 0.269616 0.725927
O O15 0.723698 0.859892 0.500000
O O16 0.828000 0.804096 0.331937
O O17 0.673847 0.831739 0.231572
O O18 0.888509 0.500000 0.750000
O O19 0.882895 0.450860 0.500000
O O20 0.050580 0.236042 0.500000
O O21 0.000000 0.198785 0.750000
O O22 0.500000 0.810481 0.750000
O O23 0.590043 0.793219 0.000000
#
# Coordination Sequence:
#
# PCOD9394026 Si02
#       8
#     8   8   8   8   8   8   8   8
#     4   9  16  30  48  68  96 132 173 216 268 328
#     4   8  13  23  39  63  92 122 163 211 266 333
#     4  10  20  36  60  92 131 168 203 240 277 325
#     4   8  15  29  49  70  97 136 176 220 278 340
#     4  10  22  39  58  85 119 153 193 238 278 325
#     4   8  14  23  39  61  88 120 159 209 260 320
#     4  11  22  34  51  77 109 144 180 222 270 326
#     4  11  22  37  59  83 111 150 193 241 293 344
#
# _framework density 18.980153999999999
#
# number of rings (size 3 to 8) (size 9 to 14) (size 15 to 20)
#    0.000    2.625    1.250    3.375    0.000    2.000 
#    0.000    3.125    0.000    1.125    0.000    7.875 
#    0.000    0.000    0.000    0.000    0.000    0.000 
#
# Total GULP energy -356672.906075 kJ/mol
# GULP energy per Si atom -5573.014157 kJ/mol
# Density = 1.893695 g / cm^3
# Si number density = 18.980154 Si / 1000 Ang^3
#
#
#
# Elastic Constant Matrix: (Units=GPa)
#
#
# Indices 1 2 3 4 5 6 
#
# 1 79.5998 49.3784 45.8137 0.0000 0.0000 0.0000
# 2 49.3784 140.8193 48.9799 0.0000 0.0000 0.0000
# 3 45.8137 48.9799 69.8598 0.0000 0.0000 0.0000
# 4 0.0000 0.0000 0.0000 21.2696 0.0000 0.0000
# 5 0.0000 0.0000 0.0000 0.0000 23.4913 0.0000
# 6 0.0000 0.0000 0.0000 0.0000 0.0000 -41.6895
#
#
#
# Elastic Compliance Matrix: (Units=1/GPa)
#
#
# Indices 1 2 3 4 5 6 
#
# 1 0.021387 -0.003466 -0.011595 0.000000 0.000000 0.000000
# 2 -0.003466 0.009953 -0.004705 0.000000 0.000000 0.000000
# 3 -0.011595 -0.004705 0.025217 0.000000 0.000000 0.000000
# 4 0.000000 0.000000 0.000000 0.047015 0.000000 0.000000
# 5 0.000000 0.000000 0.000000 0.000000 0.042569 0.000000
# 6 0.000000 0.000000 0.000000 0.000000 0.000000 -0.023987
#
#
# Mechanical properties :
#
#
# Convention : Reuss Voigt Hill
#
# Bulk Modulus (GPa) = 58.74007 64.29144 61.51575
# Shear Modulus (GPa) = 29.87526 10.35474 20.11500
#
# Velocity S-wave (km/s) = 3.97170 2.33825 3.25898
# Velocity P-wave (km/s) = 7.21442 6.42156 6.82951
#
# Compressibility (1/GPa) = 0.01702415
#
# Stress axis : x y z
#
# Youngs Moduli (GPa) = 46.75831 100.46870 39.65534
#
# Poissons Ratio (x) = 0.34825 0.45980
# Poissons Ratio (y) = 0.16208 0.18659
# Poissons Ratio (z) = 0.54216 0.47274
#
# Static dielectric constant tensor:
#      x y z
#    x 1.611270 0.000000 0.000000 
#    y 0.000000 1.687530 0.000000 
#    z 0.000000 0.000000 1.650120 
# 
# From -- ./inp_files/4378.got.cif
#   From: 2010.05.17/outbox.cif.g08.bks.cpg/sg49_3_cif.got.tgz:4378.got - 2010.06.03 21:02:19.
