data_PCOD9394532
_publ_section_title
;
Structure prediction by ZEFSAII (Michael W. Deem and Ramdas Pophale) SiO2 
 PCOD9394532
Probable space group: P C C M
;
_chemical_formula_sum "Si O2"
_cell_formula_units_Z 32
_cell_length_a 9.293663
_cell_length_b 10.998947
_cell_length_c 14.210807
_cell_angle_alpha 90.000000
_cell_angle_beta 90.000000
_cell_angle_gamma 90.000000
_cell_volume 1452.635893
_symmetry_space_group_name_H-M "P C C M"
_symmetry_group_IT_number 49
_symmetry_cell_setting 'orthorhombic'
loop_
_space_group_symop_operation_xyz
x,y,z
-x,-y,z
x,-y,1/2-z
-x,y,1/2-z
-x,-y,-z
x,y,-z
-x,y,1/2+z
x,-y,1/2+z
loop_
_atom_site_type_symbol
_atom_site_label
_atom_site_fract_x
_atom_site_fract_y
_atom_site_fract_z
Si Si1 0.595823 0.675017 0.000000
Si Si2 0.079388 0.113148 0.149329
Si Si3 0.726721 0.416846 0.000000
Si Si4 0.585707 0.116934 0.346988
Si Si5 0.035726 0.635239 0.137984
O O1 0.711917 0.565162 0.000000
O O2 0.437420 0.620366 0.000000
O O3 0.597225 0.764121 0.089336
O O4 0.246303 0.084955 0.164401
O O5 0.000000 0.122964 0.250000
O O6 0.050691 0.245611 0.105266
O O7 0.000000 0.000000 0.101449
O O8 0.804673 0.359029 0.092590
O O9 0.500000 0.142021 0.250000
O O10 0.500000 0.000000 0.387896
O O11 0.000000 0.500000 0.103342
O O12 0.000000 0.630181 0.250000
#
# Coordination Sequence:
#
# PCOD9394532 Si02
#       5
#     4   8   4   8   8
#     4  11  27  46  68 102 144 188 238 280 363 428
#     4  10  21  38  67 104 136 177 238 288 354 428
#     4  11  25  46  68 101 142 183 236 302 338 433
#     4  11  24  43  73 101 146 189 233 295 354 422
#     4  10  22  40  70  97 136 180 233 288 361 413
#
# _framework density 22.028919999999999
#
# number of rings (size 3 to 8) (size 9 to 14) (size 15 to 20)
#    0.000    1.500    0.000    5.250   10.500    1.000 
#    0.000    2.500    0.000    0.000    0.000    0.000 
#    0.000    0.000    0.000    0.000    0.000    0.000 
#
# Total GULP energy -178172.109636 kJ/mol
# GULP energy per Si atom -5567.878426 kJ/mol
# Density = 2.197878 g / cm^3
# Si number density = 22.028920 Si / 1000 Ang^3
#
#
#
# Elastic Constant Matrix: (Units=GPa)
#
#
# Indices 1 2 3 4 5 6 
#
# 1 204.5930 69.9740 46.5682 0.0000 0.0000 0.0000
# 2 69.9740 193.2107 34.3164 0.0000 0.0000 0.0000
# 3 46.5682 34.3164 139.6951 0.0000 0.0000 0.0000
# 4 0.0000 0.0000 0.0000 -11.9495 0.0000 0.0000
# 5 0.0000 0.0000 0.0000 0.0000 31.0907 0.0000
# 6 0.0000 0.0000 0.0000 0.0000 0.0000 47.9532
#
#
#
# Elastic Compliance Matrix: (Units=1/GPa)
#
#
# Indices 1 2 3 4 5 6 
#
# 1 0.005864 -0.001858 -0.001499 0.000000 0.000000 0.000000
# 2 -0.001858 0.006000 -0.000855 0.000000 0.000000 0.000000
# 3 -0.001499 -0.000855 0.007868 0.000000 0.000000 0.000000
# 4 0.000000 0.000000 0.000000 -0.083685 0.000000 0.000000
# 5 0.000000 0.000000 0.000000 0.000000 0.032164 0.000000
# 6 0.000000 0.000000 0.000000 0.000000 0.000000 0.020854
#
#
# Mechanical properties :
#
#
# Convention : Reuss Voigt Hill
#
# Bulk Modulus (GPa) = 88.41243 93.24624 90.82933
# Shear Modulus (GPa) = 3978.67901 39.19489 2008.93695
#
# Velocity S-wave (km/s) = 42.54453 4.22269 30.23134
# Velocity P-wave (km/s) = 49.53387 8.13607 35.49507
#
# Compressibility (1/GPa) = 0.01131063
#
# Stress axis : x y z
#
# Youngs Moduli (GPa) = 170.52687 166.65899 127.09784
#
# Poissons Ratio (x) = 0.30959 0.19046
# Poissons Ratio (y) = 0.31678 0.10863
# Poissons Ratio (z) = 0.25554 0.14245
#
# Static dielectric constant tensor:
#      x y z
#    x 1.787580 0.000000 0.000000 
#    y 0.000000 1.893190 0.000000 
#    z 0.000000 0.000000 1.810150 
# 
# From -- ./inp_files/11315.got.cif
#   From: 2010.05.17/outbox.cif.g08.bks.cpg/sg49_6_cif.got.tgz:11315.got - 2010.06.03 21:02:19.
