data_PCOD9394618
_publ_section_title
;
Structure prediction by ZEFSAII (Michael W. Deem and Ramdas Pophale) SiO2 
 PCOD9394618
Probable space group: P C C M
;
_chemical_formula_sum "Si O2"
_cell_formula_units_Z 48
_cell_length_a 9.054797
_cell_length_b 8.029965
_cell_length_c 30.967167
_cell_angle_alpha 90.000000
_cell_angle_beta 90.000000
_cell_angle_gamma 90.000000
_cell_volume 2251.613515
_symmetry_space_group_name_H-M "P C C M"
_symmetry_group_IT_number 49
_symmetry_cell_setting 'orthorhombic'
loop_
_space_group_symop_operation_xyz
x,y,z
-x,-y,z
x,-y,1/2-z
-x,y,1/2-z
-x,-y,-z
x,y,-z
-x,y,1/2+z
x,-y,1/2+z
loop_
_atom_site_type_symbol
_atom_site_label
_atom_site_fract_x
_atom_site_fract_y
_atom_site_fract_z
Si Si1 0.969243 0.697419 0.627637
Si Si2 0.203870 0.168663 0.180133
Si Si3 0.327820 0.315294 0.738492
Si Si4 0.395460 0.343443 0.112917
Si Si5 0.127861 0.351898 0.950742
Si Si6 0.670619 0.824182 0.356951
O O1 0.033548 0.797832 0.668408
O O2 0.057696 0.764440 0.585951
O O3 0.000000 0.500000 0.634379
O O4 0.800956 0.733775 0.617534
O O5 0.241881 0.188851 0.230123
O O6 0.288782 0.315874 0.153903
O O7 0.272556 0.005112 0.158091
O O8 0.272380 0.500000 0.750000
O O9 0.500000 0.305513 0.750000
O O10 0.328601 0.274368 0.688362
O O11 0.500000 0.500000 0.118645
O O12 0.290664 0.373933 0.071079
O O13 0.517312 0.194902 0.117325
O O14 0.000000 0.500000 0.951637
O O15 0.142825 0.297074 0.000000
#
# Coordination Sequence:
#
# PCOD9394618 Si02
#       6
#     8   8   8   8   8   8
#     4  10  21  40  63  87 121 163 207 257 313 376
#     4  11  23  38  58  88 124 168 211 253 309 367
#     4  11  22  37  59  86 122 166 211 259 303 352
#     4  11  21  36  60  88 121 159 204 250 308 371
#     4   9  19  38  64  93 121 152 198 257 315 373
#     4  12  23  37  60  89 126 163 211 260 308 363
#
# _framework density 21.318044
#
# number of rings (size 3 to 8) (size 9 to 14) (size 15 to 20)
#    0.000    1.333    1.667    6.500    0.000    1.667 
#    0.000    4.167    0.000   16.000    0.000    2.333 
#    0.000    0.000    0.000    0.000    0.000    0.000 
#
# Total GULP energy -267374.152419 kJ/mol
# GULP energy per Si atom -5570.294842 kJ/mol
# Density = 2.126952 g / cm^3
# Si number density = 21.318044 Si / 1000 Ang^3
#
#
#
# Elastic Constant Matrix: (Units=GPa)
#
#
# Indices 1 2 3 4 5 6 
#
# 1 117.4367 21.1031 24.5260 0.0000 0.0000 0.0000
# 2 21.1031 83.4814 16.6159 0.0000 0.0000 0.0000
# 3 24.5260 16.6159 103.5320 0.0000 0.0000 0.0000
# 4 0.0000 0.0000 0.0000 10.7266 0.0000 0.0000
# 5 0.0000 0.0000 0.0000 0.0000 24.6247 0.0000
# 6 0.0000 0.0000 0.0000 0.0000 0.0000 28.4676
#
#
#
# Elastic Compliance Matrix: (Units=1/GPa)
#
#
# Indices 1 2 3 4 5 6 
#
# 1 0.009261 -0.001967 -0.001878 0.000000 0.000000 0.000000
# 2 -0.001967 0.012792 -0.001587 0.000000 0.000000 0.000000
# 3 -0.001878 -0.001587 0.010358 0.000000 0.000000 0.000000
# 4 0.000000 0.000000 0.000000 0.093226 0.000000 0.000000
# 5 0.000000 0.000000 0.000000 0.000000 0.040610 0.000000
# 6 0.000000 0.000000 0.000000 0.000000 0.000000 0.035128
#
#
# Mechanical properties :
#
#
# Convention : Reuss Voigt Hill
#
# Bulk Modulus (GPa) = 46.41091 47.66000 47.03545
# Shear Modulus (GPa) = 22.78714 28.91078 25.84896
#
# Velocity S-wave (km/s) = 3.27297 3.68661 3.48593
# Velocity P-wave (km/s) = 6.00842 6.36605 6.18982
#
# Compressibility (1/GPa) = 0.02154666
#
# Stress axis : x y z
#
# Youngs Moduli (GPa) = 107.98006 78.17464 96.53951
#
# Poissons Ratio (x) = 0.15379 0.18131
# Poissons Ratio (y) = 0.21242 0.15320
# Poissons Ratio (z) = 0.20280 0.12406
#
# Static dielectric constant tensor:
#      x y z
#    x 1.456580 0.000000 0.000000 
#    y 0.000000 1.897940 0.000000 
#    z 0.000000 0.000000 1.777730 
# 
# From -- ./inp_files/26279.got.cif
#   From: 2010.05.17/outbox.cif.g08.bks.cpg/sg49_14_cif.got.tgz:26279.got - 2010.06.03 21:02:19.
