data_PCOD9394128
_publ_section_title
;
Structure prediction by ZEFSAII (Michael W. Deem and Ramdas Pophale) SiO2 
 PCOD9394128
Probable space group: P C C M
;
_chemical_formula_sum "Si O2"
_cell_formula_units_Z 64
_cell_length_a 15.792589
_cell_length_b 24.309040
_cell_length_c 8.717819
_cell_angle_alpha 90.000000
_cell_angle_beta 90.000000
_cell_angle_gamma 90.000000
_cell_volume 3346.794058
_symmetry_space_group_name_H-M "P C C M"
_symmetry_group_IT_number 49
_symmetry_cell_setting 'orthorhombic'
loop_
_space_group_symop_operation_xyz
x,y,z
-x,-y,z
x,-y,1/2-z
-x,y,1/2-z
-x,-y,-z
x,y,-z
-x,y,1/2+z
x,-y,1/2+z
loop_
_atom_site_type_symbol
_atom_site_label
_atom_site_fract_x
_atom_site_fract_y
_atom_site_fract_z
Si Si1 0.909477 0.132613 0.183074
Si Si2 0.651002 0.251157 0.683304
Si Si3 0.590148 0.869158 0.815241
Si Si4 0.910503 0.364807 0.815706
Si Si5 0.146892 0.248448 0.182991
Si Si6 0.590324 0.365823 0.183271
Si Si7 0.250073 0.438898 0.685041
Si Si8 0.755353 0.061298 0.315155
O O1 0.892120 0.195023 0.237489
O O2 0.834249 0.095542 0.250260
O O3 0.000000 0.114930 0.250000
O O4 0.910268 0.129762 0.000000
O O5 0.638311 0.256509 0.500000
O O6 0.610660 0.193446 0.734592
O O7 0.751900 0.249051 0.710749
O O8 0.611443 0.303918 0.764031
O O9 0.500000 0.886911 0.750000
O O10 0.668439 0.907769 0.769807
O O11 0.586630 0.869096 0.000000
O O12 0.891647 0.304402 0.748874
O O13 0.833429 0.404681 0.770010
O O14 0.000000 0.384400 0.750000
O O15 0.913703 0.361853 0.000000
O O16 0.132882 0.245177 0.000000
O O17 0.500000 0.382769 0.250000
O O18 0.666843 0.405155 0.235818
O O19 0.586922 0.367281 0.000000
O O20 0.249163 0.500000 0.750000
O O21 0.251402 0.441245 0.500000
O O22 0.759956 0.060788 0.500000
O O23 0.756253 0.000000 0.250000
#
# Coordination Sequence:
#
# PCOD9394128 Si02
#       8
#     8   8   8   8   8   8   8   8
#     4  12  25  42  66  95 127 166 206 253 310 368
#     4  10  20  37  62  92 124 163 200 246 306 365
#     4  10  22  40  62  91 127 162 204 252 303 364
#     4  11  23  41  62  92 125 160 204 250 304 366
#     4  11  21  38  64  94 128 164 202 249 306 367
#     4  11  23  40  61  91 124 159 201 251 303 365
#     4  10  24  43  63  86 119 158 206 256 306 363
#     4  11  24  45  66  91 125 163 212 263 310 366
#
# _framework density 19.122779000000001
#
# number of rings (size 3 to 8) (size 9 to 14) (size 15 to 20)
#    0.000    1.250    2.500    3.375    0.000    6.000 
#    0.000    5.000    0.000    0.000    0.000    0.000 
#    0.000    0.000    0.000    0.000    0.000    0.000 
#
# Total GULP energy -357987.737174 kJ/mol
# GULP energy per Si atom -5593.558393 kJ/mol
# Density = 1.907925 g / cm^3
# Si number density = 19.122779 Si / 1000 Ang^3
#
#
#
# Elastic Constant Matrix: (Units=GPa)
#
#
# Indices 1 2 3 4 5 6 
#
# 1 195.7966 92.3405 64.7841 0.0000 0.0000 0.0000
# 2 92.3405 152.7165 40.8020 0.0000 0.0000 0.0000
# 3 64.7841 40.8020 66.1157 0.0000 0.0000 0.0000
# 4 0.0000 0.0000 0.0000 26.7605 0.0000 0.0000
# 5 0.0000 0.0000 0.0000 0.0000 33.1778 0.0000
# 6 0.0000 0.0000 0.0000 0.0000 0.0000 -2.9427
#
#
#
# Elastic Compliance Matrix: (Units=1/GPa)
#
#
# Indices 1 2 3 4 5 6 
#
# 1 0.009024 -0.003705 -0.006556 0.000000 0.000000 0.000000
# 2 -0.003705 0.009362 -0.002147 0.000000 0.000000 0.000000
# 3 -0.006556 -0.002147 0.022874 0.000000 0.000000 0.000000
# 4 0.000000 0.000000 0.000000 0.037369 0.000000 0.000000
# 5 0.000000 0.000000 0.000000 0.000000 0.030141 0.000000
# 6 0.000000 0.000000 0.000000 0.000000 0.000000 -0.339822
#
#
# Mechanical properties :
#
#
# Convention : Reuss Voigt Hill
#
# Bulk Modulus (GPa) = 60.81291 90.05357 75.43324
# Shear Modulus (GPa) = -24.90580 25.84592 0.47006
#
# Velocity S-wave (km/s) = -3.61281 3.68037 0.49633
# Velocity P-wave (km/s) = 3.80356 8.07804 6.31355
#
# Compressibility (1/GPa) = 0.01644388
#
# Stress axis : x y z
#
# Youngs Moduli (GPa) = 110.82066 106.81648 43.71808
#
# Poissons Ratio (x) = 0.39572 0.28660
# Poissons Ratio (y) = 0.41055 0.09388
# Poissons Ratio (z) = 0.72650 0.22938
#
# Static dielectric constant tensor:
#      x y z
#    x 1.663820 0.000000 0.000000 
#    y 0.000000 1.627580 0.000000 
#    z 0.000000 0.000000 1.651690 
# 
# From -- ./inp_files/4426.got.cif
#   From: 2010.05.17/outbox.cif.g08.bks.cpg/sg49_3_cif.got.tgz:4426.got - 2010.06.03 21:02:19.
