data_PCOD9394418
_publ_section_title
;
Structure prediction by ZEFSAII (Michael W. Deem and Ramdas Pophale) SiO2 
 PCOD9394418
Probable space group: P C C M
;
_chemical_formula_sum "Si O2"
_cell_formula_units_Z 64
_cell_length_a 12.012363
_cell_length_b 15.568662
_cell_length_c 16.889618
_cell_angle_alpha 90.000000
_cell_angle_beta 90.000000
_cell_angle_gamma 90.000000
_cell_volume 3158.635883
_symmetry_space_group_name_H-M "P C C M"
_symmetry_group_IT_number 49
_symmetry_cell_setting 'orthorhombic'
loop_
_space_group_symop_operation_xyz
x,y,z
-x,-y,z
x,-y,1/2-z
-x,y,1/2-z
-x,-y,-z
x,y,-z
-x,y,1/2+z
x,-y,1/2+z
loop_
_atom_site_type_symbol
_atom_site_label
_atom_site_fract_x
_atom_site_fract_y
_atom_site_fract_z
Si Si1 0.742138 0.015719 0.908840
Si Si2 0.209655 0.696329 0.859748
Si Si3 0.857821 0.770878 0.905743
Si Si4 0.609518 0.177310 0.856693
Si Si5 0.930405 0.864469 0.595543
Si Si6 0.882660 0.618283 0.793935
Si Si7 0.354249 0.849114 0.330251
Si Si8 0.133300 0.515221 0.915278
O O1 0.665092 0.100554 0.906064
O O2 0.862058 0.051360 0.879848
O O3 0.684496 0.944277 0.855399
O O4 0.751946 0.984359 0.000000
O O5 0.332176 0.732598 0.878429
O O6 0.132883 0.780098 0.872547
O O7 0.195334 0.663734 0.770070
O O8 0.167166 0.614478 0.908620
O O9 0.904996 0.686354 0.863704
O O10 0.737272 0.789076 0.870757
O O11 0.940880 0.849580 0.884481
O O12 0.856499 0.761619 0.000000
O O13 0.641817 0.160521 0.764468
O O14 0.477204 0.172123 0.861820
O O15 0.921794 0.863071 0.500000
O O16 0.829962 0.536693 0.837742
O O17 0.000000 0.599770 0.750000
O O18 0.000000 0.500000 0.914714
O O19 0.174884 0.481299 0.000000
#
# Coordination Sequence:
#
# PCOD9394418 Si02
#       8
#     8   8   8   8   8   8   8   8
#     4  10  21  37  59  87 119 156 199 252 312 369
#     4  11  20  36  60  85 118 159 199 245 311 377
#     4  11  22  37  59  87 124 167 207 252 308 376
#     4  10  23  40  60  85 116 155 207 265 311 365
#     4   9  19  35  55  85 125 162 196 241 302 371
#     4  12  21  35  57  89 123 158 204 248 308 381
#     4  11  22  39  59  85 117 155 209 263 313 356
#     4  11  22  34  54  88 127 158 193 248 310 378
#
# _framework density 20.261911999999999
#
# number of rings (size 3 to 8) (size 9 to 14) (size 15 to 20)
#    0.000    1.375    3.750    2.250    0.000    5.500 
#    0.000    1.875    0.000    2.250    0.000    1.750 
#    0.000    0.000    0.000    0.000    0.000    0.000 
#
# Total GULP energy -357467.030679 kJ/mol
# GULP energy per Si atom -5585.422354 kJ/mol
# Density = 2.021579 g / cm^3
# Si number density = 20.261912 Si / 1000 Ang^3
#
#
#
# Elastic Constant Matrix: (Units=GPa)
#
#
# Indices 1 2 3 4 5 6 
#
# 1 93.6566 39.7481 31.4762 0.0000 0.0000 0.0000
# 2 39.7481 112.0252 27.2479 0.0000 0.0000 0.0000
# 3 31.4762 27.2479 66.4356 0.0000 0.0000 0.0000
# 4 0.0000 0.0000 0.0000 10.9752 0.0000 0.0000
# 5 0.0000 0.0000 0.0000 0.0000 15.6309 0.0000
# 6 0.0000 0.0000 0.0000 0.0000 0.0000 18.3507
#
#
#
# Elastic Compliance Matrix: (Units=1/GPa)
#
#
# Indices 1 2 3 4 5 6 
#
# 1 0.013966 -0.003717 -0.005093 0.000000 0.000000 0.000000
# 2 -0.003717 0.010905 -0.002712 0.000000 0.000000 0.000000
# 3 -0.005093 -0.002712 0.018577 0.000000 0.000000 0.000000
# 4 0.000000 0.000000 0.000000 0.091114 0.000000 0.000000
# 5 0.000000 0.000000 0.000000 0.000000 0.063976 0.000000
# 6 0.000000 0.000000 0.000000 0.000000 0.000000 0.054494
#
#
# Mechanical properties :
#
#
# Convention : Reuss Voigt Hill
#
# Bulk Modulus (GPa) = 49.00440 52.11798 50.56119
# Shear Modulus (GPa) = 17.67557 20.56769 19.12163
#
# Velocity S-wave (km/s) = 2.95677 3.18951 3.07534
# Velocity P-wave (km/s) = 5.99121 6.27231 6.13337
#
# Compressibility (1/GPa) = 0.02040633
#
# Stress axis : x y z
#
# Youngs Moduli (GPa) = 71.60127 91.70225 53.82967
#
# Poissons Ratio (x) = 0.34083 0.27413
# Poissons Ratio (y) = 0.26612 0.14596
# Poissons Ratio (z) = 0.36464 0.24866
#
# Static dielectric constant tensor:
#      x y z
#    x 1.722490 0.000000 0.000000 
#    y 0.000000 1.763720 0.000000 
#    z 0.000000 0.000000 1.750360 
# 
# From -- ./inp_files/17331.got.cif
#   From: 2010.05.17/outbox.cif.g08.bks.cpg/sg49_9_cif.got.tgz:17331.got - 2010.06.03 21:02:19.
