data_PCOD9394392
_publ_section_title
;
Structure prediction by ZEFSAII (Michael W. Deem and Ramdas Pophale) SiO2 
 PCOD9394392
Probable space group: P C C M
;
_chemical_formula_sum "Si O2"
_cell_formula_units_Z 64
_cell_length_a 19.243340
_cell_length_b 10.363371
_cell_length_c 15.579485
_cell_angle_alpha 90.000000
_cell_angle_beta 90.000000
_cell_angle_gamma 90.000000
_cell_volume 3106.952377
_symmetry_space_group_name_H-M "P C C M"
_symmetry_group_IT_number 49
_symmetry_cell_setting 'orthorhombic'
loop_
_space_group_symop_operation_xyz
x,y,z
-x,-y,z
x,-y,1/2-z
-x,y,1/2-z
-x,-y,-z
x,y,-z
-x,y,1/2+z
x,-y,1/2+z
loop_
_atom_site_type_symbol
_atom_site_label
_atom_site_fract_x
_atom_site_fract_y
_atom_site_fract_z
Si Si1 0.927183 0.939078 0.104317
Si Si2 0.417954 0.844816 0.251762
Si Si3 0.887380 0.430412 0.096589
Si Si4 0.020593 0.672215 0.347917
Si Si5 0.739838 0.499957 0.847289
Si Si6 0.688833 0.221929 0.601355
Si Si7 0.325712 0.754935 0.901770
Si Si8 0.781295 0.029810 0.896598
O O1 0.931609 0.795577 0.140413
O O2 0.859546 0.014521 0.135631
O O3 0.925328 0.931528 0.000000
O O4 0.000000 0.000000 0.130263
O O5 0.500000 0.819508 0.250000
O O6 0.376717 0.788855 0.334362
O O7 0.385306 0.785936 0.165603
O O8 0.407589 0.000000 0.250000
O O9 0.934966 0.555699 0.113026
O O10 0.819242 0.447939 0.153114
O O11 0.944368 0.317381 0.108100
O O12 0.860751 0.425879 0.000000
O O13 0.000000 0.647712 0.250000
O O14 0.714063 0.500000 0.750000
O O15 0.729759 0.643581 0.883916
O O16 0.696222 0.393516 0.898147
O O17 0.670529 0.212098 0.500000
O O18 0.737966 0.099534 0.623370
O O19 0.260648 0.843273 0.870639
O O20 0.342509 0.791998 0.000000
O O21 0.785928 0.036746 0.000000
#
# Coordination Sequence:
#
# PCOD9394392 Si02
#       8
#     8   8   8   8   8   8   8   8
#     4  10  21  37  57  82 115 161 212 264 323 385
#     4  11  24  44  72 107 139 172 217 268 328 398
#     4  11  22  38  60  85 115 164 213 267 328 395
#     4  11  22  38  55  80 119 156 212 272 334 388
#     4  12  24  40  66  97 133 171 222 275 335 393
#     4  11  22  42  67  98 133 176 223 268 326 399
#     4  11  23  43  67 100 138 178 222 273 331 397
#     4   9  20  38  64  91 126 171 223 272 324 395
#
# _framework density 20.598962
#
# number of rings (size 3 to 8) (size 9 to 14) (size 15 to 20)
#    0.000    1.250    2.500    4.875    1.750    1.750 
#    0.000    3.750    0.000    1.500    0.000    0.000 
#    0.000    0.000    0.000    0.000    0.000    0.000 
#
# Total GULP energy -357534.023613 kJ/mol
# GULP energy per Si atom -5586.469119 kJ/mol
# Density = 2.055208 g / cm^3
# Si number density = 20.598962 Si / 1000 Ang^3
#
#
#
# Elastic Constant Matrix: (Units=GPa)
#
#
# Indices 1 2 3 4 5 6 
#
# 1 115.3210 19.1090 30.4152 0.0000 0.0000 0.0000
# 2 19.1090 72.4621 1.2210 0.0000 0.0000 0.0000
# 3 30.4152 1.2210 89.3185 0.0000 0.0000 0.0000
# 4 0.0000 0.0000 0.0000 -32.1120 0.0000 0.0000
# 5 0.0000 0.0000 0.0000 0.0000 22.8910 0.0000
# 6 0.0000 0.0000 0.0000 0.0000 0.0000 16.8426
#
#
#
# Elastic Compliance Matrix: (Units=1/GPa)
#
#
# Indices 1 2 3 4 5 6 
#
# 1 0.009986 -0.002577 -0.003365 0.000000 0.000000 0.000000
# 2 -0.002577 0.014468 0.000680 0.000000 0.000000 0.000000
# 3 -0.003365 0.000680 0.012333 0.000000 0.000000 0.000000
# 4 0.000000 0.000000 0.000000 -0.031141 0.000000 0.000000
# 5 0.000000 0.000000 0.000000 0.000000 0.043685 0.000000
# 6 0.000000 0.000000 0.000000 0.000000 0.000000 0.059373
#
#
# Mechanical properties :
#
#
# Convention : Reuss Voigt Hill
#
# Bulk Modulus (GPa) = 38.07741 42.06577 40.07159
# Shear Modulus (GPa) = 39.06773 16.61477 27.84125
#
# Velocity S-wave (km/s) = 4.35971 2.84312 3.68038
# Velocity P-wave (km/s) = 6.62329 5.58958 6.12827
#
# Compressibility (1/GPa) = 0.02626229
#
# Stress axis : x y z
#
# Youngs Moduli (GPa) = 100.14041 69.11626 81.08627
#
# Poissons Ratio (x) = 0.17809 0.27288
# Poissons Ratio (y) = 0.25803 -0.05511
# Poissons Ratio (z) = 0.33700 -0.04697
#
# Static dielectric constant tensor:
#      x y z
#    x 1.724950 0.000000 0.000000 
#    y 0.000000 1.779740 0.000000 
#    z 0.000000 0.000000 1.747800 
# 
# From -- ./inp_files/14206.got.cif
#   From: 2010.05.17/outbox.cif.g08.bks.cpg/sg49_8_cif.got.tgz:14206.got - 2010.06.03 21:02:19.
