data_PCOD9394161
_publ_section_title
;
Structure prediction by ZEFSAII (Michael W. Deem and Ramdas Pophale) SiO2 
 PCOD9394161
Probable space group: P C C M
;
_chemical_formula_sum "Si O2"
_cell_formula_units_Z 20
_cell_length_a 4.913545
_cell_length_b 8.315574
_cell_length_c 23.072705
_cell_angle_alpha 90.000000
_cell_angle_beta 90.000000
_cell_angle_gamma 90.000000
_cell_volume 942.726432
_symmetry_space_group_name_H-M "P C C M"
_symmetry_group_IT_number 49
_symmetry_cell_setting 'orthorhombic'
loop_
_space_group_symop_operation_xyz
x,y,z
-x,-y,z
x,-y,1/2-z
-x,y,1/2-z
-x,-y,-z
x,y,-z
-x,y,1/2+z
x,-y,1/2+z
loop_
_atom_site_type_symbol
_atom_site_label
_atom_site_fract_x
_atom_site_fract_y
_atom_site_fract_z
Si Si1 0.594848 0.325375 0.182933
Si Si2 0.757774 0.875622 0.000000
Si Si3 0.883255 0.820240 0.125570
O O1 0.500000 0.500000 0.160148
O O2 0.500000 0.325436 0.250000
O O3 0.406348 0.189647 0.155770
O O4 0.902080 0.288248 0.162237
O O5 0.808235 0.776323 0.058957
O O6 0.500000 0.000000 0.000000
O O7 0.000000 0.000000 0.000000
O O8 0.000000 0.000000 0.126108
#
# Coordination Sequence:
#
# PCOD9394161 Si02
#       3
#     8   4   8
#     4  11  24  41  59  85 125 163 196 247 312 364
#     4  10  20  38  61  90 125 156 193 254 317 356
#     4  11  22  39  64  90 116 156 206 250 297 362
#
# _framework density 21.215066
#
# number of rings (size 3 to 8) (size 9 to 14) (size 15 to 20)
#    0.000    1.200    0.000    8.400    0.000    8.000 
#    0.000    6.000    0.000    0.000    0.000    0.000 
#    0.000    0.000    0.000    0.000    0.000    0.000 
#
# Total GULP energy -111358.599045 kJ/mol
# GULP energy per Si atom -5567.929952 kJ/mol
# Density = 2.116678 g / cm^3
# Si number density = 21.215066 Si / 1000 Ang^3
#
#
#
# Elastic Constant Matrix: (Units=GPa)
#
#
# Indices 1 2 3 4 5 6 
#
# 1 131.6324 2.4050 20.0748 0.0000 0.0000 0.0000
# 2 2.4050 59.1794 14.6149 0.0000 0.0000 0.0000
# 3 20.0748 14.6149 123.4757 0.0000 0.0000 0.0000
# 4 0.0000 0.0000 0.0000 13.7858 0.0000 0.0000
# 5 0.0000 0.0000 0.0000 0.0000 28.0907 0.0000
# 6 0.0000 0.0000 0.0000 0.0000 0.0000 26.5944
#
#
#
# Elastic Compliance Matrix: (Units=1/GPa)
#
#
# Indices 1 2 3 4 5 6 
#
# 1 0.007790 -0.000004 -0.001266 0.000000 0.000000 0.000000
# 2 -0.000004 0.017407 -0.002060 0.000000 0.000000 0.000000
# 3 -0.001266 -0.002060 0.008548 0.000000 0.000000 0.000000
# 4 0.000000 0.000000 0.000000 0.072538 0.000000 0.000000
# 5 0.000000 0.000000 0.000000 0.000000 0.035599 0.000000
# 6 0.000000 0.000000 0.000000 0.000000 0.000000 0.037602
#
#
# Mechanical properties :
#
#
# Convention : Reuss Voigt Hill
#
# Bulk Modulus (GPa) = 36.91976 43.16412 40.04194
# Shear Modulus (GPa) = 25.61843 32.17372 28.89608
#
# Velocity S-wave (km/s) = 3.47876 3.89852 3.69461
# Velocity P-wave (km/s) = 5.79449 6.37611 6.09224
#
# Compressibility (1/GPa) = 0.02708577
#
# Stress axis : x y z
#
# Youngs Moduli (GPa) = 128.36862 57.44958 116.98123
#
# Poissons Ratio (x) = 0.00022 0.14810
# Poissons Ratio (y) = 0.00050 0.24094
# Poissons Ratio (z) = 0.16252 0.11833
#
# Static dielectric constant tensor:
#      x y z
#    x 1.803540 0.000000 0.000000 
#    y 0.000000 1.798400 0.000000 
#    z 0.000000 0.000000 2.082580 
# 
# From -- ./inp_files/19126.got.cif
#   From: 2010.05.17/outbox.cif.g08.bks.cpg/sg49_10_cif.got.tgz:19126.got - 2010.06.03 21:02:19.
