data_PCOD9394967
_publ_section_title
;
Structure prediction by ZEFSAII (Michael W. Deem and Ramdas Pophale) SiO2 
 PCOD9394967
Probable space group: P C C M
;
_chemical_formula_sum "Si O2"
_cell_formula_units_Z 64
_cell_length_a 20.747328
_cell_length_b 20.433562
_cell_length_c 8.741165
_cell_angle_alpha 90.000000
_cell_angle_beta 90.000000
_cell_angle_gamma 90.000000
_cell_volume 3705.745338
_symmetry_space_group_name_H-M "P C C M"
_symmetry_group_IT_number 49
_symmetry_cell_setting 'orthorhombic'
loop_
_space_group_symop_operation_xyz
x,y,z
-x,-y,z
x,-y,1/2-z
-x,y,1/2-z
-x,-y,-z
x,y,-z
-x,y,1/2+z
x,-y,1/2+z
loop_
_atom_site_type_symbol
_atom_site_label
_atom_site_fract_x
_atom_site_fract_y
_atom_site_fract_z
Si Si1 0.393626 0.211398 0.185551
Si Si2 0.305176 0.572892 0.184267
Si Si3 0.434712 0.347904 0.317806
Si Si4 0.599258 0.931893 0.177166
Si Si5 0.243715 0.932694 0.677308
Si Si6 0.814697 0.345800 0.684487
Si Si7 0.071318 0.429233 0.683440
Si Si8 0.242747 0.791071 0.686155
O O1 0.427516 0.274672 0.252399
O O2 0.418581 0.140011 0.240387
O O3 0.317867 0.217982 0.228293
O O4 0.397465 0.211722 0.000000
O O5 0.307388 0.500000 0.250000
O O6 0.371101 0.611101 0.223137
O O7 0.245427 0.611096 0.258334
O O8 0.298126 0.571720 0.000000
O O9 0.500000 0.377556 0.250000
O O10 0.439254 0.344927 0.500000
O O11 0.677816 0.931720 0.185343
O O12 0.577176 0.000000 0.250000
O O13 0.580698 0.933493 0.000000
O O14 0.226310 0.934462 0.500000
O O15 0.221798 0.862809 0.743241
O O16 0.221062 0.000000 0.750000
O O17 0.878639 0.375314 0.758815
O O18 0.799145 0.271107 0.731805
O O19 0.818862 0.651104 0.000000
O O20 0.092237 0.500000 0.750000
O O21 0.069265 0.432425 0.500000
O O22 0.000000 0.417115 0.750000
O O23 0.242130 0.793565 0.500000
#
# Coordination Sequence:
#
# PCOD9394967 Si02
#       8
#     8   8   8   8   8   8   8   8
#     4   9  16  31  51  71  96 130 167 206 252 306
#     4  11  24  40  57  80 104 130 166 210 258 311
#     4  11  24  39  56  76  98 126 165 212 262 316
#     4   8  14  23  40  65  94 125 160 198 243 296
#     4   8  13  23  37  60  93 130 168 203 243 293
#     4  11  20  34  57  82 109 144 177 213 258 303
#     4  11  22  38  57  80 110 144 182 220 256 305
#     4   8  15  27  47  71  99 135 171 206 251 304
#
# _framework density 17.270479000000002
#
# number of rings (size 3 to 8) (size 9 to 14) (size 15 to 20)
#    0.000    2.375    1.250    4.500    0.000    2.250 
#    0.000    4.375    0.000    0.375    0.000    2.625 
#    0.000    0.500    0.000    5.750    0.000    2.000 
#
# Total GULP energy -356947.313465 kJ/mol
# GULP energy per Si atom -5577.301773 kJ/mol
# Density = 1.723117 g / cm^3
# Si number density = 17.270479 Si / 1000 Ang^3
#
#
#
# Elastic Constant Matrix: (Units=GPa)
#
#
# Indices 1 2 3 4 5 6 
#
# 1 62.1386 51.1346 26.9328 0.0000 0.0000 0.0000
# 2 51.1346 152.5486 41.6884 0.0000 0.0000 0.0000
# 3 26.9328 41.6884 55.1991 0.0000 0.0000 0.0000
# 4 0.0000 0.0000 0.0000 24.1469 0.0000 0.0000
# 5 0.0000 0.0000 0.0000 0.0000 20.4165 0.0000
# 6 0.0000 0.0000 0.0000 0.0000 0.0000 2431.7787
#
#
#
# Elastic Compliance Matrix: (Units=1/GPa)
#
#
# Indices 1 2 3 4 5 6 
#
# 1 0.024293 -0.006179 -0.007186 0.000000 0.000000 0.000000
# 2 -0.006179 0.009832 -0.004410 0.000000 0.000000 0.000000
# 3 -0.007186 -0.004410 0.024953 0.000000 0.000000 0.000000
# 4 0.000000 0.000000 0.000000 0.041413 0.000000 0.000000
# 5 0.000000 0.000000 0.000000 0.000000 0.048980 0.000000
# 6 0.000000 0.000000 0.000000 0.000000 0.000000 0.000411
#
#
# Mechanical properties :
#
#
# Convention : Reuss Voigt Hill
#
# Bulk Modulus (GPa) = 42.50542 56.59976 49.55259
# Shear Modulus (GPa) = 25.86977 505.27714 265.57346
#
# Velocity S-wave (km/s) = 3.87449 17.12314 12.41398
# Velocity P-wave (km/s) = 6.68436 20.58591 15.30458
#
# Compressibility (1/GPa) = 0.02352641
#
# Stress axis : x y z
#
# Youngs Moduli (GPa) = 41.16475 101.71069 40.07460
#
# Poissons Ratio (x) = 0.62848 0.28799
# Poissons Ratio (y) = 0.25436 0.17675
# Poissons Ratio (z) = 0.29582 0.44859
#
# Static dielectric constant tensor:
#      x y z
#    x 1.574720 0.000000 0.000000 
#    y 0.000000 1.614410 0.000000 
#    z 0.000000 0.000000 1.584910 
# 
# From -- ./inp_files/6049.got.cif
#   From: 2010.05.17/outbox.cif.g08.bks.cpg/sg49_4_cif.got.tgz:6049.got - 2010.06.03 21:02:19.
