data_PCOD9394395
_publ_section_title
;
Structure prediction by ZEFSAII (Michael W. Deem and Ramdas Pophale) SiO2 
 PCOD9394395
Probable space group: P C C M
;
_chemical_formula_sum "Si O2"
_cell_formula_units_Z 32
_cell_length_a 7.098341
_cell_length_b 14.271834
_cell_length_c 16.326466
_cell_angle_alpha 90.000000
_cell_angle_beta 90.000000
_cell_angle_gamma 90.000000
_cell_volume 1653.974588
_symmetry_space_group_name_H-M "P C C M"
_symmetry_group_IT_number 49
_symmetry_cell_setting 'orthorhombic'
loop_
_space_group_symop_operation_xyz
x,y,z
-x,-y,z
x,-y,1/2-z
-x,y,1/2-z
-x,-y,-z
x,y,-z
-x,y,1/2+z
x,-y,1/2+z
loop_
_atom_site_type_symbol
_atom_site_label
_atom_site_fract_x
_atom_site_fract_y
_atom_site_fract_z
Si Si1 0.271949 0.393733 0.253636
Si Si2 0.615598 0.777853 0.834949
Si Si3 0.966615 0.106267 0.348172
Si Si4 0.768701 0.728507 0.408836
O O1 0.203669 0.500000 0.250000
O O2 0.500000 0.400411 0.250000
O O3 0.249386 0.312112 0.185333
O O4 0.202324 0.348142 0.337941
O O5 0.500000 0.799244 0.750000
O O6 0.752710 0.860347 0.860974
O O7 0.452459 0.754051 0.898598
O O8 0.000000 0.111178 0.250000
O O9 0.108095 0.179818 0.389456
O O10 0.000000 0.000000 0.375042
O O11 0.808745 0.694475 0.500000
#
# Coordination Sequence:
#
# PCOD9394395 Si02
#       4
#     8   8   8   8
#     4   8  15  32  56  81 107 146 188 222 276 332
#     4   9  18  36  55  80 109 148 190 230 275 335
#     4  11  21  36  57  83 111 152 197 235 275 333
#     4  10  21  37  57  85 116 146 184 235 286 328
#
# _framework density 19.347335000000001
#
# number of rings (size 3 to 8) (size 9 to 14) (size 15 to 20)
#    0.000    3.000    5.000    0.000    0.000    2.500 
#    0.000   13.750    0.000    1.500    0.000    0.000 
#    0.000    0.000    0.000    0.000    0.000    0.000 
#
# Total GULP energy -178217.944255 kJ/mol
# GULP energy per Si atom -5569.310758 kJ/mol
# Density = 1.930330 g / cm^3
# Si number density = 19.347335 Si / 1000 Ang^3
#
#
#
# Elastic Constant Matrix: (Units=GPa)
#
#
# Indices 1 2 3 4 5 6 
#
# 1 87.1359 52.0848 10.6754 0.0000 0.0000 0.0000
# 2 52.0848 161.3929 28.1393 0.0000 0.0000 0.0000
# 3 10.6754 28.1393 53.3426 0.0000 0.0000 0.0000
# 4 0.0000 0.0000 0.0000 17.6423 0.0000 0.0000
# 5 0.0000 0.0000 0.0000 0.0000 5.3046 0.0000
# 6 0.0000 0.0000 0.0000 0.0000 0.0000 -40.6249
#
#
#
# Elastic Compliance Matrix: (Units=1/GPa)
#
#
# Indices 1 2 3 4 5 6 
#
# 1 0.014230 -0.004511 -0.000468 0.000000 0.000000 0.000000
# 2 -0.004511 0.008253 -0.003451 0.000000 0.000000 0.000000
# 3 -0.000468 -0.003451 0.020661 0.000000 0.000000 0.000000
# 4 0.000000 0.000000 0.000000 0.056682 0.000000 0.000000
# 5 0.000000 0.000000 0.000000 0.000000 0.188517 0.000000
# 6 0.000000 0.000000 0.000000 0.000000 0.000000 -0.024615
#
#
# Mechanical properties :
#
#
# Convention : Reuss Voigt Hill
#
# Bulk Modulus (GPa) = 38.04583 53.74115 45.89349
# Shear Modulus (GPa) = 17.28013 10.52919 13.90466
#
# Velocity S-wave (km/s) = 2.99181 2.33538 2.68374
# Velocity P-wave (km/s) = 5.62511 5.92531 5.77716
#
# Compressibility (1/GPa) = 0.02628409
#
# Stress axis : x y z
#
# Youngs Moduli (GPa) = 70.27461 121.16158 48.40026
#
# Poissons Ratio (x) = 0.54651 0.02267
# Poissons Ratio (y) = 0.31698 0.16704
# Poissons Ratio (z) = 0.03292 0.41815
#
# Static dielectric constant tensor:
#      x y z
#    x 1.715860 0.000000 0.000000 
#    y 0.000000 1.705650 0.000000 
#    z 0.000000 0.000000 1.651880 
# 
# From -- ./inp_files/19538.got.cif
#   From: 2010.05.17/outbox.cif.g08.bks.cpg/sg49_10_cif.got.tgz:19538.got - 2010.06.03 21:02:19.
