data_PCOD9394479
_publ_section_title
;
Structure prediction by ZEFSAII (Michael W. Deem and Ramdas Pophale) SiO2 
 PCOD9394479
Probable space group: P C C M
;
_chemical_formula_sum "Si O2"
_cell_formula_units_Z 48
_cell_length_a 31.712736
_cell_length_b 9.675281
_cell_length_c 8.710752
_cell_angle_alpha 90.000000
_cell_angle_beta 90.000000
_cell_angle_gamma 90.000000
_cell_volume 2672.716831
_symmetry_space_group_name_H-M "P C C M"
_symmetry_group_IT_number 49
_symmetry_cell_setting 'orthorhombic'
loop_
_space_group_symop_operation_xyz
x,y,z
-x,-y,z
x,-y,1/2-z
-x,y,1/2-z
-x,-y,-z
x,y,-z
-x,y,1/2+z
x,-y,1/2+z
loop_
_atom_site_type_symbol
_atom_site_label
_atom_site_fract_x
_atom_site_fract_y
_atom_site_fract_z
Si Si1 0.786160 0.345903 0.815473
Si Si2 0.616111 0.152489 0.683719
Si Si3 0.455761 0.345715 0.683357
Si Si4 0.285894 0.847081 0.316455
Si Si5 0.042531 0.844007 0.816349
Si Si6 0.864189 0.845067 0.684905
O O1 0.787492 0.500000 0.750000
O O2 0.745369 0.263601 0.756345
O O3 0.827030 0.256703 0.765587
O O4 0.785643 0.351148 0.000000
O O5 0.610725 0.152855 0.500000
O O6 0.583495 0.256226 0.760596
O O7 0.665110 0.186607 0.717341
O O8 0.608494 0.000000 0.750000
O O9 0.451365 0.500000 0.750000
O O10 0.500000 0.289303 0.750000
O O11 0.457972 0.350621 0.500000
O O12 0.280569 0.850537 0.500000
O O13 0.277085 0.000000 0.250000
O O14 0.088981 0.789126 0.774135
O O15 0.000000 0.776537 0.750000
O O16 0.043288 0.000000 0.750000
O O17 0.039042 0.849203 0.000000
O O18 0.862859 0.856164 0.500000
O O19 0.858788 0.000000 0.750000
#
# Coordination Sequence:
#
# PCOD9394479 Si02
#       6
#     8   8   8   8   8   8
#     4  11  23  38  55  77 106 140 179 222 268 318
#     4  10  21  38  59  85 114 144 180 222 270 320
#     4  11  22  38  59  83 113 149 188 228 271 319
#     4  10  21  38  60  84 111 142 177 220 268 320
#     4   9  15  25  42  68  99 128 162 205 254 304
#     4   9  19  33  51  75 103 135 171 213 260 313
#
# _framework density 17.959256
#
# number of rings (size 3 to 8) (size 9 to 14) (size 15 to 20)
#    0.000    2.000    0.000    5.000    0.000    6.333 
#    0.000    1.667    0.000    0.500    0.000    3.500 
#    0.000    0.000    0.000    0.000    0.000    0.000 
#
# Total GULP energy -267900.774957 kJ/mol
# GULP energy per Si atom -5581.266145 kJ/mol
# Density = 1.791838 g / cm^3
# Si number density = 17.959256 Si / 1000 Ang^3
#
#
#
# Elastic Constant Matrix: (Units=GPa)
#
#
# Indices 1 2 3 4 5 6 
#
# 1 158.1097 98.8978 71.0300 0.0000 0.0000 0.0000
# 2 98.8978 96.4404 46.1334 0.0000 0.0000 0.0000
# 3 71.0300 46.1334 89.4927 0.0000 0.0000 0.0000
# 4 0.0000 0.0000 0.0000 28.6573 0.0000 0.0000
# 5 0.0000 0.0000 0.0000 0.0000 -53.4714 0.0000
# 6 0.0000 0.0000 0.0000 0.0000 0.0000 15.3773
#
#
#
# Elastic Compliance Matrix: (Units=1/GPa)
#
#
# Indices 1 2 3 4 5 6 
#
# 1 0.020684 -0.017730 -0.007277 0.000000 0.000000 0.000000
# 2 -0.017730 0.028961 -0.000857 0.000000 0.000000 0.000000
# 3 -0.007277 -0.000857 0.017392 0.000000 0.000000 0.000000
# 4 0.000000 0.000000 0.000000 0.034895 0.000000 0.000000
# 5 0.000000 0.000000 0.000000 0.000000 -0.018702 0.000000
# 6 0.000000 0.000000 0.000000 0.000000 0.000000 0.065031
#
#
# Mechanical properties :
#
#
# Convention : Reuss Voigt Hill
#
# Bulk Modulus (GPa) = 65.32375 86.24059 75.78217
# Shear Modulus (GPa) = 24.37924 6.64472 15.51198
#
# Velocity S-wave (km/s) = 3.68839 1.92560 2.94212
# Velocity P-wave (km/s) = 7.38859 7.28480 7.33688
#
# Compressibility (1/GPa) = 0.01530837
#
# Stress axis : x y z
#
# Youngs Moduli (GPa) = 48.34628 34.52924 57.49884
#
# Poissons Ratio (x) = 0.61221 0.41842
# Poissons Ratio (y) = 0.85718 0.04928
# Poissons Ratio (z) = 0.35182 0.02959
#
# Static dielectric constant tensor:
#      x y z
#    x 1.650370 0.000000 0.000000 
#    y 0.000000 1.375240 0.000000 
#    z 0.000000 0.000000 1.602230 
# 
# From -- ./inp_files/6854.got.cif
#   From: 2010.05.17/outbox.cif.g08.bks.cpg/sg49_4_cif.got.tgz:6854.got - 2010.06.03 21:02:19.
