data_PCOD9394095
_publ_section_title
;
Structure prediction by ZEFSAII (Michael W. Deem and Ramdas Pophale) SiO2 
 PCOD9394095
Probable space group: P C C M
;
_chemical_formula_sum "Si O2"
_cell_formula_units_Z 58
_cell_length_a 17.527686
_cell_length_b 9.883937
_cell_length_c 18.183995
_cell_angle_alpha 90.000000
_cell_angle_beta 90.000000
_cell_angle_gamma 90.000000
_cell_volume 3150.241557
_symmetry_space_group_name_H-M "P C C M"
_symmetry_group_IT_number 49
_symmetry_cell_setting 'orthorhombic'
loop_
_space_group_symop_operation_xyz
x,y,z
-x,-y,z
x,-y,1/2-z
-x,y,1/2-z
-x,-y,-z
x,y,-z
-x,y,1/2+z
x,-y,1/2+z
loop_
_atom_site_type_symbol
_atom_site_label
_atom_site_fract_x
_atom_site_fract_y
_atom_site_fract_z
Si Si1 0.584520 0.657080 0.272628
Si Si2 0.235420 0.561008 0.582612
Si Si3 0.253654 0.973517 0.914684
Si Si4 0.077818 0.425558 0.415605
Si Si5 0.344166 0.305958 0.582210
Si Si6 0.132414 0.828271 0.175972
Si Si7 0.000000 0.000000 0.750000
Si Si8 0.732216 0.788557 0.798193
O O1 0.596456 0.500000 0.250000
O O2 0.500000 0.699212 0.250000
O O3 0.591060 0.666591 0.359768
O O4 0.653413 0.749631 0.242253
O O5 0.257875 0.607700 0.500000
O O6 0.145816 0.533345 0.582585
O O7 0.277774 0.417400 0.595025
O O8 0.252793 0.663520 0.647275
O O9 0.308995 0.843348 0.911108
O O10 0.172360 0.915299 0.888344
O O11 0.274935 0.083506 0.852889
O O12 0.252471 0.020974 0.000000
O O13 0.070382 0.372090 0.500000
O O14 0.104120 0.311457 0.359045
O O15 0.000000 0.500000 0.395234
O O16 0.372029 0.324527 0.500000
O O17 0.197935 0.809391 0.239782
O O18 0.058367 0.906028 0.205051
#
# Coordination Sequence:
#
# PCOD9394095 Si02
#       8
#     8   8   8   8   8   8   2   8
#     4  11  23  41  66 101 132 164 210 265 323 377
#     4  10  20  37  60  89 122 165 213 259 311 377
#     4  11  22  41  67  92 122 168 216 258 312 380
#     4  10  22  39  60  88 120 161 213 263 317 377
#     4  10  20  39  65  91 125 171 213 251 313 388
#     4  12  24  42  63  86 127 166 212 260 319 377
#     4  12  28  44  52  92 126 164 210 262 312 372
#     4  12  23  40  64  94 127 165 212 261 315 379
#
# _framework density 18.411287000000002
#
# number of rings (size 3 to 8) (size 9 to 14) (size 15 to 20)
#    0.000    1.103    5.517    0.828    1.931    0.000 
#    0.000    5.517    0.000    1.655    0.000    0.000 
#    0.000    0.000    0.000    0.000    0.000    0.000 
#
# Total GULP energy -323660.027192 kJ/mol
# GULP energy per Si atom -5580.345296 kJ/mol
# Density = 1.836938 g / cm^3
# Si number density = 18.411287 Si / 1000 Ang^3
#
#
#
# Elastic Constant Matrix: (Units=GPa)
#
#
# Indices 1 2 3 4 5 6 
#
# 1 121.9396 29.4201 63.1180 0.0000 0.0000 0.0000
# 2 29.4201 80.6535 55.7348 0.0000 0.0000 0.0000
# 3 63.1180 55.7348 125.1298 0.0000 0.0000 0.0000
# 4 0.0000 0.0000 0.0000 40.0445 0.0000 0.0000
# 5 0.0000 0.0000 0.0000 0.0000 7.2986 0.0000
# 6 0.0000 0.0000 0.0000 0.0000 0.0000 20.2649
#
#
#
# Elastic Compliance Matrix: (Units=1/GPa)
#
#
# Indices 1 2 3 4 5 6 
#
# 1 0.011102 -0.000260 -0.005485 0.000000 0.000000 0.000000
# 2 -0.000260 0.017918 -0.007850 0.000000 0.000000 0.000000
# 3 -0.005485 -0.007850 0.014255 0.000000 0.000000 0.000000
# 4 0.000000 0.000000 0.000000 0.024972 0.000000 0.000000
# 5 0.000000 0.000000 0.000000 0.000000 0.137013 0.000000
# 6 0.000000 0.000000 0.000000 0.000000 0.000000 0.049346
#
#
# Mechanical properties :
#
#
# Convention : Reuss Voigt Hill
#
# Bulk Modulus (GPa) = 62.16358 69.36318 65.76338
# Shear Modulus (GPa) = 17.41203 25.48492 21.44848
#
# Velocity S-wave (km/s) = 3.07860 3.72452 3.41686
# Velocity P-wave (km/s) = 6.81720 7.50014 7.16681
#
# Compressibility (1/GPa) = 0.01608659
#
# Stress axis : x y z
#
# Youngs Moduli (GPa) = 90.07105 55.80943 70.15224
#
# Poissons Ratio (x) = 0.01450 0.38475
# Poissons Ratio (y) = 0.02340 0.55069
# Poissons Ratio (z) = 0.49400 0.43810
#
# Static dielectric constant tensor:
#      x y z
#    x 1.642590 0.000000 0.000000 
#    y 0.000000 1.647320 0.000000 
#    z 0.000000 0.000000 1.670070 
# 
# From -- ./inp_files/16501.got.cif
#   From: 2010.05.17/outbox.cif.g08.bks.cpg/sg49_9_cif.got.tgz:16501.got - 2010.06.03 21:02:19.
