data_PCOD9394346
_publ_section_title
;
Structure prediction by ZEFSAII (Michael W. Deem and Ramdas Pophale) SiO2 
 PCOD9394346
Probable space group: P C C M
;
_chemical_formula_sum "Si O2"
_cell_formula_units_Z 58
_cell_length_a 19.823065
_cell_length_b 19.823054
_cell_length_c 8.662637
_cell_angle_alpha 90.000000
_cell_angle_beta 90.000000
_cell_angle_gamma 90.000000
_cell_volume 3404.015156
_symmetry_space_group_name_H-M "P C C M"
_symmetry_group_IT_number 49
_symmetry_cell_setting 'orthorhombic'
loop_
_space_group_symop_operation_xyz
x,y,z
-x,-y,z
x,-y,1/2-z
-x,y,1/2-z
-x,-y,-z
x,y,-z
-x,y,1/2+z
x,-y,1/2+z
loop_
_atom_site_type_symbol
_atom_site_label
_atom_site_fract_x
_atom_site_fract_y
_atom_site_fract_z
Si Si1 0.788344 0.822950 0.685335
Si Si2 0.259110 0.572881 0.185856
Si Si3 0.072881 0.240889 0.314144
Si Si4 0.322951 0.711656 0.814665
Si Si5 0.315262 0.074788 0.184463
Si Si6 0.574788 0.184737 0.315537
Si Si7 0.000000 0.500000 0.250000
Si Si8 0.112263 0.387736 0.814051
O O1 0.785268 0.830029 0.500000
O O2 0.865412 0.808444 0.729088
O O3 0.742497 0.757502 0.726378
O O4 0.752097 0.886744 0.760709
O O5 0.279346 0.500000 0.250000
O O6 0.308444 0.634588 0.229087
O O7 0.185893 0.591900 0.253408
O O8 0.254241 0.570516 0.000000
O O9 0.070515 0.245757 0.500000
O O10 0.091900 0.314106 0.246594
O O11 0.000000 0.220653 0.250000
O O12 0.386744 0.747903 0.739290
O O13 0.330030 0.714732 0.000000
O O14 0.377629 0.122371 0.236726
O O15 0.320036 0.000000 0.250000
O O16 0.316182 0.072266 0.000000
O O17 0.500000 0.179964 0.250000
O O18 0.572266 0.183818 0.500000
O O19 0.941426 0.558574 0.247825
O O20 0.110567 0.389432 0.000000
#
# Coordination Sequence:
#
# PCOD9394346 Si02
#       8
#     8   8   8   8   8   8   2   8
#     4   9  18  35  56  77 106 144 183 228 275 325
#     4  11  22  36  53  76 105 138 182 231 284 333
#     4  11  22  36  53  76 105 138 182 231 284 333
#     4   9  18  35  56  77 106 144 183 228 275 325
#     4  10  21  36  57  87 118 150 185 219 260 317
#     4  10  21  36  57  87 118 150 185 219 260 317
#     4  12  26  36  48  70 102 148 186 224 290 344
#     4  12  24  35  50  69  99 140 183 231 279 336
#
# _framework density 17.038703000000002
#
# number of rings (size 3 to 8) (size 9 to 14) (size 15 to 20)
#    0.000    1.655    2.759    2.276    0.000    5.241 
#    0.000    1.379    0.000    0.828    0.000    5.793 
#    0.000    0.000    0.000    0.000    0.000    0.000 
#
# Total GULP energy -323323.522929 kJ/mol
# GULP energy per Si atom -5574.543499 kJ/mol
# Density = 1.699992 g / cm^3
# Si number density = 17.038703 Si / 1000 Ang^3
#
#
#
# Elastic Constant Matrix: (Units=GPa)
#
#
# Indices 1 2 3 4 5 6 
#
# 1 137.1535 95.0942 50.3796 0.0000 0.0000 0.0000
# 2 95.0942 137.1513 50.3784 0.0000 0.0000 0.0000
# 3 50.3796 50.3784 71.7293 0.0000 0.0000 0.0000
# 4 0.0000 0.0000 0.0000 15.5938 0.0000 0.0000
# 5 0.0000 0.0000 0.0000 0.0000 15.5941 0.0000
# 6 0.0000 0.0000 0.0000 0.0000 0.0000 15.9652
#
#
#
# Elastic Compliance Matrix: (Units=1/GPa)
#
#
# Indices 1 2 3 4 5 6 
#
# 1 0.014985 -0.008792 -0.004350 0.000000 0.000000 0.000000
# 2 -0.008792 0.014985 -0.004349 0.000000 0.000000 0.000000
# 3 -0.004350 -0.004349 0.020051 0.000000 0.000000 0.000000
# 4 0.000000 0.000000 0.000000 0.064128 0.000000 0.000000
# 5 0.000000 0.000000 0.000000 0.000000 0.064127 0.000000
# 6 0.000000 0.000000 0.000000 0.000000 0.000000 0.062636
#
#
# Mechanical properties :
#
#
# Convention : Reuss Voigt Hill
#
# Bulk Modulus (GPa) = 66.49552 81.97097 74.23325
# Shear Modulus (GPa) = 17.79953 19.44274 18.62114
#
# Velocity S-wave (km/s) = 3.23562 3.38167 3.30945
# Velocity P-wave (km/s) = 7.28490 7.96622 7.63317
#
# Compressibility (1/GPa) = 0.01503861
#
# Stress axis : x y z
#
# Youngs Moduli (GPa) = 66.73511 66.73472 49.87287
#
# Poissons Ratio (x) = 0.58673 0.21693
# Poissons Ratio (y) = 0.58673 0.21691
# Poissons Ratio (z) = 0.29027 0.29025
#
# Static dielectric constant tensor:
#      x y z
#    x 1.561990 0.000000 0.000000 
#    y 0.000000 1.561990 0.000000 
#    z 0.000000 0.000000 1.583790 
# 
# From -- ./inp_files/5105.got.cif
#   From: 2010.05.17/outbox.cif.g08.bks.cpg/sg49_3_cif.got.tgz:5105.got - 2010.06.03 21:02:19.
