data_PCOD9394615
_publ_section_title
;
Structure prediction by ZEFSAII (Michael W. Deem and Ramdas Pophale) SiO2 
 PCOD9394615
Probable space group: P C C M
;
_chemical_formula_sum "Si O2"
_cell_formula_units_Z 38
_cell_length_a 15.300733
_cell_length_b 10.932128
_cell_length_c 9.984006
_cell_angle_alpha 90.000000
_cell_angle_beta 90.000000
_cell_angle_gamma 90.000000
_cell_volume 1670.020407
_symmetry_space_group_name_H-M "P C C M"
_symmetry_group_IT_number 49
_symmetry_cell_setting 'orthorhombic'
loop_
_space_group_symop_operation_xyz
x,y,z
-x,-y,z
x,-y,1/2-z
-x,y,1/2-z
-x,-y,-z
x,y,-z
-x,y,1/2+z
x,-y,1/2+z
loop_
_atom_site_type_symbol
_atom_site_label
_atom_site_fract_x
_atom_site_fract_y
_atom_site_fract_z
Si Si1 0.429224 0.234018 0.647046
Si Si2 0.344279 0.000000 0.750000
Si Si3 0.223456 0.950896 0.500000
Si Si4 0.082857 0.856066 0.000000
Si Si5 0.836986 0.691789 0.000000
Si Si6 0.000000 0.000000 0.250000
Si Si7 0.260552 0.629141 0.228765
Si Si8 0.879333 0.582013 0.500000
O O1 0.500000 0.282952 0.750000
O O2 0.464393 0.252623 0.500000
O O3 0.407712 0.094338 0.677801
O O4 0.332881 0.288379 0.663157
O O5 0.282201 0.943144 0.633848
O O6 0.148859 0.841476 0.500000
O O7 0.180659 0.086622 0.500000
O O8 0.048390 0.911911 0.141757
O O9 0.066031 0.709994 0.000000
O O10 0.778897 0.674955 0.132389
O O11 0.899459 0.566665 0.000000
O O12 0.306611 0.500000 0.250000
O O13 0.180263 0.602381 0.130331
#
# Coordination Sequence:
#
# PCOD9394615 Si02
#       8
#     8   4   4   4   4   2   8   4
#     4  12  26  40  56  80 123 175 221 274 344 406
#     4  12  24  40  60  90 126 162 216 286 334 392
#     4  12  23  38  72 100 128 161 221 275 336 387
#     4  11  24  44  72 103 140 180 220 254 313 379
#     4  10  22  36  66 103 124 159 211 285 334 383
#     4  10  26  46  68 102 148 190 214 248 292 400
#     4  10  21  40  61  91 123 158 215 282 339 390
#     4  10  21  42  69  96 131 165 214 282 332 377
#
# _framework density 22.754214999999999
#
# number of rings (size 3 to 8) (size 9 to 14) (size 15 to 20)
#    0.000    1.053    4.211    2.211    5.895    1.263 
#    0.000    1.053    0.000    3.789    0.000    0.000 
#    0.000    0.000    0.000    0.000    0.000    0.000 
#
# Total GULP energy -211802.629618 kJ/mol
# GULP energy per Si atom -5573.753411 kJ/mol
# Density = 2.270242 g / cm^3
# Si number density = 22.754215 Si / 1000 Ang^3
#
#
#
# Elastic Constant Matrix: (Units=GPa)
#
#
# Indices 1 2 3 4 5 6 
#
# 1 30.9090 23.3723 29.9181 0.0000 0.0000 0.0000
# 2 23.3723 115.4941 14.1548 0.0000 0.0000 0.0000
# 3 29.9181 14.1548 192.4695 0.0000 0.0000 0.0000
# 4 0.0000 0.0000 0.0000 33.5575 0.0000 0.0000
# 5 0.0000 0.0000 0.0000 0.0000 14.2795 0.0000
# 6 0.0000 0.0000 0.0000 0.0000 0.0000 -20.1221
#
#
#
# Elastic Compliance Matrix: (Units=1/GPa)
#
#
# Indices 1 2 3 4 5 6 
#
# 1 0.044759 -0.008280 -0.006349 0.000000 0.000000 0.000000
# 2 -0.008280 0.010269 0.000532 0.000000 0.000000 0.000000
# 3 -0.006349 0.000532 0.006143 0.000000 0.000000 0.000000
# 4 0.000000 0.000000 0.000000 0.029800 0.000000 0.000000
# 5 0.000000 0.000000 0.000000 0.000000 0.070030 0.000000
# 6 0.000000 0.000000 0.000000 0.000000 0.000000 -0.049697
#
#
# Mechanical properties :
#
#
# Convention : Reuss Voigt Hill
#
# Bulk Modulus (GPa) = 30.32309 52.64033 41.48171
# Shear Modulus (GPa) = 33.22487 23.63815 28.43151
#
# Velocity S-wave (km/s) = 3.82535 3.22661 3.53867
# Velocity P-wave (km/s) = 5.73292 6.08818 5.91322
#
# Compressibility (1/GPa) = 0.03297817
#
# Stress axis : x y z
#
# Youngs Moduli (GPa) = 22.34199 97.38229 162.77744
#
# Poissons Ratio (x) = 0.80629 1.03340
# Poissons Ratio (y) = 0.18498 -0.08657
# Poissons Ratio (z) = 0.14184 -0.05179
#
# Static dielectric constant tensor:
#      x y z
#    x 1.849570 0.000000 0.000000 
#    y 0.000000 2.024960 0.000000 
#    z 0.000000 0.000000 1.799570 
# 
# From -- ./inp_files/4718.got.cif
#   From: 2010.05.17/outbox.cif.g08.bks.cpg/sg49_3_cif.got.tgz:4718.got - 2010.06.03 21:02:19.
