data_PCOD9394609
_publ_section_title
;
Structure prediction by ZEFSAII (Michael W. Deem and Ramdas Pophale) SiO2 
 PCOD9394609
Probable space group: P C C M
;
_chemical_formula_sum "Si O2"
_cell_formula_units_Z 58
_cell_length_a 10.123704
_cell_length_b 16.807963
_cell_length_c 15.706108
_cell_angle_alpha 90.000000
_cell_angle_beta 90.000000
_cell_angle_gamma 90.000000
_cell_volume 2672.533154
_symmetry_space_group_name_H-M "P C C M"
_symmetry_group_IT_number 49
_symmetry_cell_setting 'orthorhombic'
loop_
_space_group_symop_operation_xyz
x,y,z
-x,-y,z
x,-y,1/2-z
-x,y,1/2-z
-x,-y,-z
x,y,-z
-x,y,1/2+z
x,-y,1/2+z
loop_
_atom_site_type_symbol
_atom_site_label
_atom_site_fract_x
_atom_site_fract_y
_atom_site_fract_z
Si Si1 0.297695 0.297693 0.099014
Si Si2 0.002757 0.738178 0.146559
Si Si3 0.000000 0.000000 0.250000
Si Si4 0.086334 0.432439 0.660368
Si Si5 0.654303 0.018534 0.408026
Si Si6 0.640588 0.157507 0.285819
Si Si7 0.345392 0.483028 0.896934
Si Si8 0.171579 0.877581 0.142674
O O1 0.376258 0.234886 0.156231
O O2 0.317742 0.390058 0.122094
O O3 0.145644 0.274651 0.115222
O O4 0.331823 0.288953 0.000000
O O5 0.079378 0.656587 0.126571
O O6 0.072829 0.813573 0.104056
O O7 0.000000 0.751139 0.250000
O O8 0.915308 0.058182 0.192082
O O9 0.236325 0.464829 0.654462
O O10 0.000000 0.500000 0.612712
O O11 0.000000 0.424692 0.750000
O O12 0.673966 0.057141 0.500000
O O13 0.696723 0.082341 0.338035
O O14 0.500000 0.000000 0.396757
O O15 0.729234 0.934843 0.406773
O O16 0.500000 0.132431 0.250000
O O17 0.738688 0.172338 0.208338
O O18 0.500000 0.500000 0.877853
O O19 0.326759 0.495448 0.000000
#
# Coordination Sequence:
#
# PCOD9394609 Si02
#       8
#     8   8   2   8   8   8   8   8
#     4  11  24  43  67 100 138 177 224 283 349 407
#     4  11  22  40  66  96 139 177 230 288 332 412
#     4  12  20  36  64  88 118 168 214 258 316 388
#     4  10  21  39  68  99 135 181 237 287 337 410
#     4  11  24  43  65  93 129 166 215 278 340 406
#     4  12  23  41  68  93 126 176 221 269 340 415
#     4  10  23  45  70 100 141 187 229 282 358 434
#     4  12  23  39  66  97 126 171 227 272 330 414
#
# _framework density 21.702258
#
# number of rings (size 3 to 8) (size 9 to 14) (size 15 to 20)
#    0.000    0.966    6.207    0.414    0.000    2.483 
#    0.000    1.724    0.000    0.000    0.000    0.000 
#    0.000    0.000    0.000    0.000    0.000    0.000 
#
# Total GULP energy -323836.387105 kJ/mol
# GULP energy per Si atom -5583.385985 kJ/mol
# Density = 2.165286 g / cm^3
# Si number density = 21.702258 Si / 1000 Ang^3
#
#
#
# Elastic Constant Matrix: (Units=GPa)
#
#
# Indices 1 2 3 4 5 6 
#
# 1 122.0334 41.3205 21.7364 0.0000 0.0000 0.0000
# 2 41.3205 126.9643 19.6133 0.0000 0.0000 0.0000
# 3 21.7364 19.6133 59.3722 0.0000 0.0000 0.0000
# 4 0.0000 0.0000 0.0000 -65.4125 0.0000 0.0000
# 5 0.0000 0.0000 0.0000 0.0000 0.8070 0.0000
# 6 0.0000 0.0000 0.0000 0.0000 0.0000 31.2980
#
#
#
# Elastic Compliance Matrix: (Units=1/GPa)
#
#
# Indices 1 2 3 4 5 6 
#
# 1 0.009578 -0.002714 -0.002610 0.000000 0.000000 0.000000
# 2 -0.002714 0.009069 -0.002002 0.000000 0.000000 0.000000
# 3 -0.002610 -0.002002 0.018460 0.000000 0.000000 0.000000
# 4 0.000000 0.000000 0.000000 -0.015288 0.000000 0.000000
# 5 0.000000 0.000000 0.000000 0.000000 1.239179 0.000000
# 6 0.000000 0.000000 0.000000 0.000000 0.000000 0.031951
#
#
# Mechanical properties :
#
#
# Convention : Reuss Voigt Hill
#
# Bulk Modulus (GPa) = 44.53485 52.63446 48.58466
# Shear Modulus (GPa) = 3.80203 8.38516 6.09359
#
# Velocity S-wave (km/s) = 1.32503 1.96777 1.67747
# Velocity P-wave (km/s) = 4.78606 5.42849 5.11736
#
# Compressibility (1/GPa) = 0.02245432
#
# Stress axis : x y z
#
# Youngs Moduli (GPa) = 104.40198 110.26795 54.17158
#
# Poissons Ratio (x) = 0.29927 0.14139
# Poissons Ratio (y) = 0.28335 0.10846
# Poissons Ratio (z) = 0.27250 0.22078
#
# Static dielectric constant tensor:
#      x y z
#    x 1.789950 0.000000 0.000000 
#    y 0.000000 1.794070 0.000000 
#    z 0.000000 0.000000 1.851570 
# 
# From -- ./inp_files/16490.got.cif
#   From: 2010.05.17/outbox.cif.g08.bks.cpg/sg49_9_cif.got.tgz:16490.got - 2010.06.03 21:02:19.
