data_PCOD9394350
_publ_section_title
;
Structure prediction by ZEFSAII (Michael W. Deem and Ramdas Pophale) SiO2 
 PCOD9394350
Probable space group: P C C M
;
_chemical_formula_sum "Si O2"
_cell_formula_units_Z 64
_cell_length_a 21.070151
_cell_length_b 9.031179
_cell_length_c 15.844183
_cell_angle_alpha 90.000000
_cell_angle_beta 90.000000
_cell_angle_gamma 90.000000
_cell_volume 3014.962731
_symmetry_space_group_name_H-M "P C C M"
_symmetry_group_IT_number 49
_symmetry_cell_setting 'orthorhombic'
loop_
_space_group_symop_operation_xyz
x,y,z
-x,-y,z
x,-y,1/2-z
-x,y,1/2-z
-x,-y,-z
x,y,-z
-x,y,1/2+z
x,-y,1/2+z
loop_
_atom_site_type_symbol
_atom_site_label
_atom_site_fract_x
_atom_site_fract_y
_atom_site_fract_z
Si Si1 0.637018 0.811858 0.602066
Si Si2 0.058347 0.391204 0.595419
Si Si3 0.590996 0.866867 0.100827
Si Si4 0.518565 0.657726 0.652524
Si Si5 0.774868 0.094107 0.899710
Si Si6 0.278687 0.759365 0.400359
Si Si7 0.105630 0.159665 0.277776
Si Si8 0.838317 0.596201 0.833538
O O1 0.632852 0.806587 0.500000
O O2 0.592545 0.686607 0.639300
O O3 0.711528 0.812789 0.622278
O O4 0.605516 0.967449 0.632123
O O5 0.053211 0.333910 0.500000
O O6 0.061413 0.261292 0.663800
O O7 0.120781 0.494631 0.603998
O O8 0.000000 0.500000 0.613035
O O9 0.523824 0.791896 0.116609
O O10 0.649655 0.767436 0.133958
O O11 0.598506 0.877013 0.000000
O O12 0.500000 0.500000 0.613378
O O13 0.500000 0.654330 0.750000
O O14 0.831832 0.131603 0.836694
O O15 0.752192 0.923400 0.889878
O O16 0.790299 0.115983 0.000000
O O17 0.282215 0.731620 0.500000
O O18 0.230742 0.641979 0.363210
O O19 0.124813 0.255470 0.195732
O O20 0.081075 0.000000 0.250000
O O21 0.833531 0.500000 0.750000
#
# Coordination Sequence:
#
# PCOD9394350 Si02
#       8
#     8   8   8   8   8   8   8   8
#     4   9  19  37  61  84 106 147 201 250 304 371
#     4  10  23  45  68  91 128 178 223 255 296 369
#     4   9  19  36  59  81 103 142 197 248 299 364
#     4  11  24  39  49  74 114 152 193 249 313 372
#     4   9  18  35  61  91 123 157 201 261 316 370
#     4   9  17  34  58  85 117 155 200 252 306 369
#     4  11  21  37  64 100 133 162 205 261 324 369
#     4  10  21  36  58  90 127 168 204 248 315 377
#
# _framework density 21.227459
#
# number of rings (size 3 to 8) (size 9 to 14) (size 15 to 20)
#    0.000    2.250    1.250    3.000    0.000    6.250 
#    6.750    1.250    0.000    1.500    0.000    0.000 
#    0.000    0.000    0.000    0.000    0.000    0.000 
#
# Total GULP energy -357442.484888 kJ/mol
# GULP energy per Si atom -5585.038826 kJ/mol
# Density = 2.117914 g / cm^3
# Si number density = 21.227459 Si / 1000 Ang^3
#
#
#
# Elastic Constant Matrix: (Units=GPa)
#
#
# Indices 1 2 3 4 5 6 
#
# 1 70.8828 9.9416 14.2968 0.0000 0.0000 0.0000
# 2 9.9416 60.4392 15.5706 0.0000 0.0000 0.0000
# 3 14.2968 15.5706 37.5099 0.0000 0.0000 0.0000
# 4 0.0000 0.0000 0.0000 -13.3837 0.0000 0.0000
# 5 0.0000 0.0000 0.0000 0.0000 -31.3186 0.0000
# 6 0.0000 0.0000 0.0000 0.0000 0.0000 20.1647
#
#
#
# Elastic Compliance Matrix: (Units=1/GPa)
#
#
# Indices 1 2 3 4 5 6 
#
# 1 0.015352 -0.001140 -0.005378 0.000000 0.000000 0.000000
# 2 -0.001140 0.018611 -0.007291 0.000000 0.000000 0.000000
# 3 -0.005378 -0.007291 0.031736 0.000000 0.000000 0.000000
# 4 0.000000 0.000000 0.000000 -0.074718 0.000000 0.000000
# 5 0.000000 0.000000 0.000000 0.000000 -0.031930 0.000000
# 6 0.000000 0.000000 0.000000 0.000000 0.000000 0.049591
#
#
# Mechanical properties :
#
#
# Convention : Reuss Voigt Hill
#
# Bulk Modulus (GPa) = 26.25966 27.60555 26.93260
# Shear Modulus (GPa) = 102.13025 3.69400 52.91213
#
# Velocity S-wave (km/s) = 6.94383 1.32060 4.99804
# Velocity P-wave (km/s) = 8.75708 3.91895 6.78398
#
# Compressibility (1/GPa) = 0.03808122
#
# Stress axis : x y z
#
# Youngs Moduli (GPa) = 65.13612 53.73035 31.50961
#
# Poissons Ratio (x) = 0.06124 0.16947
# Poissons Ratio (y) = 0.07423 0.22975
# Poissons Ratio (z) = 0.35033 0.39177
#
# Static dielectric constant tensor:
#      x y z
#    x 1.795340 0.000000 0.000000 
#    y 0.000000 1.793080 0.000000 
#    z 0.000000 0.000000 1.771470 
# 
# From -- ./inp_files/18290.got.cif
#   From: 2010.05.17/outbox.cif.g08.bks.cpg/sg49_10_cif.got.tgz:18290.got - 2010.06.03 21:02:19.
