data_PCOD9394866
_publ_section_title
;
Structure prediction by ZEFSAII (Michael W. Deem and Ramdas Pophale) SiO2 
 PCOD9394866
Probable space group: P C C M
;
_chemical_formula_sum "Si O2"
_cell_formula_units_Z 40
_cell_length_a 9.225926
_cell_length_b 11.778305
_cell_length_c 18.501734
_cell_angle_alpha 90.000000
_cell_angle_beta 90.000000
_cell_angle_gamma 90.000000
_cell_volume 2010.505178
_symmetry_space_group_name_H-M "P C C M"
_symmetry_group_IT_number 49
_symmetry_cell_setting 'orthorhombic'
loop_
_space_group_symop_operation_xyz
x,y,z
-x,-y,z
x,-y,1/2-z
-x,y,1/2-z
-x,-y,-z
x,y,-z
-x,y,1/2+z
x,-y,1/2+z
loop_
_atom_site_type_symbol
_atom_site_label
_atom_site_fract_x
_atom_site_fract_y
_atom_site_fract_z
Si Si1 0.152718 0.566641 0.814517
Si Si2 0.194265 0.781758 0.587197
Si Si3 0.331194 0.999672 0.162912
Si Si4 0.914383 0.180912 0.820490
Si Si5 0.653672 0.455070 0.414225
O O1 0.232666 0.500000 0.750000
O O2 0.143746 0.697330 0.794345
O O3 0.232717 0.549193 0.889272
O O4 0.000000 0.500000 0.821289
O O5 0.195560 0.790635 0.500000
O O6 0.280300 0.666705 0.608857
O O7 0.031277 0.786389 0.618270
O O8 0.267824 0.888542 0.625853
O O9 0.215046 0.897788 0.149651
O O10 0.500000 0.000000 0.139275
O O11 0.333937 0.000000 0.250000
O O12 0.000000 0.131435 0.750000
O O13 0.500000 0.500000 0.385503
O O14 0.642609 0.447872 0.500000
#
# Coordination Sequence:
#
# PCOD9394866 Si02
#       5
#     8   8   8   8   8
#     4  11  21  38  62  98 129 161 217 271 324 392
#     4  11  24  43  67  97 130 171 226 273 326 399
#     4  11  26  43  65  93 127 174 222 272 337 401
#     4  12  22  41  67  94 131 173 218 274 333 399
#     4  10  23  42  64  93 133 174 209 260 331 396
#
# _framework density 19.895496000000001
#
# number of rings (size 3 to 8) (size 9 to 14) (size 15 to 20)
#    0.000    1.000    6.000    0.600    2.800    3.600 
#    0.000    0.000    0.000    0.000    0.000    0.000 
#    0.000    0.000    0.000    0.000    0.000    0.000 
#
# Total GULP energy -222951.472914 kJ/mol
# GULP energy per Si atom -5573.786823 kJ/mol
# Density = 1.985021 g / cm^3
# Si number density = 19.895496 Si / 1000 Ang^3
#
#
#
# Elastic Constant Matrix: (Units=GPa)
#
#
# Indices 1 2 3 4 5 6 
#
# 1 128.4671 59.4629 28.2002 0.0000 0.0000 0.0000
# 2 59.4629 126.2973 31.8539 0.0000 0.0000 0.0000
# 3 28.2002 31.8539 51.9530 0.0000 0.0000 0.0000
# 4 0.0000 0.0000 0.0000 31.0575 0.0000 0.0000
# 5 0.0000 0.0000 0.0000 0.0000 29.4498 0.0000
# 6 0.0000 0.0000 0.0000 0.0000 0.0000 -41.7803
#
#
#
# Elastic Compliance Matrix: (Units=1/GPa)
#
#
# Indices 1 2 3 4 5 6 
#
# 1 0.010362 -0.004093 -0.003115 0.000000 0.000000 0.000000
# 2 -0.004093 0.010983 -0.004512 0.000000 0.000000 0.000000
# 3 -0.003115 -0.004512 0.023706 0.000000 0.000000 0.000000
# 4 0.000000 0.000000 0.000000 0.032198 0.000000 0.000000
# 5 0.000000 0.000000 0.000000 0.000000 0.033956 0.000000
# 6 0.000000 0.000000 0.000000 0.000000 0.000000 -0.023935
#
#
# Mechanical properties :
#
#
# Convention : Reuss Voigt Hill
#
# Bulk Modulus (GPa) = 46.27470 60.63904 53.45687
# Shear Modulus (GPa) = 42.40333 16.22541 29.31437
#
# Velocity S-wave (km/s) = 4.62161 2.85885 3.84268
# Velocity P-wave (km/s) = 7.19642 6.43757 6.82755
#
# Compressibility (1/GPa) = 0.02161008
#
# Stress axis : x y z
#
# Youngs Moduli (GPa) = 96.50195 91.04982 42.18409
#
# Poissons Ratio (x) = 0.37268 0.13141
# Poissons Ratio (y) = 0.39500 0.19034
# Poissons Ratio (z) = 0.30062 0.41084
#
# Static dielectric constant tensor:
#      x y z
#    x 1.780930 0.000000 0.000000 
#    y 0.000000 1.715820 0.000000 
#    z 0.000000 0.000000 1.734100 
# 
# From -- ./inp_files/15960.got.cif
#   From: 2010.05.17/outbox.cif.g08.bks.cpg/sg49_8_cif.got.tgz:15960.got - 2010.06.03 21:02:19.
