data_PCOD9394099
_publ_section_title
;
Structure prediction by ZEFSAII (Michael W. Deem and Ramdas Pophale) SiO2 
 PCOD9394099
Probable space group: P C C M
;
_chemical_formula_sum "Si O2"
_cell_formula_units_Z 40
_cell_length_a 8.893170
_cell_length_b 9.947478
_cell_length_c 21.252554
_cell_angle_alpha 90.000000
_cell_angle_beta 90.000000
_cell_angle_gamma 90.000000
_cell_volume 1880.098963
_symmetry_space_group_name_H-M "P C C M"
_symmetry_group_IT_number 49
_symmetry_cell_setting 'orthorhombic'
loop_
_space_group_symop_operation_xyz
x,y,z
-x,-y,z
x,-y,1/2-z
-x,y,1/2-z
-x,-y,-z
x,y,-z
-x,y,1/2+z
x,-y,1/2+z
loop_
_atom_site_type_symbol
_atom_site_label
_atom_site_fract_x
_atom_site_fract_y
_atom_site_fract_z
Si Si1 0.655430 0.587941 0.194852
Si Si2 0.361936 0.249691 0.432450
Si Si3 0.173519 0.979366 0.428584
Si Si4 0.589079 0.861542 0.832882
Si Si5 0.177673 0.524702 0.570698
O O1 0.500000 0.500000 0.184207
O O2 0.731636 0.500000 0.250000
O O3 0.636583 0.744440 0.215706
O O4 0.751126 0.596399 0.130920
O O5 0.443571 0.249512 0.500000
O O6 0.477142 0.222854 0.377410
O O7 0.266418 0.383789 0.428151
O O8 0.248904 0.125389 0.432103
O O9 0.182739 0.921254 0.500000
O O10 0.269373 0.904082 0.375756
O O11 0.000000 0.000000 0.412349
O O12 0.500000 0.000000 0.816093
O O13 0.200193 0.582913 0.500000
O O14 0.000000 0.500000 0.578210
#
# Coordination Sequence:
#
# PCOD9394099 Si02
#       5
#     8   8   8   8   8
#     4  11  24  43  65  93 128 167 216 269 325 388
#     4   9  17  32  52  84 125 163 207 259 313 381
#     4   9  18  30  52  87 127 168 207 258 322 383
#     4  10  20  37  61  87 119 167 210 263 317 382
#     4  10  22  38  62  94 130 171 216 269 326 388
#
# _framework density 21.275476999999999
#
# number of rings (size 3 to 8) (size 9 to 14) (size 15 to 20)
#    0.000    2.200    2.000    0.600    2.800    4.800 
#    0.000    2.000    0.000    0.000    0.000    1.400 
#    0.000    0.000    0.000    0.000    0.000    0.000 
#
# Total GULP energy -223018.165527 kJ/mol
# GULP energy per Si atom -5575.454138 kJ/mol
# Density = 2.122705 g / cm^3
# Si number density = 21.275477 Si / 1000 Ang^3
#
#
#
# Elastic Constant Matrix: (Units=GPa)
#
#
# Indices 1 2 3 4 5 6 
#
# 1 96.7944 9.4583 36.4063 0.0000 0.0000 0.0000
# 2 9.4583 136.7994 30.1352 0.0000 0.0000 0.0000
# 3 36.4063 30.1352 93.8799 0.0000 0.0000 0.0000
# 4 0.0000 0.0000 0.0000 -4.1895 0.0000 0.0000
# 5 0.0000 0.0000 0.0000 0.0000 -75.1840 0.0000
# 6 0.0000 0.0000 0.0000 0.0000 0.0000 2.0951
#
#
#
# Elastic Compliance Matrix: (Units=1/GPa)
#
#
# Indices 1 2 3 4 5 6 
#
# 1 0.012101 0.000212 -0.004761 0.000000 0.000000 0.000000
# 2 0.000212 0.007870 -0.002608 0.000000 0.000000 0.000000
# 3 -0.004761 -0.002608 0.013335 0.000000 0.000000 0.000000
# 4 0.000000 0.000000 0.000000 -0.238693 0.000000 0.000000
# 5 0.000000 0.000000 0.000000 0.000000 -0.013301 0.000000
# 6 0.000000 0.000000 0.000000 0.000000 0.000000 0.477296
#
#
# Mechanical properties :
#
#
# Convention : Reuss Voigt Hill
#
# Bulk Modulus (GPa) = 52.65368 53.27481 52.96425
# Shear Modulus (GPa) = 17.90482 1.30926 9.60704
#
# Velocity S-wave (km/s) = 2.90413 0.78532 2.12729
# Velocity P-wave (km/s) = 6.00396 5.09089 5.56618
#
# Compressibility (1/GPa) = 0.01899202
#
# Stress axis : x y z
#
# Youngs Moduli (GPa) = 82.63711 127.06606 74.98806
#
# Poissons Ratio (x) = -0.02695 0.35701
# Poissons Ratio (y) = -0.01753 0.19560
# Poissons Ratio (z) = 0.39342 0.33145
#
# Static dielectric constant tensor:
#      x y z
#    x 1.690340 0.000000 0.000000 
#    y 0.000000 1.809670 0.000000 
#    z 0.000000 0.000000 1.857720 
# 
# From -- ./inp_files/22197.got.cif
#   From: 2010.05.17/outbox.cif.g08.bks.cpg/sg49_12_cif.got.tgz:22197.got - 2010.06.03 21:02:19.
