data_PCOD9394762
_publ_section_title
;
Structure prediction by ZEFSAII (Michael W. Deem and Ramdas Pophale) SiO2 
 PCOD9394762
Probable space group: P C C M
;
_chemical_formula_sum "Si O2"
_cell_formula_units_Z 48
_cell_length_a 10.409000
_cell_length_b 14.219285
_cell_length_c 16.248105
_cell_angle_alpha 90.000000
_cell_angle_beta 90.000000
_cell_angle_gamma 90.000000
_cell_volume 2404.858259
_symmetry_space_group_name_H-M "P C C M"
_symmetry_group_IT_number 49
_symmetry_cell_setting 'orthorhombic'
loop_
_space_group_symop_operation_xyz
x,y,z
-x,-y,z
x,-y,1/2-z
-x,y,1/2-z
-x,-y,-z
x,y,-z
-x,y,1/2+z
x,-y,1/2+z
loop_
_atom_site_type_symbol
_atom_site_label
_atom_site_fract_x
_atom_site_fract_y
_atom_site_fract_z
Si Si1 0.611612 0.426791 0.400783
Si Si2 0.125798 0.268100 0.304065
Si Si3 0.137379 0.458351 0.599094
Si Si4 0.894627 0.075904 0.096115
Si Si5 0.643092 0.973224 0.152630
Si Si6 0.624344 0.233621 0.306505
O O1 0.500000 0.500000 0.376839
O O2 0.609446 0.417922 0.500000
O O3 0.747218 0.472817 0.375447
O O4 0.595133 0.325247 0.360503
O O5 0.152087 0.355476 0.363632
O O6 0.100172 0.172080 0.353544
O O7 0.251421 0.254046 0.248641
O O8 0.000000 0.288505 0.250000
O O9 0.140616 0.452449 0.500000
O O10 0.000000 0.500000 0.624112
O O11 0.755083 0.029248 0.107595
O O12 0.919364 0.094709 0.000000
O O13 0.000000 0.000000 0.125730
O O14 0.655593 0.861206 0.143917
O O15 0.500000 0.000000 0.125400
O O16 0.654130 0.000000 0.250000
O O17 0.500000 0.213014 0.250000
#
# Coordination Sequence:
#
# PCOD9394762 Si02
#       6
#     8   8   8   8   8   8
#     4  10  23  42  62  88 126 166 204 256 315 370
#     4  12  24  38  63  92 120 162 204 258 316 373
#     4  10  22  41  60  82 120 161 199 252 307 367
#     4  11  25  42  63  93 126 166 212 260 316 383
#     4  11  21  42  65  90 128 166 205 257 319 370
#     4  12  23  38  65  93 121 161 205 255 311 370
#
# _framework density 19.959595
#
# number of rings (size 3 to 8) (size 9 to 14) (size 15 to 20)
#    0.000    1.000    3.333    3.500    0.000    5.000 
#    0.000    8.333    0.000    0.000    0.000    0.000 
#    0.000    0.000    0.000    0.000    0.000    0.000 
#
# Total GULP energy -268568.938749 kJ/mol
# GULP energy per Si atom -5595.186224 kJ/mol
# Density = 1.991417 g / cm^3
# Si number density = 19.959595 Si / 1000 Ang^3
#
#
#
# Elastic Constant Matrix: (Units=GPa)
#
#
# Indices 1 2 3 4 5 6 
#
# 1 63.5588 -24.9698 -3.9966 0.0000 0.0000 0.0000
# 2 -24.9698 119.1742 18.2298 0.0000 0.0000 0.0000
# 3 -3.9966 18.2298 20.1443 0.0000 0.0000 0.0000
# 4 0.0000 0.0000 0.0000 22.4738 0.0000 0.0000
# 5 0.0000 0.0000 0.0000 0.0000 38.0177 0.0000
# 6 0.0000 0.0000 0.0000 0.0000 0.0000 37.7924
#
#
#
# Elastic Compliance Matrix: (Units=1/GPa)
#
#
# Indices 1 2 3 4 5 6 
#
# 1 0.017145 0.003566 0.000175 0.000000 0.000000 0.000000
# 2 0.003566 0.010481 -0.008777 0.000000 0.000000 0.000000
# 3 0.000175 -0.008777 0.057620 0.000000 0.000000 0.000000
# 4 0.000000 0.000000 0.000000 0.044496 0.000000 0.000000
# 5 0.000000 0.000000 0.000000 0.000000 0.026304 0.000000
# 6 0.000000 0.000000 0.000000 0.000000 0.000000 0.026460
#
#
# Mechanical properties :
#
#
# Convention : Reuss Voigt Hill
#
# Bulk Modulus (GPa) = 13.30281 20.15602 16.72941
# Shear Modulus (GPa) = 22.97402 33.89769 28.43585
#
# Velocity S-wave (km/s) = 3.39636 4.12553 3.77858
# Velocity P-wave (km/s) = 4.69677 5.72832 5.23800
#
# Compressibility (1/GPa) = 0.07517208
#
# Stress axis : x y z
#
# Youngs Moduli (GPa) = 58.32527 95.41253 17.35513
#
# Poissons Ratio (x) = -0.34020 -0.00303
# Poissons Ratio (y) = -0.20796 0.15233
# Poissons Ratio (z) = -0.01020 0.83747
#
# Static dielectric constant tensor:
#      x y z
#    x 1.678940 0.000000 0.000000 
#    y 0.000000 1.666780 0.000000 
#    z 0.000000 0.000000 1.744620 
# 
# From -- ./inp_files/16336.got.cif
#   From: 2010.05.17/outbox.cif.g08.bks.cpg/sg49_9_cif.got.tgz:16336.got - 2010.06.03 21:02:19.
