data_PCOD9394279
_publ_section_title
;
Structure prediction by ZEFSAII (Michael W. Deem and Ramdas Pophale) SiO2 
 PCOD9394279
Probable space group: P C C M
;
_chemical_formula_sum "Si O2"
_cell_formula_units_Z 36
_cell_length_a 11.963153
_cell_length_b 19.337747
_cell_length_c 8.041661
_cell_angle_alpha 90.000000
_cell_angle_beta 90.000000
_cell_angle_gamma 90.000000
_cell_volume 1860.361282
_symmetry_space_group_name_H-M "P C C M"
_symmetry_group_IT_number 49
_symmetry_cell_setting 'orthorhombic'
loop_
_space_group_symop_operation_xyz
x,y,z
-x,-y,z
x,-y,1/2-z
-x,y,1/2-z
-x,-y,-z
x,y,-z
-x,y,1/2+z
x,-y,1/2+z
loop_
_atom_site_type_symbol
_atom_site_label
_atom_site_fract_x
_atom_site_fract_y
_atom_site_fract_z
Si Si1 0.500000 0.813866 0.250000
Si Si2 0.688609 0.277943 0.189921
Si Si3 0.127294 0.177087 0.196284
Si Si4 0.369973 0.576089 0.303062
Si Si5 0.325685 0.920952 0.300785
O O1 0.405254 0.758323 0.306794
O O2 0.408411 0.871795 0.195645
O O3 0.805104 0.239214 0.217015
O O4 0.692745 0.359050 0.223518
O O5 0.649096 0.266146 0.000000
O O6 0.201390 0.108516 0.228360
O O7 0.000000 0.170516 0.250000
O O8 0.131409 0.190201 0.000000
O O9 0.330245 0.500000 0.250000
O O10 0.500000 0.581393 0.250000
O O11 0.363720 0.581662 0.500000
O O12 0.350808 0.911961 0.500000
O O13 0.337415 0.000000 0.250000
#
# Coordination Sequence:
#
# PCOD9394279 Si02
#       5
#     4   8   8   8   8
#     4  10  21  34  55  80 114 146 188 224 275 338
#     4  11  21  35  58  84 114 150 187 230 282 332
#     4  10  22  40  59  81 108 141 188 236 284 335
#     4  11  21  34  53  81 118 155 191 228 273 327
#     4  10  22  37  54  79 109 144 182 228 280 337
#
# _framework density 19.35108
#
# number of rings (size 3 to 8) (size 9 to 14) (size 15 to 20)
#    0.000    1.556    1.111    5.000    0.000    8.444 
#    0.000    2.222    0.000    0.667    0.000    4.667 
#    0.000    0.000    0.000    0.000    0.000    0.000 
#
# Total GULP energy -200459.951451 kJ/mol
# GULP energy per Si atom -5568.331985 kJ/mol
# Density = 1.930704 g / cm^3
# Si number density = 19.351080 Si / 1000 Ang^3
#
#
#
# Elastic Constant Matrix: (Units=GPa)
#
#
# Indices 1 2 3 4 5 6 
#
# 1 113.1944 31.5532 16.1789 0.0000 0.0000 0.0000
# 2 31.5532 159.3020 26.3161 0.0000 0.0000 0.0000
# 3 16.1789 26.3161 96.7895 0.0000 0.0000 0.0000
# 4 0.0000 0.0000 0.0000 8.1438 0.0000 0.0000
# 5 0.0000 0.0000 0.0000 0.0000 11.2069 0.0000
# 6 0.0000 0.0000 0.0000 0.0000 0.0000 13.3350
#
#
#
# Elastic Compliance Matrix: (Units=1/GPa)
#
#
# Indices 1 2 3 4 5 6 
#
# 1 0.009466 -0.001689 -0.001123 0.000000 0.000000 0.000000
# 2 -0.001689 0.006874 -0.001587 0.000000 0.000000 0.000000
# 3 -0.001123 -0.001587 0.010951 0.000000 0.000000 0.000000
# 4 0.000000 0.000000 0.000000 0.122793 0.000000 0.000000
# 5 0.000000 0.000000 0.000000 0.000000 0.089230 0.000000
# 6 0.000000 0.000000 0.000000 0.000000 0.000000 0.074990
#
#
# Mechanical properties :
#
#
# Convention : Reuss Voigt Hill
#
# Bulk Modulus (GPa) = 54.07507 57.48691 55.78099
# Shear Modulus (GPa) = 15.18528 26.21968 20.70248
#
# Velocity S-wave (km/s) = 2.80433 3.68495 3.27438
# Velocity P-wave (km/s) = 6.20408 6.91932 6.57144
#
# Compressibility (1/GPa) = 0.01849281
#
# Stress axis : x y z
#
# Youngs Moduli (GPa) = 105.64370 145.47344 91.31768
#
# Poissons Ratio (x) = 0.24576 0.10254
# Poissons Ratio (y) = 0.17847 0.14489
# Poissons Ratio (z) = 0.11863 0.23081
#
# Static dielectric constant tensor:
#      x y z
#    x 1.451010 0.000000 0.000000 
#    y 0.000000 1.670860 0.000000 
#    z 0.000000 0.000000 1.812100 
# 
# From -- ./inp_files/2677.got.cif
#   From: 2010.05.17/outbox.cif.g08.bks.cpg/sg49_2_cif.got.tgz:2677.got - 2010.06.03 21:02:19.
