data_PCOD9394355
_publ_section_title
;
Structure prediction by ZEFSAII (Michael W. Deem and Ramdas Pophale) SiO2 
 PCOD9394355
Probable space group: P C C M
;
_chemical_formula_sum "Si O2"
_cell_formula_units_Z 48
_cell_length_a 8.510740
_cell_length_b 8.474605
_cell_length_c 28.131669
_cell_angle_alpha 90.000000
_cell_angle_beta 90.000000
_cell_angle_gamma 90.000000
_cell_volume 2029.001121
_symmetry_space_group_name_H-M "P C C M"
_symmetry_group_IT_number 49
_symmetry_cell_setting 'orthorhombic'
loop_
_space_group_symop_operation_xyz
x,y,z
-x,-y,z
x,-y,1/2-z
-x,y,1/2-z
-x,-y,-z
x,y,-z
-x,y,1/2+z
x,-y,1/2+z
loop_
_atom_site_type_symbol
_atom_site_label
_atom_site_fract_x
_atom_site_fract_y
_atom_site_fract_z
Si Si1 0.161605 0.451033 0.552385
Si Si2 0.844744 0.178154 0.349486
Si Si3 0.187237 0.823373 0.816285
Si Si4 0.300524 0.203714 0.053956
Si Si5 0.424009 0.676545 0.886541
Si Si6 0.325640 0.320795 0.232084
O O1 0.121093 0.388071 0.500000
O O2 0.259701 0.611542 0.547751
O O3 0.272334 0.335933 0.579705
O O4 0.000000 0.500000 0.576894
O O5 0.824671 0.151954 0.406150
O O6 0.718537 0.294580 0.323473
O O7 0.020230 0.233666 0.336987
O O8 0.810877 0.007903 0.327070
O O9 0.341314 0.743149 0.839677
O O10 0.201492 0.783447 0.761107
O O11 0.460397 0.207379 0.084649
O O12 0.305168 0.136518 0.000000
O O13 0.500000 0.500000 0.880847
O O14 0.305097 0.500000 0.250000
O O15 0.500000 0.273987 0.250000
#
# Coordination Sequence:
#
# PCOD9394355 Si02
#       6
#     8   8   8   8   8   8
#     4   9  17  31  54  84 120 164 215 272 329 385
#     4  11  25  46  67  98 137 183 225 274 340 405
#     4  11  25  44  68  97 137 181 223 276 339 406
#     4  10  21  38  62  92 131 177 226 277 333 396
#     4  10  21  36  61  91 128 172 217 278 327 395
#     4  11  26  44  72 106 136 171 220 276 339 407
#
# _framework density 23.656960999999999
#
# number of rings (size 3 to 8) (size 9 to 14) (size 15 to 20)
#    0.000    1.667    0.000    3.500    7.000    8.000 
#    0.000    5.000    0.000    0.000    0.000    0.000 
#    0.000    0.000    0.000    0.000    0.000    0.000 
#
# Total GULP energy -267915.079312 kJ/mol
# GULP energy per Si atom -5581.564152 kJ/mol
# Density = 2.360312 g / cm^3
# Si number density = 23.656961 Si / 1000 Ang^3
#
#
#
# Elastic Constant Matrix: (Units=GPa)
#
#
# Indices 1 2 3 4 5 6 
#
# 1 114.1472 10.7852 51.4017 0.0000 0.0000 0.0000
# 2 10.7852 26.4725 23.5444 0.0000 0.0000 0.0000
# 3 51.4017 23.5444 160.0618 0.0000 0.0000 0.0000
# 4 0.0000 0.0000 0.0000 44.3868 0.0000 0.0000
# 5 0.0000 0.0000 0.0000 0.0000 39.2905 0.0000
# 6 0.0000 0.0000 0.0000 0.0000 0.0000 21.7451
#
#
#
# Elastic Compliance Matrix: (Units=1/GPa)
#
#
# Indices 1 2 3 4 5 6 
#
# 1 0.010289 -0.001442 -0.003092 0.000000 0.000000 0.000000
# 2 -0.001442 0.043663 -0.005960 0.000000 0.000000 0.000000
# 3 -0.003092 -0.005960 0.008117 0.000000 0.000000 0.000000
# 4 0.000000 0.000000 0.000000 0.022529 0.000000 0.000000
# 5 0.000000 0.000000 0.000000 0.000000 0.025451 0.000000
# 6 0.000000 0.000000 0.000000 0.000000 0.000000 0.045987
#
#
# Mechanical properties :
#
#
# Convention : Reuss Voigt Hill
#
# Bulk Modulus (GPa) = 24.34147 52.46049 38.40098
# Shear Modulus (GPa) = 26.21663 35.41450 30.81556
#
# Velocity S-wave (km/s) = 3.33257 3.87331 3.61307
# Velocity P-wave (km/s) = 5.01196 6.49823 5.80288
#
# Compressibility (1/GPa) = 0.04108215
#
# Stress axis : x y z
#
# Youngs Moduli (GPa) = 97.18844 22.90277 123.19469
#
# Poissons Ratio (x) = 0.03302 0.38094
# Poissons Ratio (y) = 0.14013 0.73419
# Poissons Ratio (z) = 0.30052 0.13649
#
# Static dielectric constant tensor:
#      x y z
#    x 1.928320 0.000000 0.000000 
#    y 0.000000 1.873690 0.000000 
#    z 0.000000 0.000000 1.975120 
# 
# From -- ./inp_files/26258.got.cif
#   From: 2010.05.17/outbox.cif.g08.bks.cpg/sg49_14_cif.got.tgz:26258.got - 2010.06.03 21:02:19.
